data_PCOD9250184
_publ_section_title
;
Structure prediction by ZEFSAII (Michael W. Deem and Ramdas Pophale) SiO2 
 PCOD9250184
Probable space group: P 21/C
;
_chemical_formula_sum "Si O2"
_cell_formula_units_Z 28
_cell_length_a 13.254824
_cell_length_b 8.223693
_cell_length_c 14.888785
_cell_angle_alpha 90.000000
_cell_angle_beta 46.398584
_cell_angle_gamma 90.000000
_cell_volume 1175.253458
_symmetry_space_group_name_H-M "P 21/C"
_symmetry_group_IT_number 14
_symmetry_cell_setting 'monoclinic'
loop_
_space_group_symop_operation_xyz
x,y,z
-x,1/2+y,1/2-z
-x,-y,-z
x,1/2-y,1/2+z
loop_
_atom_site_type_symbol
_atom_site_label
_atom_site_fract_x
_atom_site_fract_y
_atom_site_fract_z
Si Si1 0.023711 0.462548 0.659653
Si Si2 0.460107 0.740691 0.502067
Si Si3 0.754531 0.589908 0.615008
Si Si4 0.959225 0.414834 0.168437
Si Si5 0.493900 0.536706 0.658731
Si Si6 0.718019 0.967902 0.333277
Si Si7 0.795165 0.534666 0.098773
O O1 0.979842 0.274823 0.676295
O O2 0.880123 0.562463 0.750847
O O3 0.122812 0.498013 0.514878
O O4 0.098232 0.497605 0.707995
O O5 0.443742 0.634971 0.602014
O O6 0.458375 0.634483 0.413453
O O7 0.344995 0.880901 0.574199
O O8 0.613326 0.820639 0.414872
O O9 0.624722 0.612509 0.628491
O O10 0.710053 0.496172 0.731408
O O11 0.802504 0.771127 0.612958
O O12 0.864652 0.442918 0.139770
O O13 0.109558 0.489119 0.047171
O O14 0.365372 0.514210 0.805145
#
# Coordination Sequence:
#
# PCOD9250184 Si02
#       7
#     4   4   4   4   4   4   4
#     4  11  26  44  72 101 139 186 230 287 346 414
#     4  10  25  42  71  96 138 178 233 281 344 409
#     4  11  26  41  71 101 138 182 232 280 346 412
#     4  10  25  46  73 102 135 184 235 284 353 408
#     4  11  24  44  70  99 135 182 226 285 347 404
#     4  11  24  45  65 103 138 178 228 286 339 412
#     4  10  23  48  70 101 140 180 230 295 339 412
#
# _framework density 23.824648
#
# number of rings (size 3 to 8) (size 9 to 14) (size 15 to 20)
#    0.000    1.429    1.429    1.286   14.000    1.143 
#    5.143    0.000    0.000    0.000    0.000    0.000 
#    0.000    0.000    0.000    0.000    0.000    0.000 
#
# Total GULP energy -156793.900158 kJ/mol
# GULP energy per Si atom -5599.782148 kJ/mol
# Density = 2.377042 g / cm^3
# Si number density = 23.824648 Si / 1000 Ang^3
#
#
#
# Elastic Constant Matrix: (Units=GPa)
#
#
# Indices 1 2 3 4 5 6 
#
# 1 29.0309 -9.0789 -2.6263 0.0000 -0.7750 0.0000
# 2 -9.0789 45.7623 10.6445 0.0000 7.9188 0.0000
# 3 -2.6263 10.6445 128.1181 0.0000 -15.6052 0.0000
# 4 0.0000 0.0000 0.0000 24.5247 0.0000 2.4283
# 5 -0.7750 7.9188 -15.6052 0.0000 37.1020 0.0000
# 6 0.0000 0.0000 0.0000 2.4283 0.0000 21.8909
#
#
#
# Elastic Compliance Matrix: (Units=1/GPa)
#
#
# Indices 1 2 3 4 5 6 
#
# 1 0.036749 0.007420 0.000039 0.000000 -0.000799 0.000000
# 2 0.007420 0.025047 -0.002699 0.000000 -0.006326 0.000000
# 3 0.000039 -0.002699 0.008538 0.000000 0.004168 0.000000
# 4 0.000000 0.000000 0.000000 0.041228 0.000000 -0.004573
# 5 -0.000799 -0.006326 0.004168 0.000000 0.030039 0.000000
# 6 0.000000 0.000000 0.000000 -0.004573 0.000000 0.046188
#
#
# Mechanical properties :
#
#
# Convention : Reuss Voigt Hill
#
# Bulk Modulus (GPa) = 12.52301 22.31000 17.41650
# Shear Modulus (GPa) = 24.40368 30.30166 27.35267
#
# Velocity S-wave (km/s) = 3.20395 3.57019 3.39201
# Velocity P-wave (km/s) = 4.35371 5.13610 4.76100
#
# Compressibility (1/GPa) = 0.07985303
#
# Stress axis : x y z
#
# Youngs Moduli (GPa) = 27.21189 39.92552 117.12241
#
# Poissons Ratio (x) = -0.29624 -0.00462
# Poissons Ratio (y) = -0.20191 0.31616
# Poissons Ratio (z) = -0.00107 0.10778
#
# Static dielectric constant tensor:
#      x y z
#    x 1.892300 0.000000 -0.023780 
#    y 0.000000 1.892650 0.000000 
#    z -0.023780 0.000000 1.883730 
# 
# From -- ./inp_files/46704.got.cif
#   From: 2010.05.17/outbox.cif.g08.bks.cpg/sg14_24_cif.got.tgz:46704.got - 2010.06.03 17:49:19.
