data_PCOD9250271
_publ_section_title
;
Structure prediction by ZEFSAII (Michael W. Deem and Ramdas Pophale) SiO2 
 PCOD9250271
Probable space group: P 21/C
;
_chemical_formula_sum "Si O2"
_cell_formula_units_Z 28
_cell_length_a 29.575839
_cell_length_b 8.776200
_cell_length_c 29.986206
_cell_angle_alpha 90.000000
_cell_angle_beta 9.489943
_cell_angle_gamma 90.000000
_cell_volume 1283.271507
_symmetry_space_group_name_H-M "P 21/C"
_symmetry_group_IT_number 14
_symmetry_cell_setting 'monoclinic'
loop_
_space_group_symop_operation_xyz
x,y,z
-x,1/2+y,1/2-z
-x,-y,-z
x,1/2-y,1/2+z
loop_
_atom_site_type_symbol
_atom_site_label
_atom_site_fract_x
_atom_site_fract_y
_atom_site_fract_z
Si Si1 0.630081 0.476032 0.304867
Si Si2 0.503360 0.250000 0.500000
Si Si3 0.868114 0.075325 0.404337
Si Si4 0.714007 0.088630 0.163357
Si Si5 0.323212 0.924676 0.904337
Si Si6 0.959279 0.588631 0.163357
Si Si7 0.760186 0.523968 0.804866
O O1 0.680931 0.335854 0.289344
O O2 0.586153 0.620533 0.378923
O O3 0.355335 0.428551 0.545069
O O4 0.869203 0.513104 0.037802
O O5 0.259618 0.164147 0.710657
O O6 0.656002 0.120532 0.378921
O O7 0.766925 0.250001 0.500000
O O8 0.003686 0.051271 0.320868
O O9 0.607102 0.966653 0.651765
O O10 0.089368 0.033348 0.151765
O O11 0.645422 0.051271 0.179132
O O12 0.445475 0.071448 0.454930
O O13 0.879694 0.250000 0.999999
O O14 0.944807 0.986896 0.962198
#
# Coordination Sequence:
#
# PCOD9250271 Si02
#       7
#     4   4   4   4   4   4   4
#     4  11  23  41  62  93 125 167 211 258 313 371
#     4  10  24  40  64  90 128 164 212 264 310 368
#     4  11  24  45  70  99 132 176 217 271 332 397
#     4  11  22  42  66  90 127 169 209 251 322 387
#     4  11  24  45  70  99 132 176 217 271 332 397
#     4  11  22  42  66  90 127 169 209 251 322 387
#     4  11  23  41  62  93 125 167 211 258 313 371
#
# _framework density 21.819234999999999
#
# number of rings (size 3 to 8) (size 9 to 14) (size 15 to 20)
#    0.000    1.143    2.857    2.571    0.000   12.571 
#   15.429    0.000    0.000    0.000    0.000    0.000 
#    0.000    0.000    0.000    0.000    0.000    0.000 
#
# Total GULP energy -156614.997151 kJ/mol
# GULP energy per Si atom -5593.392755 kJ/mol
# Density = 2.176957 g / cm^3
# Si number density = 21.819235 Si / 1000 Ang^3
#
#
#
# Elastic Constant Matrix: (Units=GPa)
#
#
# Indices 1 2 3 4 5 6 
#
# 1 133.5935 54.4077 33.2369 0.0000 -0.1717 0.0000
# 2 54.4077 77.8592 9.4995 0.0000 2.0063 0.0000
# 3 33.2369 9.4995 103.0868 0.0000 1.5328 0.0000
# 4 0.0000 0.0000 0.0000 18.1552 0.0000 -3.6433
# 5 -0.1717 2.0063 1.5328 0.0000 52.0190 0.0000
# 6 0.0000 0.0000 0.0000 -3.6433 0.0000 -63.4390
#
#
#
# Elastic Compliance Matrix: (Units=1/GPa)
#
#
# Indices 1 2 3 4 5 6 
#
# 1 0.011291 -0.007541 -0.002952 0.000000 0.000415 0.000000
# 2 -0.007541 0.018037 0.000780 0.000000 -0.000744 0.000000
# 3 -0.002952 0.000780 0.010586 0.000000 -0.000352 0.000000
# 4 0.000000 0.000000 0.000000 0.054453 0.000000 -0.003127
# 5 0.000415 -0.000744 -0.000352 0.000000 0.019264 0.000000
# 6 0.000000 0.000000 0.000000 -0.003127 0.000000 -0.015584
#
#
# Mechanical properties :
#
#
# Convention : Reuss Voigt Hill
#
# Bulk Modulus (GPa) = 48.80611 56.53640 52.67126
# Shear Modulus (GPa) = 40.22428 15.84007 28.03217
#
# Velocity S-wave (km/s) = 4.29829 2.69730 3.58822
# Velocity P-wave (km/s) = 6.85935 5.97228 6.43112
#
# Compressibility (1/GPa) = 0.02048924
#
# Stress axis : x y z
#
# Youngs Moduli (GPa) = 88.56225 55.44073 94.46786
#
# Poissons Ratio (x) = 0.41808 0.27885
# Poissons Ratio (y) = 0.66785 -0.07371
# Poissons Ratio (z) = 0.26142 -0.04326
#
# Static dielectric constant tensor:
#      x y z
#    x 1.761700 0.000000 -0.002270 
#    y 0.000000 1.835330 0.000000 
#    z -0.002270 0.000000 1.812510 
# 
# From -- ./inp_files/80883.got.cif
#   From: 2010.05.17/outbox.cif.g08.bks.cpg/sg14_41_cif.got.tgz:80883.got - 2010.06.03 17:49:19.
