data_PCOD9250805
_publ_section_title
;
Structure prediction by ZEFSAII (Michael W. Deem and Ramdas Pophale) SiO2 
 PCOD9250805
Probable space group: P 21/C
;
_chemical_formula_sum "Si O2"
_cell_formula_units_Z 20
_cell_length_a 14.486505
_cell_length_b 5.608454
_cell_length_c 21.188706
_cell_angle_alpha 90.000000
_cell_angle_beta 153.847014
_cell_angle_gamma 90.000000
_cell_volume 758.791947
_symmetry_space_group_name_H-M "P 21/C"
_symmetry_group_IT_number 14
_symmetry_cell_setting 'monoclinic'
loop_
_space_group_symop_operation_xyz
x,y,z
-x,1/2+y,1/2-z
-x,-y,-z
x,1/2-y,1/2+z
loop_
_atom_site_type_symbol
_atom_site_label
_atom_site_fract_x
_atom_site_fract_y
_atom_site_fract_z
Si Si1 0.989017 0.831774 0.663851
Si Si2 0.654244 0.070276 0.537709
Si Si3 0.225069 0.345722 0.587522
Si Si4 0.633591 0.951160 0.145486
Si Si5 0.321989 0.841289 0.701358
O O1 0.931532 0.681128 0.567354
O O2 0.148768 0.700817 0.808365
O O3 0.773967 0.887172 0.567103
O O4 0.123558 0.067709 0.725865
O O5 0.500309 0.242652 0.404133
O O6 0.500000 0.000000 0.500000
O O7 0.458807 0.345106 0.701122
O O8 0.794998 0.399625 0.390738
O O9 0.213514 0.096087 0.618890
O O10 0.638315 0.159748 0.199349
O O11 0.500000 0.000000 0.000000
#
# Coordination Sequence:
#
# PCOD9250805 Si02
#       5
#     4   4   4   4   4
#     4  11  26  44  76 116 153 217 276 325 420 495
#     4  11  26  45  75 115 168 211 267 350 406 487
#     4  10  25  44  77 111 156 216 267 322 398 489
#     4  10  25  45  74 114 158 200 265 336 404 474
#     4  10  24  46  74 112 158 212 260 335 397 472
#
# _framework density 26.357688
#
# number of rings (size 3 to 8) (size 9 to 14) (size 15 to 20)
#    0.000    1.600    0.000    1.200   19.600    3.200 
#    0.000    0.000    0.000    0.000    0.000    0.000 
#    0.000    0.000    0.000    0.000    0.000    0.000 
#
# Total GULP energy -111926.205254 kJ/mol
# GULP energy per Si atom -5596.310263 kJ/mol
# Density = 2.629770 g / cm^3
# Si number density = 26.357688 Si / 1000 Ang^3
#
#
#
# Elastic Constant Matrix: (Units=GPa)
#
#
# Indices 1 2 3 4 5 6 
#
# 1 142.2323 67.8906 66.2054 0.0000 4.9937 0.0000
# 2 67.8906 151.1124 81.8088 0.0000 -5.3652 0.0000
# 3 66.2054 81.8088 93.5825 0.0000 26.3618 0.0000
# 4 0.0000 0.0000 0.0000 51.4387 0.0000 -5.8241
# 5 4.9937 -5.3652 26.3618 0.0000 54.7709 0.0000
# 6 0.0000 0.0000 0.0000 -5.8241 0.0000 44.3270
#
#
#
# Elastic Compliance Matrix: (Units=1/GPa)
#
#
# Indices 1 2 3 4 5 6 
#
# 1 0.010941 -0.000318 -0.008297 0.000000 0.002965 0.000000
# 2 -0.000318 0.015997 -0.016437 0.000000 0.009508 0.000000
# 3 -0.008297 -0.016437 0.036054 0.000000 -0.018207 0.000000
# 4 0.000000 0.000000 0.000000 0.019734 0.000000 0.002593
# 5 0.002965 0.009508 -0.018207 0.000000 0.027682 0.000000
# 6 0.000000 0.000000 0.000000 0.002593 0.000000 0.022900
#
#
# Mechanical properties :
#
#
# Convention : Reuss Voigt Hill
#
# Bulk Modulus (GPa) = 77.60392 90.97077 84.28734
# Shear Modulus (GPa) = 26.63712 41.50882 34.07297
#
# Velocity S-wave (km/s) = 3.18245 3.97272 3.59933
# Velocity P-wave (km/s) = 6.55824 7.45870 7.02291
#
# Compressibility (1/GPa) = 0.01288595
#
# Stress axis : x y z
#
# Youngs Moduli (GPa) = 91.40315 62.51155 27.73655
#
# Poissons Ratio (x) = 0.01990 0.23012
# Poissons Ratio (y) = 0.02910 0.45592
# Poissons Ratio (z) = 0.75835 1.02753
#
# Static dielectric constant tensor:
#      x y z
#    x 2.093400 0.000000 -0.011740 
#    y 0.000000 2.448540 0.000000 
#    z -0.011740 0.000000 2.021150 
# 
# From -- ./inp_files/27546.got.cif
#   From: 2010.05.17/outbox.cif.g08.bks.cpg/sg14_14_cif.got.tgz:27546.got - 2010.06.03 17:49:19.
