data_PCOD9250614
_publ_section_title
;
Structure prediction by ZEFSAII (Michael W. Deem and Ramdas Pophale) SiO2 
 PCOD9250614
Probable space group: P 21/C
;
_chemical_formula_sum "Si O2"
_cell_formula_units_Z 16
_cell_length_a 7.957575
_cell_length_b 18.703572
_cell_length_c 5.946486
_cell_angle_alpha 90.000000
_cell_angle_beta 40.874469
_cell_angle_gamma 90.000000
_cell_volume 579.177394
_symmetry_space_group_name_H-M "P 21/C"
_symmetry_group_IT_number 14
_symmetry_cell_setting 'monoclinic'
loop_
_space_group_symop_operation_xyz
x,y,z
-x,1/2+y,1/2-z
-x,-y,-z
x,1/2-y,1/2+z
loop_
_atom_site_type_symbol
_atom_site_label
_atom_site_fract_x
_atom_site_fract_y
_atom_site_fract_z
Si Si1 0.345901 0.225278 0.762714
Si Si2 0.214940 0.100281 0.168675
Si Si3 0.710717 0.157024 0.911079
Si Si4 0.247715 0.528723 0.373531
O O1 0.246017 0.242685 0.609670
O O2 0.634921 0.259587 0.480227
O O3 0.301593 0.142381 0.855725
O O4 0.940199 0.131131 0.519961
O O5 0.435472 0.124093 0.117396
O O6 0.231364 0.015834 0.122253
O O7 0.767063 0.113575 0.080654
O O8 0.000000 0.500000 0.500000
O O9 0.500000 0.500000 0.000000
#
# Coordination Sequence:
#
# PCOD9250614 Si02
#       4
#     4   4   4   4
#     4  10  24  44  70 104 146 194 242 298 364 438
#     4  11  24  44  70 103 146 195 247 304 371 443
#     4  11  24  44  70 103 146 195 247 304 371 443
#     4  12  24  42  72 106 146 192 247 310 373 442
#
# _framework density 27.625388999999998
#
# number of rings (size 3 to 8) (size 9 to 14) (size 15 to 20)
#    0.000    1.000    0.000    6.000    0.000   12.000 
#    0.000    5.000    0.000    0.000    0.000    0.000 
#    0.000    0.000    0.000    0.000    0.000    0.000 
#
# Total GULP energy -89357.506279 kJ/mol
# GULP energy per Si atom -5584.844142 kJ/mol
# Density = 2.756251 g / cm^3
# Si number density = 27.625389 Si / 1000 Ang^3
#
#
#
# Elastic Constant Matrix: (Units=GPa)
#
#
# Indices 1 2 3 4 5 6 
#
# 1 109.8977 9.9287 23.7750 0.0000 -8.9409 0.0000
# 2 9.9287 142.3051 73.7534 0.0000 -15.9685 0.0000
# 3 23.7750 73.7534 163.4612 0.0000 -3.1639 0.0000
# 4 0.0000 0.0000 0.0000 55.6769 0.0000 9.7163
# 5 -8.9409 -15.9685 -3.1639 0.0000 51.8944 0.0000
# 6 0.0000 0.0000 0.0000 9.7163 0.0000 54.2122
#
#
#
# Elastic Compliance Matrix: (Units=1/GPa)
#
#
# Indices 1 2 3 4 5 6 
#
# 1 0.009528 0.000288 -0.001484 0.000000 0.001640 0.000000
# 2 0.000288 0.009537 -0.004292 0.000000 0.002723 0.000000
# 3 -0.001484 -0.004292 0.008249 0.000000 -0.001074 0.000000
# 4 0.000000 0.000000 0.000000 0.018541 0.000000 -0.003323
# 5 0.001640 0.002723 -0.001074 0.000000 0.020325 0.000000
# 6 0.000000 0.000000 0.000000 -0.003323 0.000000 0.019042
#
#
# Mechanical properties :
#
#
# Convention : Reuss Voigt Hill
#
# Bulk Modulus (GPa) = 61.20629 70.06425 65.63527
# Shear Modulus (GPa) = 49.19129 52.90383 51.04756
#
# Velocity S-wave (km/s) = 4.22436 4.38087 4.30333
# Velocity P-wave (km/s) = 6.78215 7.14190 6.96434
#
# Compressibility (1/GPa) = 0.01633819
#
# Stress axis : x y z
#
# Youngs Moduli (GPa) = 104.95590 104.85230 121.21956
#
# Poissons Ratio (x) = -0.03025 0.17992
# Poissons Ratio (y) = -0.03028 0.52033
# Poissons Ratio (z) = 0.15578 0.45007
#
# Static dielectric constant tensor:
#      x y z
#    x 2.194580 0.000000 0.085400 
#    y 0.000000 2.333030 0.000000 
#    z 0.085400 0.000000 2.195810 
# 
# From -- ./inp_files/236.got.cif
#   From: 2010.05.17/outbox.cif.g08.bks.cpg/sg14_1_cif.got.tgz:236.got - 2010.06.03 17:49:19.
