data_PCOD9250192
_publ_section_title
;
Structure prediction by ZEFSAII (Michael W. Deem and Ramdas Pophale) SiO2 
 PCOD9250192
Probable space group: P 21/C
;
_chemical_formula_sum "Si O2"
_cell_formula_units_Z 20
_cell_length_a 4.913202
_cell_length_b 11.902532
_cell_length_c 15.011519
_cell_angle_alpha 90.000000
_cell_angle_beta 61.388999
_cell_angle_gamma 90.000000
_cell_volume 770.671394
_symmetry_space_group_name_H-M "P 21/C"
_symmetry_group_IT_number 14
_symmetry_cell_setting 'monoclinic'
loop_
_space_group_symop_operation_xyz
x,y,z
-x,1/2+y,1/2-z
-x,-y,-z
x,1/2-y,1/2+z
loop_
_atom_site_type_symbol
_atom_site_label
_atom_site_fract_x
_atom_site_fract_y
_atom_site_fract_z
Si Si1 0.465185 0.220447 0.912182
Si Si2 0.762955 0.506299 0.342256
Si Si3 0.340153 0.640142 0.950045
Si Si4 0.703368 0.929692 0.647433
Si Si5 0.844989 0.365368 0.578400
O O1 0.476257 0.312685 0.833318
O O2 0.727310 0.126637 0.861749
O O3 0.476138 0.296035 0.000656
O O4 0.139493 0.154352 0.967786
O O5 0.775765 0.533463 0.235659
O O6 0.030053 0.565299 0.357285
O O7 0.439409 0.567618 0.420419
O O8 0.463018 0.530455 0.880614
O O9 0.269535 0.737835 0.890153
O O10 0.026307 0.599512 0.047608
#
# Coordination Sequence:
#
# PCOD9250192 Si02
#       5
#     4   4   4   4   4
#     4  11  24  45  76  97 145 189 232 282 358 416
#     4  12  27  42  72 107 141 177 241 293 343 410
#     4  10  23  48  72  99 143 191 230 283 355 426
#     4  10  26  44  67 109 138 188 233 291 347 417
#     4  11  25  46  70 102 140 183 230 289 352 412
#
# _framework density 25.951398000000001
#
# number of rings (size 3 to 8) (size 9 to 14) (size 15 to 20)
#    0.000    1.200    2.000    1.800   11.200    0.000 
#    0.000    0.000    0.000    0.000    0.000    0.000 
#    0.000    0.000    0.000    0.000    0.000    0.000 
#
# Total GULP energy -112044.430342 kJ/mol
# GULP energy per Si atom -5602.221517 kJ/mol
# Density = 2.589233 g / cm^3
# Si number density = 25.951398 Si / 1000 Ang^3
#
#
#
# Elastic Constant Matrix: (Units=GPa)
#
#
# Indices 1 2 3 4 5 6 
#
# 1 103.2662 32.2115 26.7334 0.0000 24.0344 0.0000
# 2 32.2115 153.9710 67.4675 0.0000 11.0415 0.0000
# 3 26.7334 67.4675 122.8386 0.0000 32.3623 0.0000
# 4 0.0000 0.0000 0.0000 37.4564 0.0000 12.0718
# 5 24.0344 11.0415 32.3623 0.0000 33.5504 0.0000
# 6 0.0000 0.0000 0.0000 12.0718 0.0000 39.2218
#
#
#
# Elastic Compliance Matrix: (Units=1/GPa)
#
#
# Indices 1 2 3 4 5 6 
#
# 1 0.012245 -0.002351 0.000983 0.000000 -0.008947 0.000000
# 2 -0.002351 0.009139 -0.005576 0.000000 0.004055 0.000000
# 3 0.000983 -0.005576 0.014334 0.000000 -0.012696 0.000000
# 4 0.000000 0.000000 0.000000 0.029638 0.000000 -0.009122
# 5 -0.008947 0.004055 -0.012696 0.000000 0.047127 0.000000
# 6 0.000000 0.000000 0.000000 -0.009122 0.000000 0.028304
#
#
# Mechanical properties :
#
#
# Convention : Reuss Voigt Hill
#
# Bulk Modulus (GPa) = 45.80765 70.32229 58.06497
# Shear Modulus (GPa) = 30.87359 38.95661 34.91510
#
# Velocity S-wave (km/s) = 3.45290 3.87865 3.67195
# Velocity P-wave (km/s) = 5.79537 6.87133 6.35616
#
# Compressibility (1/GPa) = 0.02183041
#
# Stress axis : x y z
#
# Youngs Moduli (GPa) = 81.66794 109.41864 69.76292
#
# Poissons Ratio (x) = 0.25724 -0.06861
# Poissons Ratio (y) = 0.19200 0.38902
# Poissons Ratio (z) = -0.08032 0.61015
#
# Static dielectric constant tensor:
#      x y z
#    x 2.042500 0.000000 -0.003920 
#    y 0.000000 2.055480 0.000000 
#    z -0.003920 0.000000 2.045960 
# 
# From -- ./inp_files/36832.got.cif
#   From: 2010.05.17/outbox.cif.g08.bks.cpg/sg14_19_cif.got.tgz:36832.got - 2010.06.03 17:49:19.
