data_PCOD9250804
_publ_section_title
;
Structure prediction by ZEFSAII (Michael W. Deem and Ramdas Pophale) SiO2 
 PCOD9250804
Probable space group: P 21/C
;
_chemical_formula_sum "Si O2"
_cell_formula_units_Z 16
_cell_length_a 5.495409
_cell_length_b 4.897673
_cell_length_c 22.189820
_cell_angle_alpha 90.000000
_cell_angle_beta 94.173663
_cell_angle_gamma 90.000000
_cell_volume 595.648871
_symmetry_space_group_name_H-M "P 21/C"
_symmetry_group_IT_number 14
_symmetry_cell_setting 'monoclinic'
loop_
_space_group_symop_operation_xyz
x,y,z
-x,1/2+y,1/2-z
-x,-y,-z
x,1/2-y,1/2+z
loop_
_atom_site_type_symbol
_atom_site_label
_atom_site_fract_x
_atom_site_fract_y
_atom_site_fract_z
Si Si1 0.724162 0.705516 0.445468
Si Si2 0.334526 0.771576 0.244874
Si Si3 0.962845 0.447862 0.653341
Si Si4 0.609366 0.695977 0.074165
O O1 0.617645 0.399516 0.443177
O O2 0.765473 0.792926 0.515104
O O3 0.948361 0.713644 0.403960
O O4 0.507990 0.902117 0.418117
O O5 0.449200 0.477512 0.234433
O O6 0.147648 0.738901 0.296498
O O7 0.193253 0.896212 0.185862
O O8 0.764202 0.670865 0.629820
#
# Coordination Sequence:
#
# PCOD9250804 Si02
#       4
#     4   4   4   4
#     4  10  24  46  74 110 146 184 239 302 363 435
#     4  12  30  50  70 108 150 192 252 306 354 428
#     4  12  27  48  78 104 145 202 242 296 372 436
#     4  10  24  46  74 110 146 184 239 302 363 435
#
# _framework density 26.861466
#
# number of rings (size 3 to 8) (size 9 to 14) (size 15 to 20)
#    0.000    1.000    0.000    3.750    0.000   22.000 
#    0.000    7.500    0.000    4.500    0.000    0.000 
#    0.000    0.000    0.000    0.000    0.000    0.000 
#
# Total GULP energy -89998.270892 kJ/mol
# GULP energy per Si atom -5624.891931 kJ/mol
# Density = 2.680033 g / cm^3
# Si number density = 26.861466 Si / 1000 Ang^3
#
#
#
# Elastic Constant Matrix: (Units=GPa)
#
#
# Indices 1 2 3 4 5 6 
#
# 1 84.7290 20.7236 26.8025 0.0000 -17.3466 0.0000
# 2 20.7236 100.5806 21.6116 0.0000 -10.8184 0.0000
# 3 26.8025 21.6116 98.1603 0.0000 -19.1678 0.0000
# 4 0.0000 0.0000 0.0000 31.3967 0.0000 -2.5608
# 5 -17.3466 -10.8184 -19.1678 0.0000 62.2054 0.0000
# 6 0.0000 0.0000 0.0000 -2.5608 0.0000 37.2835
#
#
#
# Elastic Compliance Matrix: (Units=1/GPa)
#
#
# Indices 1 2 3 4 5 6 
#
# 1 0.013699 -0.001939 -0.002802 0.000000 0.002620 0.000000
# 2 -0.001939 0.010792 -0.001687 0.000000 0.000816 0.000000
# 3 -0.002802 -0.001687 0.011826 0.000000 0.002569 0.000000
# 4 0.000000 0.000000 0.000000 0.032030 0.000000 0.002200
# 5 0.002620 0.000816 0.002569 0.000000 0.017740 0.000000
# 6 0.000000 0.000000 0.000000 0.002200 0.000000 0.026973
#
#
# Mechanical properties :
#
#
# Convention : Reuss Voigt Hill
#
# Bulk Modulus (GPa) = 42.62462 46.86060 44.74261
# Shear Modulus (GPa) = 37.38706 40.46591 38.92649
#
# Velocity S-wave (km/s) = 3.73479 3.88553 3.81091
# Velocity P-wave (km/s) = 5.87376 6.13294 6.00475
#
# Compressibility (1/GPa) = 0.02346062
#
# Stress axis : x y z
#
# Youngs Moduli (GPa) = 72.99671 92.66053 84.56161
#
# Poissons Ratio (x) = 0.17964 0.23696
# Poissons Ratio (y) = 0.14152 0.14268
# Poissons Ratio (z) = 0.20455 0.15634
#
# Static dielectric constant tensor:
#      x y z
#    x 2.064290 0.000000 -0.012310 
#    y 0.000000 2.020240 0.000000 
#    z -0.012310 0.000000 2.082010 
# 
# From -- ./inp_files/62831.got.cif
#   From: 2010.05.17/outbox.cif.g08.bks.cpg/sg14_32_cif.got.tgz:62831.got - 2010.06.03 17:49:19.
