data_PCOD9250980
_publ_section_title
;
Structure prediction by ZEFSAII (Michael W. Deem and Ramdas Pophale) SiO2 
 PCOD9250980
Probable space group: P 21/C
;
_chemical_formula_sum "Si O2"
_cell_formula_units_Z 30
_cell_length_a 8.776180
_cell_length_b 13.992995
_cell_length_c 20.888699
_cell_angle_alpha 90.000000
_cell_angle_beta 30.402532
_cell_angle_gamma 90.000000
_cell_volume 1298.194602
_symmetry_space_group_name_H-M "P 21/C"
_symmetry_group_IT_number 14
_symmetry_cell_setting 'monoclinic'
loop_
_space_group_symop_operation_xyz
x,y,z
-x,1/2+y,1/2-z
-x,-y,-z
x,1/2-y,1/2+z
loop_
_atom_site_type_symbol
_atom_site_label
_atom_site_fract_x
_atom_site_fract_y
_atom_site_fract_z
Si Si1 0.830825 0.086128 0.097042
Si Si2 0.500000 0.500000 0.500000
Si Si3 0.302616 0.633807 0.224258
Si Si4 0.345979 0.500607 0.709118
Si Si5 0.112007 0.820171 0.102533
Si Si6 0.211070 0.253513 0.151121
Si Si7 0.276839 0.437162 0.040239
Si Si8 0.681728 0.687891 0.635267
O O1 0.763891 0.062765 0.193944
O O2 0.526920 0.092670 0.167028
O O3 0.050506 0.176541 0.014388
O O4 0.000000 0.000000 0.000000
O O5 0.389359 0.512376 0.617529
O O6 0.765005 0.425870 0.426686
O O7 0.469970 0.723180 0.197289
O O8 0.983118 0.665373 0.308634
O O9 0.539838 0.593043 0.088451
O O10 0.481731 0.594011 0.695546
O O11 0.014756 0.496821 0.857410
O O12 0.951306 0.778449 0.223862
O O13 0.871436 0.813290 0.132128
O O14 0.432576 0.766908 0.973293
O O15 0.181198 0.342353 0.113574
O O16 0.500000 0.500000 0.000000
#
# Coordination Sequence:
#
# PCOD9250980 Si02
#       8
#     4   2   4   4   4   4   4   4
#     4  10  25  43  73 108 142 190 256 304 384 470
#     4  12  24  44  78 108 144 202 248 314 368 462
#     4  12  26  47  79 103 155 205 246 326 387 454
#     4  11  25  47  72 109 146 193 253 310 382 455
#     4  12  28  44  80 112 157 197 259 318 386 463
#     4  12  27  49  74 115 150 204 255 315 383 459
#     4  12  28  45  74 111 150 196 254 315 383 455
#     4  11  25  45  75 111 144 196 254 313 380 458
#
# _framework density 23.109014999999999
#
# number of rings (size 3 to 8) (size 9 to 14) (size 15 to 20)
#    0.000    0.533    5.333    0.800    7.467    3.733 
#    0.000    0.000    0.000    0.000    0.000    0.000 
#    0.000    0.000    0.000    0.000    0.000    0.000 
#
# Total GULP energy -167248.243214 kJ/mol
# GULP energy per Si atom -5574.941440 kJ/mol
# Density = 2.305642 g / cm^3
# Si number density = 23.109015 Si / 1000 Ang^3
#
#
#
# Elastic Constant Matrix: (Units=GPa)
#
#
# Indices 1 2 3 4 5 6 
#
# 1 127.7341 22.7444 72.0606 0.0000 5.9137 0.0000
# 2 22.7444 44.9207 25.9741 0.0000 -0.8083 0.0000
# 3 72.0606 25.9741 176.6772 0.0000 15.0777 0.0000
# 4 0.0000 0.0000 0.0000 37.4810 0.0000 -3.9092
# 5 5.9137 -0.8083 15.0777 0.0000 51.9593 0.0000
# 6 0.0000 0.0000 0.0000 -3.9092 0.0000 41.1478
#
#
#
# Elastic Compliance Matrix: (Units=1/GPa)
#
#
# Indices 1 2 3 4 5 6 
#
# 1 0.010555 -0.003130 -0.003833 0.000000 -0.000138 0.000000
# 2 -0.003130 0.025365 -0.002580 0.000000 0.001500 0.000000
# 3 -0.003833 -0.002580 0.007761 0.000000 -0.001856 0.000000
# 4 0.000000 0.000000 0.000000 0.026947 0.000000 0.002560
# 5 -0.000138 0.001500 -0.001856 0.000000 0.019823 0.000000
# 6 0.000000 0.000000 0.000000 0.002560 0.000000 0.024546
#
#
# Mechanical properties :
#
#
# Convention : Reuss Voigt Hill
#
# Bulk Modulus (GPa) = 40.66016 65.65448 53.15732
# Shear Modulus (GPa) = 35.14116 41.35448 38.24782
#
# Velocity S-wave (km/s) = 3.90381 4.23488 4.07271
# Velocity P-wave (km/s) = 6.16058 7.23773 6.72077
#
# Compressibility (1/GPa) = 0.02459410
#
# Stress axis : x y z
#
# Youngs Moduli (GPa) = 94.74255 39.42380 128.84704
#
# Poissons Ratio (x) = 0.12341 0.49388
# Poissons Ratio (y) = 0.29658 0.33246
# Poissons Ratio (z) = 0.36315 0.10173
#
# Static dielectric constant tensor:
#      x y z
#    x 1.892740 0.000000 -0.007800 
#    y 0.000000 2.059450 0.000000 
#    z -0.007800 0.000000 1.837780 
# 
# From -- ./inp_files/65916.got.cif
#   From: 2010.05.17/outbox.cif.g08.bks.cpg/sg14_33_cif.got.tgz:65916.got - 2010.06.03 17:49:19.
