data_PCOD9250716
_publ_section_title
;
Structure prediction by ZEFSAII (Michael W. Deem and Ramdas Pophale) SiO2 
 PCOD9250716
Probable space group: P 21/C
;
_chemical_formula_sum "Si O2"
_cell_formula_units_Z 20
_cell_length_a 9.697615
_cell_length_b 5.026710
_cell_length_c 15.734132
_cell_angle_alpha 90.000000
_cell_angle_beta 83.943969
_cell_angle_gamma 90.000000
_cell_volume 762.712842
_symmetry_space_group_name_H-M "P 21/C"
_symmetry_group_IT_number 14
_symmetry_cell_setting 'monoclinic'
loop_
_space_group_symop_operation_xyz
x,y,z
-x,1/2+y,1/2-z
-x,-y,-z
x,1/2-y,1/2+z
loop_
_atom_site_type_symbol
_atom_site_label
_atom_site_fract_x
_atom_site_fract_y
_atom_site_fract_z
Si Si1 0.308622 0.098403 0.199427
Si Si2 0.378204 0.050155 0.859850
Si Si3 0.009243 0.753938 0.593195
Si Si4 0.135896 0.743870 0.819557
Si Si5 0.781895 0.853734 0.971298
O O1 0.461437 0.995927 0.166930
O O2 0.797282 0.358639 0.272269
O O3 0.323584 0.274007 0.283688
O O4 0.257254 0.250434 0.118872
O O5 0.280199 0.788301 0.862152
O O6 0.054540 0.013807 0.844914
O O7 0.344900 0.162309 0.954956
O O8 0.970228 0.015610 0.646565
O O9 0.909497 0.766581 0.516137
O O10 0.157970 0.652351 0.551211
#
# Coordination Sequence:
#
# PCOD9250716 Si02
#       5
#     4   4   4   4   4
#     4  12  23  45  72 107 146 192 241 294 369 422
#     4  11  24  46  69 107 146 189 240 309 349 438
#     4  10  24  48  70 104 145 182 243 301 350 431
#     4  11  22  46  73  98 146 188 228 305 356 413
#     4  10  24  45  73 105 141 196 237 298 363 427
#
# _framework density 26.222192
#
# number of rings (size 3 to 8) (size 9 to 14) (size 15 to 20)
#    0.000    1.200    6.000    0.600    0.000    8.800 
#   10.800    2.000    0.000    0.000    0.000    0.000 
#    0.000    0.000    0.000    0.000    0.000    0.000 
#
# Total GULP energy -111846.936128 kJ/mol
# GULP energy per Si atom -5592.346806 kJ/mol
# Density = 2.616251 g / cm^3
# Si number density = 26.222192 Si / 1000 Ang^3
#
#
#
# Elastic Constant Matrix: (Units=GPa)
#
#
# Indices 1 2 3 4 5 6 
#
# 1 136.2443 46.2174 74.0090 0.0000 -37.3585 0.0000
# 2 46.2174 126.6948 51.6211 0.0000 -15.9331 0.0000
# 3 74.0090 51.6211 215.7234 0.0000 -22.6588 0.0000
# 4 0.0000 0.0000 0.0000 22.6784 0.0000 -4.0616
# 5 -37.3585 -15.9331 -22.6588 0.0000 62.3190 0.0000
# 6 0.0000 0.0000 0.0000 -4.0616 0.0000 27.9743
#
#
#
# Elastic Compliance Matrix: (Units=1/GPa)
#
#
# Indices 1 2 3 4 5 6 
#
# 1 0.010939 -0.002267 -0.002685 0.000000 0.005002 0.000000
# 2 -0.002267 0.009359 -0.001407 0.000000 0.000522 0.000000
# 3 -0.002685 -0.001407 0.005912 0.000000 0.000180 0.000000
# 4 0.000000 0.000000 0.000000 0.045272 0.000000 0.006573
# 5 0.005002 0.000522 0.000180 0.000000 0.019244 0.000000
# 6 0.000000 0.000000 0.000000 0.006573 0.000000 0.036701
#
#
# Mechanical properties :
#
#
# Convention : Reuss Voigt Hill
#
# Bulk Modulus (GPa) = 74.11915 91.37306 82.74610
# Shear Modulus (GPa) = 34.56785 43.04866 38.80826
#
# Velocity S-wave (km/s) = 3.63473 4.05617 3.85122
# Velocity P-wave (km/s) = 6.77807 7.54043 7.16939
#
# Compressibility (1/GPa) = 0.01349179
#
# Stress axis : x y z
#
# Youngs Moduli (GPa) = 91.41727 106.84918 169.13970
#
# Poissons Ratio (x) = 0.24228 0.45412
# Poissons Ratio (y) = 0.20729 0.23794
# Poissons Ratio (z) = 0.24545 0.15031
#
# Static dielectric constant tensor:
#      x y z
#    x 2.016750 0.000000 0.043960 
#    y 0.000000 2.163570 0.000000 
#    z 0.043960 0.000000 2.144090 
# 
# From -- ./inp_files/54256.got.cif
#   From: 2010.05.17/outbox.cif.g08.bks.cpg/sg14_28_cif.got.tgz:54256.got - 2010.06.03 17:49:19.
