data_PCOD9250775
_publ_section_title
;
Structure prediction by ZEFSAII (Michael W. Deem and Ramdas Pophale) SiO2 
 PCOD9250775
Probable space group: P 21/C
;
_chemical_formula_sum "Si O2"
_cell_formula_units_Z 22
_cell_length_a 16.575163
_cell_length_b 11.350105
_cell_length_c 12.242245
_cell_angle_alpha 90.000000
_cell_angle_beta 25.866999
_cell_angle_gamma 90.000000
_cell_volume 1004.818527
_symmetry_space_group_name_H-M "P 21/C"
_symmetry_group_IT_number 14
_symmetry_cell_setting 'monoclinic'
loop_
_space_group_symop_operation_xyz
x,y,z
-x,1/2+y,1/2-z
-x,-y,-z
x,1/2-y,1/2+z
loop_
_atom_site_type_symbol
_atom_site_label
_atom_site_fract_x
_atom_site_fract_y
_atom_site_fract_z
Si Si1 0.912304 0.585235 0.017312
Si Si2 0.423036 0.839236 0.293676
Si Si3 0.500000 0.000000 0.000000
Si Si4 0.671114 0.455564 0.864680
Si Si5 0.215953 0.299109 0.182485
Si Si6 0.898500 0.311405 0.410129
O O1 0.718020 0.534000 0.214942
O O2 0.868639 0.712987 0.122863
O O3 0.000000 0.500000 0.000000
O O4 0.056287 0.601532 0.743914
O O5 0.397734 0.881047 0.447745
O O6 0.230753 0.792025 0.477960
O O7 0.506799 0.940077 0.114580
O O8 0.572607 0.734650 0.101158
O O9 0.781633 0.567612 0.777492
O O10 0.793156 0.374584 0.637461
O O11 0.500000 0.500000 0.000000
O O12 0.094666 0.276129 0.222582
#
# Coordination Sequence:
#
# PCOD9250775 Si02
#       6
#     4   4   2   4   4   4
#     4  11  26  44  73 104 141 190 248 300 372 449
#     4  11  26  47  73 106 147 195 250 306 384 448
#     4  10  24  46  72 102 142 188 240 308 362 440
#     4  12  27  48  73 111 157 197 250 321 389 458
#     4  11  26  45  72 105 145 198 247 313 376 455
#     4  12  26  45  74 104 147 191 251 308 376 452
#
# _framework density 21.894501000000002
#
# number of rings (size 3 to 8) (size 9 to 14) (size 15 to 20)
#    0.000    0.727    1.818    3.818    7.636    4.364 
#    0.000    0.000    0.000    0.000    0.000    0.000 
#    0.000    0.000    0.000    0.000    0.000    0.000 
#
# Total GULP energy -122632.436633 kJ/mol
# GULP energy per Si atom -5574.201665 kJ/mol
# Density = 2.184467 g / cm^3
# Si number density = 21.894501 Si / 1000 Ang^3
#
#
#
# Elastic Constant Matrix: (Units=GPa)
#
#
# Indices 1 2 3 4 5 6 
#
# 1 110.1918 26.2020 32.2076 0.0000 15.0160 0.0000
# 2 26.2020 44.4925 18.8975 0.0000 20.1420 0.0000
# 3 32.2076 18.8975 79.6268 0.0000 36.5548 0.0000
# 4 0.0000 0.0000 0.0000 26.3368 0.0000 0.5058
# 5 15.0160 20.1420 36.5548 0.0000 58.5426 0.0000
# 6 0.0000 0.0000 0.0000 0.5058 0.0000 48.2759
#
#
#
# Elastic Compliance Matrix: (Units=1/GPa)
#
#
# Indices 1 2 3 4 5 6 
#
# 1 0.011379 -0.005710 -0.003938 0.000000 0.001505 0.000000
# 2 -0.005710 0.029995 -0.001043 0.000000 -0.008204 0.000000
# 3 -0.003938 -0.001043 0.019304 0.000000 -0.010685 0.000000
# 4 0.000000 0.000000 0.000000 0.037977 0.000000 -0.000398
# 5 0.001505 -0.008204 -0.010685 0.000000 0.026190 0.000000
# 6 0.000000 0.000000 0.000000 -0.000398 0.000000 0.020718
#
#
# Mechanical properties :
#
#
# Convention : Reuss Voigt Hill
#
# Bulk Modulus (GPa) = 25.44738 43.21393 34.33066
# Shear Modulus (GPa) = 27.77091 37.09800 32.43446
#
# Velocity S-wave (km/s) = 3.56532 4.12077 3.85307
# Velocity P-wave (km/s) = 5.34758 6.51316 5.95894
#
# Compressibility (1/GPa) = 0.03929677
#
# Stress axis : x y z
#
# Youngs Moduli (GPa) = 87.88273 33.33864 51.80216
#
# Poissons Ratio (x) = 0.19035 0.20402
# Poissons Ratio (y) = 0.50178 0.05402
# Poissons Ratio (z) = 0.34612 0.03476
#
# Static dielectric constant tensor:
#      x y z
#    x 1.794350 0.000000 -0.033600 
#    y 0.000000 1.846700 0.000000 
#    z -0.033600 0.000000 1.771410 
# 
# From -- ./inp_files/32324.got.cif
#   From: 2010.05.17/outbox.cif.g08.bks.cpg/sg14_17_cif.got.tgz:32324.got - 2010.06.03 17:49:19.
