data_PCOD9250319
_publ_section_title
;
Structure prediction by ZEFSAII (Michael W. Deem and Ramdas Pophale) SiO2 
 PCOD9250319
Probable space group: P 21/C
;
_chemical_formula_sum "Si O2"
_cell_formula_units_Z 20
_cell_length_a 5.362212
_cell_length_b 22.094837
_cell_length_c 8.768147
_cell_angle_alpha 90.000000
_cell_angle_beta 60.156809
_cell_angle_gamma 90.000000
_cell_volume 901.067454
_symmetry_space_group_name_H-M "P 21/C"
_symmetry_group_IT_number 14
_symmetry_cell_setting 'monoclinic'
loop_
_space_group_symop_operation_xyz
x,y,z
-x,1/2+y,1/2-z
-x,-y,-z
x,1/2-y,1/2+z
loop_
_atom_site_type_symbol
_atom_site_label
_atom_site_fract_x
_atom_site_fract_y
_atom_site_fract_z
Si Si1 0.883738 0.807188 0.983727
Si Si2 0.142120 0.587580 0.817333
Si Si3 0.594218 0.970962 0.631867
Si Si4 0.079512 0.569593 0.477232
Si Si5 0.230141 0.783760 0.190178
O O1 0.568369 0.780250 0.050591
O O2 0.021772 0.794744 0.108566
O O3 0.870848 0.879902 0.970039
O O4 0.110842 0.776355 0.803170
O O5 0.355920 0.531977 0.785740
O O6 0.095337 0.583448 0.650928
O O7 0.214804 0.658474 0.811972
O O8 0.874406 0.568220 0.004740
O O9 0.369724 0.929167 0.789061
O O10 0.500000 0.000000 0.500000
O O11 0.000000 0.500000 0.500000
#
# Coordination Sequence:
#
# PCOD9250319 Si02
#       5
#     4   4   4   4   4
#     4  11  26  45  72 100 134 186 224 288 349 406
#     4  10  24  41  64  96 138 175 225 285 336 413
#     4  11  22  39  65 101 129 182 224 277 344 403
#     4  11  22  42  68  96 140 173 230 279 352 405
#     4  11  25  47  69  99 138 176 234 281 348 410
#
# _framework density 22.195896999999999
#
# number of rings (size 3 to 8) (size 9 to 14) (size 15 to 20)
#    0.000    1.200    2.000    3.000    5.600    3.200 
#    0.000    0.000    0.000    0.000    0.000    0.000 
#    0.000    0.000    0.000    0.000    0.000    0.000 
#
# Total GULP energy -111601.545523 kJ/mol
# GULP energy per Si atom -5580.077276 kJ/mol
# Density = 2.214538 g / cm^3
# Si number density = 22.195897 Si / 1000 Ang^3
#
#
#
# Elastic Constant Matrix: (Units=GPa)
#
#
# Indices 1 2 3 4 5 6 
#
# 1 49.8109 3.2242 2.0507 0.0000 -19.4887 0.0000
# 2 3.2242 78.8609 21.3643 0.0000 -6.3657 0.0000
# 3 2.0507 21.3643 61.1908 0.0000 -21.4811 0.0000
# 4 0.0000 0.0000 0.0000 20.7265 0.0000 -17.9216
# 5 -19.4887 -6.3657 -21.4811 0.0000 38.6369 0.0000
# 6 0.0000 0.0000 0.0000 -17.9216 0.0000 27.5897
#
#
#
# Elastic Compliance Matrix: (Units=1/GPa)
#
#
# Indices 1 2 3 4 5 6 
#
# 1 0.026130 -0.001169 0.005084 0.000000 0.015814 0.000000
# 2 -0.001169 0.014066 -0.005300 0.000000 -0.001219 0.000000
# 3 0.005084 -0.005300 0.023130 0.000000 0.014551 0.000000
# 4 0.000000 0.000000 0.000000 0.110071 0.000000 0.071499
# 5 0.015814 -0.001219 0.014551 0.000000 0.041748 0.000000
# 6 0.000000 0.000000 0.000000 0.071499 0.000000 0.082689
#
#
# Mechanical properties :
#
#
# Convention : Reuss Voigt Hill
#
# Bulk Modulus (GPa) = 16.51356 27.01565 21.76461
# Shear Modulus (GPa) = 15.58661 28.27218 21.92939
#
# Velocity S-wave (km/s) = 2.65284 3.57285 3.14665
# Velocity P-wave (km/s) = 4.10359 5.40538 4.79883
#
# Compressibility (1/GPa) = 0.06055629
#
# Stress axis : x y z
#
# Youngs Moduli (GPa) = 38.27092 71.09497 43.23301
#
# Poissons Ratio (x) = 0.08312 -0.21980
# Poissons Ratio (y) = 0.04474 0.22912
# Poissons Ratio (z) = -0.19457 0.37677
#
# Static dielectric constant tensor:
#      x y z
#    x 1.901640 0.000000 -0.109700 
#    y 0.000000 1.895190 0.000000 
#    z -0.109700 0.000000 1.941330 
# 
# From -- ./inp_files/5839.got.cif
#   From: 2010.05.17/outbox.cif.g08.bks.cpg/sg14_3_cif.got.tgz:5839.got - 2010.06.03 17:49:19.
