data_PCOD9250358
_publ_section_title
;
Structure prediction by ZEFSAII (Michael W. Deem and Ramdas Pophale) SiO2 
 PCOD9250358
Probable space group: P 21/C
;
_chemical_formula_sum "Si O2"
_cell_formula_units_Z 24
_cell_length_a 14.454303
_cell_length_b 12.796381
_cell_length_c 8.954513
_cell_angle_alpha 90.000000
_cell_angle_beta 145.387079
_cell_angle_gamma 90.000000
_cell_volume 940.799486
_symmetry_space_group_name_H-M "P 21/C"
_symmetry_group_IT_number 14
_symmetry_cell_setting 'monoclinic'
loop_
_space_group_symop_operation_xyz
x,y,z
-x,1/2+y,1/2-z
-x,-y,-z
x,1/2-y,1/2+z
loop_
_atom_site_type_symbol
_atom_site_label
_atom_site_fract_x
_atom_site_fract_y
_atom_site_fract_z
Si Si1 0.079535 0.698549 0.944030
Si Si2 0.310454 0.771835 0.992116
Si Si3 0.342297 0.425154 0.308057
Si Si4 0.972660 0.574321 0.320822
Si Si5 0.785933 0.544148 0.527682
Si Si6 0.531283 0.815579 0.540335
O O1 0.987922 0.803155 0.878621
O O2 0.942250 0.618235 0.725274
O O3 0.194960 0.715290 0.956134
O O4 0.199287 0.662557 0.233397
O O5 0.445489 0.831809 0.267315
O O6 0.401504 0.691296 0.002743
O O7 0.500000 0.500000 0.500000
O O8 0.277656 0.443855 0.389589
O O9 0.392117 0.301826 0.361959
O O10 0.195796 0.443789 0.993872
O O11 0.000000 0.500000 0.500000
O O12 0.131496 0.559901 0.425291
O O13 0.654833 0.593037 0.241653
#
# Coordination Sequence:
#
# PCOD9250358 Si02
#       6
#     4   4   4   4   4   4
#     4  11  24  47  74 104 149 190 250 303 375 437
#     4  10  24  41  75 102 138 195 237 301 367 449
#     4  12  29  48  74 109 156 196 250 314 374 447
#     4  12  29  46  75 113 147 197 257 310 369 453
#     4  12  27  49  78 107 151 201 249 310 376 443
#     4  11  24  47  72 105 145 193 242 297 381 433
#
# _framework density 25.510217999999998
#
# number of rings (size 3 to 8) (size 9 to 14) (size 15 to 20)
#    0.000    0.667    3.333    2.500   14.000    0.000 
#    0.000    4.167    0.000    0.000    0.000    0.000 
#    0.000    0.000    0.000    0.000    0.000    0.000 
#
# Total GULP energy -134634.969970 kJ/mol
# GULP energy per Si atom -5609.790415 kJ/mol
# Density = 2.545216 g / cm^3
# Si number density = 25.510218 Si / 1000 Ang^3
#
#
#
# Elastic Constant Matrix: (Units=GPa)
#
#
# Indices 1 2 3 4 5 6 
#
# 1 134.7414 3.7993 32.1459 0.0000 -7.8201 0.0000
# 2 3.7993 86.6460 23.4774 0.0000 6.0411 0.0000
# 3 32.1459 23.4774 214.6303 0.0000 -17.8847 0.0000
# 4 0.0000 0.0000 0.0000 27.1666 0.0000 -1.8279
# 5 -7.8201 6.0411 -17.8847 0.0000 42.6817 0.0000
# 6 0.0000 0.0000 0.0000 -1.8279 0.0000 26.8366
#
#
#
# Elastic Compliance Matrix: (Units=1/GPa)
#
#
# Indices 1 2 3 4 5 6 
#
# 1 0.007736 -0.000120 -0.001063 0.000000 0.000989 0.000000
# 2 -0.000120 0.012119 -0.001505 0.000000 -0.002368 0.000000
# 3 -0.001063 -0.001505 0.005165 0.000000 0.002182 0.000000
# 4 0.000000 0.000000 0.000000 0.036979 0.000000 0.002519
# 5 0.000989 -0.002368 0.002182 0.000000 0.024860 0.000000
# 6 0.000000 0.000000 0.000000 0.002519 0.000000 0.037434
#
#
# Mechanical properties :
#
#
# Convention : Reuss Voigt Hill
#
# Bulk Modulus (GPa) = 50.90653 61.65141 56.27897
# Shear Modulus (GPa) = 36.70580 44.44332 40.57456
#
# Velocity S-wave (km/s) = 3.79735 4.17847 3.99246
# Velocity P-wave (km/s) = 6.26300 6.89197 6.58500
#
# Compressibility (1/GPa) = 0.01964384
#
# Stress axis : x y z
#
# Youngs Moduli (GPa) = 129.26515 82.51253 193.61515
#
# Poissons Ratio (x) = 0.00991 0.20583
# Poissons Ratio (y) = 0.01553 0.29139
# Poissons Ratio (z) = 0.13742 0.12418
#
# Static dielectric constant tensor:
#      x y z
#    x 2.038670 0.000000 -0.013590 
#    y 0.000000 2.068210 0.000000 
#    z -0.013590 0.000000 1.974640 
# 
# From -- ./inp_files/16722.got.cif
#   From: 2010.05.17/outbox.cif.g08.bks.cpg/sg14_9_cif.got.tgz:16722.got - 2010.06.03 17:49:19.
