data_PCOD9250453
_publ_section_title
;
Structure prediction by ZEFSAII (Michael W. Deem and Ramdas Pophale) SiO2 
 PCOD9250453
Probable space group: P 21/C
;
_chemical_formula_sum "Si O2"
_cell_formula_units_Z 30
_cell_length_a 5.396675
_cell_length_b 19.744030
_cell_length_c 11.245799
_cell_angle_alpha 90.000000
_cell_angle_beta 78.362372
_cell_angle_gamma 90.000000
_cell_volume 1173.630922
_symmetry_space_group_name_H-M "P 21/C"
_symmetry_group_IT_number 14
_symmetry_cell_setting 'monoclinic'
loop_
_space_group_symop_operation_xyz
x,y,z
-x,1/2+y,1/2-z
-x,-y,-z
x,1/2-y,1/2+z
loop_
_atom_site_type_symbol
_atom_site_label
_atom_site_fract_x
_atom_site_fract_y
_atom_site_fract_z
Si Si1 0.092567 0.661211 0.411154
Si Si2 0.484143 0.544493 0.742733
Si Si3 0.427082 0.397292 0.034517
Si Si4 0.004433 0.964609 0.763878
Si Si5 0.293970 0.833135 0.144281
Si Si6 0.159790 0.222131 0.676122
Si Si7 0.520843 0.803839 0.683943
Si Si8 0.000000 0.500000 0.000000
O O1 0.970888 0.600908 0.348360
O O2 0.171724 0.642188 0.534866
O O3 0.342750 0.680933 0.313161
O O4 0.920037 0.727937 0.421814
O O5 0.399700 0.556749 0.891963
O O6 0.743109 0.503551 0.717571
O O7 0.503147 0.615491 0.672933
O O8 0.251712 0.507723 0.703650
O O9 0.375925 0.328543 0.112623
O O10 0.482285 0.370150 0.897748
O O11 0.177377 0.442114 0.047702
O O12 0.025002 0.951867 0.621049
O O13 0.400883 0.757769 0.121270
O O14 0.073630 0.824833 0.263020
O O15 0.231143 0.271124 0.779479
#
# Coordination Sequence:
#
# PCOD9250453 Si02
#       8
#     4   4   4   4   4   4   4   2
#     4  11  27  43  71 108 145 192 247 312 370 444
#     4  11  26  48  72 104 148 199 246 303 374 456
#     4  11  23  45  78 108 146 192 252 305 379 443
#     4  11  27  47  72 107 146 198 252 302 379 446
#     4  11  24  45  70 103 146 191 246 301 374 444
#     4  11  23  46  70 108 145 194 246 310 377 443
#     4  11  24  43  72 109 143 186 245 316 373 441
#     4  10  24  42  74 104 146 190 242 308 368 444
#
# _framework density 25.561699999999998
#
# number of rings (size 3 to 8) (size 9 to 14) (size 15 to 20)
#    0.000    1.067    1.333    4.000    7.467    3.200 
#    2.400    0.000    0.000    0.000    0.000    0.000 
#    0.000    0.000    0.000    0.000    0.000    0.000 
#
# Total GULP energy -167654.539762 kJ/mol
# GULP energy per Si atom -5588.484659 kJ/mol
# Density = 2.550352 g / cm^3
# Si number density = 25.561700 Si / 1000 Ang^3
#
#
#
# Elastic Constant Matrix: (Units=GPa)
#
#
# Indices 1 2 3 4 5 6 
#
# 1 80.7895 27.8323 13.7075 0.0000 17.3668 0.0000
# 2 27.8323 100.7463 34.2150 0.0000 15.1094 0.0000
# 3 13.7075 34.2150 83.1620 0.0000 27.8063 0.0000
# 4 0.0000 0.0000 0.0000 44.2517 0.0000 18.0121
# 5 17.3668 15.1094 27.8063 0.0000 37.3944 0.0000
# 6 0.0000 0.0000 0.0000 18.0121 0.0000 50.4402
#
#
#
# Elastic Compliance Matrix: (Units=1/GPa)
#
#
# Indices 1 2 3 4 5 6 
#
# 1 0.014743 -0.003511 0.001104 0.000000 -0.006249 0.000000
# 2 -0.003511 0.012438 -0.004530 0.000000 -0.000027 0.000000
# 3 0.001104 -0.004530 0.017656 0.000000 -0.011811 0.000000
# 4 0.000000 0.000000 0.000000 0.026441 0.000000 -0.009442
# 5 -0.006249 -0.000027 -0.011811 0.000000 0.038438 0.000000
# 6 0.000000 0.000000 0.000000 -0.009442 0.000000 0.023197
#
#
# Mechanical properties :
#
#
# Convention : Reuss Voigt Hill
#
# Bulk Modulus (GPa) = 32.29543 46.24525 39.27034
# Shear Modulus (GPa) = 31.82525 39.01345 35.41935
#
# Velocity S-wave (km/s) = 3.53234 3.91096 3.72646
# Velocity P-wave (km/s) = 5.41279 6.20685 5.82337
#
# Compressibility (1/GPa) = 0.03096414
#
# Stress axis : x y z
#
# Youngs Moduli (GPa) = 67.82688 80.39753 56.63938
#
# Poissons Ratio (x) = 0.28225 -0.06252
# Poissons Ratio (y) = 0.23812 0.25656
# Poissons Ratio (z) = -0.07487 0.36418
#
# Static dielectric constant tensor:
#      x y z
#    x 2.422720 0.000000 -0.257720 
#    y 0.000000 2.061130 0.000000 
#    z -0.257720 0.000000 2.117810 
# 
# From -- ./inp_files/21584.got.cif
#   From: 2010.05.17/outbox.cif.g08.bks.cpg/sg14_11_cif.got.tgz:21584.got - 2010.06.03 17:49:19.
