data_PCOD9250102
_publ_section_title
;
Structure prediction by ZEFSAII (Michael W. Deem and Ramdas Pophale) SiO2 
 PCOD9250102
Probable space group: P 21/C
;
_chemical_formula_sum "Si O2"
_cell_formula_units_Z 22
_cell_length_a 23.909211
_cell_length_b 4.869830
_cell_length_c 15.400342
_cell_angle_alpha 90.000000
_cell_angle_beta 28.212035
_cell_angle_gamma 90.000000
_cell_volume 847.672258
_symmetry_space_group_name_H-M "P 21/C"
_symmetry_group_IT_number 14
_symmetry_cell_setting 'monoclinic'
loop_
_space_group_symop_operation_xyz
x,y,z
-x,1/2+y,1/2-z
-x,-y,-z
x,1/2-y,1/2+z
loop_
_atom_site_type_symbol
_atom_site_label
_atom_site_fract_x
_atom_site_fract_y
_atom_site_fract_z
Si Si1 0.410321 0.830832 0.214525
Si Si2 0.158003 0.475185 0.861649
Si Si3 0.000000 0.000000 0.000000
Si Si4 0.026309 0.306213 0.774226
Si Si5 0.640615 0.831907 0.324470
Si Si6 0.791585 0.300472 0.380060
O O1 0.351944 0.643113 0.217285
O O2 0.325480 0.794083 0.411430
O O3 0.409681 0.145228 0.185259
O O4 0.543665 0.714617 0.032591
O O5 0.236262 0.303970 0.820368
O O6 0.237734 0.579479 0.674469
O O7 0.063986 0.268191 0.952014
O O8 0.073365 0.724384 0.012201
O O9 0.882767 0.060831 0.228873
O O10 0.139896 0.471386 0.654652
O O11 0.034797 0.030076 0.707416
#
# Coordination Sequence:
#
# PCOD9250102 Si02
#       6
#     4   4   2   4   4   4
#     4  10  23  46  72  99 133 180 231 279 332 405
#     4  11  25  41  65  97 140 174 221 285 336 404
#     4  10  24  40  60  90 140 174 216 270 334 408
#     4  11  24  39  64  90 126 177 222 261 327 393
#     4  10  23  46  72  99 133 180 231 279 332 405
#     4  11  25  41  65  97 140 174 221 285 336 404
#
# _framework density 25.953427999999999
#
# number of rings (size 3 to 8) (size 9 to 14) (size 15 to 20)
#    0.000    1.455    0.000    4.364   15.273    0.000 
#    3.273    0.000    0.000    0.000    0.000    0.000 
#    0.000    0.000    0.000    0.000    0.000    0.000 
#
# Total GULP energy -122903.609156 kJ/mol
# GULP energy per Si atom -5586.527689 kJ/mol
# Density = 2.589436 g / cm^3
# Si number density = 25.953428 Si / 1000 Ang^3
#
#
#
# Elastic Constant Matrix: (Units=GPa)
#
#
# Indices 1 2 3 4 5 6 
#
# 1 25.7486 -8.4718 -4.4798 0.0000 0.2772 0.0000
# 2 -8.4718 113.7190 16.1866 0.0000 2.6600 0.0000
# 3 -4.4798 16.1866 196.4980 0.0000 32.6690 0.0000
# 4 0.0000 0.0000 0.0000 39.3923 0.0000 -0.3904
# 5 0.2772 2.6600 32.6690 0.0000 35.3933 0.0000
# 6 0.0000 0.0000 0.0000 -0.3904 0.0000 23.2158
#
#
#
# Elastic Compliance Matrix: (Units=1/GPa)
#
#
# Indices 1 2 3 4 5 6 
#
# 1 0.039956 0.002880 0.000900 0.000000 -0.001360 0.000000
# 2 0.002880 0.009106 -0.000670 0.000000 -0.000089 0.000000
# 3 0.000900 -0.000670 0.006093 0.000000 -0.005580 0.000000
# 4 0.000000 0.000000 0.000000 0.025390 0.000000 0.000427
# 5 -0.001360 -0.000089 -0.005580 0.000000 0.033422 0.000000
# 6 0.000000 0.000000 0.000000 0.000427 0.000000 0.043081
#
#
# Mechanical properties :
#
#
# Convention : Reuss Voigt Hill
#
# Bulk Modulus (GPa) = 16.29327 38.04839 27.17083
# Shear Modulus (GPa) = 29.19114 41.78233 35.48674
#
# Velocity S-wave (km/s) = 3.35737 4.01670 3.70175
# Velocity P-wave (km/s) = 4.61744 6.01697 5.36306
#
# Compressibility (1/GPa) = 0.06137505
#
# Stress axis : x y z
#
# Youngs Moduli (GPa) = 25.02753 109.82282 164.13496
#
# Poissons Ratio (x) = -0.31633 -0.14768
# Poissons Ratio (y) = -0.07209 0.10991
# Poissons Ratio (z) = -0.02252 0.07354
#
# Static dielectric constant tensor:
#      x y z
#    x 3.052800 0.000000 0.949420 
#    y 0.000000 1.567710 0.000000 
#    z 0.949420 0.000000 2.823990 
# 
# From -- ./inp_files/50976.got.cif
#   From: 2010.05.17/outbox.cif.g08.bks.cpg/sg14_26_cif.got.tgz:50976.got - 2010.06.03 17:49:19.
