data_PCOD9250776
_publ_section_title
;
Structure prediction by ZEFSAII (Michael W. Deem and Ramdas Pophale) SiO2 
 PCOD9250776
Probable space group: P 21/C
;
_chemical_formula_sum "Si O2"
_cell_formula_units_Z 24
_cell_length_a 20.429054
_cell_length_b 4.697507
_cell_length_c 13.788853
_cell_angle_alpha 90.000000
_cell_angle_beta 43.956988
_cell_angle_gamma 90.000000
_cell_volume 918.495947
_symmetry_space_group_name_H-M "P 21/C"
_symmetry_group_IT_number 14
_symmetry_cell_setting 'monoclinic'
loop_
_space_group_symop_operation_xyz
x,y,z
-x,1/2+y,1/2-z
-x,-y,-z
x,1/2-y,1/2+z
loop_
_atom_site_type_symbol
_atom_site_label
_atom_site_fract_x
_atom_site_fract_y
_atom_site_fract_z
Si Si1 0.293134 0.650003 0.264029
Si Si2 0.753285 0.284532 0.480265
Si Si3 0.038726 0.620538 0.266082
Si Si4 0.500000 0.000000 0.500000
Si Si5 0.000000 0.500000 0.000000
Si Si6 0.219414 0.151480 0.232692
Si Si7 0.444765 0.984586 0.344342
O O1 0.238176 0.586765 0.421398
O O2 0.245223 0.473826 0.228428
O O3 0.279184 0.977150 0.249646
O O4 0.401340 0.569747 0.162203
O O5 0.848632 0.110092 0.359145
O O6 0.748235 0.528287 0.404559
O O7 0.657823 0.100966 0.583832
O O8 0.995715 0.313672 0.288414
O O9 0.006436 0.759459 0.401251
O O10 0.449538 0.908427 0.451985
O O11 0.890054 0.587114 0.136622
O O12 0.525963 0.810595 0.201230
#
# Coordination Sequence:
#
# PCOD9250776 Si02
#       7
#     4   4   4   2   2   4   4
#     4  12  27  44  71 105 140 188 238 296 353 430
#     4  11  26  47  73 105 145 190 238 299 361 427
#     4  11  25  45  73 105 144 187 239 296 360 430
#     4  12  28  48  76 104 146 194 238 302 356 426
#     4  10  24  46  72 102 142 190 232 300 358 426
#     4  11  27  45  71 105 143 184 243 292 360 426
#     4  12  29  49  76 110 146 190 243 297 361 428
#
# _framework density 26.129674999999999
#
# number of rings (size 3 to 8) (size 9 to 14) (size 15 to 20)
#    0.000    0.667    3.333    2.000    4.667   10.667 
#    0.000    0.000    0.000    0.000    0.000    0.000 
#    0.000    0.000    0.000    0.000    0.000    0.000 
#
# Total GULP energy -133746.678604 kJ/mol
# GULP energy per Si atom -5572.778275 kJ/mol
# Density = 2.607020 g / cm^3
# Si number density = 26.129675 Si / 1000 Ang^3
#
#
#
# Elastic Constant Matrix: (Units=GPa)
#
#
# Indices 1 2 3 4 5 6 
#
# 1 109.0963 21.4237 31.0883 0.0000 -11.5210 0.0000
# 2 21.4237 69.9703 9.4315 0.0000 -5.3679 0.0000
# 3 31.0883 9.4315 145.6393 0.0000 -12.0074 0.0000
# 4 0.0000 0.0000 0.0000 9.8420 0.0000 1.5889
# 5 -11.5210 -5.3679 -12.0074 0.0000 50.0716 0.0000
# 6 0.0000 0.0000 0.0000 1.5889 0.0000 33.3136
#
#
#
# Elastic Compliance Matrix: (Units=1/GPa)
#
#
# Indices 1 2 3 4 5 6 
#
# 1 0.010436 -0.002812 -0.001910 0.000000 0.001642 0.000000
# 2 -0.002812 0.015265 -0.000313 0.000000 0.000914 0.000000
# 3 -0.001910 -0.000313 0.007402 0.000000 0.001302 0.000000
# 4 0.000000 0.000000 0.000000 0.102394 0.000000 -0.004884
# 5 0.001642 0.000914 0.001302 0.000000 0.020759 0.000000
# 6 0.000000 0.000000 0.000000 -0.004884 0.000000 0.030251
#
#
# Mechanical properties :
#
#
# Convention : Reuss Voigt Hill
#
# Bulk Modulus (GPa) = 43.41664 49.84363 46.63013
# Shear Modulus (GPa) = 24.47929 36.16292 30.32111
#
# Velocity S-wave (km/s) = 3.06410 3.72422 3.41017
# Velocity P-wave (km/s) = 5.40094 6.13270 5.77842
#
# Compressibility (1/GPa) = 0.02303264
#
# Stress axis : x y z
#
# Youngs Moduli (GPa) = 95.82098 65.50900 135.10510
#
# Poissons Ratio (x) = 0.18421 0.25809
# Poissons Ratio (y) = 0.26944 0.04228
# Poissons Ratio (z) = 0.18304 0.02050
#
# Static dielectric constant tensor:
#      x y z
#    x 1.897620 0.000000 -0.023260 
#    y 0.000000 2.028060 0.000000 
#    z -0.023260 0.000000 1.941320 
# 
# From -- ./inp_files/49631.got.cif
#   From: 2010.05.17/outbox.cif.g08.bks.cpg/sg14_25_cif.got.tgz:49631.got - 2010.06.03 17:49:19.
