data_PCOD9250207
_publ_section_title
;
Structure prediction by ZEFSAII (Michael W. Deem and Ramdas Pophale) SiO2 
 PCOD9250207
Probable space group: P 21/C
;
_chemical_formula_sum "Si O2"
_cell_formula_units_Z 30
_cell_length_a 9.262552
_cell_length_b 18.842472
_cell_length_c 14.178449
_cell_angle_alpha 90.000000
_cell_angle_beta 151.545750
_cell_angle_gamma 90.000000
_cell_volume 1179.019175
_symmetry_space_group_name_H-M "P 21/C"
_symmetry_group_IT_number 14
_symmetry_cell_setting 'monoclinic'
loop_
_space_group_symop_operation_xyz
x,y,z
-x,1/2+y,1/2-z
-x,-y,-z
x,1/2-y,1/2+z
loop_
_atom_site_type_symbol
_atom_site_label
_atom_site_fract_x
_atom_site_fract_y
_atom_site_fract_z
Si Si1 0.541718 0.149613 0.331859
Si Si2 0.668893 0.475669 0.502939
Si Si3 0.196299 0.768281 0.880541
Si Si4 0.218366 0.107097 0.307446
Si Si5 0.592233 0.716881 0.435059
Si Si6 0.000000 0.500000 0.500000
Si Si7 0.554292 0.127265 0.680753
Si Si8 0.127741 0.079194 0.587895
O O1 0.345191 0.090570 0.276726
O O2 0.386958 0.170631 0.145976
O O3 0.603949 0.215627 0.439722
O O4 0.867838 0.122139 0.489874
O O5 0.500000 0.500000 0.500000
O O6 0.772237 0.514337 0.465594
O O7 0.426906 0.419558 0.323424
O O8 0.000909 0.451109 0.725061
O O9 0.004735 0.825668 0.829862
O O10 0.924453 0.729862 0.667893
O O11 0.395815 0.805390 0.913344
O O12 0.494839 0.117157 0.535594
O O13 0.421467 0.787978 0.298120
O O14 0.792961 0.429004 0.354632
O O15 0.236286 0.111260 0.551548
O O16 0.000000 0.000000 0.500000
#
# Coordination Sequence:
#
# PCOD9250207 Si02
#       8
#     4   4   4   4   4   2   4   4
#     4  12  27  46  81 108 156 202 252 328 397 468
#     4  11  27  47  77 104 147 204 250 316 384 460
#     4  11  25  47  69 117 147 197 251 317 389 476
#     4  11  26  46  75 111 149 192 259 315 387 472
#     4  11  26  45  76 108 155 198 249 320 395 461
#     4  10  26  44  74 108 148 198 258 314 382 460
#     4  10  23  49  71 106 152 192 254 318 378 471
#     4  11  27  49  72 108 148 200 256 311 391 468
#
# _framework density 25.444879
#
# number of rings (size 3 to 8) (size 9 to 14) (size 15 to 20)
#    0.000    1.067    2.667    2.400   14.933    0.533 
#    0.000    0.000    0.000    0.000    0.000    0.000 
#    0.000    0.000    0.000    0.000    0.000    0.000 
#
# Total GULP energy -167272.993501 kJ/mol
# GULP energy per Si atom -5575.766450 kJ/mol
# Density = 2.538697 g / cm^3
# Si number density = 25.444879 Si / 1000 Ang^3
#
#
#
# Elastic Constant Matrix: (Units=GPa)
#
#
# Indices 1 2 3 4 5 6 
#
# 1 222.8222 27.4715 32.5238 0.0000 15.7710 0.0000
# 2 27.4715 63.7498 -2.4517 0.0000 -2.5627 0.0000
# 3 32.5238 -2.4517 74.6231 0.0000 3.4623 0.0000
# 4 0.0000 0.0000 0.0000 33.8430 0.0000 7.3982
# 5 15.7710 -2.5627 3.4623 0.0000 45.5870 0.0000
# 6 0.0000 0.0000 0.0000 7.3982 0.0000 46.1991
#
#
#
# Elastic Compliance Matrix: (Units=1/GPa)
#
#
# Indices 1 2 3 4 5 6 
#
# 1 0.005245 -0.002420 -0.002283 0.000000 -0.001777 0.000000
# 2 -0.002420 0.016855 0.001531 0.000000 0.001668 0.000000
# 3 -0.002283 0.001531 0.014456 0.000000 -0.000222 0.000000
# 4 0.000000 0.000000 0.000000 0.030620 0.000000 -0.004903
# 5 -0.001777 0.001668 -0.000222 0.000000 0.022662 0.000000
# 6 0.000000 0.000000 0.000000 -0.004903 0.000000 0.022431
#
#
# Mechanical properties :
#
#
# Convention : Reuss Voigt Hill
#
# Bulk Modulus (GPa) = 33.09841 52.92024 43.00933
# Shear Modulus (GPa) = 38.85508 45.36927 42.11218
#
# Velocity S-wave (km/s) = 3.91196 4.22719 4.07263
# Velocity P-wave (km/s) = 5.78280 6.68346 6.24937
#
# Compressibility (1/GPa) = 0.03021293
#
# Stress axis : x y z
#
# Youngs Moduli (GPa) = 190.64955 59.32993 69.17373
#
# Poissons Ratio (x) = 0.14355 0.15793
# Poissons Ratio (y) = 0.46129 -0.10590
# Poissons Ratio (z) = 0.43528 -0.09083
#
# Static dielectric constant tensor:
#      x y z
#    x 2.025430 0.000000 0.000300 
#    y 0.000000 2.269090 0.000000 
#    z 0.000300 0.000000 2.035330 
# 
# From -- ./inp_files/42138.got.cif
#   From: 2010.05.17/outbox.cif.g08.bks.cpg/sg14_22_cif.got.tgz:42138.got - 2010.06.03 17:49:19.
