data_PCOD9250290
_publ_section_title
;
Structure prediction by ZEFSAII (Michael W. Deem and Ramdas Pophale) SiO2 
 PCOD9250290
Probable space group: P 21/C
;
_chemical_formula_sum "Si O2"
_cell_formula_units_Z 16
_cell_length_a 18.186380
_cell_length_b 5.235495
_cell_length_c 9.333821
_cell_angle_alpha 90.000000
_cell_angle_beta 48.677618
_cell_angle_gamma 90.000000
_cell_volume 667.432010
_symmetry_space_group_name_H-M "P 21/C"
_symmetry_group_IT_number 14
_symmetry_cell_setting 'monoclinic'
loop_
_space_group_symop_operation_xyz
x,y,z
-x,1/2+y,1/2-z
-x,-y,-z
x,1/2-y,1/2+z
loop_
_atom_site_type_symbol
_atom_site_label
_atom_site_fract_x
_atom_site_fract_y
_atom_site_fract_z
Si Si1 0.533998 0.953874 0.119742
Si Si2 0.281686 0.901724 0.980847
Si Si3 0.226994 0.953521 0.766635
Si Si4 0.114750 0.459645 0.859111
O O1 0.494614 0.695018 0.242254
O O2 0.500000 0.000000 0.000000
O O3 0.651474 0.953511 0.989726
O O4 0.274336 0.613640 0.050707
O O5 0.170690 0.004665 0.136058
O O6 0.309623 0.957033 0.782769
O O7 0.153031 0.186870 0.859260
O O8 0.165295 0.693610 0.878275
O O9 0.000000 0.500000 0.000000
#
# Coordination Sequence:
#
# PCOD9250290 Si02
#       4
#     4   4   4   4
#     4  12  28  46  75 106 143 188 241 296 365 426
#     4  10  26  42  72  95 143 169 235 277 345 405
#     4  10  24  40  68  96 136 175 223 274 342 394
#     4  10  24  41  68  96 137 176 224 275 340 408
#
# _framework density 23.972480000000001
#
# number of rings (size 3 to 8) (size 9 to 14) (size 15 to 20)
#    1.500    0.000    0.000    3.000   10.500    2.000 
#    0.000    0.000    0.000    0.000    0.000    0.000 
#    0.000    0.000    0.000    0.000    0.000    0.000 
#
# Total GULP energy -89189.853458 kJ/mol
# GULP energy per Si atom -5574.365841 kJ/mol
# Density = 2.391792 g / cm^3
# Si number density = 23.972480 Si / 1000 Ang^3
#
#
#
# Elastic Constant Matrix: (Units=GPa)
#
#
# Indices 1 2 3 4 5 6 
#
# 1 79.7436 34.0520 32.8347 0.0000 13.9209 0.0000
# 2 34.0520 156.8904 31.0442 0.0000 13.5036 0.0000
# 3 32.8347 31.0442 66.3042 0.0000 16.8197 0.0000
# 4 0.0000 0.0000 0.0000 29.1110 0.0000 -2.6346
# 5 13.9209 13.5036 16.8197 0.0000 62.9434 0.0000
# 6 0.0000 0.0000 0.0000 -2.6346 0.0000 33.6825
#
#
#
# Elastic Compliance Matrix: (Units=1/GPa)
#
#
# Indices 1 2 3 4 5 6 
#
# 1 0.016494 -0.002110 -0.006833 0.000000 -0.001369 0.000000
# 2 -0.002110 0.007321 -0.002256 0.000000 -0.000501 0.000000
# 3 -0.006833 -0.002256 0.020398 0.000000 -0.003456 0.000000
# 4 0.000000 0.000000 0.000000 0.034596 0.000000 0.002706
# 5 -0.001369 -0.000501 -0.003456 0.000000 0.017221 0.000000
# 6 0.000000 0.000000 0.000000 0.002706 0.000000 0.029901
#
#
# Mechanical properties :
#
#
# Convention : Reuss Voigt Hill
#
# Bulk Modulus (GPa) = 45.83686 55.42225 50.62955
# Shear Modulus (GPa) = 32.13362 38.81454 35.47408
#
# Velocity S-wave (km/s) = 3.66517 4.02821 3.85097
# Velocity P-wave (km/s) = 6.08880 6.69362 6.39836
#
# Compressibility (1/GPa) = 0.02181650
#
# Stress axis : x y z
#
# Youngs Moduli (GPa) = 60.62973 136.58683 49.02341
#
# Poissons Ratio (x) = 0.28820 0.33495
# Poissons Ratio (y) = 0.12793 0.11059
# Poissons Ratio (z) = 0.41426 0.30812
#
# Static dielectric constant tensor:
#      x y z
#    x 1.998890 0.000000 0.029860 
#    y 0.000000 1.972310 0.000000 
#    z 0.029860 0.000000 2.092270 
# 
# From -- ./inp_files/14853.got.cif
#   From: 2010.05.17/outbox.cif.g08.bks.cpg/sg14_8_cif.got.tgz:14853.got - 2010.06.03 17:49:19.
