data_PCOD9250165
_publ_section_title
;
Structure prediction by ZEFSAII (Michael W. Deem and Ramdas Pophale) SiO2 
 PCOD9250165
Probable space group: P 21/C
;
_chemical_formula_sum "Si O2"
_cell_formula_units_Z 26
_cell_length_a 5.235353
_cell_length_b 14.299917
_cell_length_c 13.330998
_cell_angle_alpha 90.000000
_cell_angle_beta 90.936479
_cell_angle_gamma 90.000000
_cell_volume 997.893369
_symmetry_space_group_name_H-M "P 21/C"
_symmetry_group_IT_number 14
_symmetry_cell_setting 'monoclinic'
loop_
_space_group_symop_operation_xyz
x,y,z
-x,1/2+y,1/2-z
-x,-y,-z
x,1/2-y,1/2+z
loop_
_atom_site_type_symbol
_atom_site_label
_atom_site_fract_x
_atom_site_fract_y
_atom_site_fract_z
Si Si1 0.650413 0.946320 0.183959
Si Si2 0.500000 0.000000 0.000000
Si Si3 0.149720 0.833974 0.126923
Si Si4 0.963585 0.660345 0.209924
Si Si5 0.824644 0.670362 0.437367
Si Si6 0.625798 0.847177 0.522386
Si Si7 0.254133 0.505853 0.109579
O O1 0.911382 0.887573 0.178314
O O2 0.572430 0.965093 0.297921
O O3 0.406056 0.896071 0.125856
O O4 0.660083 0.032767 0.108427
O O5 0.729689 0.929820 0.972284
O O6 0.179498 0.737536 0.186935
O O7 0.058717 0.808674 0.014646
O O8 0.883344 0.669549 0.322038
O O9 0.738502 0.681820 0.130252
O O10 0.046237 0.557218 0.176527
O O11 0.619862 0.752648 0.459557
O O12 0.809619 0.918942 0.461755
O O13 0.386384 0.913668 0.544045
#
# Coordination Sequence:
#
# PCOD9250165 Si02
#       7
#     4   2   4   4   4   4   4
#     4  11  25  46  71 108 149 194 246 310 369 446
#     4  10  24  40  74 100 150 186 242 298 372 440
#     4  10  26  46  72 108 150 191 249 309 374 443
#     4  11  24  45  74 106 143 195 250 303 373 445
#     4  10  23  47  72 108 148 193 245 314 373 443
#     4  10  24  49  68 106 149 190 252 306 371 444
#     4  11  25  43  76 104 145 201 246 304 371 447
#
# _framework density 26.054888999999999
#
# number of rings (size 3 to 8) (size 9 to 14) (size 15 to 20)
#    0.000    1.538    0.000    2.308   12.923    1.231 
#   13.846    0.000    0.000    0.000    0.000    0.000 
#    0.000    0.000    0.000    0.000    0.000    0.000 
#
# Total GULP energy -145065.748723 kJ/mol
# GULP energy per Si atom -5579.451874 kJ/mol
# Density = 2.599559 g / cm^3
# Si number density = 26.054889 Si / 1000 Ang^3
#
#
#
# Elastic Constant Matrix: (Units=GPa)
#
#
# Indices 1 2 3 4 5 6 
#
# 1 89.8730 23.6997 26.5231 0.0000 -10.2187 0.0000
# 2 23.6997 78.5846 40.3443 0.0000 -15.5281 0.0000
# 3 26.5231 40.3443 204.8903 0.0000 -18.0700 0.0000
# 4 0.0000 0.0000 0.0000 33.7340 0.0000 -9.7549
# 5 -10.2187 -15.5281 -18.0700 0.0000 22.5178 0.0000
# 6 0.0000 0.0000 0.0000 -9.7549 0.0000 34.4537
#
#
#
# Elastic Compliance Matrix: (Units=1/GPa)
#
#
# Indices 1 2 3 4 5 6 
#
# 1 0.012436 -0.002723 -0.000798 0.000000 0.003125 0.000000
# 2 -0.002723 0.016272 -0.002121 0.000000 0.008283 0.000000
# 3 -0.000798 -0.002121 0.005640 0.000000 0.002701 0.000000
# 4 0.000000 0.000000 0.000000 0.032287 0.000000 0.009141
# 5 0.003125 0.008283 0.002701 0.000000 0.053707 0.000000
# 6 0.000000 0.000000 0.000000 0.009141 0.000000 0.031613
#
#
# Mechanical properties :
#
#
# Convention : Reuss Voigt Hill
#
# Bulk Modulus (GPa) = 43.35911 61.60911 52.48411
# Shear Modulus (GPa) = 29.25231 36.99315 33.12273
#
# Velocity S-wave (km/s) = 3.35433 3.77213 3.56935
# Velocity P-wave (km/s) = 5.62847 6.53217 6.09708
#
# Compressibility (1/GPa) = 0.02306320
#
# Stress axis : x y z
#
# Youngs Moduli (GPa) = 80.41321 61.45505 177.31067
#
# Poissons Ratio (x) = 0.16735 0.14149
# Poissons Ratio (y) = 0.21898 0.37608
# Poissons Ratio (z) = 0.06417 0.13035
#
# Static dielectric constant tensor:
#      x y z
#    x 2.159300 0.000000 0.144940 
#    y 0.000000 1.842680 0.000000 
#    z 0.144940 0.000000 1.533910 
# 
# From -- ./inp_files/37354.got.cif
#   From: 2010.05.17/outbox.cif.g08.bks.cpg/sg14_19_cif.got.tgz:37354.got - 2010.06.03 17:49:19.
