data_PCOD9250030
_publ_section_title
;
Structure prediction by ZEFSAII (Michael W. Deem and Ramdas Pophale) SiO2 
 PCOD9250030
Probable space group: P 21/C
;
_chemical_formula_sum "Si O2"
_cell_formula_units_Z 24
_cell_length_a 10.292281
_cell_length_b 10.714312
_cell_length_c 8.953339
_cell_angle_alpha 90.000000
_cell_angle_beta 76.710171
_cell_angle_gamma 90.000000
_cell_volume 960.885946
_symmetry_space_group_name_H-M "P 21/C"
_symmetry_group_IT_number 14
_symmetry_cell_setting 'monoclinic'
loop_
_space_group_symop_operation_xyz
x,y,z
-x,1/2+y,1/2-z
-x,-y,-z
x,1/2-y,1/2+z
loop_
_atom_site_type_symbol
_atom_site_label
_atom_site_fract_x
_atom_site_fract_y
_atom_site_fract_z
Si Si1 0.463096 0.660612 0.701373
Si Si2 0.167470 0.879352 0.525705
Si Si3 0.742265 0.741791 0.477200
Si Si4 0.299289 0.855149 0.949523
Si Si5 0.876856 0.909741 0.689015
Si Si6 0.658709 0.979541 0.309456
O O1 0.601925 0.708069 0.592162
O O2 0.396490 0.768165 0.819574
O O3 0.372243 0.621702 0.586107
O O4 0.507861 0.545126 0.795103
O O5 0.171708 0.732188 0.502779
O O6 0.036860 0.916519 0.652348
O O7 0.167315 0.958837 0.373442
O O8 0.299290 0.915243 0.584076
O O9 0.837911 0.805989 0.574225
O O10 0.808939 0.634355 0.359031
O O11 0.708900 0.853104 0.369826
O O12 0.270465 0.976284 0.860624
#
# Coordination Sequence:
#
# PCOD9250030 Si02
#       6
#     4   4   4   4   4   4
#     4  12  24  43  67 100 135 177 221 272 340 396
#     4  10  25  46  68  99 137 180 221 282 343 383
#     4  11  22  44  69 101 131 181 224 276 335 401
#     4  12  25  43  68 101 137 178 219 280 335 406
#     4  10  23  45  72  94 138 178 228 276 332 402
#     4  11  24  44  68 101 133 176 224 273 340 397
#
# _framework density 24.976951
#
# number of rings (size 3 to 8) (size 9 to 14) (size 15 to 20)
#    0.000    1.000    5.000    0.500    2.333    6.667 
#    0.000    1.667    0.000    0.000    0.000    0.000 
#    0.000    0.000    0.000    0.000    0.000    0.000 
#
# Total GULP energy -134351.969392 kJ/mol
# GULP energy per Si atom -5597.998725 kJ/mol
# Density = 2.492010 g / cm^3
# Si number density = 24.976951 Si / 1000 Ang^3
#
#
#
# Elastic Constant Matrix: (Units=GPa)
#
#
# Indices 1 2 3 4 5 6 
#
# 1 77.4739 17.2441 58.0719 0.0000 11.0087 0.0000
# 2 17.2441 33.5808 15.1795 0.0000 3.3900 0.0000
# 3 58.0719 15.1795 131.8662 0.0000 1.0067 0.0000
# 4 0.0000 0.0000 0.0000 58.5814 0.0000 -0.0506
# 5 11.0087 3.3900 1.0067 0.0000 29.6392 0.0000
# 6 0.0000 0.0000 0.0000 -0.0506 0.0000 26.2263
#
#
#
# Elastic Compliance Matrix: (Units=1/GPa)
#
#
# Indices 1 2 3 4 5 6 
#
# 1 0.022060 -0.006583 -0.008903 0.000000 -0.007138 0.000000
# 2 -0.006583 0.033739 -0.000974 0.000000 -0.001381 0.000000
# 3 -0.008903 -0.000974 0.011593 0.000000 0.003024 0.000000
# 4 0.000000 0.000000 0.000000 0.017070 0.000000 0.000033
# 5 -0.007138 -0.001381 0.003024 0.000000 0.036446 0.000000
# 6 0.000000 0.000000 0.000000 0.000033 0.000000 0.038130
#
#
# Mechanical properties :
#
#
# Convention : Reuss Voigt Hill
#
# Bulk Modulus (GPa) = 29.00865 47.10131 38.05498
# Shear Modulus (GPa) = 24.57609 33.05108 28.81358
#
# Velocity S-wave (km/s) = 3.14020 3.64161 3.40016
# Velocity P-wave (km/s) = 4.97868 6.04819 5.53931
#
# Compressibility (1/GPa) = 0.03447248
#
# Stress axis : x y z
#
# Youngs Moduli (GPa) = 45.33002 29.63903 86.25801
#
# Poissons Ratio (x) = 0.19512 0.76793
# Poissons Ratio (y) = 0.29842 0.08402
# Poissons Ratio (z) = 0.40356 0.02887
#
# Static dielectric constant tensor:
#      x y z
#    x 1.928420 0.000000 0.012910 
#    y 0.000000 2.021370 0.000000 
#    z 0.012910 0.000000 1.984210 
# 
# From -- ./inp_files/12351.got.cif
#   From: 2010.05.17/outbox.cif.g08.bks.cpg/sg14_7_cif.got.tgz:12351.got - 2010.06.03 17:49:19.
