data_PCOD9250315
_publ_section_title
;
Structure prediction by ZEFSAII (Michael W. Deem and Ramdas Pophale) SiO2 
 PCOD9250315
Probable space group: P 21/C
;
_chemical_formula_sum "Si O2"
_cell_formula_units_Z 28
_cell_length_a 8.387668
_cell_length_b 20.393298
_cell_length_c 7.963533
_cell_angle_alpha 90.000000
_cell_angle_beta 51.932654
_cell_angle_gamma 90.000000
_cell_volume 1072.425955
_symmetry_space_group_name_H-M "P 21/C"
_symmetry_group_IT_number 14
_symmetry_cell_setting 'monoclinic'
loop_
_space_group_symop_operation_xyz
x,y,z
-x,1/2+y,1/2-z
-x,-y,-z
x,1/2-y,1/2+z
loop_
_atom_site_type_symbol
_atom_site_label
_atom_site_fract_x
_atom_site_fract_y
_atom_site_fract_z
Si Si1 0.429235 0.584343 0.472451
Si Si2 0.812693 0.453907 0.678230
Si Si3 0.982990 0.814994 0.974109
Si Si4 0.399654 0.286311 0.176535
Si Si5 0.170205 0.550796 0.944874
Si Si6 0.161951 0.158418 0.300681
Si Si7 0.308918 0.708310 0.729091
O O1 0.359595 0.546525 0.351459
O O2 0.664195 0.602819 0.320996
O O3 0.312413 0.655626 0.575946
O O4 0.346363 0.549276 0.692933
O O5 0.764889 0.463969 0.905978
O O6 0.000000 0.500000 0.500000
O O7 0.884533 0.379016 0.621885
O O8 0.877612 0.813710 0.859920
O O9 0.112293 0.748834 0.913659
O O10 0.801166 0.828216 0.224112
O O11 0.284041 0.218580 0.308383
O O12 0.551497 0.318612 0.211355
O O13 0.547986 0.266735 0.933691
O O14 0.046408 0.621009 0.013799
O O15 0.000000 0.500000 0.000000
#
# Coordination Sequence:
#
# PCOD9250315 Si02
#       7
#     4   4   4   4   4   4   4
#     4  11  23  47  70  99 145 176 231 294 355 415
#     4  11  25  46  70 103 138 189 242 290 348 420
#     4  11  23  40  69  96 140 178 225 289 344 420
#     4  11  22  41  61 100 135 171 227 272 363 421
#     4  11  24  46  73  97 135 191 237 289 354 412
#     4  10  24  41  64 104 136 180 230 291 348 428
#     4  11  25  39  67 104 133 181 222 286 355 425
#
# _framework density 26.109027000000001
#
# number of rings (size 3 to 8) (size 9 to 14) (size 15 to 20)
#    0.000    1.143    4.286    2.571    8.000    1.714 
#    0.000    3.571    0.000    0.000    0.000    0.000 
#    0.000    0.000    0.000    0.000    0.000    0.000 
#
# Total GULP energy -156501.002046 kJ/mol
# GULP energy per Si atom -5589.321502 kJ/mol
# Density = 2.604960 g / cm^3
# Si number density = 26.109027 Si / 1000 Ang^3
#
#
#
# Elastic Constant Matrix: (Units=GPa)
#
#
# Indices 1 2 3 4 5 6 
#
# 1 135.9403 35.6065 51.2400 0.0000 10.6865 0.0000
# 2 35.6065 93.3027 -22.1346 0.0000 6.1541 0.0000
# 3 51.2400 -22.1346 84.0379 0.0000 0.9186 0.0000
# 4 0.0000 0.0000 0.0000 38.7173 0.0000 0.4009
# 5 10.6865 6.1541 0.9186 0.0000 49.9307 0.0000
# 6 0.0000 0.0000 0.0000 0.4009 0.0000 40.6853
#
#
#
# Elastic Compliance Matrix: (Units=1/GPa)
#
#
# Indices 1 2 3 4 5 6 
#
# 1 0.013111 -0.007233 -0.009880 0.000000 -0.001733 0.000000
# 2 -0.007233 0.015531 0.008507 0.000000 -0.000523 0.000000
# 3 -0.009880 0.008507 0.020157 0.000000 0.000695 0.000000
# 4 0.000000 0.000000 0.000000 0.025831 0.000000 -0.000255
# 5 -0.001733 -0.000523 0.000695 0.000000 0.020450 0.000000
# 6 0.000000 0.000000 0.000000 -0.000255 0.000000 0.024581
#
#
# Mechanical properties :
#
#
# Convention : Reuss Voigt Hill
#
# Bulk Modulus (GPa) = 31.66115 49.18943 40.42529
# Shear Modulus (GPa) = 33.92049 42.43792 38.17920
#
# Velocity S-wave (km/s) = 3.60833 4.03601 3.82815
# Velocity P-wave (km/s) = 5.43258 6.37182 5.92085
#
# Compressibility (1/GPa) = 0.03158445
#
# Stress axis : x y z
#
# Youngs Moduli (GPa) = 76.27053 64.38856 49.61130
#
# Poissons Ratio (x) = 0.46574 0.49018
# Poissons Ratio (y) = 0.55168 -0.42202
# Poissons Ratio (z) = 0.75359 -0.54773
#
# Static dielectric constant tensor:
#      x y z
#    x 2.084450 0.000000 -0.057770 
#    y 0.000000 2.207070 0.000000 
#    z -0.057770 0.000000 2.101560 
# 
# From -- ./inp_files/10394.got.cif
#   From: 2010.05.17/outbox.cif.g08.bks.cpg/sg14_6_cif.got.tgz:10394.got - 2010.06.03 17:49:19.
