data_PCOD9250786
_publ_section_title
;
Structure prediction by ZEFSAII (Michael W. Deem and Ramdas Pophale) SiO2 
 PCOD9250786
Probable space group: P 21/C
;
_chemical_formula_sum "Si O2"
_cell_formula_units_Z 26
_cell_length_a 16.763540
_cell_length_b 5.203832
_cell_length_c 23.136740
_cell_angle_alpha 90.000000
_cell_angle_beta 150.266185
_cell_angle_gamma 90.000000
_cell_volume 1001.031299
_symmetry_space_group_name_H-M "P 21/C"
_symmetry_group_IT_number 14
_symmetry_cell_setting 'monoclinic'
loop_
_space_group_symop_operation_xyz
x,y,z
-x,1/2+y,1/2-z
-x,-y,-z
x,1/2-y,1/2+z
loop_
_atom_site_type_symbol
_atom_site_label
_atom_site_fract_x
_atom_site_fract_y
_atom_site_fract_z
Si Si1 0.246460 0.560175 0.945613
Si Si2 0.407897 0.457241 0.711543
Si Si3 0.396459 0.180555 0.338787
Si Si4 0.000000 0.500000 0.500000
Si Si5 0.800566 0.302445 0.774342
Si Si6 0.990103 0.687676 0.689065
Si Si7 0.891380 0.199135 0.035246
O O1 0.105712 0.669379 0.815926
O O2 0.230128 0.627684 0.003895
O O3 0.192716 0.262146 0.910466
O O4 0.415260 0.652102 0.028545
O O5 0.499266 0.728071 0.762051
O O6 0.392007 0.384182 0.767770
O O7 0.225865 0.495633 0.573468
O O8 0.323350 0.463111 0.298353
O O9 0.302936 0.947701 0.310739
O O10 0.897348 0.306859 0.390625
O O11 0.009209 0.262137 0.555840
O O12 0.929341 0.384492 0.806091
O O13 0.981630 0.444499 0.642877
#
# Coordination Sequence:
#
# PCOD9250786 Si02
#       7
#     4   4   4   2   4   4   4
#     4  12  26  46  78 104 151 198 266 310 377 447
#     4  12  24  42  70 106 144 187 240 310 380 439
#     4  12  27  47  75 114 154 198 250 324 384 453
#     4  10  24  46  72 108 148 196 244 302 380 464
#     4  11  28  49  74 114 156 202 250 310 394 449
#     4  11  27  47  75 106 147 204 260 310 371 464
#     4  11  24  43  69 105 138 192 242 310 363 451
#
# _framework density 25.973216000000001
#
# number of rings (size 3 to 8) (size 9 to 14) (size 15 to 20)
#    0.000    0.615    4.615    1.846    6.462    1.846 
#    0.000    0.000    0.000    0.000    0.000    0.000 
#    0.000    0.000    0.000    0.000    0.000    0.000 
#
# Total GULP energy -144826.334713 kJ/mol
# GULP energy per Si atom -5570.243643 kJ/mol
# Density = 2.591410 g / cm^3
# Si number density = 25.973216 Si / 1000 Ang^3
#
#
#
# Elastic Constant Matrix: (Units=GPa)
#
#
# Indices 1 2 3 4 5 6 
#
# 1 38.0741 3.4335 15.2602 0.0000 -9.9149 0.0000
# 2 3.4335 122.0814 37.4671 0.0000 18.7874 0.0000
# 3 15.2602 37.4671 126.8782 0.0000 3.8025 0.0000
# 4 0.0000 0.0000 0.0000 69.0307 0.0000 12.5225
# 5 -9.9149 18.7874 3.8025 0.0000 56.4864 0.0000
# 6 0.0000 0.0000 0.0000 12.5225 0.0000 54.0320
#
#
#
# Elastic Compliance Matrix: (Units=1/GPa)
#
#
# Indices 1 2 3 4 5 6 
#
# 1 0.029167 -0.000602 -0.003497 0.000000 0.005555 0.000000
# 2 -0.000602 0.009493 -0.002638 0.000000 -0.003085 0.000000
# 3 -0.003497 -0.002638 0.009092 0.000000 -0.000348 0.000000
# 4 0.000000 0.000000 0.000000 0.015122 0.000000 -0.003505
# 5 0.005555 -0.003085 -0.000348 0.000000 0.019728 0.000000
# 6 0.000000 0.000000 0.000000 -0.003505 0.000000 0.019320
#
#
# Mechanical properties :
#
#
# Convention : Reuss Voigt Hill
#
# Bulk Modulus (GPa) = 29.17395 44.37279 36.77337
# Shear Modulus (GPa) = 39.42555 51.30135 45.36345
#
# Velocity S-wave (km/s) = 3.90029 4.44910 4.18371
# Velocity P-wave (km/s) = 5.61602 6.59650 6.12591
#
# Compressibility (1/GPa) = 0.03427716
#
# Stress axis : x y z
#
# Youngs Moduli (GPa) = 34.28533 105.34399 109.99074
#
# Poissons Ratio (x) = 0.06342 0.38461
# Poissons Ratio (y) = 0.02064 0.29019
# Poissons Ratio (z) = 0.11989 0.27793
#
# Static dielectric constant tensor:
#      x y z
#    x 1.711430 0.000000 -0.057410 
#    y 0.000000 1.735980 0.000000 
#    z -0.057410 0.000000 2.026950 
# 
# From -- ./inp_files/74084.got.cif
#   From: 2010.05.17/outbox.cif.g08.bks.cpg/sg14_38_cif.got.tgz:74084.got - 2010.06.03 17:49:19.
