data_PCOD9250035
_publ_section_title
;
Structure prediction by ZEFSAII (Michael W. Deem and Ramdas Pophale) SiO2 
 PCOD9250035
Probable space group: P 21/C
;
_chemical_formula_sum "Si O2"
_cell_formula_units_Z 28
_cell_length_a 4.927230
_cell_length_b 26.041108
_cell_length_c 9.240704
_cell_angle_alpha 90.000000
_cell_angle_beta 107.564772
_cell_angle_gamma 90.000000
_cell_volume 1130.398960
_symmetry_space_group_name_H-M "P 21/C"
_symmetry_group_IT_number 14
_symmetry_cell_setting 'monoclinic'
loop_
_space_group_symop_operation_xyz
x,y,z
-x,1/2+y,1/2-z
-x,-y,-z
x,1/2-y,1/2+z
loop_
_atom_site_type_symbol
_atom_site_label
_atom_site_fract_x
_atom_site_fract_y
_atom_site_fract_z
Si Si1 0.189038 0.011088 0.394104
Si Si2 0.955198 0.121022 0.300392
Si Si3 0.017241 0.182721 0.857280
Si Si4 0.513192 0.185166 0.344090
Si Si5 0.847711 0.071215 0.857397
Si Si6 0.570356 0.899786 0.996370
Si Si7 0.235719 0.740090 0.400374
O O1 0.132390 0.069931 0.350307
O O2 0.500000 0.000000 0.500000
O O3 0.118757 0.972474 0.253518
O O4 0.000000 0.000000 0.500000
O O5 0.774381 0.144312 0.405081
O O6 0.133041 0.074480 0.003095
O O7 0.689007 0.107700 0.153194
O O8 0.324741 0.155878 0.928714
O O9 0.838674 0.130129 0.797538
O O10 0.911550 0.208122 0.991776
O O11 0.983873 0.222568 0.721512
O O12 0.536494 0.224721 0.478824
O O13 0.198962 0.160948 0.288579
O O14 0.609366 0.211526 0.208562
O O15 0.559652 0.065230 0.899075
#
# Coordination Sequence:
#
# PCOD9250035 Si02
#       7
#     4   4   4   4   4   4   4
#     4  12  28  48  77 117 151 200 257 314 398 469
#     4  12  27  47  77 110 158 195 256 325 378 463
#     4   9  23  45  78 107 155 195 261 318 379 459
#     4  11  27  48  76 111 155 201 259 316 388 453
#     4  10  23  45  76 106 152 194 246 319 374 464
#     4  10  23  45  73 106 147 197 247 311 387 444
#     4  10  23  52  74 113 147 211 258 318 386 463
#
# _framework density 24.770012999999999
#
# number of rings (size 3 to 8) (size 9 to 14) (size 15 to 20)
#    0.857    0.571    0.000    3.429    6.000    2.286 
#   12.857    1.429    0.000    2.571    0.000    0.000 
#    0.000    0.000    0.000    0.000    0.000    0.000 
#
# Total GULP energy -156559.635422 kJ/mol
# GULP energy per Si atom -5591.415551 kJ/mol
# Density = 2.471364 g / cm^3
# Si number density = 24.770013 Si / 1000 Ang^3
#
#
#
# Elastic Constant Matrix: (Units=GPa)
#
#
# Indices 1 2 3 4 5 6 
#
# 1 169.8355 26.2648 34.8374 0.0000 14.4126 0.0000
# 2 26.2648 89.8058 42.2101 0.0000 9.8196 0.0000
# 3 34.8374 42.2101 97.6197 0.0000 8.7531 0.0000
# 4 0.0000 0.0000 0.0000 34.5649 0.0000 8.2019
# 5 14.4126 9.8196 8.7531 0.0000 44.3377 0.0000
# 6 0.0000 0.0000 0.0000 8.2019 0.0000 36.0586
#
#
#
# Elastic Compliance Matrix: (Units=1/GPa)
#
#
# Indices 1 2 3 4 5 6 
#
# 1 0.006529 -0.000890 -0.001805 0.000000 -0.001569 0.000000
# 2 -0.000890 0.014262 -0.005693 0.000000 -0.001746 0.000000
# 3 -0.001805 -0.005693 0.013421 0.000000 -0.000802 0.000000
# 4 0.000000 0.000000 0.000000 0.030582 0.000000 -0.006956
# 5 -0.001569 -0.001746 -0.000802 0.000000 0.023609 0.000000
# 6 0.000000 0.000000 0.000000 -0.006956 0.000000 0.029315
#
#
# Mechanical properties :
#
#
# Convention : Reuss Voigt Hill
#
# Bulk Modulus (GPa) = 57.34587 62.65395 59.99991
# Shear Modulus (GPa) = 35.63676 39.92214 37.77945
#
# Velocity S-wave (km/s) = 3.79714 4.01897 3.90963
# Velocity P-wave (km/s) = 6.51352 6.84729 6.68249
#
# Compressibility (1/GPa) = 0.01743805
#
# Stress axis : x y z
#
# Youngs Moduli (GPa) = 153.16375 70.11706 74.50871
#
# Poissons Ratio (x) = 0.06239 0.13446
# Poissons Ratio (y) = 0.13628 0.42416
# Poissons Ratio (z) = 0.27640 0.39916
#
# Static dielectric constant tensor:
#      x y z
#    x 2.017070 0.000000 -0.233020 
#    y 0.000000 2.202330 0.000000 
#    z -0.233020 0.000000 2.824220 
# 
# From -- ./inp_files/6570.got.cif
#   From: 2010.05.17/outbox.cif.g08.bks.cpg/sg14_4_cif.got.tgz:6570.got - 2010.06.03 17:49:19.
