data_PCOD9250535
_publ_section_title
;
Structure prediction by ZEFSAII (Michael W. Deem and Ramdas Pophale) SiO2 
 PCOD9250535
Probable space group: P 21/C
;
_chemical_formula_sum "Si O2"
_cell_formula_units_Z 32
_cell_length_a 7.973273
_cell_length_b 10.394078
_cell_length_c 14.050606
_cell_angle_alpha 90.000000
_cell_angle_beta 100.711699
_cell_angle_gamma 90.000000
_cell_volume 1144.150915
_symmetry_space_group_name_H-M "P 21/C"
_symmetry_group_IT_number 14
_symmetry_cell_setting 'monoclinic'
loop_
_space_group_symop_operation_xyz
x,y,z
-x,1/2+y,1/2-z
-x,-y,-z
x,1/2-y,1/2+z
loop_
_atom_site_type_symbol
_atom_site_label
_atom_site_fract_x
_atom_site_fract_y
_atom_site_fract_z
Si Si1 0.133202 0.699917 0.884249
Si Si2 0.918219 0.472098 0.281282
Si Si3 0.633470 0.882969 0.101238
Si Si4 0.748409 0.449333 0.777921
Si Si5 0.779935 0.941111 0.488724
Si Si6 0.604668 0.846184 0.737622
Si Si7 0.036766 0.178711 0.965580
Si Si8 0.504513 0.756739 0.925452
O O1 0.039025 0.648119 0.782600
O O2 0.317226 0.740913 0.866597
O O3 0.183112 0.573547 0.953510
O O4 0.039848 0.806702 0.937750
O O5 0.734033 0.534329 0.241850
O O6 0.073279 0.565963 0.261780
O O7 0.914277 0.401112 0.383051
O O8 0.629498 0.987907 0.182121
O O9 0.667567 0.758902 0.169995
O O10 0.788609 0.893574 0.042915
O O11 0.483303 0.852960 0.012523
O O12 0.797226 0.530285 0.877840
O O13 0.598473 0.359524 0.805928
O O14 0.908438 0.829773 0.541225
O O15 0.595027 0.871805 0.475682
O O16 0.619019 0.797928 0.848026
#
# Coordination Sequence:
#
# PCOD9250535 Si02
#       8
#     4   4   4   4   4   4   4   4
#     4  12  24  43  76 112 140 194 253 302 370 447
#     4  11  26  47  73 107 151 195 246 304 381 444
#     4  10  24  48  68 104 148 195 239 312 371 436
#     4  11  24  46  73 103 146 192 248 299 374 442
#     4  11  21  45  71 104 145 185 242 311 353 435
#     4  12  26  48  76 107 151 197 247 314 374 445
#     4  10  24  43  71 105 145 188 243 310 365 441
#     4  11  25  44  72 106 145 192 242 304 372 443
#
# _framework density 27.968337999999999
#
# number of rings (size 3 to 8) (size 9 to 14) (size 15 to 20)
#    0.000    1.000    2.500    3.750    3.500    1.500 
#    6.750    3.125    0.000    0.000    0.000    0.000 
#    0.000    0.000    0.000    0.000    0.000    0.000 
#
# Total GULP energy -178804.437073 kJ/mol
# GULP energy per Si atom -5587.638659 kJ/mol
# Density = 2.790468 g / cm^3
# Si number density = 27.968338 Si / 1000 Ang^3
#
#
#
# Elastic Constant Matrix: (Units=GPa)
#
#
# Indices 1 2 3 4 5 6 
#
# 1 108.9493 37.7450 4.9986 0.0000 -24.7219 0.0000
# 2 37.7450 98.8188 42.3930 0.0000 -5.7803 0.0000
# 3 4.9986 42.3930 116.8049 0.0000 -28.8307 0.0000
# 4 0.0000 0.0000 0.0000 45.6021 0.0000 -6.3341
# 5 -24.7219 -5.7803 -28.8307 0.0000 37.4298 0.0000
# 6 0.0000 0.0000 0.0000 -6.3341 0.0000 38.1580
#
#
#
# Elastic Compliance Matrix: (Units=1/GPa)
#
#
# Indices 1 2 3 4 5 6 
#
# 1 0.013964 -0.006679 0.004752 0.000000 0.011851 0.000000
# 2 -0.006679 0.015285 -0.007122 0.000000 -0.007537 0.000000
# 3 0.004752 -0.007122 0.014133 0.000000 0.012925 0.000000
# 4 0.000000 0.000000 0.000000 0.022446 0.000000 0.003726
# 5 0.011851 -0.007537 0.012925 0.000000 0.043336 0.000000
# 6 0.000000 0.000000 0.000000 0.003726 0.000000 0.026825
#
#
# Mechanical properties :
#
#
# Convention : Reuss Voigt Hill
#
# Bulk Modulus (GPa) = 39.55148 54.98292 47.26720
# Shear Modulus (GPa) = 30.76637 40.20041 35.48339
#
# Velocity S-wave (km/s) = 3.32029 3.79536 3.56574
# Velocity P-wave (km/s) = 5.37320 6.23763 5.82148
#
# Compressibility (1/GPa) = 0.02528351
#
# Stress axis : x y z
#
# Youngs Moduli (GPa) = 71.61457 65.42353 70.75675
#
# Poissons Ratio (x) = 0.43695 -0.33621
# Poissons Ratio (y) = 0.47830 0.50392
# Poissons Ratio (z) = -0.34029 0.46594
#
# Static dielectric constant tensor:
#      x y z
#    x 2.197020 0.000000 0.027330 
#    y 0.000000 2.288100 0.000000 
#    z 0.027330 0.000000 2.154650 
# 
# From -- ./inp_files/40341.got.cif
#   From: 2010.05.17/outbox.cif.g08.bks.cpg/sg14_21_cif.got.tgz:40341.got - 2010.06.03 17:49:19.
