data_PCOD9250359
_publ_section_title
;
Structure prediction by ZEFSAII (Michael W. Deem and Ramdas Pophale) SiO2 
 PCOD9250359
Probable space group: P 21/C
;
_chemical_formula_sum "Si O2"
_cell_formula_units_Z 24
_cell_length_a 7.859641
_cell_length_b 13.174332
_cell_length_c 8.721299
_cell_angle_alpha 90.000000
_cell_angle_beta 90.648869
_cell_angle_gamma 90.000000
_cell_volume 902.993530
_symmetry_space_group_name_H-M "P 21/C"
_symmetry_group_IT_number 14
_symmetry_cell_setting 'monoclinic'
loop_
_space_group_symop_operation_xyz
x,y,z
-x,1/2+y,1/2-z
-x,-y,-z
x,1/2-y,1/2+z
loop_
_atom_site_type_symbol
_atom_site_label
_atom_site_fract_x
_atom_site_fract_y
_atom_site_fract_z
Si Si1 0.406567 0.030657 0.662404
Si Si2 0.435246 0.704568 0.729893
Si Si3 0.865583 0.566053 0.605508
Si Si4 0.197178 0.742485 0.971200
Si Si5 0.037443 0.208275 0.285363
Si Si6 0.363465 0.394135 0.682351
O O1 0.229695 0.007088 0.753023
O O2 0.557187 0.002924 0.783932
O O3 0.500000 0.000000 0.500000
O O4 0.405422 0.152346 0.684014
O O5 0.284270 0.677258 0.842759
O O6 0.348021 0.700020 0.562932
O O7 0.482842 0.822841 0.756483
O O8 0.939250 0.670984 0.678776
O O9 0.714338 0.603719 0.488154
O O10 0.000000 0.500000 0.500000
O O11 0.055822 0.803773 0.877207
O O12 0.094536 0.675046 0.087840
O O13 0.207718 0.143492 0.286416
#
# Coordination Sequence:
#
# PCOD9250359 Si02
#       6
#     4   4   4   4   4   4
#     4  12  29  48  80 119 157 209 274 331 393 491
#     4  11  24  48  73 114 154 201 265 331 395 479
#     4  12  29  50  79 115 166 209 267 336 408 482
#     4  10  24  41  78 102 151 203 253 325 394 473
#     4  11  24  47  74 115 151 210 263 321 413 471
#     4  12  27  46  82 110 159 211 265 329 413 465
#
# _framework density 26.578261000000001
#
# number of rings (size 3 to 8) (size 9 to 14) (size 15 to 20)
#    0.000    0.667    3.333    2.500   11.667    1.333 
#    0.000    1.667    0.000    0.000    0.000    0.000 
#    0.000    0.000    0.000    0.000    0.000    0.000 
#
# Total GULP energy -133638.044242 kJ/mol
# GULP energy per Si atom -5568.251843 kJ/mol
# Density = 2.651777 g / cm^3
# Si number density = 26.578261 Si / 1000 Ang^3
#
#
#
# Elastic Constant Matrix: (Units=GPa)
#
#
# Indices 1 2 3 4 5 6 
#
# 1 125.6403 12.1145 47.2076 0.0000 -21.8914 0.0000
# 2 12.1145 39.0920 -11.6964 0.0000 -0.1660 0.0000
# 3 47.2076 -11.6964 121.9475 0.0000 4.6331 0.0000
# 4 0.0000 0.0000 0.0000 29.8903 0.0000 2.2652
# 5 -21.8914 -0.1660 4.6331 0.0000 52.6739 0.0000
# 6 0.0000 0.0000 0.0000 2.2652 0.0000 28.6470
#
#
#
# Elastic Compliance Matrix: (Units=1/GPa)
#
#
# Indices 1 2 3 4 5 6 
#
# 1 0.011201 -0.004947 -0.005004 0.000000 0.005080 0.000000
# 2 -0.004947 0.028522 0.004741 0.000000 -0.002383 0.000000
# 3 -0.005004 0.004741 0.010706 0.000000 -0.003006 0.000000
# 4 0.000000 0.000000 0.000000 0.033657 0.000000 -0.002661
# 5 0.005080 -0.002383 -0.003006 0.000000 0.021353 0.000000
# 6 0.000000 0.000000 0.000000 -0.002661 0.000000 0.035118
#
#
# Mechanical properties :
#
#
# Convention : Reuss Voigt Hill
#
# Bulk Modulus (GPa) = 24.99311 42.43681 33.71496
# Shear Modulus (GPa) = 30.42961 38.17917 34.30439
#
# Velocity S-wave (km/s) = 3.38732 3.79421 3.59652
# Velocity P-wave (km/s) = 4.97218 5.93263 5.47351
#
# Compressibility (1/GPa) = 0.04001103
#
# Stress axis : x y z
#
# Youngs Moduli (GPa) = 89.27480 35.06056 93.40389
#
# Poissons Ratio (x) = 0.17344 0.46736
# Poissons Ratio (y) = 0.44162 -0.44284
# Poissons Ratio (z) = 0.44670 -0.16623
#
# Static dielectric constant tensor:
#      x y z
#    x 2.199080 0.000000 -0.090330 
#    y 0.000000 2.124130 0.000000 
#    z -0.090330 0.000000 2.233880 
# 
# From -- ./inp_files/8524.got.cif
#   From: 2010.05.17/outbox.cif.g08.bks.cpg/sg14_5_cif.got.tgz:8524.got - 2010.06.03 17:49:19.
