data_PCOD9250027
_publ_section_title
;
Structure prediction by ZEFSAII (Michael W. Deem and Ramdas Pophale) SiO2 
 PCOD9250027
Probable space group: P 21/C
;
_chemical_formula_sum "Si O2"
_cell_formula_units_Z 20
_cell_length_a 7.447662
_cell_length_b 6.856063
_cell_length_c 24.723286
_cell_angle_alpha 90.000000
_cell_angle_beta 35.082329
_cell_angle_gamma 90.000000
_cell_volume 725.574677
_symmetry_space_group_name_H-M "P 21/C"
_symmetry_group_IT_number 14
_symmetry_cell_setting 'monoclinic'
loop_
_space_group_symop_operation_xyz
x,y,z
-x,1/2+y,1/2-z
-x,-y,-z
x,1/2-y,1/2+z
loop_
_atom_site_type_symbol
_atom_site_label
_atom_site_fract_x
_atom_site_fract_y
_atom_site_fract_z
Si Si1 0.480575 0.032179 0.126999
Si Si2 0.798722 0.035390 0.157395
Si Si3 0.905391 0.850681 0.334218
Si Si4 0.183360 0.102640 0.375833
Si Si5 0.603460 0.849907 0.553139
O O1 0.727767 0.088259 0.112351
O O2 0.914816 0.813519 0.123181
O O3 0.592839 0.885093 0.052372
O O4 0.346700 0.229890 0.137472
O O5 0.453355 0.021438 0.270375
O O6 0.979221 0.188232 0.150797
O O7 0.196093 0.917211 0.226076
O O8 0.711228 0.050277 0.391328
O O9 0.338109 0.125455 0.396751
O O10 0.889851 0.963591 0.455885
#
# Coordination Sequence:
#
# PCOD9250027 Si02
#       5
#     4   4   4   4   4
#     4  11  24  42  73 103 140 197 240 298 365 440
#     4  11  23  43  70 104 138 193 242 294 364 434
#     4  12  23  43  76 102 143 195 248 291 370 439
#     4  10  23  45  72 104 151 190 242 305 372 435
#     4  10  23  47  69 107 149 191 241 309 364 436
#
# _framework density 27.564356
#
# number of rings (size 3 to 8) (size 9 to 14) (size 15 to 20)
#    0.000    1.200    6.000    0.000    5.600    0.800 
#    3.600    7.000    0.000    0.000    0.000    0.000 
#    0.000    0.000    0.000    0.000    0.000    0.000 
#
# Total GULP energy -112180.215680 kJ/mol
# GULP energy per Si atom -5609.010784 kJ/mol
# Density = 2.750162 g / cm^3
# Si number density = 27.564356 Si / 1000 Ang^3
#
#
#
# Elastic Constant Matrix: (Units=GPa)
#
#
# Indices 1 2 3 4 5 6 
#
# 1 98.3130 61.0479 28.7051 0.0000 -8.0214 0.0000
# 2 61.0479 151.0862 39.7735 0.0000 4.9871 0.0000
# 3 28.7051 39.7735 84.8298 0.0000 -10.4965 0.0000
# 4 0.0000 0.0000 0.0000 48.9563 0.0000 -3.5509
# 5 -8.0214 4.9871 -10.4965 0.0000 45.0802 0.0000
# 6 0.0000 0.0000 0.0000 -3.5509 0.0000 65.4237
#
#
#
# Elastic Compliance Matrix: (Units=1/GPa)
#
#
# Indices 1 2 3 4 5 6 
#
# 1 0.014285 -0.005333 -0.002004 0.000000 0.002665 0.000000
# 2 -0.005333 0.009671 -0.003068 0.000000 -0.002733 0.000000
# 3 -0.002004 -0.003068 0.014315 0.000000 0.003316 0.000000
# 4 0.000000 0.000000 0.000000 0.020507 0.000000 0.001113
# 5 0.002665 -0.002733 0.003316 0.000000 0.023731 0.000000
# 6 0.000000 0.000000 0.000000 0.001113 0.000000 0.015345
#
#
# Mechanical properties :
#
#
# Convention : Reuss Voigt Hill
#
# Bulk Modulus (GPa) = 57.26550 65.92023 61.59287
# Shear Modulus (GPa) = 40.16499 45.53889 42.85194
#
# Velocity S-wave (km/s) = 3.82139 4.06900 3.94714
# Velocity P-wave (km/s) = 6.34752 6.78548 6.57015
#
# Compressibility (1/GPa) = 0.01746252
#
# Stress axis : x y z
#
# Youngs Moduli (GPa) = 70.00116 103.39788 69.85531
#
# Poissons Ratio (x) = 0.55138 0.13999
# Poissons Ratio (y) = 0.37329 0.21433
# Poissons Ratio (z) = 0.14028 0.31725
#
# Static dielectric constant tensor:
#      x y z
#    x 2.131290 0.000000 0.026400 
#    y 0.000000 2.122240 0.000000 
#    z 0.026400 0.000000 2.189380 
# 
# From -- ./inp_files/70926.got.cif
#   From: 2010.05.17/outbox.cif.g08.bks.cpg/sg14_36_cif.got.tgz:70926.got - 2010.06.03 17:49:19.
