data_PCOD9250720
_publ_section_title
;
Structure prediction by ZEFSAII (Michael W. Deem and Ramdas Pophale) SiO2 
 PCOD9250720
Probable space group: P 21/C
;
_chemical_formula_sum "Si O2"
_cell_formula_units_Z 20
_cell_length_a 8.589297
_cell_length_b 5.328287
_cell_length_c 18.310289
_cell_angle_alpha 90.000000
_cell_angle_beta 109.686788
_cell_angle_gamma 90.000000
_cell_volume 789.010912
_symmetry_space_group_name_H-M "P 21/C"
_symmetry_group_IT_number 14
_symmetry_cell_setting 'monoclinic'
loop_
_space_group_symop_operation_xyz
x,y,z
-x,1/2+y,1/2-z
-x,-y,-z
x,1/2-y,1/2+z
loop_
_atom_site_type_symbol
_atom_site_label
_atom_site_fract_x
_atom_site_fract_y
_atom_site_fract_z
Si Si1 0.101012 0.062501 0.268812
Si Si2 0.574751 0.880175 0.938549
Si Si3 0.427030 0.663588 0.771844
Si Si4 0.145707 0.077016 0.434295
Si Si5 0.146519 0.691112 0.538063
O O1 0.242363 0.951620 0.239614
O O2 0.990566 0.815824 0.271357
O O3 0.178830 0.150746 0.357687
O O4 0.463072 0.732757 0.863225
O O5 0.677793 0.089849 0.909602
O O6 0.723429 0.707348 0.991619
O O7 0.500000 0.000000 0.000000
O O8 0.542265 0.431548 0.763221
O O9 0.952373 0.123134 0.424009
O O10 0.176586 0.792594 0.460980
O O11 0.000000 0.500000 0.500000
#
# Coordination Sequence:
#
# PCOD9250720 Si02
#       5
#     4   4   4   4   4
#     4  12  30  50  78 111 158 213 265 329 401 492
#     4  11  26  46  79 112 156 205 270 329 394 479
#     4  12  31  53  79 118 165 212 262 337 418 475
#     4  10  24  45  74 109 145 202 265 322 387 468
#     4   9  21  40  70 103 141 187 250 316 379 452
#
# _framework density 25.348192999999998
#
# number of rings (size 3 to 8) (size 9 to 14) (size 15 to 20)
#    0.000    1.200    0.000    2.400   16.800    8.000 
#    0.000    0.000    0.000    0.000    0.000    0.000 
#    0.000    0.000    0.000    0.000    0.000    0.000 
#
# Total GULP energy -111635.297005 kJ/mol
# GULP energy per Si atom -5581.764850 kJ/mol
# Density = 2.529050 g / cm^3
# Si number density = 25.348193 Si / 1000 Ang^3
#
#
#
# Elastic Constant Matrix: (Units=GPa)
#
#
# Indices 1 2 3 4 5 6 
#
# 1 80.3660 16.8795 0.2272 0.0000 -8.3988 0.0000
# 2 16.8795 94.2615 16.1147 0.0000 1.7503 0.0000
# 3 0.2272 16.1147 87.6157 0.0000 -17.9305 0.0000
# 4 0.0000 0.0000 0.0000 40.7796 0.0000 1.1634
# 5 -8.3988 1.7503 -17.9305 0.0000 34.9903 0.0000
# 6 0.0000 0.0000 0.0000 1.1634 0.0000 47.2045
#
#
#
# Elastic Compliance Matrix: (Units=1/GPa)
#
#
# Indices 1 2 3 4 5 6 
#
# 1 0.013426 -0.002698 0.001283 0.000000 0.004015 0.000000
# 2 -0.002698 0.011594 -0.002655 0.000000 -0.002588 0.000000
# 3 0.001283 -0.002655 0.013393 0.000000 0.007304 0.000000
# 4 0.000000 0.000000 0.000000 0.024539 0.000000 -0.000605
# 5 0.004015 -0.002588 0.007304 0.000000 0.033415 0.000000
# 6 0.000000 0.000000 0.000000 -0.000605 0.000000 0.021199
#
#
# Mechanical properties :
#
#
# Convention : Reuss Voigt Hill
#
# Bulk Modulus (GPa) = 33.03294 36.52066 34.77680
# Shear Modulus (GPa) = 36.81942 39.86302 38.34122
#
# Velocity S-wave (km/s) = 3.81536 3.96993 3.89341
# Velocity P-wave (km/s) = 5.69818 5.95421 5.82760
#
# Compressibility (1/GPa) = 0.03027281
#
# Stress axis : x y z
#
# Youngs Moduli (GPa) = 74.48381 86.25235 74.66447
#
# Poissons Ratio (x) = 0.23271 -0.09580
# Poissons Ratio (y) = 0.20096 0.19824
# Poissons Ratio (z) = -0.09557 0.22901
#
# Static dielectric constant tensor:
#      x y z
#    x 2.101940 0.000000 0.022660 
#    y 0.000000 2.331350 0.000000 
#    z 0.022660 0.000000 2.062760 
# 
# From -- ./inp_files/64035.got.cif
#   From: 2010.05.17/outbox.cif.g08.bks.cpg/sg14_33_cif.got.tgz:64035.got - 2010.06.03 17:49:19.
