data_PCOD9250609
_publ_section_title
;
Structure prediction by ZEFSAII (Michael W. Deem and Ramdas Pophale) SiO2 
 PCOD9250609
Probable space group: P 21/C
;
_chemical_formula_sum "Si O2"
_cell_formula_units_Z 28
_cell_length_a 5.442497
_cell_length_b 28.625957
_cell_length_c 8.909909
_cell_angle_alpha 90.000000
_cell_angle_beta 114.433029
_cell_angle_gamma 90.000000
_cell_volume 1263.820433
_symmetry_space_group_name_H-M "P 21/C"
_symmetry_group_IT_number 14
_symmetry_cell_setting 'monoclinic'
loop_
_space_group_symop_operation_xyz
x,y,z
-x,1/2+y,1/2-z
-x,-y,-z
x,1/2-y,1/2+z
loop_
_atom_site_type_symbol
_atom_site_label
_atom_site_fract_x
_atom_site_fract_y
_atom_site_fract_z
Si Si1 0.320537 0.505799 0.105480
Si Si2 0.123960 0.681942 0.245442
Si Si3 0.981295 0.360832 0.483232
Si Si4 0.497068 0.598965 0.313582
Si Si5 0.920275 0.289985 0.232922
Si Si6 0.506205 0.915153 0.178059
Si Si7 0.309812 0.328507 0.092747
O O1 0.381028 0.556005 0.193206
O O2 0.416132 0.465646 0.244657
O O3 0.500000 0.500000 0.000000
O O4 0.000000 0.500000 0.000000
O O5 0.165107 0.671431 0.431812
O O6 0.341749 0.646576 0.231891
O O7 0.132451 0.737269 0.229635
O O8 0.839649 0.666573 0.102789
O O9 0.082701 0.322337 0.392599
O O10 0.794033 0.398205 0.353342
O O11 0.190270 0.390770 0.630681
O O12 0.497429 0.588842 0.494623
O O13 0.617468 0.311522 0.147330
O O14 0.111570 0.293554 0.135555
O O15 0.685435 0.876496 0.309970
#
# Coordination Sequence:
#
# PCOD9250609 Si02
#       7
#     4   4   4   4   4   4   4
#     4  12  30  48  76 109 142 180 242 296 360 422
#     4  11  26  40  70 100 144 183 239 292 352 406
#     4  10  24  44  70 101 141 185 238 282 358 424
#     4  11  25  46  72 101 143 188 235 291 355 428
#     4  11  25  44  66 102 141 190 231 291 346 428
#     4  10  24  47  71 101 141 189 228 291 356 427
#     4  11  25  43  69 100 138 183 239 287 351 414
#
# _framework density 22.155045000000001
#
# number of rings (size 3 to 8) (size 9 to 14) (size 15 to 20)
#    0.000    1.143    1.429    2.143   14.000    1.714 
#    0.000    0.000    0.000    0.000    0.000    0.000 
#    0.000    0.000    0.000    0.000    0.000    0.000 
#
# Total GULP energy -156203.109290 kJ/mol
# GULP energy per Si atom -5578.682475 kJ/mol
# Density = 2.210462 g / cm^3
# Si number density = 22.155045 Si / 1000 Ang^3
#
#
#
# Elastic Constant Matrix: (Units=GPa)
#
#
# Indices 1 2 3 4 5 6 
#
# 1 76.4371 28.9074 25.0448 0.0000 11.1744 0.0000
# 2 28.9074 115.7008 27.3706 0.0000 14.9802 0.0000
# 3 25.0448 27.3706 77.5928 0.0000 6.0501 0.0000
# 4 0.0000 0.0000 0.0000 -8.3604 0.0000 58.2182
# 5 11.1744 14.9802 6.0501 0.0000 36.5388 0.0000
# 6 0.0000 0.0000 0.0000 58.2182 0.0000 -34.0542
#
#
#
# Elastic Compliance Matrix: (Units=1/GPa)
#
#
# Indices 1 2 3 4 5 6 
#
# 1 0.015818 -0.002617 -0.003940 0.000000 -0.003112 0.000000
# 2 -0.002617 0.010288 -0.002551 0.000000 -0.002995 0.000000
# 3 -0.003940 -0.002551 0.015078 0.000000 -0.000246 0.000000
# 4 0.000000 0.000000 0.000000 0.010969 0.000000 0.018752
# 5 -0.003112 -0.002995 -0.000246 0.000000 0.029589 0.000000
# 6 0.000000 0.000000 0.000000 0.018752 0.000000 0.002693
#
#
# Mechanical properties :
#
#
# Convention : Reuss Voigt Hill
#
# Bulk Modulus (GPa) = 43.53651 48.04182 45.78917
# Shear Modulus (GPa) = 45.32794 11.38534 28.35664
#
# Velocity S-wave (km/s) = 4.52812 2.26938 3.58148
# Velocity P-wave (km/s) = 6.85798 5.34773 6.14940
#
# Compressibility (1/GPa) = 0.02296922
#
# Stress axis : x y z
#
# Youngs Moduli (GPa) = 63.21784 97.19974 66.31988
#
# Poissons Ratio (x) = 0.25439 0.26129
# Poissons Ratio (y) = 0.16545 0.16917
# Poissons Ratio (z) = 0.24907 0.24794
#
# Static dielectric constant tensor:
#      x y z
#    x 1.939420 0.000000 -0.030800 
#    y 0.000000 1.779990 0.000000 
#    z -0.030800 0.000000 1.857340 
# 
# From -- ./inp_files/6714.got.cif
#   From: 2010.05.17/outbox.cif.g08.bks.cpg/sg14_4_cif.got.tgz:6714.got - 2010.06.03 17:49:19.
