data_PCOD9250016
_publ_section_title
;
Structure prediction by ZEFSAII (Michael W. Deem and Ramdas Pophale) SiO2 
 PCOD9250016
Probable space group: P 21/C
;
_chemical_formula_sum "Si O2"
_cell_formula_units_Z 32
_cell_length_a 31.860119
_cell_length_b 8.899206
_cell_length_c 12.604226
_cell_angle_alpha 90.000000
_cell_angle_beta 156.616946
_cell_angle_gamma 90.000000
_cell_volume 1418.306679
_symmetry_space_group_name_H-M "P 21/C"
_symmetry_group_IT_number 14
_symmetry_cell_setting 'monoclinic'
loop_
_space_group_symop_operation_xyz
x,y,z
-x,1/2+y,1/2-z
-x,-y,-z
x,1/2-y,1/2+z
loop_
_atom_site_type_symbol
_atom_site_label
_atom_site_fract_x
_atom_site_fract_y
_atom_site_fract_z
Si Si1 0.300442 0.292801 0.650323
Si Si2 0.709831 0.493357 0.173438
Si Si3 0.565158 0.855588 0.188799
Si Si4 0.726253 0.046741 0.051085
Si Si5 0.894764 0.209143 0.018543
Si Si6 0.610039 0.286957 0.091069
Si Si7 0.028561 0.518816 0.688039
Si Si8 0.272321 0.997200 0.715663
O O1 0.282677 0.389067 0.714637
O O2 0.412242 0.267376 0.848968
O O3 0.236302 0.388706 0.413373
O O4 0.284029 0.126769 0.657172
O O5 0.813548 0.392917 0.397980
O O6 0.615938 0.384938 0.998058
O O7 0.675696 0.579292 0.988852
O O8 0.501691 0.783771 0.139252
O O9 0.500000 0.000000 0.000000
O O10 0.818308 0.171910 0.279730
O O11 0.671716 0.012574 0.038554
O O12 0.648306 0.117200 0.781597
O O13 0.974028 0.311811 0.271891
O O14 0.959361 0.096917 0.094334
O O15 0.694469 0.154419 0.266763
O O16 0.000000 0.500000 0.500000
O O17 0.152989 0.486184 0.979047
#
# Coordination Sequence:
#
# PCOD9250016 Si02
#       8
#     4   4   4   4   4   4   4   4
#     4  11  26  42  68 101 136 189 236 289 357 411
#     4  11  26  46  71  96 151 185 233 298 358 422
#     4  12  26  40  69 107 139 186 245 291 340 427
#     4  10  23  45  70  97 144 187 233 296 357 426
#     4  11  25  48  71 108 139 185 235 298 363 433
#     4  11  23  44  73  97 142 194 238 286 358 413
#     4  11  26  43  75 104 140 182 237 289 364 432
#     4  11  23  44  68 102 143 184 231 295 364 417
#
# _framework density 22.562116
#
# number of rings (size 3 to 8) (size 9 to 14) (size 15 to 20)
#    0.000    1.000    3.750    2.250    7.000    5.000 
#    0.000    1.250    0.000    0.000    0.000    0.000 
#    0.000    0.000    0.000    0.000    0.000    0.000 
#
# Total GULP energy -178524.372199 kJ/mol
# GULP energy per Si atom -5578.886631 kJ/mol
# Density = 2.251076 g / cm^3
# Si number density = 22.562116 Si / 1000 Ang^3
#
#
#
# Elastic Constant Matrix: (Units=GPa)
#
#
# Indices 1 2 3 4 5 6 
#
# 1 154.3087 72.6053 27.2576 0.0000 -4.1514 0.0000
# 2 72.6053 125.0877 31.6924 0.0000 -8.0141 0.0000
# 3 27.2576 31.6924 40.6185 0.0000 -10.0349 0.0000
# 4 0.0000 0.0000 0.0000 24.2393 0.0000 -3.5505
# 5 -4.1514 -8.0141 -10.0349 0.0000 35.8918 0.0000
# 6 0.0000 0.0000 0.0000 -3.5505 0.0000 66.5490
#
#
#
# Elastic Compliance Matrix: (Units=1/GPa)
#
#
# Indices 1 2 3 4 5 6 
#
# 1 0.009129 -0.004671 -0.002662 0.000000 -0.000731 0.000000
# 2 -0.004671 0.012354 -0.006399 0.000000 0.000429 0.000000
# 3 -0.002662 -0.006399 0.033267 0.000000 0.007564 0.000000
# 4 0.000000 0.000000 0.000000 0.041580 0.000000 0.002218
# 5 -0.000731 0.000429 0.007564 0.000000 0.029988 0.000000
# 6 0.000000 0.000000 0.000000 0.002218 0.000000 0.015145
#
#
# Mechanical properties :
#
#
# Convention : Reuss Voigt Hill
#
# Bulk Modulus (GPa) = 36.64830 64.79173 50.72001
# Shear Modulus (GPa) = 28.08627 37.90000 32.99314
#
# Velocity S-wave (km/s) = 3.53206 4.10299 3.82818
# Velocity P-wave (km/s) = 5.73694 7.15719 6.48606
#
# Compressibility (1/GPa) = 0.02728639
#
# Stress axis : x y z
#
# Youngs Moduli (GPa) = 109.54163 80.94286 30.05962
#
# Poissons Ratio (x) = 0.37810 0.08002
# Poissons Ratio (y) = 0.51168 0.19235
# Poissons Ratio (z) = 0.29162 0.51794
#
# Static dielectric constant tensor:
#      x y z
#    x 1.878690 0.000000 -0.107510 
#    y 0.000000 1.900770 0.000000 
#    z -0.107510 0.000000 1.884690 
# 
# From -- ./inp_files/36434.got.cif
#   From: 2010.05.17/outbox.cif.g08.bks.cpg/sg14_19_cif.got.tgz:36434.got - 2010.06.03 17:49:19.
