data_PCOD9250515
_publ_section_title
;
Structure prediction by ZEFSAII (Michael W. Deem and Ramdas Pophale) SiO2 
 PCOD9250515
Probable space group: P 21/C
;
_chemical_formula_sum "Si O2"
_cell_formula_units_Z 32
_cell_length_a 17.701767
_cell_length_b 10.547950
_cell_length_c 15.007679
_cell_angle_alpha 90.000000
_cell_angle_beta 150.179000
_cell_angle_gamma 90.000000
_cell_volume 1393.508654
_symmetry_space_group_name_H-M "P 21/C"
_symmetry_group_IT_number 14
_symmetry_cell_setting 'monoclinic'
loop_
_space_group_symop_operation_xyz
x,y,z
-x,1/2+y,1/2-z
-x,-y,-z
x,1/2-y,1/2+z
loop_
_atom_site_type_symbol
_atom_site_label
_atom_site_fract_x
_atom_site_fract_y
_atom_site_fract_z
Si Si1 0.473255 0.922739 0.384025
Si Si2 0.834690 0.253983 0.133791
Si Si3 0.445144 0.403293 0.369398
Si Si4 0.129997 0.121543 0.471810
Si Si5 0.071084 0.846125 0.460575
Si Si6 0.761014 0.722822 0.099310
Si Si7 0.636301 0.995313 0.910781
Si Si8 0.713007 0.272215 0.187949
O O1 0.619098 0.836618 0.507782
O O2 0.320531 0.849999 0.257581
O O3 0.500000 0.000000 0.500000
O O4 0.427655 0.005934 0.253563
O O5 0.839262 0.310457 0.039640
O O6 0.767171 0.329379 0.149473
O O7 0.007406 0.231754 0.341008
O O8 0.747528 0.117700 0.037841
O O9 0.500000 0.500000 0.500000
O O10 0.270474 0.367448 0.182999
O O11 0.495970 0.472305 0.331266
O O12 0.550610 0.284198 0.495378
O O13 0.198184 0.129178 0.441146
O O14 0.043961 0.994109 0.413679
O O15 0.167800 0.829471 0.650226
O O16 0.919837 0.759357 0.310289
O O17 0.706383 0.859941 0.006489
#
# Coordination Sequence:
#
# PCOD9250515 Si02
#       8
#     4   4   4   4   4   4   4   4
#     4  12  28  46  69 106 145 190 235 292 360 423
#     4  10  24  43  70 100 139 185 232 296 365 419
#     4  11  22  39  70 102 136 177 236 296 351 416
#     4  11  23  43  70 106 136 186 234 296 360 420
#     4  11  23  46  72  99 145 179 242 292 354 435
#     4  11  26  46  73 104 140 191 233 292 358 431
#     4  11  23  46  68  99 143 184 235 294 352 433
#     4  11  25  42  68 103 137 186 232 295 351 429
#
# _framework density 22.963618
#
# number of rings (size 3 to 8) (size 9 to 14) (size 15 to 20)
#    0.000    1.000    5.000    0.750    3.500    2.500 
#    2.250    0.625    0.000    0.000    0.000    0.000 
#    0.000    0.000    0.000    0.000    0.000    0.000 
#
# Total GULP energy -178628.044141 kJ/mol
# GULP energy per Si atom -5582.126379 kJ/mol
# Density = 2.291135 g / cm^3
# Si number density = 22.963618 Si / 1000 Ang^3
#
#
#
# Elastic Constant Matrix: (Units=GPa)
#
#
# Indices 1 2 3 4 5 6 
#
# 1 117.9058 3.3852 18.3972 0.0000 -8.5943 0.0000
# 2 3.3852 27.9640 6.3565 0.0000 -4.5236 0.0000
# 3 18.3972 6.3565 117.8025 0.0000 -7.9505 0.0000
# 4 0.0000 0.0000 0.0000 25.9302 0.0000 -2.7450
# 5 -8.5943 -4.5236 -7.9505 0.0000 31.6628 0.0000
# 6 0.0000 0.0000 0.0000 -2.7450 0.0000 31.2957
#
#
#
# Elastic Compliance Matrix: (Units=1/GPa)
#
#
# Indices 1 2 3 4 5 6 
#
# 1 0.008832 -0.000465 -0.001218 0.000000 0.002025 0.000000
# 2 -0.000465 0.036949 -0.001601 0.000000 0.004751 0.000000
# 3 -0.001218 -0.001601 0.008878 0.000000 0.001670 0.000000
# 4 0.000000 0.000000 0.000000 0.038927 0.000000 0.003414
# 5 0.002025 0.004751 0.001670 0.000000 0.033231 0.000000
# 6 0.000000 0.000000 0.000000 0.003414 0.000000 0.032253
#
#
# Mechanical properties :
#
#
# Convention : Reuss Voigt Hill
#
# Bulk Modulus (GPa) = 20.79292 35.55001 28.17146
# Shear Modulus (GPa) = 27.52304 33.47996 30.50150
#
# Velocity S-wave (km/s) = 3.46576 3.82246 3.64847
# Velocity P-wave (km/s) = 5.00897 5.91576 5.48115
#
# Compressibility (1/GPa) = 0.04809330
#
# Stress axis : x y z
#
# Youngs Moduli (GPa) = 113.22087 27.06447 112.63782
#
# Poissons Ratio (x) = 0.01258 0.13714
# Poissons Ratio (y) = 0.05263 0.18028
# Poissons Ratio (z) = 0.13785 0.04332
#
# Static dielectric constant tensor:
#      x y z
#    x 1.945390 0.000000 0.101010 
#    y 0.000000 -0.570120 0.000000 
#    z 0.101010 0.000000 1.988970 
# 
# From -- ./inp_files/49027.got.cif
#   From: 2010.05.17/outbox.cif.g08.bks.cpg/sg14_25_cif.got.tgz:49027.got - 2010.06.03 17:49:19.
