data_PCOD9250860
_publ_section_title
;
Structure prediction by ZEFSAII (Michael W. Deem and Ramdas Pophale) SiO2 
 PCOD9250860
Probable space group: P 21/C
;
_chemical_formula_sum "Si O2"
_cell_formula_units_Z 18
_cell_length_a 12.259916
_cell_length_b 4.864678
_cell_length_c 12.471714
_cell_angle_alpha 90.000000
_cell_angle_beta 119.391871
_cell_angle_gamma 90.000000
_cell_volume 648.077885
_symmetry_space_group_name_H-M "P 21/C"
_symmetry_group_IT_number 14
_symmetry_cell_setting 'monoclinic'
loop_
_space_group_symop_operation_xyz
x,y,z
-x,1/2+y,1/2-z
-x,-y,-z
x,1/2-y,1/2+z
loop_
_atom_site_type_symbol
_atom_site_label
_atom_site_fract_x
_atom_site_fract_y
_atom_site_fract_z
Si Si1 0.194339 0.827440 0.125992
Si Si2 0.353189 0.335920 0.219105
Si Si3 0.927838 0.641838 0.255291
Si Si4 0.500000 0.500000 0.500000
Si Si5 0.292364 0.904169 0.476220
O O1 0.229021 0.522941 0.183131
O O2 0.088122 0.988370 0.137995
O O3 0.194533 0.779538 0.998455
O O4 0.315762 0.019831 0.200423
O O5 0.454518 0.407061 0.355464
O O6 0.371119 0.422308 0.102677
O O7 0.981013 0.944224 0.269611
O O8 0.790622 0.608171 0.134459
O O9 0.383262 0.717568 0.452471
#
# Coordination Sequence:
#
# PCOD9250860 Si02
#       5
#     4   4   4   2   4
#     4  10  24  48  68 107 148 192 250 313 372 449
#     4  10  25  45  73 106 152 194 244 307 379 448
#     4  12  27  47  77 107 149 204 261 318 380 447
#     4  12  24  50  78 114 154 204 244 320 376 466
#     4  10  26  47  74 113 151 199 251 316 378 458
#
# _framework density 27.774439999999998
#
# number of rings (size 3 to 8) (size 9 to 14) (size 15 to 20)
#    1.333    0.000    2.222    1.333    6.222    2.667 
#    0.000    0.000    0.000    0.000    0.000    0.000 
#    0.000    0.000    0.000    0.000    0.000    0.000 
#
# Total GULP energy -100291.277521 kJ/mol
# GULP energy per Si atom -5571.737640 kJ/mol
# Density = 2.771122 g / cm^3
# Si number density = 27.774440 Si / 1000 Ang^3
#
#
#
# Elastic Constant Matrix: (Units=GPa)
#
#
# Indices 1 2 3 4 5 6 
#
# 1 81.0889 16.6026 -1.7819 0.0000 -3.3628 0.0000
# 2 16.6026 96.0236 11.9725 0.0000 0.9779 0.0000
# 3 -1.7819 11.9725 172.3950 0.0000 0.9320 0.0000
# 4 0.0000 0.0000 0.0000 29.5087 0.0000 -1.7694
# 5 -3.3628 0.9779 0.9320 0.0000 26.6816 0.0000
# 6 0.0000 0.0000 0.0000 -1.7694 0.0000 44.3527
#
#
#
# Elastic Compliance Matrix: (Units=1/GPa)
#
#
# Indices 1 2 3 4 5 6 
#
# 1 0.012875 -0.002279 0.000282 0.000000 0.001696 0.000000
# 2 -0.002279 0.010912 -0.000778 0.000000 -0.000660 0.000000
# 3 0.000282 -0.000778 0.005858 0.000000 -0.000141 0.000000
# 4 0.000000 0.000000 0.000000 0.033970 0.000000 0.001355
# 5 0.001696 -0.000660 -0.000141 0.000000 0.037722 0.000000
# 6 0.000000 0.000000 0.000000 0.001355 0.000000 0.022601
#
#
# Mechanical properties :
#
#
# Convention : Reuss Voigt Hill
#
# Bulk Modulus (GPa) = 41.49919 44.78823 43.14371
# Shear Modulus (GPa) = 36.35885 41.62289 38.99087
#
# Velocity S-wave (km/s) = 3.62204 3.87538 3.75085
# Velocity P-wave (km/s) = 5.69791 6.01544 5.85882
#
# Compressibility (1/GPa) = 0.02409686
#
# Stress axis : x y z
#
# Youngs Moduli (GPa) = 77.66858 91.64408 170.69729
#
# Poissons Ratio (x) = 0.20882 -0.04816
# Poissons Ratio (y) = 0.17698 0.13277
# Poissons Ratio (z) = -0.02191 0.07128
#
# Static dielectric constant tensor:
#      x y z
#    x 2.207190 0.000000 -0.005080 
#    y 0.000000 2.099480 0.000000 
#    z -0.005080 0.000000 2.012880 
# 
# From -- ./inp_files/27446.got.cif
#   From: 2010.05.17/outbox.cif.g08.bks.cpg/sg14_14_cif.got.tgz:27446.got - 2010.06.03 17:49:19.
