data_PCOD9250562
_publ_section_title
;
Structure prediction by ZEFSAII (Michael W. Deem and Ramdas Pophale) SiO2 
 PCOD9250562
Probable space group: P 21/C
;
_chemical_formula_sum "Si O2"
_cell_formula_units_Z 26
_cell_length_a 9.680481
_cell_length_b 14.164923
_cell_length_c 16.668707
_cell_angle_alpha 90.000000
_cell_angle_beta 27.721791
_cell_angle_gamma 90.000000
_cell_volume 1063.243984
_symmetry_space_group_name_H-M "P 21/C"
_symmetry_group_IT_number 14
_symmetry_cell_setting 'monoclinic'
loop_
_space_group_symop_operation_xyz
x,y,z
-x,1/2+y,1/2-z
-x,-y,-z
x,1/2-y,1/2+z
loop_
_atom_site_type_symbol
_atom_site_label
_atom_site_fract_x
_atom_site_fract_y
_atom_site_fract_z
Si Si1 0.849594 0.622213 0.218122
Si Si2 0.466395 0.935393 0.784486
Si Si3 0.500000 0.500000 0.500000
Si Si4 0.742543 0.747075 0.578697
Si Si5 0.449587 0.701925 0.960560
Si Si6 0.289259 0.815353 0.192346
Si Si7 0.837758 0.590363 0.665207
O O1 0.753740 0.554132 0.194126
O O2 0.782314 0.569542 0.334732
O O3 0.602667 0.704644 0.346650
O O4 0.171932 0.667038 0.050716
O O5 0.525799 0.833083 0.715255
O O6 0.374645 0.010792 0.764463
O O7 0.179681 0.940972 0.991060
O O8 0.698163 0.409149 0.365965
O O9 0.566142 0.679863 0.609739
O O10 0.835145 0.679697 0.604803
O O11 0.007959 0.795061 0.392919
O O12 0.339215 0.728009 0.105377
O O13 0.704152 0.624046 0.817885
#
# Coordination Sequence:
#
# PCOD9250562 Si02
#       7
#     4   4   2   4   4   4   4
#     4  11  23  43  70 101 136 182 232 291 348 424
#     4  11  25  43  71 106 139 186 236 294 360 426
#     4  10  24  44  66 102 136 178 234 290 344 424
#     4  12  24  46  69 103 139 190 228 297 359 421
#     4  11  24  42  70  97 132 184 229 285 352 416
#     4  11  25  45  71  99 143 183 237 294 357 423
#     4  11  25  46  70 105 144 180 240 293 354 434
#
# _framework density 24.453465000000001
#
# number of rings (size 3 to 8) (size 9 to 14) (size 15 to 20)
#    0.000    0.923    3.077    3.692    4.308    1.846 
#    0.000    0.769    0.000    0.000    0.000    0.000 
#    0.000    0.000    0.000    0.000    0.000    0.000 
#
# Total GULP energy -144836.279472 kJ/mol
# GULP energy per Si atom -5570.626134 kJ/mol
# Density = 2.439781 g / cm^3
# Si number density = 24.453465 Si / 1000 Ang^3
#
#
#
# Elastic Constant Matrix: (Units=GPa)
#
#
# Indices 1 2 3 4 5 6 
#
# 1 39.4405 -12.8151 13.1514 0.0000 -5.8601 0.0000
# 2 -12.8151 58.7129 39.0866 0.0000 4.1090 0.0000
# 3 13.1514 39.0866 87.1312 0.0000 -8.6534 0.0000
# 4 0.0000 0.0000 0.0000 38.8877 0.0000 2.0928
# 5 -5.8601 4.1090 -8.6534 0.0000 22.1310 0.0000
# 6 0.0000 0.0000 0.0000 2.0928 0.0000 22.8236
#
#
#
# Elastic Compliance Matrix: (Units=1/GPa)
#
#
# Indices 1 2 3 4 5 6 
#
# 1 0.034594 0.015408 -0.011973 0.000000 0.001618 0.000000
# 2 0.015408 0.033056 -0.018060 0.000000 -0.009119 0.000000
# 3 -0.011973 -0.018060 0.022269 0.000000 0.008890 0.000000
# 4 0.000000 0.000000 0.000000 0.025843 0.000000 -0.002370
# 5 0.001618 -0.009119 0.008890 0.000000 0.050783 0.000000
# 6 0.000000 0.000000 0.000000 -0.002370 0.000000 0.044032
#
#
# Mechanical properties :
#
#
# Convention : Reuss Voigt Hill
#
# Bulk Modulus (GPa) = 16.48294 29.34782 22.91538
# Shear Modulus (GPa) = 19.22712 26.49259 22.85985
#
# Velocity S-wave (km/s) = 2.80710 3.29506 3.06082
# Velocity P-wave (km/s) = 4.15471 5.14821 4.67791
#
# Compressibility (1/GPa) = 0.06066877
#
# Stress axis : x y z
#
# Youngs Moduli (GPa) = 28.90701 30.25129 44.90595
#
# Poissons Ratio (x) = -0.46611 0.53765
# Poissons Ratio (y) = -0.44540 0.81101
# Poissons Ratio (z) = 0.34610 0.54635
#
# Static dielectric constant tensor:
#      x y z
#    x 1.996890 0.000000 0.003570 
#    y 0.000000 2.145670 0.000000 
#    z 0.003570 0.000000 1.906000 
# 
# From -- ./inp_files/67516.got.cif
#   From: 2010.05.17/outbox.cif.g08.bks.cpg/sg14_34_cif.got.tgz:67516.got - 2010.06.03 17:49:19.
