data_PCOD9250234
_publ_section_title
;
Structure prediction by ZEFSAII (Michael W. Deem and Ramdas Pophale) SiO2 
 PCOD9250234
Probable space group: P 21/C
;
_chemical_formula_sum "Si O2"
_cell_formula_units_Z 28
_cell_length_a 10.901442
_cell_length_b 8.362762
_cell_length_c 25.647652
_cell_angle_alpha 90.000000
_cell_angle_beta 149.423527
_cell_angle_gamma 90.000000
_cell_volume 1189.413141
_symmetry_space_group_name_H-M "P 21/C"
_symmetry_group_IT_number 14
_symmetry_cell_setting 'monoclinic'
loop_
_space_group_symop_operation_xyz
x,y,z
-x,1/2+y,1/2-z
-x,-y,-z
x,1/2-y,1/2+z
loop_
_atom_site_type_symbol
_atom_site_label
_atom_site_fract_x
_atom_site_fract_y
_atom_site_fract_z
Si Si1 0.026592 0.550523 0.255777
Si Si2 0.318638 0.557840 0.191015
Si Si3 0.212569 0.085776 0.487685
Si Si4 0.379811 0.210022 0.887273
Si Si5 0.282740 0.747732 0.572709
Si Si6 0.669204 0.316450 0.090224
Si Si7 0.245138 0.279025 0.604645
O O1 0.190806 0.415052 0.342785
O O2 0.219612 0.693919 0.326471
O O3 0.788309 0.638955 0.190778
O O4 0.887120 0.442940 0.161751
O O5 0.332984 0.684116 0.148327
O O6 0.555768 0.589626 0.310779
O O7 0.298668 0.382568 0.158059
O O8 0.069779 0.594122 0.130229
O O9 0.422078 0.114287 0.522878
O O10 0.244387 0.216251 0.545295
O O11 0.252006 0.912482 0.528153
O O12 0.509243 0.154836 0.881849
O O13 0.584708 0.239526 0.005306
O O14 0.022688 0.665947 0.477826
#
# Coordination Sequence:
#
# PCOD9250234 Si02
#       7
#     4   4   4   4   4   4   4
#     4  10  24  38  60  90 118 160 206 240 286 364
#     4   9  19  38  59  84 110 151 191 235 293 345
#     4   9  19  38  59  80 118 150 190 239 288 351
#     4  11  22  42  61  88 125 158 197 246 300 346
#     4   9  19  38  59  80 118 150 190 239 288 351
#     4  11  22  42  61  88 125 158 197 246 300 346
#     4   9  19  38  59  84 110 151 191 235 293 345
#
# _framework density 23.541021000000001
#
# number of rings (size 3 to 8) (size 9 to 14) (size 15 to 20)
#    0.000    2.286    1.429    2.571    0.000    4.571 
#   10.286    1.429    0.000    0.000    0.000    0.000 
#    0.000    0.000    0.000    0.000    0.000    0.000 
#
# Total GULP energy -156089.878029 kJ/mol
# GULP energy per Si atom -5574.638501 kJ/mol
# Density = 2.348744 g / cm^3
# Si number density = 23.541021 Si / 1000 Ang^3
#
#
#
# Elastic Constant Matrix: (Units=GPa)
#
#
# Indices 1 2 3 4 5 6 
#
# 1 72.3631 21.1232 30.0774 0.0000 10.4591 0.0000
# 2 21.1232 58.6206 40.3873 0.0000 0.0995 0.0000
# 3 30.0774 40.3873 129.8011 0.0000 22.7631 0.0000
# 4 0.0000 0.0000 0.0000 35.4123 0.0000 3.4404
# 5 10.4591 0.0995 22.7631 0.0000 13.9120 0.0000
# 6 0.0000 0.0000 0.0000 3.4404 0.0000 20.5218
#
#
#
# Elastic Compliance Matrix: (Units=1/GPa)
#
#
# Indices 1 2 3 4 5 6 
#
# 1 0.017572 -0.006584 0.000400 0.000000 -0.013818 0.000000
# 2 -0.006584 0.026775 -0.010714 0.000000 0.022289 0.000000
# 3 0.000400 -0.010714 0.015405 0.000000 -0.025430 0.000000
# 4 0.000000 0.000000 0.000000 0.028706 0.000000 -0.004813
# 5 -0.013818 0.022289 -0.025430 0.000000 0.123718 0.000000
# 6 0.000000 0.000000 0.000000 -0.004813 0.000000 0.049536
#
#
# Mechanical properties :
#
#
# Convention : Reuss Voigt Hill
#
# Bulk Modulus (GPa) = 38.52738 49.32897 43.92817
# Shear Modulus (GPa) = 16.43872 25.24901 20.84387
#
# Velocity S-wave (km/s) = 2.64541 3.27854 2.97884
# Velocity P-wave (km/s) = 5.07272 5.94405 5.52559
#
# Compressibility (1/GPa) = 0.02595557
#
# Stress axis : x y z
#
# Youngs Moduli (GPa) = 56.90840 37.34797 64.91547
#
# Poissons Ratio (x) = 0.24590 -0.02598
# Poissons Ratio (y) = 0.37469 0.69552
# Poissons Ratio (z) = -0.02277 0.40015
#
# Static dielectric constant tensor:
#      x y z
#    x 1.877280 0.000000 -0.016010 
#    y 0.000000 1.975700 0.000000 
#    z -0.016010 0.000000 1.883450 
# 
# From -- ./inp_files/48543.got.cif
#   From: 2010.05.17/outbox.cif.g08.bks.cpg/sg14_25_cif.got.tgz:48543.got - 2010.06.03 17:49:19.
