data_PCOD9250876
_publ_section_title
;
Structure prediction by ZEFSAII (Michael W. Deem and Ramdas Pophale) SiO2 
 PCOD9250876
Probable space group: P 21/C
;
_chemical_formula_sum "Si O2"
_cell_formula_units_Z 18
_cell_length_a 17.030382
_cell_length_b 7.835894
_cell_length_c 12.413189
_cell_angle_alpha 90.000000
_cell_angle_beta 25.862735
_cell_angle_gamma 90.000000
_cell_volume 722.600944
_symmetry_space_group_name_H-M "P 21/C"
_symmetry_group_IT_number 14
_symmetry_cell_setting 'monoclinic'
loop_
_space_group_symop_operation_xyz
x,y,z
-x,1/2+y,1/2-z
-x,-y,-z
x,1/2-y,1/2+z
loop_
_atom_site_type_symbol
_atom_site_label
_atom_site_fract_x
_atom_site_fract_y
_atom_site_fract_z
Si Si1 0.543118 0.269230 0.657221
Si Si2 0.181979 0.575708 0.320203
Si Si3 0.908872 0.048571 0.498813
Si Si4 0.500000 0.500000 0.500000
Si Si5 0.735422 0.519748 0.563392
O O1 0.682955 0.126340 0.441636
O O2 0.543019 0.410995 0.564362
O O3 0.621514 0.353030 0.667758
O O4 0.352307 0.176321 0.893736
O O5 0.132539 0.750033 0.443670
O O6 0.275945 0.459219 0.294442
O O7 0.000000 0.500000 0.500000
O O8 0.717621 0.962570 0.715720
O O9 0.000000 0.000000 0.500000
O O10 0.057989 0.004625 0.226089
#
# Coordination Sequence:
#
# PCOD9250876 Si02
#       5
#     4   4   4   2   4
#     4  11  28  48  75 111 149 197 254 313 382 453
#     4  11  28  47  72 107 155 190 254 312 381 453
#     4  11  25  48  75 108 146 199 251 309 377 447
#     4  10  24  48  74 100 156 194 242 314 376 438
#     4  12  28  45  79 110 150 204 255 310 390 451
#
# _framework density 24.910012999999999
#
# number of rings (size 3 to 8) (size 9 to 14) (size 15 to 20)
#    0.000    0.889    4.444    0.667   18.667    0.000 
#    0.000    0.000    0.000    0.000    0.000    0.000 
#    0.000    0.000    0.000    0.000    0.000    0.000 
#
# Total GULP energy -100363.378055 kJ/mol
# GULP energy per Si atom -5575.743225 kJ/mol
# Density = 2.485332 g / cm^3
# Si number density = 24.910013 Si / 1000 Ang^3
#
#
#
# Elastic Constant Matrix: (Units=GPa)
#
#
# Indices 1 2 3 4 5 6 
#
# 1 102.1137 22.0555 40.9462 0.0000 -25.6909 0.0000
# 2 22.0555 53.3338 6.6200 0.0000 -12.4212 0.0000
# 3 40.9462 6.6200 158.6835 0.0000 -30.3895 0.0000
# 4 0.0000 0.0000 0.0000 36.4636 0.0000 -5.1019
# 5 -25.6909 -12.4212 -30.3895 0.0000 41.3901 0.0000
# 6 0.0000 0.0000 0.0000 -5.1019 0.0000 35.3643
#
#
#
# Elastic Compliance Matrix: (Units=1/GPa)
#
#
# Indices 1 2 3 4 5 6 
#
# 1 0.012788 -0.003806 -0.002141 0.000000 0.005223 0.000000
# 2 -0.003806 0.021310 0.001007 0.000000 0.004772 0.000000
# 3 -0.002141 0.001007 0.007698 0.000000 0.004626 0.000000
# 4 0.000000 0.000000 0.000000 0.027990 0.000000 0.004038
# 5 0.005223 0.004772 0.004626 0.000000 0.032231 0.000000
# 6 0.000000 0.000000 0.000000 0.004038 0.000000 0.028860
#
#
# Mechanical properties :
#
#
# Convention : Reuss Voigt Hill
#
# Bulk Modulus (GPa) = 31.33146 50.37493 40.85319
# Shear Modulus (GPa) = 33.02644 38.94421 35.98533
#
# Velocity S-wave (km/s) = 3.64514 3.95827 3.80493
# Velocity P-wave (km/s) = 5.50648 6.41539 5.97823
#
# Compressibility (1/GPa) = 0.03191681
#
# Stress axis : x y z
#
# Youngs Moduli (GPa) = 78.20107 46.92595 129.90330
#
# Poissons Ratio (x) = 0.17860 0.27806
# Poissons Ratio (y) = 0.29763 -0.13081
# Poissons Ratio (z) = 0.16739 -0.04725
#
# Static dielectric constant tensor:
#      x y z
#    x 1.925480 0.000000 0.019670 
#    y 0.000000 2.082090 0.000000 
#    z 0.019670 0.000000 1.928700 
# 
# From -- ./inp_files/48359.got.cif
#   From: 2010.05.17/outbox.cif.g08.bks.cpg/sg14_25_cif.got.tgz:48359.got - 2010.06.03 17:49:19.
