data_PCOD9250586
_publ_section_title
;
Structure prediction by ZEFSAII (Michael W. Deem and Ramdas Pophale) SiO2 
 PCOD9250586
Probable space group: P 21/C
;
_chemical_formula_sum "Si O2"
_cell_formula_units_Z 24
_cell_length_a 14.641587
_cell_length_b 8.072171
_cell_length_c 20.769192
_cell_angle_alpha 90.000000
_cell_angle_beta 26.150134
_cell_angle_gamma 90.000000
_cell_volume 1081.846327
_symmetry_space_group_name_H-M "P 21/C"
_symmetry_group_IT_number 14
_symmetry_cell_setting 'monoclinic'
loop_
_space_group_symop_operation_xyz
x,y,z
-x,1/2+y,1/2-z
-x,-y,-z
x,1/2-y,1/2+z
loop_
_atom_site_type_symbol
_atom_site_label
_atom_site_fract_x
_atom_site_fract_y
_atom_site_fract_z
Si Si1 0.439582 0.682584 0.064237
Si Si2 0.018235 0.201446 0.099850
Si Si3 0.678793 0.394012 0.606318
Si Si4 0.387200 0.418156 0.915445
Si Si5 0.986941 0.315678 0.979476
Si Si6 0.556441 0.734642 0.358300
O O1 0.538700 0.700324 0.072322
O O2 0.192310 0.692425 0.227019
O O3 0.500000 0.500000 0.000000
O O4 0.521144 0.799765 0.955606
O O5 0.164183 0.351547 0.032629
O O6 0.157483 0.037818 0.010643
O O7 0.952984 0.215040 0.066521
O O8 0.533673 0.416914 0.760156
O O9 0.536108 0.392055 0.634103
O O10 0.806566 0.227709 0.543560
O O11 0.429985 0.598893 0.918868
O O12 0.000000 0.500000 0.000000
O O13 0.201328 0.257068 0.811555
#
# Coordination Sequence:
#
# PCOD9250586 Si02
#       6
#     4   4   4   4   4   4
#     4  10  24  44  67  97 142 180 218 278 344 404
#     4  12  24  41  72 102 132 182 229 274 346 409
#     4  12  22  40  71  99 133 177 227 286 332 401
#     4  11  21  42  70  95 137 176 226 282 338 399
#     4  12  25  41  69 100 131 179 233 278 337 404
#     4  11  25  43  65 101 138 171 226 282 336 403
#
# _framework density 22.184297000000001
#
# number of rings (size 3 to 8) (size 9 to 14) (size 15 to 20)
#    0.000    0.667    5.000    3.500    2.333    4.000 
#    0.000    3.333    0.000    0.000    0.000    0.000 
#    0.000    0.000    0.000    0.000    0.000    0.000 
#
# Total GULP energy -134064.250267 kJ/mol
# GULP energy per Si atom -5586.010428 kJ/mol
# Density = 2.213380 g / cm^3
# Si number density = 22.184297 Si / 1000 Ang^3
#
#
#
# Elastic Constant Matrix: (Units=GPa)
#
#
# Indices 1 2 3 4 5 6 
#
# 1 96.7434 -9.9273 24.8510 0.0000 19.1755 0.0000
# 2 -9.9273 32.9830 2.4449 0.0000 3.6420 0.0000
# 3 24.8510 2.4449 141.5957 0.0000 12.5474 0.0000
# 4 0.0000 0.0000 0.0000 19.5772 0.0000 1.1776
# 5 19.1755 3.6420 12.5474 0.0000 43.7211 0.0000
# 6 0.0000 0.0000 0.0000 1.1776 0.0000 22.6626
#
#
#
# Elastic Compliance Matrix: (Units=1/GPa)
#
#
# Indices 1 2 3 4 5 6 
#
# 1 0.012283 0.004407 -0.001767 0.000000 -0.005247 0.000000
# 2 0.004407 0.032195 -0.000944 0.000000 -0.004344 0.000000
# 3 -0.001767 -0.000944 0.007504 0.000000 -0.001300 0.000000
# 4 0.000000 0.000000 0.000000 0.051240 0.000000 -0.002663
# 5 -0.005247 -0.004344 -0.001300 0.000000 0.025908 0.000000
# 6 0.000000 0.000000 0.000000 -0.002663 0.000000 0.044264
#
#
# Mechanical properties :
#
#
# Convention : Reuss Voigt Hill
#
# Bulk Modulus (GPa) = 18.05923 34.00661 26.03292
# Shear Modulus (GPa) = 26.53086 34.12242 30.32664
#
# Velocity S-wave (km/s) = 3.46197 3.92616 3.70135
# Velocity P-wave (km/s) = 4.91310 5.99294 5.47969
#
# Compressibility (1/GPa) = 0.05537333
#
# Stress axis : x y z
#
# Youngs Moduli (GPa) = 81.41499 31.06093 133.26307
#
# Poissons Ratio (x) = -0.13689 0.23545
# Poissons Ratio (y) = -0.35881 0.12586
# Poissons Ratio (z) = 0.14385 0.02934
#
# Static dielectric constant tensor:
#      x y z
#    x 1.777640 0.000000 0.028750 
#    y 0.000000 1.995140 0.000000 
#    z 0.028750 0.000000 1.759590 
# 
# From -- ./inp_files/74221.got.cif
#   From: 2010.05.17/outbox.cif.g08.bks.cpg/sg14_38_cif.got.tgz:74221.got - 2010.06.03 17:49:19.
