data_PCOD9250931
_publ_section_title
;
Structure prediction by ZEFSAII (Michael W. Deem and Ramdas Pophale) SiO2 
 PCOD9250931
Probable space group: P 21/C
;
_chemical_formula_sum "Si O2"
_cell_formula_units_Z 20
_cell_length_a 10.702355
_cell_length_b 4.589936
_cell_length_c 13.499865
_cell_angle_alpha 90.000000
_cell_angle_beta 92.784834
_cell_angle_gamma 90.000000
_cell_volume 662.372384
_symmetry_space_group_name_H-M "P 21/C"
_symmetry_group_IT_number 14
_symmetry_cell_setting 'monoclinic'
loop_
_space_group_symop_operation_xyz
x,y,z
-x,1/2+y,1/2-z
-x,-y,-z
x,1/2-y,1/2+z
loop_
_atom_site_type_symbol
_atom_site_label
_atom_site_fract_x
_atom_site_fract_y
_atom_site_fract_z
Si Si1 0.082862 0.701298 0.718938
Si Si2 0.588171 0.952272 0.773052
Si Si3 0.747777 0.567112 0.645399
Si Si4 0.385298 0.713104 0.018312
Si Si5 0.884055 0.279127 0.993750
O O1 0.203696 0.877562 0.759618
O O2 0.110307 0.610058 0.609169
O O3 0.032418 0.433056 0.781073
O O4 0.513493 0.652761 0.785567
O O5 0.696247 0.852378 0.699476
O O6 0.615043 0.106757 0.878736
O O7 0.635954 0.445387 0.572067
O O8 0.862841 0.463912 0.577685
O O9 0.249207 0.548459 0.009586
O O10 0.500000 0.500000 0.000000
O O11 0.000000 0.500000 0.000000
#
# Coordination Sequence:
#
# PCOD9250931 Si02
#       5
#     4   4   4   4   4
#     4  12  27  51  90 135 189 249 325 403 492 589
#     4  12  32  57  94 142 204 260 332 423 509 599
#     4  10  28  56  95 139 196 258 334 412 502 592
#     4  10  27  59 100 148 196 262 344 412 507 606
#     4  10  24  58  94 139 183 256 319 408 490 595
#
# _framework density 30.194499
#
# number of rings (size 3 to 8) (size 9 to 14) (size 15 to 20)
#    1.200    0.000    2.000    0.000    8.400    2.400 
#    7.200    0.000    0.000    0.000    0.000    0.000 
#    0.000    0.000    0.000    0.000    0.000    0.000 
#
# Total GULP energy -111996.564976 kJ/mol
# GULP energy per Si atom -5599.828249 kJ/mol
# Density = 3.012577 g / cm^3
# Si number density = 30.194499 Si / 1000 Ang^3
#
#
#
# Elastic Constant Matrix: (Units=GPa)
#
#
# Indices 1 2 3 4 5 6 
#
# 1 259.2827 97.6331 68.6144 0.0000 -13.9606 0.0000
# 2 97.6331 165.0559 30.9853 0.0000 -13.0824 0.0000
# 3 68.6144 30.9853 191.8020 0.0000 -28.6585 0.0000
# 4 0.0000 0.0000 0.0000 54.7633 0.0000 -13.3727
# 5 -13.9606 -13.0824 -28.6585 0.0000 42.3855 0.0000
# 6 0.0000 0.0000 0.0000 -13.3727 0.0000 86.4997
#
#
#
# Elastic Compliance Matrix: (Units=1/GPa)
#
#
# Indices 1 2 3 4 5 6 
#
# 1 0.005322 -0.002884 -0.001456 0.000000 -0.000122 0.000000
# 2 -0.002884 0.007885 -0.000023 0.000000 0.001469 0.000000
# 3 -0.001456 -0.000023 0.006302 0.000000 0.003775 0.000000
# 4 0.000000 0.000000 0.000000 0.018977 0.000000 0.002934
# 5 -0.000122 0.001469 0.003775 0.000000 0.026558 0.000000
# 6 0.000000 0.000000 0.000000 0.002934 0.000000 0.012014
#
#
# Mechanical properties :
#
#
# Convention : Reuss Voigt Hill
#
# Bulk Modulus (GPa) = 92.73486 112.28956 102.51221
# Shear Modulus (GPa) = 55.94192 64.65687 60.29940
#
# Velocity S-wave (km/s) = 4.30899 4.63249 4.47367
# Velocity P-wave (km/s) = 7.45223 8.11682 7.79161
#
# Compressibility (1/GPa) = 0.01078343
#
# Stress axis : x y z
#
# Youngs Moduli (GPa) = 187.91526 126.81986 158.67396
#
# Poissons Ratio (x) = 0.36576 0.23103
# Poissons Ratio (y) = 0.54197 0.00360
# Poissons Ratio (z) = 0.27360 0.00287
#
# Static dielectric constant tensor:
#      x y z
#    x 2.560230 0.000000 -0.005210 
#    y 0.000000 2.323220 0.000000 
#    z -0.005210 0.000000 2.318940 
# 
# From -- ./inp_files/42475.got.cif
#   From: 2010.05.17/outbox.cif.g08.bks.cpg/sg14_22_cif.got.tgz:42475.got - 2010.06.03 17:49:19.
