data_PCOD9250914
_publ_section_title
;
Structure prediction by ZEFSAII (Michael W. Deem and Ramdas Pophale) SiO2 
 PCOD9250914
Probable space group: P 21/C
;
_chemical_formula_sum "Si O2"
_cell_formula_units_Z 16
_cell_length_a 25.779958
_cell_length_b 4.589600
_cell_length_c 13.725846
_cell_angle_alpha 90.000000
_cell_angle_beta 161.217163
_cell_angle_gamma 90.000000
_cell_volume 522.911157
_symmetry_space_group_name_H-M "P 21/C"
_symmetry_group_IT_number 14
_symmetry_cell_setting 'monoclinic'
loop_
_space_group_symop_operation_xyz
x,y,z
-x,1/2+y,1/2-z
-x,-y,-z
x,1/2-y,1/2+z
loop_
_atom_site_type_symbol
_atom_site_label
_atom_site_fract_x
_atom_site_fract_y
_atom_site_fract_z
Si Si1 0.897863 0.779472 0.035871
Si Si2 0.326747 0.593556 0.236242
Si Si3 0.489398 0.984054 0.305104
Si Si4 0.152512 0.275682 0.266007
O O1 0.045036 0.547554 0.297386
O O2 0.752665 0.584559 0.815724
O O3 0.863597 0.882419 0.866736
O O4 0.500000 0.500000 0.500000
O O5 0.380760 0.898513 0.384240
O O6 0.196639 0.471327 0.924412
O O7 0.521139 0.171841 0.263889
O O8 0.316854 0.038761 0.048631
O O9 0.000000 0.500000 0.000000
#
# Coordination Sequence:
#
# PCOD9250914 Si02
#       4
#     4   4   4   4
#     4  12  27  49  76 113 162 206 265 334 404 482
#     4  10  24  50  79 119 155 214 269 336 405 490
#     4  11  25  49  82 116 164 215 268 336 408 485
#     4  11  24  51  79 120 160 214 270 336 409 489
#
# _framework density 30.597932
#
# number of rings (size 3 to 8) (size 9 to 14) (size 15 to 20)
#    0.000    1.000    5.000    0.000    3.500    1.000 
#    9.000    7.500    0.000    0.000    0.000    0.000 
#    0.000    0.000    0.000    0.000    0.000    0.000 
#
# Total GULP energy -89592.457821 kJ/mol
# GULP energy per Si atom -5599.528614 kJ/mol
# Density = 3.052829 g / cm^3
# Si number density = 30.597932 Si / 1000 Ang^3
#
#
#
# Elastic Constant Matrix: (Units=GPa)
#
#
# Indices 1 2 3 4 5 6 
#
# 1 143.0596 -5.6089 85.9331 0.0000 -40.9785 0.0000
# 2 -5.6089 90.5636 71.6446 0.0000 0.4640 0.0000
# 3 85.9331 71.6446 248.1982 0.0000 9.5769 0.0000
# 4 0.0000 0.0000 0.0000 60.3500 0.0000 1.7716
# 5 -40.9785 0.4640 9.5769 0.0000 80.2231 0.0000
# 6 0.0000 0.0000 0.0000 1.7716 0.0000 51.3052
#
#
#
# Elastic Compliance Matrix: (Units=1/GPa)
#
#
# Indices 1 2 3 4 5 6 
#
# 1 0.013449 0.006105 -0.006713 0.000000 0.007636 0.000000
# 2 0.006105 0.017094 -0.007198 0.000000 0.003879 0.000000
# 3 -0.006713 -0.007198 0.008601 0.000000 -0.004414 0.000000
# 4 0.000000 0.000000 0.000000 0.016587 0.000000 -0.000573
# 5 0.007636 0.003879 -0.004414 0.000000 0.016870 0.000000
# 6 0.000000 0.000000 0.000000 -0.000573 0.000000 0.019511
#
#
# Mechanical properties :
#
#
# Convention : Reuss Voigt Hill
#
# Bulk Modulus (GPa) = 42.49461 87.30653 64.90057
# Shear Modulus (GPa) = 43.26384 60.36585 51.81485
#
# Velocity S-wave (km/s) = 3.76433 4.44652 4.11957
# Velocity P-wave (km/s) = 5.72816 7.41333 6.62455
#
# Compressibility (1/GPa) = 0.02353240
#
# Stress axis : x y z
#
# Youngs Moduli (GPa) = 74.35300 58.49915 116.26002
#
# Poissons Ratio (x) = -0.35712 0.78050
# Poissons Ratio (y) = -0.45391 0.83681
# Poissons Ratio (z) = 0.49916 0.42106
#
# Static dielectric constant tensor:
#      x y z
#    x 2.355330 0.000000 -0.009770 
#    y 0.000000 2.432710 0.000000 
#    z -0.009770 0.000000 2.573690 
# 
# From -- ./inp_files/51687.got.cif
#   From: 2010.05.17/outbox.cif.g08.bks.cpg/sg14_26_cif.got.tgz:51687.got - 2010.06.03 17:49:19.
