data_PCOD9250904
_publ_section_title
;
Structure prediction by ZEFSAII (Michael W. Deem and Ramdas Pophale) SiO2 
 PCOD9250904
Probable space group: P 21/C
;
_chemical_formula_sum "Si O2"
_cell_formula_units_Z 20
_cell_length_a 30.905247
_cell_length_b 4.906927
_cell_length_c 13.632301
_cell_angle_alpha 90.000000
_cell_angle_beta 21.043369
_cell_angle_gamma 90.000000
_cell_volume 742.327503
_symmetry_space_group_name_H-M "P 21/C"
_symmetry_group_IT_number 14
_symmetry_cell_setting 'monoclinic'
loop_
_space_group_symop_operation_xyz
x,y,z
-x,1/2+y,1/2-z
-x,-y,-z
x,1/2-y,1/2+z
loop_
_atom_site_type_symbol
_atom_site_label
_atom_site_fract_x
_atom_site_fract_y
_atom_site_fract_z
Si Si1 0.261370 0.107803 0.380010
Si Si2 0.495598 0.301637 0.915468
Si Si3 0.131521 0.886075 0.243532
Si Si4 0.914422 0.263603 0.442059
Si Si5 0.332221 0.490506 0.088470
O O1 0.223068 0.389400 0.512006
O O2 0.285592 0.180534 0.213527
O O3 0.164985 0.895757 0.621192
O O4 0.393799 0.065984 0.143992
O O5 0.607360 0.132332 0.633560
O O6 0.500000 0.500000 0.000000
O O7 0.437961 0.489834 0.948034
O O8 0.201752 0.864060 0.871669
O O9 0.000000 0.000000 0.500000
O O10 0.135066 0.843853 0.350976
O O11 0.999822 0.025871 0.219796
#
# Coordination Sequence:
#
# PCOD9250904 Si02
#       5
#     4   4   4   4   4
#     4  10  26  45  77 117 163 214 284 351 433 514
#     4  10  24  49  83 126 173 232 290 369 451 530
#     4  12  25  48  77 118 158 228 284 353 429 529
#     4  12  28  51  79 117 168 220 281 357 436 515
#     4  10  26  47  81 122 172 218 290 359 429 526
#
# _framework density 26.942288000000001
#
# number of rings (size 3 to 8) (size 9 to 14) (size 15 to 20)
#    1.200    0.000    0.000    4.200    2.800    8.000 
#    0.000    3.000    0.000    0.000    0.000    0.000 
#    0.000    0.000    0.000    0.000    0.000    0.000 
#
# Total GULP energy -111676.064205 kJ/mol
# GULP energy per Si atom -5583.803210 kJ/mol
# Density = 2.688097 g / cm^3
# Si number density = 26.942288 Si / 1000 Ang^3
#
#
#
# Elastic Constant Matrix: (Units=GPa)
#
#
# Indices 1 2 3 4 5 6 
#
# 1 97.6360 24.3123 30.9196 0.0000 23.3419 0.0000
# 2 24.3123 148.3926 53.2420 0.0000 6.2900 0.0000
# 3 30.9196 53.2420 164.0608 0.0000 -2.5196 0.0000
# 4 0.0000 0.0000 0.0000 77.3441 0.0000 7.5445
# 5 23.3419 6.2900 -2.5196 0.0000 37.5139 0.0000
# 6 0.0000 0.0000 0.0000 7.5445 0.0000 18.8494
#
#
#
# Elastic Compliance Matrix: (Units=1/GPa)
#
#
# Indices 1 2 3 4 5 6 
#
# 1 0.013169 -0.000991 -0.002286 0.000000 -0.008181 0.000000
# 2 -0.000991 0.007781 -0.002351 0.000000 -0.000846 0.000000
# 3 -0.002286 -0.002351 0.007325 0.000000 0.002309 0.000000
# 4 0.000000 0.000000 0.000000 0.013455 0.000000 -0.005385
# 5 -0.008181 -0.000846 0.002309 0.000000 0.032044 0.000000
# 6 0.000000 0.000000 0.000000 -0.005385 0.000000 0.055207
#
#
# Mechanical properties :
#
#
# Convention : Reuss Voigt Hill
#
# Bulk Modulus (GPa) = 58.76073 69.67081 64.21577
# Shear Modulus (GPa) = 34.26803 46.84918 40.55860
#
# Velocity S-wave (km/s) = 3.57025 4.17450 3.88414
# Velocity P-wave (km/s) = 6.23320 7.01076 6.63338
#
# Compressibility (1/GPa) = 0.01701817
#
# Stress axis : x y z
#
# Youngs Moduli (GPa) = 75.93819 128.52345 136.52510
#
# Poissons Ratio (x) = 0.12731 0.31210
# Poissons Ratio (y) = 0.07522 0.32102
# Poissons Ratio (z) = 0.17359 0.30220
#
# Static dielectric constant tensor:
#      x y z
#    x 2.231030 0.000000 0.013180 
#    y 0.000000 2.675460 0.000000 
#    z 0.013180 0.000000 2.107930 
# 
# From -- ./inp_files/35446.got.cif
#   From: 2010.05.17/outbox.cif.g08.bks.cpg/sg14_18_cif.got.tgz:35446.got - 2010.06.03 17:49:19.
