data_PCOD9250302
_publ_section_title
;
Structure prediction by ZEFSAII (Michael W. Deem and Ramdas Pophale) SiO2 
 PCOD9250302
Probable space group: P 21/C
;
_chemical_formula_sum "Si O2"
_cell_formula_units_Z 28
_cell_length_a 14.467676
_cell_length_b 14.236597
_cell_length_c 8.919866
_cell_angle_alpha 90.000000
_cell_angle_beta 139.663456
_cell_angle_gamma 90.000000
_cell_volume 1189.194410
_symmetry_space_group_name_H-M "P 21/C"
_symmetry_group_IT_number 14
_symmetry_cell_setting 'monoclinic'
loop_
_space_group_symop_operation_xyz
x,y,z
-x,1/2+y,1/2-z
-x,-y,-z
x,1/2-y,1/2+z
loop_
_atom_site_type_symbol
_atom_site_label
_atom_site_fract_x
_atom_site_fract_y
_atom_site_fract_z
Si Si1 0.434792 0.680407 0.994810
Si Si2 0.165240 0.253140 0.127609
Si Si3 0.981218 0.337409 0.166821
Si Si4 0.258428 0.784977 0.992623
Si Si5 0.650460 0.833555 0.389337
Si Si6 0.264273 0.942721 0.751339
Si Si7 0.505588 0.036557 0.203715
O O1 0.296809 0.700463 0.927802
O O2 0.537739 0.763357 0.175068
O O3 0.500338 0.586537 0.144285
O O4 0.383631 0.686549 0.762622
O O5 0.218725 0.325078 0.066137
O O6 0.291339 0.207613 0.382763
O O7 0.065450 0.307896 0.121517
O O8 0.087813 0.169155 0.939813
O O9 0.871764 0.252715 0.070730
O O10 0.885092 0.430987 0.022050
O O11 0.237809 0.871488 0.855681
O O12 0.582188 0.935904 0.315214
O O13 0.390180 0.912896 0.789427
O O14 0.347849 0.028032 0.936334
#
# Coordination Sequence:
#
# PCOD9250302 Si02
#       7
#     4   4   4   4   4   4   4
#     4  12  23  40  72 100 136 173 215 285 356 399
#     4  10  24  40  71  89 133 188 224 268 325 398
#     4  11  19  42  69  95 123 184 235 262 322 400
#     4  12  20  39  71 101 128 174 227 280 331 405
#     4  11  24  45  65 100 139 173 224 278 344 405
#     4  11  23  39  68  98 135 167 221 281 335 396
#     4  11  25  43  68 104 139 168 218 292 352 395
#
# _framework density 23.545351
#
# number of rings (size 3 to 8) (size 9 to 14) (size 15 to 20)
#    0.000    0.857    5.714    0.857    6.000    0.571 
#    0.000    1.429    0.000    0.000    0.000    0.000 
#    0.000    0.000    0.000    0.000    0.000    0.000 
#
# Total GULP energy -156395.346439 kJ/mol
# GULP energy per Si atom -5585.548087 kJ/mol
# Density = 2.349176 g / cm^3
# Si number density = 23.545351 Si / 1000 Ang^3
#
#
#
# Elastic Constant Matrix: (Units=GPa)
#
#
# Indices 1 2 3 4 5 6 
#
# 1 86.0190 17.8385 6.5904 0.0000 -12.4776 0.0000
# 2 17.8385 63.3184 26.7842 0.0000 0.6174 0.0000
# 3 6.5904 26.7842 144.6165 0.0000 -19.2347 0.0000
# 4 0.0000 0.0000 0.0000 40.5776 0.0000 -3.8626
# 5 -12.4776 0.6174 -19.2347 0.0000 38.9013 0.0000
# 6 0.0000 0.0000 0.0000 -3.8626 0.0000 25.6984
#
#
#
# Elastic Compliance Matrix: (Units=1/GPa)
#
#
# Indices 1 2 3 4 5 6 
#
# 1 0.013081 -0.004057 0.000773 0.000000 0.004642 0.000000
# 2 -0.004057 0.018537 -0.003704 0.000000 -0.003427 0.000000
# 3 0.000773 -0.003704 0.008142 0.000000 0.004332 0.000000
# 4 0.000000 0.000000 0.000000 0.025002 0.000000 0.003758
# 5 0.004642 -0.003427 0.004332 0.000000 0.029392 0.000000
# 6 0.000000 0.000000 0.000000 0.003758 0.000000 0.039478
#
#
# Mechanical properties :
#
#
# Convention : Reuss Voigt Hill
#
# Bulk Modulus (GPa) = 38.78674 44.04223 41.41449
# Shear Modulus (GPa) = 32.00984 37.21816 34.61400
#
# Velocity S-wave (km/s) = 3.69114 3.98012 3.83835
# Velocity P-wave (km/s) = 5.88854 6.31408 6.10502
#
# Compressibility (1/GPa) = 0.02578201
#
# Stress axis : x y z
#
# Youngs Moduli (GPa) = 76.44713 53.94747 122.82191
#
# Poissons Ratio (x) = 0.21889 -0.09491
# Poissons Ratio (y) = 0.31018 0.45494
# Poissons Ratio (z) = -0.05908 0.19982
#
# Static dielectric constant tensor:
#      x y z
#    x 1.980950 0.000000 0.058380 
#    y 0.000000 1.938020 0.000000 
#    z 0.058380 0.000000 1.947550 
# 
# From -- ./inp_files/16433.got.cif
#   From: 2010.05.17/outbox.cif.g08.bks.cpg/sg14_9_cif.got.tgz:16433.got - 2010.06.03 17:49:19.
