data_PCOD9250719
_publ_section_title
;
Structure prediction by ZEFSAII (Michael W. Deem and Ramdas Pophale) SiO2 
 PCOD9250719
Probable space group: P 21/C
;
_chemical_formula_sum "Si O2"
_cell_formula_units_Z 20
_cell_length_a 12.426348
_cell_length_b 13.283677
_cell_length_c 13.987488
_cell_angle_alpha 90.000000
_cell_angle_beta 158.782548
_cell_angle_gamma 90.000000
_cell_volume 835.603731
_symmetry_space_group_name_H-M "P 21/C"
_symmetry_group_IT_number 14
_symmetry_cell_setting 'monoclinic'
loop_
_space_group_symop_operation_xyz
x,y,z
-x,1/2+y,1/2-z
-x,-y,-z
x,1/2-y,1/2+z
loop_
_atom_site_type_symbol
_atom_site_label
_atom_site_fract_x
_atom_site_fract_y
_atom_site_fract_z
Si Si1 0.431032 0.769356 0.791908
Si Si2 0.010737 0.394063 0.206666
Si Si3 0.790118 0.568283 0.263417
Si Si4 0.055457 0.379296 0.820694
Si Si5 0.692864 0.207533 0.605404
O O1 0.198727 0.824848 0.532216
O O2 0.284550 0.716061 0.761939
O O3 0.645527 0.687515 0.918236
O O4 0.654728 0.853715 0.021019
O O5 0.952766 0.510792 0.139744
O O6 0.910813 0.370054 0.232692
O O7 0.000000 0.500000 0.500000
O O8 0.947591 0.603413 0.296253
O O9 0.500000 0.500000 0.000000
O O10 0.637395 0.665237 0.186689
O O11 0.784768 0.313539 0.636099
#
# Coordination Sequence:
#
# PCOD9250719 Si02
#       5
#     4   4   4   4   4
#     4  10  26  43  67 106 140 185 245 291 362 430
#     4  11  24  44  70 102 142 190 236 299 361 427
#     4  11  24  44  74 106 138 191 245 297 356 428
#     4  10  24  45  74 105 143 193 238 300 367 426
#     4  10  24  46  70 105 147 181 243 300 351 438
#
# _framework density 23.93479
#
# number of rings (size 3 to 8) (size 9 to 14) (size 15 to 20)
#    0.000    1.600    2.000    0.000    2.800   17.600 
#    0.000    0.000    0.000    0.000    0.000    0.000 
#    0.000    0.000    0.000    0.000    0.000    0.000 
#
# Total GULP energy -111975.388877 kJ/mol
# GULP energy per Si atom -5598.769444 kJ/mol
# Density = 2.388031 g / cm^3
# Si number density = 23.934790 Si / 1000 Ang^3
#
#
#
# Elastic Constant Matrix: (Units=GPa)
#
#
# Indices 1 2 3 4 5 6 
#
# 1 92.4285 39.3148 51.5562 0.0000 8.7660 0.0000
# 2 39.3148 193.3521 60.1205 0.0000 1.7816 0.0000
# 3 51.5562 60.1205 137.5417 0.0000 -10.1539 0.0000
# 4 0.0000 0.0000 0.0000 40.6628 0.0000 13.1688
# 5 8.7660 1.7816 -10.1539 0.0000 29.6213 0.0000
# 6 0.0000 0.0000 0.0000 13.1688 0.0000 43.1590
#
#
#
# Elastic Compliance Matrix: (Units=1/GPa)
#
#
# Indices 1 2 3 4 5 6 
#
# 1 0.015053 -0.001278 -0.005547 0.000000 -0.006279 0.000000
# 2 -0.001278 0.006142 -0.002262 0.000000 -0.000767 0.000000
# 3 -0.005547 -0.002262 0.010742 0.000000 0.005460 0.000000
# 4 0.000000 0.000000 0.000000 0.027289 0.000000 -0.008327
# 5 -0.006279 -0.000767 0.005460 0.000000 0.037535 0.000000
# 6 0.000000 0.000000 0.000000 -0.008327 0.000000 0.025711
#
#
# Mechanical properties :
#
#
# Convention : Reuss Voigt Hill
#
# Bulk Modulus (GPa) = 72.66698 80.58949 76.62824
# Shear Modulus (GPa) = 34.42710 40.84400 37.63555
#
# Velocity S-wave (km/s) = 3.79670 4.13543 3.96968
# Velocity P-wave (km/s) = 7.04601 7.51970 7.28670
#
# Compressibility (1/GPa) = 0.01376141
#
# Stress axis : x y z
#
# Youngs Moduli (GPa) = 66.43401 162.80548 93.09379
#
# Poissons Ratio (x) = 0.20806 0.51642
# Poissons Ratio (y) = 0.08490 0.21062
# Poissons Ratio (z) = 0.36853 0.36833
#
# Static dielectric constant tensor:
#      x y z
#    x 1.914720 0.000000 -0.005860 
#    y 0.000000 1.986690 0.000000 
#    z -0.005860 0.000000 1.925420 
# 
# From -- ./inp_files/59431.got.cif
#   From: 2010.05.17/outbox.cif.g08.bks.cpg/sg14_30_cif.got.tgz:59431.got - 2010.06.03 17:49:19.
