data_PCOD9250477
_publ_section_title
;
Structure prediction by ZEFSAII (Michael W. Deem and Ramdas Pophale) SiO2 
 PCOD9250477
Probable space group: P 21/C
;
_chemical_formula_sum "Si O2"
_cell_formula_units_Z 28
_cell_length_a 23.062818
_cell_length_b 7.139682
_cell_length_c 16.045979
_cell_angle_alpha 90.000000
_cell_angle_beta 152.703020
_cell_angle_gamma 90.000000
_cell_volume 1211.697139
_symmetry_space_group_name_H-M "P 21/C"
_symmetry_group_IT_number 14
_symmetry_cell_setting 'monoclinic'
loop_
_space_group_symop_operation_xyz
x,y,z
-x,1/2+y,1/2-z
-x,-y,-z
x,1/2-y,1/2+z
loop_
_atom_site_type_symbol
_atom_site_label
_atom_site_fract_x
_atom_site_fract_y
_atom_site_fract_z
Si Si1 0.837974 0.970456 0.490074
Si Si2 0.302327 0.596628 0.956402
Si Si3 0.617233 0.959450 0.088709
Si Si4 0.266800 0.105017 0.062909
Si Si5 0.358249 0.474927 0.852086
Si Si6 0.535545 0.433180 0.297835
Si Si7 0.906182 0.277313 0.712947
O O1 0.740337 0.036475 0.294638
O O2 0.768711 0.820379 0.463626
O O3 0.950411 0.844478 0.595159
O O4 0.889663 0.145180 0.610007
O O5 0.386627 0.417361 0.089229
O O6 0.388419 0.741287 0.119535
O O7 0.319057 0.603555 0.878741
O O8 0.161239 0.648467 0.802996
O O9 0.646329 0.739057 0.123996
O O10 0.500000 0.000000 0.000000
O O11 0.577109 0.019647 0.945048
O O12 0.401615 0.069781 0.191076
O O13 0.272391 0.010738 0.161307
O O14 0.168507 0.975825 0.887400
O O15 0.500000 0.500000 0.000000
#
# Coordination Sequence:
#
# PCOD9250477 Si02
#       7
#     4   4   4   4   4   4   4
#     4  11  24  45  70  94 137 178 234 280 344 410
#     4  11  24  39  67 100 136 177 229 281 351 411
#     4  11  25  40  66 101 133 175 227 289 354 404
#     4  10  24  43  65  98 130 182 226 281 339 414
#     4  11  22  40  63  98 140 172 224 286 350 401
#     4  11  23  40  63  99 135 169 228 284 347 405
#     4  11  24  44  70  94 133 183 232 277 344 414
#
# _framework density 23.108087000000001
#
# number of rings (size 3 to 8) (size 9 to 14) (size 15 to 20)
#    0.000    1.143    2.857    2.571   12.000    0.000 
#    0.000    7.143    0.000    0.000    0.000    0.000 
#    0.000    0.000    0.000    0.000    0.000    0.000 
#
# Total GULP energy -156270.368834 kJ/mol
# GULP energy per Si atom -5581.084601 kJ/mol
# Density = 2.305549 g / cm^3
# Si number density = 23.108087 Si / 1000 Ang^3
#
#
#
# Elastic Constant Matrix: (Units=GPa)
#
#
# Indices 1 2 3 4 5 6 
#
# 1 119.4315 2.0760 51.3542 0.0000 4.0079 0.0000
# 2 2.0760 58.7983 -1.8300 0.0000 -10.9542 0.0000
# 3 51.3542 -1.8300 102.1372 0.0000 3.2733 0.0000
# 4 0.0000 0.0000 0.0000 35.6988 0.0000 2.4673
# 5 4.0079 -10.9542 3.2733 0.0000 38.8925 0.0000
# 6 0.0000 0.0000 0.0000 2.4673 0.0000 33.6146
#
#
#
# Elastic Compliance Matrix: (Units=1/GPa)
#
#
# Indices 1 2 3 4 5 6 
#
# 1 0.010727 -0.000705 -0.005379 0.000000 -0.000851 0.000000
# 2 -0.000705 0.017998 0.000513 0.000000 0.005099 0.000000
# 3 -0.005379 0.000513 0.012516 0.000000 -0.000354 0.000000
# 4 0.000000 0.000000 0.000000 0.028155 0.000000 -0.002067
# 5 -0.000851 0.005099 -0.000354 0.000000 0.027265 0.000000
# 6 0.000000 0.000000 0.000000 -0.002067 0.000000 0.029901
#
#
# Mechanical properties :
#
#
# Convention : Reuss Voigt Hill
#
# Bulk Modulus (GPa) = 33.22214 42.61859 37.92036
# Shear Modulus (GPa) = 33.84447 36.89232 35.36839
#
# Velocity S-wave (km/s) = 3.83118 3.99997 3.91649
# Velocity P-wave (km/s) = 5.82912 6.31001 6.07433
#
# Compressibility (1/GPa) = 0.03010041
#
# Stress axis : x y z
#
# Youngs Moduli (GPa) = 93.22651 55.56160 79.89992
#
# Poissons Ratio (x) = 0.03915 0.42975
# Poissons Ratio (y) = 0.06570 -0.04102
# Poissons Ratio (z) = 0.50143 -0.02852
#
# Static dielectric constant tensor:
#      x y z
#    x 1.915280 0.000000 0.035240 
#    y 0.000000 2.052040 0.000000 
#    z 0.035240 0.000000 1.857120 
# 
# From -- ./inp_files/50109.got.cif
#   From: 2010.05.17/outbox.cif.g08.bks.cpg/sg14_26_cif.got.tgz:50109.got - 2010.06.03 17:49:19.
