data_PCOD9250537
_publ_section_title
;
Structure prediction by ZEFSAII (Michael W. Deem and Ramdas Pophale) SiO2 
 PCOD9250537
Probable space group: P 21/C
;
_chemical_formula_sum "Si O2"
_cell_formula_units_Z 24
_cell_length_a 5.079340
_cell_length_b 18.400439
_cell_length_c 10.631503
_cell_angle_alpha 90.000000
_cell_angle_beta 66.567816
_cell_angle_gamma 90.000000
_cell_volume 911.698141
_symmetry_space_group_name_H-M "P 21/C"
_symmetry_group_IT_number 14
_symmetry_cell_setting 'monoclinic'
loop_
_space_group_symop_operation_xyz
x,y,z
-x,1/2+y,1/2-z
-x,-y,-z
x,1/2-y,1/2+z
loop_
_atom_site_type_symbol
_atom_site_label
_atom_site_fract_x
_atom_site_fract_y
_atom_site_fract_z
Si Si1 0.557341 0.756210 0.513084
Si Si2 0.145001 0.101386 0.034755
Si Si3 0.984768 0.384637 0.089316
Si Si4 0.225366 0.422435 0.793565
Si Si5 0.623093 0.201544 0.194291
Si Si6 0.377096 0.050383 0.734166
O O1 0.648724 0.672451 0.510774
O O2 0.836681 0.808465 0.451177
O O3 0.401381 0.760889 0.408988
O O4 0.344407 0.774270 0.668372
O O5 0.179987 0.055997 0.157254
O O6 0.840474 0.140801 0.105711
O O7 0.200873 0.058649 0.896828
O O8 0.182844 0.428615 0.152209
O O9 0.658924 0.397976 0.193674
O O10 0.992021 0.419160 0.947272
O O11 0.318050 0.338817 0.760074
O O12 0.481831 0.470795 0.800764
#
# Coordination Sequence:
#
# PCOD9250537 Si02
#       6
#     4   4   4   4   4   4
#     4  10  24  44  67 101 139 181 242 291 356 422
#     4  11  26  43  73 101 143 191 231 299 357 422
#     4  11  27  45  76 105 142 192 238 299 348 419
#     4  10  25  47  69 106 144 190 236 296 349 428
#     4  10  24  43  71  99 141 185 237 294 360 415
#     4  12  27  46  74 109 144 189 242 286 358 423
#
# _framework density 26.324501000000001
#
# number of rings (size 3 to 8) (size 9 to 14) (size 15 to 20)
#    0.000    1.333    0.000    2.500   16.333    3.333 
#    0.000    0.000    0.000    0.000    0.000    0.000 
#    0.000    0.000    0.000    0.000    0.000    0.000 
#
# Total GULP energy -134266.774209 kJ/mol
# GULP energy per Si atom -5594.448925 kJ/mol
# Density = 2.626459 g / cm^3
# Si number density = 26.324501 Si / 1000 Ang^3
#
#
#
# Elastic Constant Matrix: (Units=GPa)
#
#
# Indices 1 2 3 4 5 6 
#
# 1 108.6587 1.9010 63.9047 0.0000 1.8260 0.0000
# 2 1.9010 52.4030 32.4110 0.0000 9.7879 0.0000
# 3 63.9047 32.4110 232.1024 0.0000 0.8358 0.0000
# 4 0.0000 0.0000 0.0000 42.2252 0.0000 6.5697
# 5 1.8260 9.7879 0.8358 0.0000 41.0131 0.0000
# 6 0.0000 0.0000 0.0000 6.5697 0.0000 44.4338
#
#
#
# Elastic Compliance Matrix: (Units=1/GPa)
#
#
# Indices 1 2 3 4 5 6 
#
# 1 0.011136 0.001807 -0.003315 0.000000 -0.000859 0.000000
# 2 0.001807 0.022225 -0.003582 0.000000 -0.005311 0.000000
# 3 -0.003315 -0.003582 0.005718 0.000000 0.000886 0.000000
# 4 0.000000 0.000000 0.000000 0.024240 0.000000 -0.003584
# 5 -0.000859 -0.005311 0.000886 0.000000 0.025670 0.000000
# 6 0.000000 0.000000 0.000000 -0.003584 0.000000 0.023035
#
#
# Mechanical properties :
#
#
# Convention : Reuss Voigt Hill
#
# Bulk Modulus (GPa) = 34.60382 65.51082 50.05732
# Shear Modulus (GPa) = 37.92548 45.19759 41.56154
#
# Velocity S-wave (km/s) = 3.79976 4.14809 3.97774
# Velocity P-wave (km/s) = 5.69426 6.91969 6.33667
#
# Compressibility (1/GPa) = 0.02889855
#
# Stress axis : x y z
#
# Youngs Moduli (GPa) = 89.80110 44.99478 174.87973
#
# Poissons Ratio (x) = -0.08131 0.57977
# Poissons Ratio (y) = -0.16227 0.62640
# Poissons Ratio (z) = 0.29771 0.16117
#
# Static dielectric constant tensor:
#      x y z
#    x 2.103810 0.000000 0.022080 
#    y 0.000000 2.173300 0.000000 
#    z 0.022080 0.000000 2.032470 
# 
# From -- ./inp_files/6220.got.cif
#   From: 2010.05.17/outbox.cif.g08.bks.cpg/sg14_4_cif.got.tgz:6220.got - 2010.06.03 17:49:19.
