data_PCOD9250080
_publ_section_title
;
Structure prediction by ZEFSAII (Michael W. Deem and Ramdas Pophale) SiO2 
 PCOD9250080
Probable space group: P 21/C
;
_chemical_formula_sum "Si O2"
_cell_formula_units_Z 20
_cell_length_a 10.993464
_cell_length_b 9.062908
_cell_length_c 16.914374
_cell_angle_alpha 90.000000
_cell_angle_beta 153.088679
_cell_angle_gamma 90.000000
_cell_volume 762.751512
_symmetry_space_group_name_H-M "P 21/C"
_symmetry_group_IT_number 14
_symmetry_cell_setting 'monoclinic'
loop_
_space_group_symop_operation_xyz
x,y,z
-x,1/2+y,1/2-z
-x,-y,-z
x,1/2-y,1/2+z
loop_
_atom_site_type_symbol
_atom_site_label
_atom_site_fract_x
_atom_site_fract_y
_atom_site_fract_z
Si Si1 0.528643 0.248417 0.068356
Si Si2 0.674184 0.757672 0.887471
Si Si3 0.840423 0.972248 0.728262
Si Si4 0.935214 0.216046 0.020645
Si Si5 0.020028 0.507706 0.157954
O O1 0.336434 0.192274 0.027098
O O2 0.704258 0.392195 0.195286
O O3 0.732660 0.114468 0.175452
O O4 0.356925 0.330412 0.901345
O O5 0.365177 0.750763 0.681932
O O6 0.858157 0.833246 0.928126
O O7 0.816168 0.600277 0.985000
O O8 0.897668 0.028308 0.672830
O O9 0.075448 0.902778 0.915668
O O10 0.066508 0.363402 0.134001
#
# Coordination Sequence:
#
# PCOD9250080 Si02
#       5
#     4   4   4   4   4
#     4  10  23  46  70 102 142 190 224 290 345 419
#     4  11  26  44  71 104 143 177 233 287 352 409
#     4  10  25  43  73 101 144 184 237 278 352 415
#     4  12  27  45  74 105 139 184 234 292 345 415
#     4  11  24  48  71 103 144 182 235 288 349 412
#
# _framework density 26.220858
#
# number of rings (size 3 to 8) (size 9 to 14) (size 15 to 20)
#    0.000    1.200    2.000    1.800   11.200    3.200 
#    3.600    0.000    0.000    0.000    0.000    0.000 
#    0.000    0.000    0.000    0.000    0.000    0.000 
#
# Total GULP energy -111855.531763 kJ/mol
# GULP energy per Si atom -5592.776588 kJ/mol
# Density = 2.616118 g / cm^3
# Si number density = 26.220858 Si / 1000 Ang^3
#
#
#
# Elastic Constant Matrix: (Units=GPa)
#
#
# Indices 1 2 3 4 5 6 
#
# 1 134.5478 37.6185 29.3807 0.0000 6.0241 0.0000
# 2 37.6185 97.5692 44.7749 0.0000 -11.6838 0.0000
# 3 29.3807 44.7749 101.7941 0.0000 -2.2761 0.0000
# 4 0.0000 0.0000 0.0000 53.2250 0.0000 -7.9212
# 5 6.0241 -11.6838 -2.2761 0.0000 32.6524 0.0000
# 6 0.0000 0.0000 0.0000 -7.9212 0.0000 31.7646
#
#
#
# Elastic Compliance Matrix: (Units=1/GPa)
#
#
# Indices 1 2 3 4 5 6 
#
# 1 0.008697 -0.003144 -0.001190 0.000000 -0.002812 0.000000
# 2 -0.003144 0.014582 -0.005385 0.000000 0.005422 0.000000
# 3 -0.001190 -0.005385 0.012517 0.000000 -0.000835 0.000000
# 4 0.000000 0.000000 0.000000 0.019512 0.000000 0.004866
# 5 -0.002812 0.005422 -0.000835 0.000000 0.033027 0.000000
# 6 0.000000 0.000000 0.000000 0.004866 0.000000 0.032695
#
#
# Mechanical properties :
#
#
# Convention : Reuss Voigt Hill
#
# Bulk Modulus (GPa) = 61.13364 61.93992 61.53678
# Shear Modulus (GPa) = 34.26495 38.33754 36.30124
#
# Velocity S-wave (km/s) = 3.61887 3.82789 3.72484
# Velocity P-wave (km/s) = 6.38961 6.57348 6.48220
#
# Compressibility (1/GPa) = 0.01635761
#
# Stress axis : x y z
#
# Youngs Moduli (GPa) = 114.98052 68.57803 79.88868
#
# Poissons Ratio (x) = 0.21560 0.09509
# Poissons Ratio (y) = 0.36148 0.43023
# Poissons Ratio (z) = 0.13686 0.36932
#
# Static dielectric constant tensor:
#      x y z
#    x 2.029350 0.000000 0.051070 
#    y 0.000000 2.003940 0.000000 
#    z 0.051070 0.000000 2.110810 
# 
# From -- ./inp_files/27961.got.cif
#   From: 2010.05.17/outbox.cif.g08.bks.cpg/sg14_14_cif.got.tgz:27961.got - 2010.06.03 17:49:19.
