data_PCOD9250403
_publ_section_title
;
Structure prediction by ZEFSAII (Michael W. Deem and Ramdas Pophale) SiO2 
 PCOD9250403
Probable space group: P 21/C
;
_chemical_formula_sum "Si O2"
_cell_formula_units_Z 24
_cell_length_a 23.284628
_cell_length_b 5.195819
_cell_length_c 8.683716
_cell_angle_alpha 90.000000
_cell_angle_beta 107.944565
_cell_angle_gamma 90.000000
_cell_volume 999.474131
_symmetry_space_group_name_H-M "P 21/C"
_symmetry_group_IT_number 14
_symmetry_cell_setting 'monoclinic'
loop_
_space_group_symop_operation_xyz
x,y,z
-x,1/2+y,1/2-z
-x,-y,-z
x,1/2-y,1/2+z
loop_
_atom_site_type_symbol
_atom_site_label
_atom_site_fract_x
_atom_site_fract_y
_atom_site_fract_z
Si Si1 0.610763 0.947365 0.354634
Si Si2 0.980588 0.625334 0.820813
Si Si3 0.806492 0.280412 0.393201
Si Si4 0.256571 0.052116 0.400860
Si Si5 0.433434 0.539660 0.513906
Si Si6 0.150930 0.085354 0.807281
O O1 0.677901 0.912933 0.477189
O O2 0.577266 0.683024 0.369577
O O3 0.609222 0.998644 0.170888
O O4 0.579559 0.186453 0.417706
O O5 0.911448 0.727644 0.766652
O O6 0.983080 0.377636 0.706686
O O7 0.000000 0.500000 0.000000
O O8 0.747256 0.380126 0.255021
O O9 0.840661 0.505352 0.509777
O O10 0.784044 0.086645 0.504161
O O11 0.851263 0.155538 0.308891
O O12 0.216361 0.295839 0.323003
O O13 0.500000 0.500000 0.500000
#
# Coordination Sequence:
#
# PCOD9250403 Si02
#       6
#     4   4   4   4   4   4
#     4  12  27  44  76 106 147 187 247 296 356 429
#     4  12  29  49  76 106 143 188 248 299 360 433
#     4  10  24  42  67  98 140 178 229 279 364 419
#     4  11  25  41  69 101 141 180 232 287 361 418
#     4  12  26  49  74 106 147 195 242 296 355 420
#     4  11  25  43  72  97 142 181 232 290 365 421
#
# _framework density 24.012626000000001
#
# number of rings (size 3 to 8) (size 9 to 14) (size 15 to 20)
#    0.000    0.667    0.000    6.000   18.667    0.000 
#    0.000    0.000    0.000    0.000    0.000    0.000 
#    0.000    0.000    0.000    0.000    0.000    0.000 
#
# Total GULP energy -134284.739021 kJ/mol
# GULP energy per Si atom -5595.197459 kJ/mol
# Density = 2.395797 g / cm^3
# Si number density = 24.012626 Si / 1000 Ang^3
#
#
#
# Elastic Constant Matrix: (Units=GPa)
#
#
# Indices 1 2 3 4 5 6 
#
# 1 65.6425 17.6414 -6.6836 0.0000 18.8279 0.0000
# 2 17.6414 92.7665 3.6578 0.0000 -4.5284 0.0000
# 3 -6.6836 3.6578 90.0172 0.0000 -1.8046 0.0000
# 4 0.0000 0.0000 0.0000 26.0150 0.0000 -4.4688
# 5 18.8279 -4.5284 -1.8046 0.0000 35.6344 0.0000
# 6 0.0000 0.0000 0.0000 -4.4688 0.0000 34.2586
#
#
#
# Elastic Compliance Matrix: (Units=1/GPa)
#
#
# Indices 1 2 3 4 5 6 
#
# 1 0.019656 -0.004324 0.001417 0.000000 -0.010863 0.000000
# 2 -0.004324 0.011814 -0.000726 0.000000 0.003749 0.000000
# 3 0.001417 -0.000726 0.011238 0.000000 -0.000272 0.000000
# 4 0.000000 0.000000 0.000000 0.039320 0.000000 0.005129
# 5 -0.010863 0.003749 -0.000272 0.000000 0.034265 0.000000
# 6 0.000000 0.000000 0.000000 0.005129 0.000000 0.029859
#
#
# Mechanical properties :
#
#
# Convention : Reuss Voigt Hill
#
# Bulk Modulus (GPa) = 28.21447 30.85080 29.53264
# Shear Modulus (GPa) = 30.26034 34.76897 32.51465
#
# Velocity S-wave (km/s) = 3.55376 3.80932 3.68375
# Velocity P-wave (km/s) = 5.34923 5.67657 5.51533
#
# Compressibility (1/GPa) = 0.03544280
#
# Stress axis : x y z
#
# Youngs Moduli (GPa) = 50.87406 84.64726 88.98166
#
# Poissons Ratio (x) = 0.36603 -0.12612
# Poissons Ratio (y) = 0.21999 0.06460
# Poissons Ratio (z) = -0.07211 0.06145
#
# Static dielectric constant tensor:
#      x y z
#    x 1.952700 0.000000 0.016300 
#    y 0.000000 2.431560 0.000000 
#    z 0.016300 0.000000 1.898050 
# 
# From -- ./inp_files/19276.got.cif
#   From: 2010.05.17/outbox.cif.g08.bks.cpg/sg14_10_cif.got.tgz:19276.got - 2010.06.03 17:49:19.
