data_PCOD9250788
_publ_section_title
;
Structure prediction by ZEFSAII (Michael W. Deem and Ramdas Pophale) SiO2 
 PCOD9250788
Probable space group: P 21/C
;
_chemical_formula_sum "Si O2"
_cell_formula_units_Z 28
_cell_length_a 8.125028
_cell_length_b 11.775025
_cell_length_c 10.481098
_cell_angle_alpha 90.000000
_cell_angle_beta 83.636165
_cell_angle_gamma 90.000000
_cell_volume 996.573006
_symmetry_space_group_name_H-M "P 21/C"
_symmetry_group_IT_number 14
_symmetry_cell_setting 'monoclinic'
loop_
_space_group_symop_operation_xyz
x,y,z
-x,1/2+y,1/2-z
-x,-y,-z
x,1/2-y,1/2+z
loop_
_atom_site_type_symbol
_atom_site_label
_atom_site_fract_x
_atom_site_fract_y
_atom_site_fract_z
Si Si1 0.530610 0.285724 0.276454
Si Si2 0.302294 0.485575 0.040654
Si Si3 0.597113 0.045693 0.211155
Si Si4 0.005669 0.798318 0.171482
Si Si5 0.820613 0.006090 0.950074
Si Si6 0.292062 0.274015 0.491180
Si Si7 0.145332 0.677188 0.910498
O O1 0.478801 0.153569 0.246886
O O2 0.481253 0.419568 0.265362
O O3 0.180438 0.298025 0.371113
O O4 0.691003 0.280518 0.174479
O O5 0.268254 0.352205 0.042283
O O6 0.187643 0.547888 0.946956
O O7 0.500000 0.500000 0.000000
O O8 0.272478 0.542108 0.181875
O O9 0.988301 0.273906 0.179675
O O10 0.690704 0.047537 0.067932
O O11 0.516128 0.778583 0.069778
O O12 0.098687 0.730474 0.051346
O O13 0.127451 0.909889 0.165869
O O14 0.755921 0.882482 0.922224
O O15 0.000000 0.000000 0.000000
#
# Coordination Sequence:
#
# PCOD9250788 Si02
#       7
#     4   4   4   4   4   4   4
#     4  11  21  43  74 110 149 212 263 328 400 480
#     4  12  24  47  76 114 155 203 272 338 400 487
#     4  11  22  42  78 111 154 202 267 338 402 479
#     4  11  26  49  73 113 157 205 264 328 417 484
#     4   9  21  46  71 102 151 200 260 325 399 479
#     4  10  24  46  72 113 149 210 260 335 400 495
#     4  12  26  47  77 111 157 208 262 336 408 486
#
# _framework density 28.096287
#
# number of rings (size 3 to 8) (size 9 to 14) (size 15 to 20)
#    0.000    1.143    4.286    0.857    0.000    4.000 
#   15.429    1.429    0.000    0.000    0.000    0.000 
#    0.000    0.000    0.000    0.000    0.000    0.000 
#
# Total GULP energy -156082.266674 kJ/mol
# GULP energy per Si atom -5574.366667 kJ/mol
# Density = 2.803234 g / cm^3
# Si number density = 28.096287 Si / 1000 Ang^3
#
#
#
# Elastic Constant Matrix: (Units=GPa)
#
#
# Indices 1 2 3 4 5 6 
#
# 1 89.9813 45.2233 66.8613 0.0000 3.7570 0.0000
# 2 45.2233 194.2365 44.3599 0.0000 -1.5033 0.0000
# 3 66.8613 44.3599 73.7745 0.0000 -7.3109 0.0000
# 4 0.0000 0.0000 0.0000 33.6393 0.0000 -11.6971
# 5 3.7570 -1.5033 -7.3109 0.0000 61.7350 0.0000
# 6 0.0000 0.0000 0.0000 -11.6971 0.0000 37.2218
#
#
#
# Elastic Compliance Matrix: (Units=1/GPa)
#
#
# Indices 1 2 3 4 5 6 
#
# 1 0.036369 -0.000984 -0.032978 0.000000 -0.006143 0.000000
# 2 -0.000984 0.005999 -0.002728 0.000000 -0.000117 0.000000
# 3 -0.032978 -0.002728 0.045813 0.000000 0.007366 0.000000
# 4 0.000000 0.000000 0.000000 0.033374 0.000000 0.010488
# 5 -0.006143 -0.000117 0.007366 0.000000 0.017442 0.000000
# 6 0.000000 0.000000 0.000000 0.010488 0.000000 0.030162
#
#
# Mechanical properties :
#
#
# Convention : Reuss Voigt Hill
#
# Bulk Modulus (GPa) = 67.55686 74.54237 71.04961
# Shear Modulus (GPa) = 20.20432 39.95574 30.08003
#
# Velocity S-wave (km/s) = 2.68453 3.77517 3.27556
# Velocity P-wave (km/s) = 5.80568 6.75212 6.29671
#
# Compressibility (1/GPa) = 0.01480235
#
# Stress axis : x y z
#
# Youngs Moduli (GPa) = 27.49591 166.68379 21.82791
#
# Poissons Ratio (x) = 0.16394 0.71985
# Poissons Ratio (y) = 0.02704 0.05954
# Poissons Ratio (z) = 0.90677 0.45464
#
# Static dielectric constant tensor:
#      x y z
#    x 2.386630 0.000000 0.105640 
#    y 0.000000 2.362510 0.000000 
#    z 0.105640 0.000000 2.218450 
# 
# From -- ./inp_files/65095.got.cif
#   From: 2010.05.17/outbox.cif.g08.bks.cpg/sg14_33_cif.got.tgz:65095.got - 2010.06.03 17:49:19.
