data_PCOD9250814
_publ_section_title
;
Structure prediction by ZEFSAII (Michael W. Deem and Ramdas Pophale) SiO2 
 PCOD9250814
Probable space group: P 21/C
;
_chemical_formula_sum "Si O2"
_cell_formula_units_Z 26
_cell_length_a 11.840234
_cell_length_b 7.455610
_cell_length_c 23.752251
_cell_angle_alpha 90.000000
_cell_angle_beta 30.640309
_cell_angle_gamma 90.000000
_cell_volume 1068.605930
_symmetry_space_group_name_H-M "P 21/C"
_symmetry_group_IT_number 14
_symmetry_cell_setting 'monoclinic'
loop_
_space_group_symop_operation_xyz
x,y,z
-x,1/2+y,1/2-z
-x,-y,-z
x,1/2-y,1/2+z
loop_
_atom_site_type_symbol
_atom_site_label
_atom_site_fract_x
_atom_site_fract_y
_atom_site_fract_z
Si Si1 0.820461 0.790878 0.480908
Si Si2 0.232074 0.114566 0.201398
Si Si3 0.485973 0.442502 0.070912
Si Si4 0.101997 0.708347 0.252754
Si Si5 0.737851 0.988420 0.105350
Si Si6 0.336712 0.217001 0.277948
Si Si7 0.000000 0.500000 0.000000
O O1 0.683232 0.967458 0.521272
O O2 0.689435 0.640097 0.572444
O O3 0.928686 0.713187 0.378220
O O4 0.005519 0.862717 0.443861
O O5 0.447480 0.229680 0.090347
O O6 0.205388 0.174133 0.277467
O O7 0.032956 0.181935 0.247109
O O8 0.229099 0.899555 0.197741
O O9 0.269090 0.544058 0.187148
O O10 0.500000 0.500000 0.000000
O O11 0.659915 0.915685 0.199292
O O12 0.591029 0.162781 0.158383
O O13 0.000000 0.000000 0.000000
O O14 0.207868 0.114216 0.382927
#
# Coordination Sequence:
#
# PCOD9250814 Si02
#       7
#     4   4   4   4   4   4   2
#     4  11  25  47  74 109 155 196 253 318 386 461
#     4  12  25  45  79 109 152 202 253 318 387 460
#     4  12  27  49  75 114 150 204 254 318 385 462
#     4  12  25  50  75 111 154 198 254 320 383 462
#     4  11  29  48  76 111 153 208 261 325 394 467
#     4  11  27  48  75 113 151 201 263 317 396 466
#     4  10  24  46  78 104 154 202 244 324 380 458
#
# _framework density 24.330763999999999
#
# number of rings (size 3 to 8) (size 9 to 14) (size 15 to 20)
#    0.000    0.615    4.615    0.923   10.769    0.615 
#    2.769    0.000    0.000    0.000    0.000    0.000 
#    0.000    0.000    0.000    0.000    0.000    0.000 
#
# Total GULP energy -144953.227061 kJ/mol
# GULP energy per Si atom -5575.124118 kJ/mol
# Density = 2.427539 g / cm^3
# Si number density = 24.330764 Si / 1000 Ang^3
#
#
#
# Elastic Constant Matrix: (Units=GPa)
#
#
# Indices 1 2 3 4 5 6 
#
# 1 111.5323 26.1825 34.6085 0.0000 8.4232 0.0000
# 2 26.1825 56.2375 -0.1115 0.0000 2.0860 0.0000
# 3 34.6085 -0.1115 66.5687 0.0000 8.5525 0.0000
# 4 0.0000 0.0000 0.0000 47.7734 0.0000 -5.5351
# 5 8.4232 2.0860 8.5525 0.0000 27.5010 0.0000
# 6 0.0000 0.0000 0.0000 -5.5351 0.0000 36.5639
#
#
#
# Elastic Compliance Matrix: (Units=1/GPa)
#
#
# Indices 1 2 3 4 5 6 
#
# 1 0.012353 -0.005711 -0.006251 0.000000 -0.001406 0.000000
# 2 -0.005711 0.020475 0.003102 0.000000 -0.000769 0.000000
# 3 -0.006251 0.003102 0.018813 0.000000 -0.004171 0.000000
# 4 0.000000 0.000000 0.000000 0.021306 0.000000 0.003225
# 5 -0.001406 -0.000769 -0.004171 0.000000 0.038149 0.000000
# 6 0.000000 0.000000 0.000000 0.003225 0.000000 0.027838
#
#
# Mechanical properties :
#
#
# Convention : Reuss Voigt Hill
#
# Bulk Modulus (GPa) = 29.48010 39.52194 34.50102
# Shear Modulus (GPa) = 29.76902 33.94492 31.85697
#
# Velocity S-wave (km/s) = 3.50167 3.73921 3.62239
# Velocity P-wave (km/s) = 5.33775 5.90941 5.63084
#
# Compressibility (1/GPa) = 0.03392118
#
# Stress axis : x y z
#
# Youngs Moduli (GPa) = 80.95461 48.83916 53.15482
#
# Poissons Ratio (x) = 0.27893 0.33227
# Poissons Ratio (y) = 0.46235 -0.16490
# Poissons Ratio (z) = 0.50604 -0.15151
#
# Static dielectric constant tensor:
#      x y z
#    x 1.924360 0.000000 -0.037100 
#    y 0.000000 2.044040 0.000000 
#    z -0.037100 0.000000 1.919960 
# 
# From -- ./inp_files/35703.got.cif
#   From: 2010.05.17/outbox.cif.g08.bks.cpg/sg14_18_cif.got.tgz:35703.got - 2010.06.03 17:49:19.
