data_PCOD9250231
_publ_section_title
;
Structure prediction by ZEFSAII (Michael W. Deem and Ramdas Pophale) SiO2 
 PCOD9250231
Probable space group: P 21/C
;
_chemical_formula_sum "Si O2"
_cell_formula_units_Z 28
_cell_length_a 16.330961
_cell_length_b 6.143747
_cell_length_c 15.037357
_cell_angle_alpha 90.000000
_cell_angle_beta 123.637629
_cell_angle_gamma 90.000000
_cell_volume 1256.119263
_symmetry_space_group_name_H-M "P 21/C"
_symmetry_group_IT_number 14
_symmetry_cell_setting 'monoclinic'
loop_
_space_group_symop_operation_xyz
x,y,z
-x,1/2+y,1/2-z
-x,-y,-z
x,1/2-y,1/2+z
loop_
_atom_site_type_symbol
_atom_site_label
_atom_site_fract_x
_atom_site_fract_y
_atom_site_fract_z
Si Si1 0.453368 0.823588 0.904963
Si Si2 0.616901 0.793673 0.258435
Si Si3 0.223333 0.230052 0.787758
Si Si4 0.707335 0.148360 0.066113
Si Si5 0.036820 0.536246 0.124355
Si Si6 0.575995 0.466834 0.890007
Si Si7 0.903781 0.381910 0.208417
O O1 0.350737 0.743380 0.885327
O O2 0.528884 0.629673 0.934596
O O3 0.422111 0.976481 0.805072
O O4 0.500000 0.000000 0.000000
O O5 0.701401 0.706704 0.245073
O O6 0.526330 0.629079 0.209551
O O7 0.643057 0.871627 0.372238
O O8 0.157419 0.411334 0.794424
O O9 0.284870 0.101725 0.900349
O O10 0.146395 0.062409 0.696477
O O11 0.818883 0.220019 0.123886
O O12 0.640559 0.253255 0.949912
O O13 0.044028 0.778554 0.172560
O O14 0.972968 0.422081 0.164921
O O15 0.000000 0.500000 0.000000
#
# Coordination Sequence:
#
# PCOD9250231 Si02
#       7
#     4   4   4   4   4   4   4
#     4  11  22  39  61  90 132 184 237 276 341 411
#     4  11  24  40  63  97 142 183 232 291 338 423
#     4  10  24  46  68 102 138 184 238 291 358 435
#     4  10  24  37  69  98 131 184 230 287 351 428
#     4  11  25  47  76 107 141 184 240 304 378 443
#     4  12  23  41  62  97 139 185 230 288 349 411
#     4  11  23  48  73 102 145 180 239 311 364 445
#
# _framework density 22.290875
#
# number of rings (size 3 to 8) (size 9 to 14) (size 15 to 20)
#    0.000    1.143    4.286    1.286    6.000    0.571 
#    0.000    1.429    0.000    0.000    0.000    0.000 
#    0.000    0.000    0.000    0.000    0.000    0.000 
#
# Total GULP energy -155979.029251 kJ/mol
# GULP energy per Si atom -5570.679616 kJ/mol
# Density = 2.224014 g / cm^3
# Si number density = 22.290875 Si / 1000 Ang^3
#
#
#
# Elastic Constant Matrix: (Units=GPa)
#
#
# Indices 1 2 3 4 5 6 
#
# 1 128.0574 30.9684 41.2707 0.0000 -12.0778 0.0000
# 2 30.9684 32.1566 20.5496 0.0000 -9.0882 0.0000
# 3 41.2707 20.5496 83.0057 0.0000 -8.1829 0.0000
# 4 0.0000 0.0000 0.0000 38.0259 0.0000 10.6766
# 5 -12.0778 -9.0882 -8.1829 0.0000 30.9627 0.0000
# 6 0.0000 0.0000 0.0000 10.6766 0.0000 48.4679
#
#
#
# Elastic Compliance Matrix: (Units=1/GPa)
#
#
# Indices 1 2 3 4 5 6 
#
# 1 0.010942 -0.008126 -0.003330 0.000000 0.001003 0.000000
# 2 -0.008126 0.045382 -0.006360 0.000000 0.008470 0.000000
# 3 -0.003330 -0.006360 0.015366 0.000000 0.000895 0.000000
# 4 0.000000 0.000000 0.000000 0.028032 0.000000 -0.006175
# 5 0.001003 0.008470 0.000895 0.000000 0.035411 0.000000
# 6 0.000000 0.000000 0.000000 -0.006175 0.000000 0.021992
#
#
# Mechanical properties :
#
#
# Convention : Reuss Voigt Hill
#
# Bulk Modulus (GPa) = 27.73308 47.64411 37.68859
# Shear Modulus (GPa) = 24.41705 33.52003 28.96854
#
# Velocity S-wave (km/s) = 3.31325 3.88204 3.60886
# Velocity P-wave (km/s) = 5.20627 6.44312 5.85744
#
# Compressibility (1/GPa) = 0.03605803
#
# Stress axis : x y z
#
# Youngs Moduli (GPa) = 91.39190 22.03524 65.08052
#
# Poissons Ratio (x) = 0.17907 0.21669
# Poissons Ratio (y) = 0.74268 0.41389
# Poissons Ratio (z) = 0.30430 0.14014
#
# Static dielectric constant tensor:
#      x y z
#    x 1.879180 0.000000 -0.116150 
#    y 0.000000 1.901820 0.000000 
#    z -0.116150 0.000000 2.048670 
# 
# From -- ./inp_files/48035.got.cif
#   From: 2010.05.17/outbox.cif.g08.bks.cpg/sg14_25_cif.got.tgz:48035.got - 2010.06.03 17:49:19.
