data_PCOD9250143
_publ_section_title
;
Structure prediction by ZEFSAII (Michael W. Deem and Ramdas Pophale) SiO2 
 PCOD9250143
Probable space group: P 21/C
;
_chemical_formula_sum "Si O2"
_cell_formula_units_Z 24
_cell_length_a 13.452922
_cell_length_b 12.210652
_cell_length_c 10.129313
_cell_angle_alpha 90.000000
_cell_angle_beta 38.666099
_cell_angle_gamma 90.000000
_cell_volume 1039.592481
_symmetry_space_group_name_H-M "P 21/C"
_symmetry_group_IT_number 14
_symmetry_cell_setting 'monoclinic'
loop_
_space_group_symop_operation_xyz
x,y,z
-x,1/2+y,1/2-z
-x,-y,-z
x,1/2-y,1/2+z
loop_
_atom_site_type_symbol
_atom_site_label
_atom_site_fract_x
_atom_site_fract_y
_atom_site_fract_z
Si Si1 0.160706 0.770322 0.186452
Si Si2 0.310748 0.312662 0.989446
Si Si3 0.339486 0.962180 0.097275
Si Si4 0.833640 0.024115 0.246539
Si Si5 0.182158 0.334846 0.851502
Si Si6 0.651732 0.402819 0.692168
O O1 0.291263 0.834142 0.142655
O O2 0.165446 0.640526 0.182193
O O3 0.991136 0.805917 0.416902
O O4 0.202582 0.822440 0.000912
O O5 0.300851 0.292029 0.843642
O O6 0.489402 0.334889 0.853344
O O7 0.212800 0.424926 0.111948
O O8 0.226854 0.224348 0.168975
O O9 0.205286 0.036719 0.301447
O O10 0.356376 0.986105 0.923235
O O11 0.500000 0.000000 0.000000
O O12 0.696707 0.036899 0.278097
O O13 0.000000 0.000000 0.000000
#
# Coordination Sequence:
#
# PCOD9250143 Si02
#       6
#     4   4   4   4   4   4
#     4  10  25  45  75 107 146 195 241 307 373 439
#     4  12  28  45  76 107 149 194 245 308 367 444
#     4  10  23  47  70 105 143 185 245 295 368 428
#     4  12  25  49  71 107 148 189 246 303 373 439
#     4  12  25  47  74 108 147 196 249 303 369 444
#     4  10  26  46  72 110 139 197 243 307 371 433
#
# _framework density 23.08597
#
# number of rings (size 3 to 8) (size 9 to 14) (size 15 to 20)
#    1.000    0.000    3.333    2.000    7.000    2.667 
#    0.000    0.000    0.000    0.000    0.000    0.000 
#    0.000    0.000    0.000    0.000    0.000    0.000 
#
# Total GULP energy -134158.499984 kJ/mol
# GULP energy per Si atom -5589.937499 kJ/mol
# Density = 2.303343 g / cm^3
# Si number density = 23.085970 Si / 1000 Ang^3
#
#
#
# Elastic Constant Matrix: (Units=GPa)
#
#
# Indices 1 2 3 4 5 6 
#
# 1 44.6360 -6.4778 -19.2274 0.0000 -2.4093 0.0000
# 2 -6.4778 95.7860 10.2596 0.0000 4.1057 0.0000
# 3 -19.2274 10.2596 69.9915 0.0000 -13.7688 0.0000
# 4 0.0000 0.0000 0.0000 33.9758 0.0000 3.6447
# 5 -2.4093 4.1057 -13.7688 0.0000 42.8249 0.0000
# 6 0.0000 0.0000 0.0000 3.6447 0.0000 23.9918
#
#
#
# Elastic Compliance Matrix: (Units=1/GPa)
#
#
# Indices 1 2 3 4 5 6 
#
# 1 0.026096 0.000759 0.007827 0.000000 0.003912 0.000000
# 2 0.000759 0.010735 -0.001664 0.000000 -0.001522 0.000000
# 3 0.007827 -0.001664 0.017934 0.000000 0.006366 0.000000
# 4 0.000000 0.000000 0.000000 0.029920 0.000000 -0.004545
# 5 0.003912 -0.001522 0.006366 0.000000 0.025764 0.000000
# 6 0.000000 0.000000 0.000000 -0.004545 0.000000 0.042371
#
#
# Mechanical properties :
#
#
# Convention : Reuss Voigt Hill
#
# Bulk Modulus (GPa) = 14.57546 19.94692 17.26119
# Shear Modulus (GPa) = 30.89343 35.21575 33.05459
#
# Velocity S-wave (km/s) = 3.66210 3.90990 3.78802
# Velocity P-wave (km/s) = 4.92022 5.38907 5.15997
#
# Compressibility (1/GPa) = 0.06860848
#
# Stress axis : x y z
#
# Youngs Moduli (GPa) = 38.31943 93.15538 55.76008
#
# Poissons Ratio (x) = -0.07069 -0.43645
# Poissons Ratio (y) = -0.02908 0.09281
# Poissons Ratio (z) = -0.29994 0.15505
#
# Static dielectric constant tensor:
#      x y z
#    x 1.902640 0.000000 -0.003120 
#    y 0.000000 1.796430 0.000000 
#    z -0.003120 0.000000 1.847630 
# 
# From -- ./inp_files/32150.got.cif
#   From: 2010.05.17/outbox.cif.g08.bks.cpg/sg14_17_cif.got.tgz:32150.got - 2010.06.03 17:49:19.
