data_PCOD9250465
_publ_section_title
;
Structure prediction by ZEFSAII (Michael W. Deem and Ramdas Pophale) SiO2 
 PCOD9250465
Probable space group: P 21/C
;
_chemical_formula_sum "Si O2"
_cell_formula_units_Z 32
_cell_length_a 10.560518
_cell_length_b 9.174652
_cell_length_c 23.472622
_cell_angle_alpha 90.000000
_cell_angle_beta 145.007150
_cell_angle_gamma 90.000000
_cell_volume 1304.218383
_symmetry_space_group_name_H-M "P 21/C"
_symmetry_group_IT_number 14
_symmetry_cell_setting 'monoclinic'
loop_
_space_group_symop_operation_xyz
x,y,z
-x,1/2+y,1/2-z
-x,-y,-z
x,1/2-y,1/2+z
loop_
_atom_site_type_symbol
_atom_site_label
_atom_site_fract_x
_atom_site_fract_y
_atom_site_fract_z
Si Si1 0.815552 0.037384 0.183146
Si Si2 0.420684 0.278455 0.275473
Si Si3 0.692330 0.914043 0.978559
Si Si4 0.071428 0.820004 0.896581
Si Si5 0.760545 0.870682 0.457791
Si Si6 0.139357 0.261716 0.850367
Si Si7 0.265771 0.560087 0.166850
Si Si8 0.454681 0.615161 0.061935
O O1 0.901232 0.108357 0.155616
O O2 0.928439 0.135026 0.272871
O O3 0.885354 0.869097 0.205053
O O4 0.553193 0.047814 0.091294
O O5 0.382452 0.452707 0.255869
O O6 0.493974 0.214800 0.363676
O O7 0.175482 0.214941 0.177697
O O8 0.593396 0.204779 0.295471
O O9 0.801716 0.821593 0.070523
O O10 0.828700 0.061167 0.023204
O O11 0.708926 0.799300 0.934070
O O12 0.225697 0.678621 0.954304
O O13 0.733389 0.954920 0.388671
O O14 0.582719 0.950012 0.432939
O O15 0.006692 0.898515 0.573080
O O16 0.346023 0.359098 0.907292
#
# Coordination Sequence:
#
# PCOD9250465 Si02
#       8
#     4   4   4   4   4   4   4   4
#     4  11  23  40  60  92 134 162 202 254 300 375
#     4  11  24  41  69  89 123 162 208 263 312 368
#     4  11  24  40  63  93 130 164 202 258 304 369
#     4  11  21  42  64  89 127 168 198 249 317 371
#     4  10  24  43  64  86 128 163 208 265 311 355
#     4  11  23  39  61  94 129 163 206 244 308 381
#     4  10  24  45  61  92 122 161 214 267 307 359
#     4  11  21  41  65  90 121 169 200 248 318 370
#
# _framework density 24.535767
#
# number of rings (size 3 to 8) (size 9 to 14) (size 15 to 20)
#    0.000    1.250    5.000    0.750    3.500    4.500 
#    0.000    1.250    0.000    0.000    0.000    0.000 
#    0.000    0.000    0.000    0.000    0.000    0.000 
#
# Total GULP energy -179194.071744 kJ/mol
# GULP energy per Si atom -5599.814742 kJ/mol
# Density = 2.447992 g / cm^3
# Si number density = 24.535767 Si / 1000 Ang^3
#
#
#
# Elastic Constant Matrix: (Units=GPa)
#
#
# Indices 1 2 3 4 5 6 
#
# 1 14.3165 11.6744 0.6222 0.0000 -1.8466 0.0000
# 2 11.6744 104.5875 29.3617 0.0000 13.7408 0.0000
# 3 0.6222 29.3617 89.0829 0.0000 11.5215 0.0000
# 4 0.0000 0.0000 0.0000 50.4532 0.0000 -0.6087
# 5 -1.8466 13.7408 11.5215 0.0000 31.6808 0.0000
# 6 0.0000 0.0000 0.0000 -0.6087 0.0000 31.2520
#
#
#
# Elastic Compliance Matrix: (Units=1/GPa)
#
#
# Indices 1 2 3 4 5 6 
#
# 1 0.079426 -0.010491 0.001801 0.000000 0.008525 0.000000
# 2 -0.010491 0.012299 -0.003370 0.000000 -0.004720 0.000000
# 3 0.001801 -0.003370 0.012719 0.000000 -0.003059 0.000000
# 4 0.000000 0.000000 0.000000 0.019825 0.000000 0.000386
# 5 0.008525 -0.004720 -0.003059 0.000000 0.035222 0.000000
# 6 0.000000 0.000000 0.000000 0.000386 0.000000 0.032005
#
#
# Mechanical properties :
#
#
# Convention : Reuss Voigt Hill
#
# Bulk Modulus (GPa) = 12.44979 32.36706 22.40842
# Shear Modulus (GPa) = 20.62781 33.76578 27.19680
#
# Velocity S-wave (km/s) = 2.90267 3.71372 3.33296
# Velocity P-wave (km/s) = 4.03970 5.62222 4.89533
#
# Compressibility (1/GPa) = 0.08032263
#
# Stress axis : x y z
#
# Youngs Moduli (GPa) = 12.59035 81.30981 78.62076
#
# Poissons Ratio (x) = 0.85304 -0.14156
# Poissons Ratio (y) = 0.13209 0.26494
# Poissons Ratio (z) = -0.02267 0.27400
#
# Static dielectric constant tensor:
#      x y z
#    x 1.980770 0.000000 -0.109260 
#    y 0.000000 1.937680 0.000000 
#    z -0.109260 0.000000 1.961230 
# 
# From -- ./inp_files/80017.got.cif
#   From: 2010.05.17/outbox.cif.g08.bks.cpg/sg14_41_cif.got.tgz:80017.got - 2010.06.03 17:49:19.
