data_PCOD9250796
_publ_section_title
;
Structure prediction by ZEFSAII (Michael W. Deem and Ramdas Pophale) SiO2 
 PCOD9250796
Probable space group: P 21/C
;
_chemical_formula_sum "Si O2"
_cell_formula_units_Z 20
_cell_length_a 8.204899
_cell_length_b 9.282372
_cell_length_c 11.404370
_cell_angle_alpha 90.000000
_cell_angle_beta 85.567324
_cell_angle_gamma 90.000000
_cell_volume 865.969339
_symmetry_space_group_name_H-M "P 21/C"
_symmetry_group_IT_number 14
_symmetry_cell_setting 'monoclinic'
loop_
_space_group_symop_operation_xyz
x,y,z
-x,1/2+y,1/2-z
-x,-y,-z
x,1/2-y,1/2+z
loop_
_atom_site_type_symbol
_atom_site_label
_atom_site_fract_x
_atom_site_fract_y
_atom_site_fract_z
Si Si1 0.749238 0.539905 0.507740
Si Si2 0.413759 0.995333 0.631156
Si Si3 0.959897 0.344186 0.654886
Si Si4 0.444339 0.658388 0.656899
Si Si5 0.034987 0.465269 0.131437
O O1 0.896028 0.633261 0.447689
O O2 0.606712 0.638225 0.567517
O O3 0.686579 0.435672 0.407880
O O4 0.813945 0.437326 0.608123
O O5 0.402516 0.826440 0.667147
O O6 0.500000 0.000000 0.500000
O O7 0.515052 0.085849 0.720965
O O8 0.229870 0.057004 0.634598
O O9 0.933113 0.176062 0.669570
O O10 0.009758 0.408601 0.776701
O O11 0.000000 0.500000 0.000000
#
# Coordination Sequence:
#
# PCOD9250796 Si02
#       5
#     4   4   4   4   4
#     4  10  24  46  74 100 144 190 238 298 360 418
#     4  12  29  46  73 107 146 190 244 292 363 428
#     4  11  26  46  73 103 145 187 242 296 358 429
#     4  11  26  46  73 103 145 187 242 296 358 429
#     4  12  29  46  73 107 146 190 244 292 363 428
#
# _framework density 23.095507000000001
#
# number of rings (size 3 to 8) (size 9 to 14) (size 15 to 20)
#    0.000    0.800    2.000    2.400   19.600    0.000 
#    0.000    0.000    0.000    0.000    0.000    0.000 
#    0.000    0.000    0.000    0.000    0.000    0.000 
#
# Total GULP energy -112115.315414 kJ/mol
# GULP energy per Si atom -5605.765771 kJ/mol
# Density = 2.304294 g / cm^3
# Si number density = 23.095507 Si / 1000 Ang^3
#
#
#
# Elastic Constant Matrix: (Units=GPa)
#
#
# Indices 1 2 3 4 5 6 
#
# 1 44.7934 -10.7558 -8.4073 0.0000 8.6557 0.0000
# 2 -10.7558 99.4713 29.9107 0.0000 21.6094 0.0000
# 3 -8.4073 29.9107 153.4157 0.0000 25.1697 0.0000
# 4 0.0000 0.0000 0.0000 44.1419 0.0000 -3.8465
# 5 8.6557 21.6094 25.1697 0.0000 45.5014 0.0000
# 6 0.0000 0.0000 0.0000 -3.8465 0.0000 27.2845
#
#
#
# Elastic Compliance Matrix: (Units=1/GPa)
#
#
# Indices 1 2 3 4 5 6 
#
# 1 0.025061 0.003798 0.001882 0.000000 -0.007612 0.000000
# 2 0.003798 0.012083 -0.001196 0.000000 -0.005799 0.000000
# 3 0.001882 -0.001196 0.007501 0.000000 -0.003939 0.000000
# 4 0.000000 0.000000 0.000000 0.022936 0.000000 0.003233
# 5 -0.007612 -0.005799 -0.003939 0.000000 0.028358 0.000000
# 6 0.000000 0.000000 0.000000 0.003233 0.000000 0.037107
#
#
# Mechanical properties :
#
#
# Convention : Reuss Voigt Hill
#
# Bulk Modulus (GPa) = 18.65292 35.46395 27.05843
# Shear Modulus (GPa) = 35.22363 42.51440 38.86902
#
# Velocity S-wave (km/s) = 3.90953 4.29512 4.10685
# Velocity P-wave (km/s) = 5.33602 6.32345 5.85061
#
# Compressibility (1/GPa) = 0.05361092
#
# Stress axis : x y z
#
# Youngs Moduli (GPa) = 39.90319 82.75847 133.31846
#
# Poissons Ratio (x) = -0.31428 -0.25087
# Poissons Ratio (y) = -0.15154 0.15949
# Poissons Ratio (z) = -0.07509 0.09900
#
# Static dielectric constant tensor:
#      x y z
#    x 1.869880 0.000000 -0.028020 
#    y 0.000000 1.818740 0.000000 
#    z -0.028020 0.000000 1.822360 
# 
# From -- ./inp_files/23007.got.cif
#   From: 2010.05.17/outbox.cif.g08.bks.cpg/sg14_12_cif.got.tgz:23007.got - 2010.06.03 17:49:19.
