data_PCOD9250194
_publ_section_title
;
Structure prediction by ZEFSAII (Michael W. Deem and Ramdas Pophale) SiO2 
 PCOD9250194
Probable space group: P 21/C
;
_chemical_formula_sum "Si O2"
_cell_formula_units_Z 20
_cell_length_a 5.184005
_cell_length_b 16.767729
_cell_length_c 10.318707
_cell_angle_alpha 90.000000
_cell_angle_beta 102.024373
_cell_angle_gamma 90.000000
_cell_volume 877.263425
_symmetry_space_group_name_H-M "P 21/C"
_symmetry_group_IT_number 14
_symmetry_cell_setting 'monoclinic'
loop_
_space_group_symop_operation_xyz
x,y,z
-x,1/2+y,1/2-z
-x,-y,-z
x,1/2-y,1/2+z
loop_
_atom_site_type_symbol
_atom_site_label
_atom_site_fract_x
_atom_site_fract_y
_atom_site_fract_z
Si Si1 0.393838 0.589091 0.080996
Si Si2 0.802066 0.042130 0.687207
Si Si3 0.241161 0.275931 0.877222
Si Si4 0.754356 0.328958 0.404996
Si Si5 0.891049 0.386979 0.694387
O O1 0.529981 0.506653 0.137526
O O2 0.606350 0.649530 0.039975
O O3 0.304391 0.627628 0.206369
O O4 0.159159 0.575319 0.954383
O O5 0.784137 0.112860 0.786386
O O6 0.995702 0.974608 0.762521
O O7 0.471255 0.213395 0.872211
O O8 0.113285 0.319545 0.739127
O O9 0.000424 0.232643 0.924731
O O10 0.773026 0.377875 0.540860
#
# Coordination Sequence:
#
# PCOD9250194 Si02
#       5
#     4   4   4   4   4
#     4  10  23  48  73 102 149 190 240 289 355 429
#     4  10  25  45  74 106 143 195 234 294 355 431
#     4  11  27  45  69 108 145 187 236 295 359 419
#     4  12  28  44  77 105 148 186 241 299 359 416
#     4  11  25  48  73 107 144 189 244 296 350 432
#
# _framework density 22.798169999999999
#
# number of rings (size 3 to 8) (size 9 to 14) (size 15 to 20)
#    0.000    1.200    2.000    1.200   14.000    0.800 
#    0.000    0.000    0.000    0.000    0.000    0.000 
#    0.000    0.000    0.000    0.000    0.000    0.000 
#
# Total GULP energy -111713.707889 kJ/mol
# GULP energy per Si atom -5585.685394 kJ/mol
# Density = 2.274628 g / cm^3
# Si number density = 22.798170 Si / 1000 Ang^3
#
#
#
# Elastic Constant Matrix: (Units=GPa)
#
#
# Indices 1 2 3 4 5 6 
#
# 1 94.0721 21.4760 12.3468 0.0000 -13.0718 0.0000
# 2 21.4760 63.6134 17.7655 0.0000 -1.0269 0.0000
# 3 12.3468 17.7655 95.5275 0.0000 1.1345 0.0000
# 4 0.0000 0.0000 0.0000 5.8160 0.0000 -33.6588
# 5 -13.0718 -1.0269 1.1345 0.0000 20.2164 0.0000
# 6 0.0000 0.0000 0.0000 -33.6588 0.0000 16.5445
#
#
#
# Elastic Compliance Matrix: (Units=1/GPa)
#
#
# Indices 1 2 3 4 5 6 
#
# 1 0.012784 -0.003899 -0.001024 0.000000 0.008125 0.000000
# 2 -0.003899 0.017791 -0.002787 0.000000 -0.001461 0.000000
# 3 -0.001024 -0.002787 0.011136 0.000000 -0.001428 0.000000
# 4 0.000000 0.000000 0.000000 -0.015959 0.000000 -0.032468
# 5 0.008125 -0.001461 -0.001428 0.000000 0.054725 0.000000
# 6 0.000000 0.000000 0.000000 -0.032468 0.000000 -0.005610
#
#
# Mechanical properties :
#
#
# Convention : Reuss Voigt Hill
#
# Bulk Modulus (GPa) = 38.03604 39.59886 38.81745
# Shear Modulus (GPa) = 50.48004 21.95703 36.21854
#
# Velocity S-wave (km/s) = 4.71065 3.10676 3.99012
# Velocity P-wave (km/s) = 6.80492 5.50239 6.18802
#
# Compressibility (1/GPa) = 0.02629086
#
# Stress axis : x y z
#
# Youngs Moduli (GPa) = 78.22534 56.20809 89.80010
#
# Poissons Ratio (x) = 0.21914 0.09193
# Poissons Ratio (y) = 0.30498 0.25031
# Poissons Ratio (z) = 0.08008 0.15667
#
# Static dielectric constant tensor:
#      x y z
#    x 1.905740 0.000000 -0.011040 
#    y 0.000000 1.894570 0.000000 
#    z -0.011040 0.000000 1.823510 
# 
# From -- ./inp_files/5511.got.cif
#   From: 2010.05.17/outbox.cif.g08.bks.cpg/sg14_3_cif.got.tgz:5511.got - 2010.06.03 17:49:19.
