data_PCOD9250736
_publ_section_title
;
Structure prediction by ZEFSAII (Michael W. Deem and Ramdas Pophale) SiO2 
 PCOD9250736
Probable space group: P 21/C
;
_chemical_formula_sum "Si O2"
_cell_formula_units_Z 20
_cell_length_a 9.133412
_cell_length_b 8.586352
_cell_length_c 11.277795
_cell_angle_alpha 90.000000
_cell_angle_beta 65.626068
_cell_angle_gamma 90.000000
_cell_volume 805.606674
_symmetry_space_group_name_H-M "P 21/C"
_symmetry_group_IT_number 14
_symmetry_cell_setting 'monoclinic'
loop_
_space_group_symop_operation_xyz
x,y,z
-x,1/2+y,1/2-z
-x,-y,-z
x,1/2-y,1/2+z
loop_
_atom_site_type_symbol
_atom_site_label
_atom_site_fract_x
_atom_site_fract_y
_atom_site_fract_z
Si Si1 0.792285 0.956227 0.145280
Si Si2 0.467584 0.865223 0.880259
Si Si3 0.326974 0.139441 0.573186
Si Si4 0.986676 0.751800 0.925489
Si Si5 0.694027 0.067166 0.653505
O O1 0.676786 0.937262 0.295742
O O2 0.685188 0.019568 0.070452
O O3 0.920798 0.088497 0.133641
O O4 0.883375 0.799129 0.076776
O O5 0.532252 0.768705 0.971228
O O6 0.401374 0.730440 0.815426
O O7 0.619395 0.956245 0.777382
O O8 0.149023 0.211108 0.622730
O O9 0.333210 0.018887 0.463353
O O10 0.120397 0.618641 0.895086
#
# Coordination Sequence:
#
# PCOD9250736 Si02
#       5
#     4   4   4   4   4
#     4  10  24  46  64 107 146 180 232 292 349 417
#     4  11  24  45  70 103 144 180 236 291 342 421
#     4  12  24  41  75 100 138 192 229 287 357 412
#     4  10  25  45  71 102 144 180 238 293 345 422
#     4  11  25  47  70 105 143 183 237 292 346 420
#
# _framework density 24.826008999999999
#
# number of rings (size 3 to 8) (size 9 to 14) (size 15 to 20)
#    0.000    1.200    2.000    2.400    5.600    0.800 
#    0.000    0.000    0.000    0.000    0.000    0.000 
#    0.000    0.000    0.000    0.000    0.000    0.000 
#
# Total GULP energy -111826.826698 kJ/mol
# GULP energy per Si atom -5591.341335 kJ/mol
# Density = 2.476950 g / cm^3
# Si number density = 24.826009 Si / 1000 Ang^3
#
#
#
# Elastic Constant Matrix: (Units=GPa)
#
#
# Indices 1 2 3 4 5 6 
#
# 1 169.8409 63.3884 9.5896 0.0000 -7.7654 0.0000
# 2 63.3884 87.5197 16.0748 0.0000 -0.7081 0.0000
# 3 9.5896 16.0748 31.9868 0.0000 -3.3133 0.0000
# 4 0.0000 0.0000 0.0000 34.7325 0.0000 -4.0504
# 5 -7.7654 -0.7081 -3.3133 0.0000 31.7680 0.0000
# 6 0.0000 0.0000 0.0000 -4.0504 0.0000 74.1735
#
#
#
# Elastic Compliance Matrix: (Units=1/GPa)
#
#
# Indices 1 2 3 4 5 6 
#
# 1 0.008196 -0.006066 0.000793 0.000000 0.001951 0.000000
# 2 -0.006066 0.017082 -0.006955 0.000000 -0.001828 0.000000
# 3 0.000793 -0.006955 0.034902 0.000000 0.003679 0.000000
# 4 0.000000 0.000000 0.000000 0.028976 0.000000 0.001582
# 5 0.001951 -0.001828 0.003679 0.000000 0.032298 0.000000
# 6 0.000000 0.000000 0.000000 0.001582 0.000000 0.013568
#
#
# Mechanical properties :
#
#
# Convention : Reuss Voigt Hill
#
# Bulk Modulus (GPa) = 27.99248 51.93921 39.96584
# Shear Modulus (GPa) = 29.17372 41.48778 35.33075
#
# Velocity S-wave (km/s) = 3.43173 4.09240 3.77654
# Velocity P-wave (km/s) = 5.19638 6.58004 5.92871
#
# Compressibility (1/GPa) = 0.03572388
#
# Stress axis : x y z
#
# Youngs Moduli (GPa) = 122.00512 58.53969 28.65206
#
# Poissons Ratio (x) = 0.35512 -0.02273
# Poissons Ratio (y) = 0.74013 0.19928
# Poissons Ratio (z) = -0.09681 0.40716
#
# Static dielectric constant tensor:
#      x y z
#    x 1.998920 0.000000 0.010110 
#    y 0.000000 2.013420 0.000000 
#    z 0.010110 0.000000 1.966970 
# 
# From -- ./inp_files/23003.got.cif
#   From: 2010.05.17/outbox.cif.g08.bks.cpg/sg14_12_cif.got.tgz:23003.got - 2010.06.03 17:49:19.
