data_PCOD9250072
_publ_section_title
;
Structure prediction by ZEFSAII (Michael W. Deem and Ramdas Pophale) SiO2 
 PCOD9250072
Probable space group: P 21/C
;
_chemical_formula_sum "Si O2"
_cell_formula_units_Z 28
_cell_length_a 5.127233
_cell_length_b 13.902936
_cell_length_c 17.013967
_cell_angle_alpha 90.000000
_cell_angle_beta 61.703820
_cell_angle_gamma 90.000000
_cell_volume 1067.895959
_symmetry_space_group_name_H-M "P 21/C"
_symmetry_group_IT_number 14
_symmetry_cell_setting 'monoclinic'
loop_
_space_group_symop_operation_xyz
x,y,z
-x,1/2+y,1/2-z
-x,-y,-z
x,1/2-y,1/2+z
loop_
_atom_site_type_symbol
_atom_site_label
_atom_site_fract_x
_atom_site_fract_y
_atom_site_fract_z
Si Si1 0.065705 0.738926 0.675829
Si Si2 0.998671 0.878552 0.772689
Si Si3 0.187664 0.449827 0.539893
Si Si4 0.435219 0.736637 0.821971
Si Si5 0.223021 0.930075 0.264704
Si Si6 0.206637 0.058447 0.530168
Si Si7 0.944225 0.755991 0.013265
O O1 0.192785 0.846375 0.666801
O O2 0.190603 0.642463 0.694974
O O3 0.774662 0.776058 0.775152
O O4 0.963391 0.724673 0.602585
O O5 0.224175 0.795274 0.793576
O O6 0.980494 0.944555 0.853990
O O7 0.763454 0.959190 0.760436
O O8 0.500000 0.500000 0.500000
O O9 0.224327 0.341286 0.505793
O O10 0.000000 0.500000 0.500000
O O11 0.463668 0.627849 0.784149
O O12 0.274629 0.745682 0.928323
O O13 0.943137 0.922434 0.363493
O O14 0.222954 0.161207 0.487137
O O15 0.500000 0.000000 0.500000
O O16 0.000000 0.000000 0.500000
#
# Coordination Sequence:
#
# PCOD9250072 Si02
#       7
#     4   4   4   4   4   4   4
#     4  10  24  47  71 109 138 195 245 304 377 440
#     4  10  23  46  68 108 146 188 252 307 368 445
#     4  12  27  45  73 110 144 197 245 298 373 443
#     4   9  24  46  72 103 148 192 252 299 377 438
#     4  11  23  46  73 101 153 191 247 315 369 446
#     4  11  27  48  76 113 145 200 253 307 380 447
#     4  11  24  50  74 102 155 191 248 314 372 447
#
# _framework density 26.219781999999999
#
# number of rings (size 3 to 8) (size 9 to 14) (size 15 to 20)
#    0.857    0.571    0.000    4.286    6.000    1.143 
#   12.857    0.000    0.000    0.000    0.000    0.000 
#    0.000    0.000    0.000    0.000    0.000    0.000 
#
# Total GULP energy -155973.655620 kJ/mol
# GULP energy per Si atom -5570.487701 kJ/mol
# Density = 2.616011 g / cm^3
# Si number density = 26.219782 Si / 1000 Ang^3
#
#
#
# Elastic Constant Matrix: (Units=GPa)
#
#
# Indices 1 2 3 4 5 6 
#
# 1 145.4112 40.6262 39.1291 0.0000 5.4052 0.0000
# 2 40.6262 166.8365 -1.4213 0.0000 11.0504 0.0000
# 3 39.1291 -1.4213 85.8243 0.0000 -5.5594 0.0000
# 4 0.0000 0.0000 0.0000 36.5484 0.0000 7.9623
# 5 5.4052 11.0504 -5.5594 0.0000 38.3836 0.0000
# 6 0.0000 0.0000 0.0000 7.9623 0.0000 34.5738
#
#
#
# Elastic Compliance Matrix: (Units=1/GPa)
#
#
# Indices 1 2 3 4 5 6 
#
# 1 0.008574 -0.002043 -0.004021 0.000000 -0.001202 0.000000
# 2 -0.002043 0.006597 0.000945 0.000000 -0.001475 0.000000
# 3 -0.004021 0.000945 0.013648 0.000000 0.002271 0.000000
# 4 0.000000 0.000000 0.000000 0.028806 0.000000 -0.006634
# 5 -0.001202 -0.001475 0.002271 0.000000 0.026975 0.000000
# 6 0.000000 0.000000 0.000000 -0.006634 0.000000 0.030451
#
#
# Mechanical properties :
#
#
# Convention : Reuss Voigt Hill
#
# Bulk Modulus (GPa) = 53.81543 61.63776 57.72659
# Shear Modulus (GPa) = 38.02765 43.21705 40.62235
#
# Velocity S-wave (km/s) = 3.81247 4.06428 3.94039
# Velocity P-wave (km/s) = 6.32054 6.75157 6.53960
#
# Compressibility (1/GPa) = 0.01858203
#
# Stress axis : x y z
#
# Youngs Moduli (GPa) = 116.62627 151.58378 73.27252
#
# Poissons Ratio (x) = 0.30962 0.29462
# Poissons Ratio (y) = 0.23822 -0.06924
# Poissons Ratio (z) = 0.46894 -0.14324
#
# Static dielectric constant tensor:
#      x y z
#    x 2.130830 0.000000 -0.071090 
#    y 0.000000 2.120860 0.000000 
#    z -0.071090 0.000000 2.134770 
# 
# From -- ./inp_files/53244.got.cif
#   From: 2010.05.17/outbox.cif.g08.bks.cpg/sg14_27_cif.got.tgz:53244.got - 2010.06.03 17:49:19.
