data_PCOD9250121
_publ_section_title
;
Structure prediction by ZEFSAII (Michael W. Deem and Ramdas Pophale) SiO2 
 PCOD9250121
Probable space group: P 21/C
;
_chemical_formula_sum "Si O2"
_cell_formula_units_Z 30
_cell_length_a 15.031256
_cell_length_b 7.726803
_cell_length_c 12.314716
_cell_angle_alpha 90.000000
_cell_angle_beta 120.165836
_cell_angle_gamma 90.000000
_cell_volume 1236.579314
_symmetry_space_group_name_H-M "P 21/C"
_symmetry_group_IT_number 14
_symmetry_cell_setting 'monoclinic'
loop_
_space_group_symop_operation_xyz
x,y,z
-x,1/2+y,1/2-z
-x,-y,-z
x,1/2-y,1/2+z
loop_
_atom_site_type_symbol
_atom_site_label
_atom_site_fract_x
_atom_site_fract_y
_atom_site_fract_z
Si Si1 0.239560 0.085038 0.988650
Si Si2 0.338291 0.104423 0.440917
Si Si3 0.604623 0.433807 0.794729
Si Si4 0.000000 0.000000 0.500000
Si Si5 0.600005 0.804154 0.740485
Si Si6 0.955182 0.822315 0.261318
Si Si7 0.123826 0.537667 0.724991
Si Si8 0.188612 0.749297 0.563144
O O1 0.311089 0.193934 0.949658
O O2 0.128384 0.159039 0.886707
O O3 0.293022 0.142617 0.135172
O O4 0.224758 0.878253 0.986651
O O5 0.408525 0.097063 0.378056
O O6 0.232895 0.010907 0.342090
O O7 0.373502 0.014015 0.572265
O O8 0.598645 0.601139 0.716602
O O9 0.495535 0.341317 0.738989
O O10 0.702392 0.318744 0.825693
O O11 0.105964 0.905839 0.510772
O O12 0.941125 0.962138 0.348049
O O13 0.940591 0.639829 0.311833
O O14 0.061610 0.834737 0.263874
O O15 0.135581 0.617268 0.614481
#
# Coordination Sequence:
#
# PCOD9250121 Si02
#       8
#     4   4   4   2   4   4   4   4
#     4  10  24  47  73 104 149 184 251 293 370 429
#     4  10  23  46  77 105 148 190 241 306 361 445
#     4  11  26  45  77 109 150 183 252 297 366 437
#     4  12  28  44  70 102 154 190 248 292 368 424
#     4  11  23  49  73 110 142 196 234 313 362 437
#     4  11  25  44  69 110 141 197 240 307 358 449
#     4  11  24  45  74 103 147 190 248 294 373 432
#     4  12  26  46  72 107 146 200 239 308 358 434
#
# _framework density 24.260473000000001
#
# number of rings (size 3 to 8) (size 9 to 14) (size 15 to 20)
#    0.000    1.067    1.333    3.600    3.733    7.467 
#    0.000    3.333    0.000    0.000    0.000    0.000 
#    0.000    0.000    0.000    0.000    0.000    0.000 
#
# Total GULP energy -167131.656314 kJ/mol
# GULP energy per Si atom -5571.055210 kJ/mol
# Density = 2.420525 g / cm^3
# Si number density = 24.260473 Si / 1000 Ang^3
#
#
#
# Elastic Constant Matrix: (Units=GPa)
#
#
# Indices 1 2 3 4 5 6 
#
# 1 102.7479 34.4837 15.6865 0.0000 6.3109 0.0000
# 2 34.4837 82.9944 10.3533 0.0000 11.7639 0.0000
# 3 15.6865 10.3533 67.6130 0.0000 1.3788 0.0000
# 4 0.0000 0.0000 0.0000 25.8193 0.0000 0.9863
# 5 6.3109 11.7639 1.3788 0.0000 24.8583 0.0000
# 6 0.0000 0.0000 0.0000 0.9863 0.0000 37.5054
#
#
#
# Elastic Compliance Matrix: (Units=1/GPa)
#
#
# Indices 1 2 3 4 5 6 
#
# 1 0.011577 -0.004460 -0.001988 0.000000 -0.000718 0.000000
# 2 -0.004460 0.014871 -0.001123 0.000000 -0.005843 0.000000
# 3 -0.001988 -0.001123 0.015420 0.000000 0.000181 0.000000
# 4 0.000000 0.000000 0.000000 0.038770 0.000000 -0.001020
# 5 -0.000718 -0.005843 0.000181 0.000000 0.043165 0.000000
# 6 0.000000 0.000000 0.000000 -0.001020 0.000000 0.026690
#
#
# Mechanical properties :
#
#
# Convention : Reuss Voigt Hill
#
# Bulk Modulus (GPa) = 37.41993 41.60024 39.51008
# Shear Modulus (GPa) = 28.64616 30.49206 29.56911
#
# Velocity S-wave (km/s) = 3.43997 3.54907 3.49495
# Velocity P-wave (km/s) = 5.58888 5.82916 5.71028
#
# Compressibility (1/GPa) = 0.02672373
#
# Stress axis : x y z
#
# Youngs Moduli (GPa) = 86.37660 67.24698 64.85238
#
# Poissons Ratio (x) = 0.29995 0.12895
# Poissons Ratio (y) = 0.38528 0.07283
# Poissons Ratio (z) = 0.17174 0.07552
#
# Static dielectric constant tensor:
#      x y z
#    x 1.894660 0.000000 -0.000690 
#    y 0.000000 1.966950 0.000000 
#    z -0.000690 0.000000 1.982620 
# 
# From -- ./inp_files/31625.got.cif
#   From: 2010.05.17/outbox.cif.g08.bks.cpg/sg14_16_cif.got.tgz:31625.got - 2010.06.03 17:49:19.
