data_PCOD9250227
_publ_section_title
;
Structure prediction by ZEFSAII (Michael W. Deem and Ramdas Pophale) SiO2 
 PCOD9250227
Probable space group: P 21/C
;
_chemical_formula_sum "Si O2"
_cell_formula_units_Z 28
_cell_length_a 8.085271
_cell_length_b 20.920837
_cell_length_c 7.834005
_cell_angle_alpha 90.000000
_cell_angle_beta 100.947131
_cell_angle_gamma 90.000000
_cell_volume 1301.013377
_symmetry_space_group_name_H-M "P 21/C"
_symmetry_group_IT_number 14
_symmetry_cell_setting 'monoclinic'
loop_
_space_group_symop_operation_xyz
x,y,z
-x,1/2+y,1/2-z
-x,-y,-z
x,1/2-y,1/2+z
loop_
_atom_site_type_symbol
_atom_site_label
_atom_site_fract_x
_atom_site_fract_y
_atom_site_fract_z
Si Si1 0.498640 0.168738 0.574933
Si Si2 0.309818 0.239236 0.817320
Si Si3 0.209201 0.588533 0.910035
Si Si4 0.150928 0.450838 0.317812
Si Si5 0.074372 0.590712 0.258798
Si Si6 0.128923 0.337079 0.542461
Si Si7 0.712198 0.947806 0.530316
O O1 0.385820 0.183307 0.717776
O O2 0.461034 0.232379 0.460347
O O3 0.687886 0.147417 0.646511
O O4 0.422575 0.107019 0.462812
O O5 0.244327 0.299155 0.697752
O O6 0.149197 0.211150 0.887247
O O7 0.029528 0.576045 0.785668
O O8 0.180977 0.602031 0.107440
O O9 0.306258 0.520492 0.910736
O O10 0.133298 0.525323 0.361038
O O11 0.198675 0.404288 0.481548
O O12 0.264662 0.451070 0.170407
O O13 0.042630 0.645504 0.392083
O O14 0.889106 0.575523 0.144728
#
# Coordination Sequence:
#
# PCOD9250227 Si02
#       7
#     4   4   4   4   4   4   4
#     4  11  19  40  55  77 111 148 190 220 271 320
#     4  10  24  34  58  78 102 158 196 222 246 332
#     4   9  20  33  59  89 114 137 171 234 295 318
#     4   9  18  34  59  88 111 137 179 235 280 322
#     4   9  18  34  59  88 111 137 179 235 280 322
#     4  11  19  37  55  80 107 146 196 222 261 321
#     4   9  16  34  61  85 107 145 186 218 268 343
#
# _framework density 21.521684
#
# number of rings (size 3 to 8) (size 9 to 14) (size 15 to 20)
#    0.000    2.286    2.857    2.571    0.000    0.000 
#    0.000    7.143    0.000    3.429    0.000    0.000 
#    0.000    0.000    0.000    0.000    0.000    0.000 
#
# Total GULP energy -155933.213571 kJ/mol
# GULP energy per Si atom -5569.043342 kJ/mol
# Density = 2.147270 g / cm^3
# Si number density = 21.521684 Si / 1000 Ang^3
#
#
#
# Elastic Constant Matrix: (Units=GPa)
#
#
# Indices 1 2 3 4 5 6 
#
# 1 20.1933 35.9937 6.0646 0.0000 -4.0842 0.0000
# 2 35.9937 90.4644 28.6322 0.0000 -7.5729 0.0000
# 3 6.0646 28.6322 59.5393 0.0000 -19.0727 0.0000
# 4 0.0000 0.0000 0.0000 26.1535 0.0000 -1.1612
# 5 -4.0842 -7.5729 -19.0727 0.0000 11.2734 0.0000
# 6 0.0000 0.0000 0.0000 -1.1612 0.0000 38.5703
#
#
#
# Elastic Compliance Matrix: (Units=1/GPa)
#
#
# Indices 1 2 3 4 5 6 
#
# 1 0.266832 -0.118150 0.076808 0.000000 0.147249 0.000000
# 2 -0.118150 0.065439 -0.041622 0.000000 -0.069264 0.000000
# 3 0.076808 -0.041622 0.063194 0.000000 0.106780 0.000000
# 4 0.000000 0.000000 0.000000 0.038287 0.000000 0.001153
# 5 0.147249 -0.069264 0.106780 0.000000 0.276177 0.000000
# 6 0.000000 0.000000 0.000000 0.001153 0.000000 0.025961
#
#
# Mechanical properties :
#
#
# Convention : Reuss Voigt Hill
#
# Bulk Modulus (GPa) = 4.35661 34.61980 19.48820
# Shear Modulus (GPa) = 5.11075 21.83321 13.47198
#
# Velocity S-wave (km/s) = 1.54268 3.18854 2.50466
# Velocity P-wave (km/s) = 2.28075 5.44763 4.17603
#
# Compressibility (1/GPa) = 0.22953604
#
# Stress axis : x y z
#
# Youngs Moduli (GPa) = 3.74767 15.28151 15.82433
#
# Poissons Ratio (x) = 1.80551 -1.21543
# Poissons Ratio (y) = 0.44279 0.65865
# Poissons Ratio (z) = -0.28785 0.63605
#
# Static dielectric constant tensor:
#      x y z
#    x 1.801850 0.000000 -0.007280 
#    y 0.000000 1.813950 0.000000 
#    z -0.007280 0.000000 1.851460 
# 
# From -- ./inp_files/9927.got.cif
#   From: 2010.05.17/outbox.cif.g08.bks.cpg/sg14_5_cif.got.tgz:9927.got - 2010.06.03 17:49:19.
