data_PCOD9250172
_publ_section_title
;
Structure prediction by ZEFSAII (Michael W. Deem and Ramdas Pophale) SiO2 
 PCOD9250172
Probable space group: P 21/C
;
_chemical_formula_sum "Si O2"
_cell_formula_units_Z 16
_cell_length_a 9.917230
_cell_length_b 12.705798
_cell_length_c 10.749890
_cell_angle_alpha 90.000000
_cell_angle_beta 150.875312
_cell_angle_gamma 90.000000
_cell_volume 659.277504
_symmetry_space_group_name_H-M "P 21/C"
_symmetry_group_IT_number 14
_symmetry_cell_setting 'monoclinic'
loop_
_space_group_symop_operation_xyz
x,y,z
-x,1/2+y,1/2-z
-x,-y,-z
x,1/2-y,1/2+z
loop_
_atom_site_type_symbol
_atom_site_label
_atom_site_fract_x
_atom_site_fract_y
_atom_site_fract_z
Si Si1 0.928054 0.184128 0.457311
Si Si2 0.543309 0.401887 0.444039
Si Si3 0.602283 0.465697 0.888238
Si Si4 0.862676 0.907205 0.812318
O O1 0.785275 0.108016 0.445153
O O2 0.242351 0.149261 0.687409
O O3 0.960163 0.301418 0.535653
O O4 0.756158 0.171810 0.190410
O O5 0.500000 0.500000 0.500000
O O6 0.596645 0.461640 0.357704
O O7 0.428034 0.395453 0.844651
O O8 0.782532 0.547634 0.113432
O O9 0.000000 0.000000 0.000000
#
# Coordination Sequence:
#
# PCOD9250172 Si02
#       4
#     4   4   4   4
#     4  11  26  48  78 108 143 204 246 301 382 439
#     4  10  23  47  77 107 140 194 252 299 365 449
#     4  10  25  49  72 109 157 194 250 315 370 455
#     4  11  28  46  72 114 154 194 249 316 375 442
#
# _framework density 24.268991
#
# number of rings (size 3 to 8) (size 9 to 14) (size 15 to 20)
#    0.000    1.500    0.000    3.000   17.500    4.000 
#    0.000    0.000    0.000    0.000    0.000    0.000 
#    0.000    0.000    0.000    0.000    0.000    0.000 
#
# Total GULP energy -89516.469989 kJ/mol
# GULP energy per Si atom -5594.779374 kJ/mol
# Density = 2.421375 g / cm^3
# Si number density = 24.268991 Si / 1000 Ang^3
#
#
#
# Elastic Constant Matrix: (Units=GPa)
#
#
# Indices 1 2 3 4 5 6 
#
# 1 121.8148 63.1213 56.3249 0.0000 -17.4292 0.0000
# 2 63.1213 170.2812 79.4334 0.0000 -17.8714 0.0000
# 3 56.3249 79.4334 204.9292 0.0000 -27.7335 0.0000
# 4 0.0000 0.0000 0.0000 46.6934 0.0000 5.9389
# 5 -17.4292 -17.8714 -27.7335 0.0000 49.1554 0.0000
# 6 0.0000 0.0000 0.0000 5.9389 0.0000 27.1164
#
#
#
# Elastic Compliance Matrix: (Units=1/GPa)
#
#
# Indices 1 2 3 4 5 6 
#
# 1 0.010776 -0.003096 -0.001513 0.000000 0.001842 0.000000
# 2 -0.003096 0.008116 -0.002213 0.000000 0.000604 0.000000
# 3 -0.001513 -0.002213 0.006466 0.000000 0.002307 0.000000
# 4 0.000000 0.000000 0.000000 0.022030 0.000000 -0.004825
# 5 0.001842 0.000604 0.002307 0.000000 0.022518 0.000000
# 6 0.000000 0.000000 0.000000 -0.004825 0.000000 0.037935
#
#
# Mechanical properties :
#
#
# Convention : Reuss Voigt Hill
#
# Bulk Modulus (GPa) = 85.36274 99.42051 92.39162
# Shear Modulus (GPa) = 39.87596 44.46940 42.17268
#
# Velocity S-wave (km/s) = 4.05789 4.28525 4.17312
# Velocity P-wave (km/s) = 7.56342 8.09564 7.83405
#
# Compressibility (1/GPa) = 0.01171471
#
# Stress axis : x y z
#
# Youngs Moduli (GPa) = 92.79650 123.21254 154.66553
#
# Poissons Ratio (x) = 0.38143 0.23395
# Poissons Ratio (y) = 0.28727 0.34231
# Poissons Ratio (z) = 0.14037 0.27270
#
# Static dielectric constant tensor:
#      x y z
#    x 2.035860 0.000000 0.065560 
#    y 0.000000 1.889940 0.000000 
#    z 0.065560 0.000000 1.961300 
# 
# From -- ./inp_files/29311.got.cif
#   From: 2010.05.17/outbox.cif.g08.bks.cpg/sg14_15_cif.got.tgz:29311.got - 2010.06.03 17:49:19.
