data_PCOD9250091
_publ_section_title
;
Structure prediction by ZEFSAII (Michael W. Deem and Ramdas Pophale) SiO2 
 PCOD9250091
Probable space group: P 21/C
;
_chemical_formula_sum "Si O2"
_cell_formula_units_Z 32
_cell_length_a 17.392973
_cell_length_b 5.211100
_cell_length_c 13.796958
_cell_angle_alpha 90.000000
_cell_angle_beta 95.935479
_cell_angle_gamma 90.000000
_cell_volume 1243.804275
_symmetry_space_group_name_H-M "P 21/C"
_symmetry_group_IT_number 14
_symmetry_cell_setting 'monoclinic'
loop_
_space_group_symop_operation_xyz
x,y,z
-x,1/2+y,1/2-z
-x,-y,-z
x,1/2-y,1/2+z
loop_
_atom_site_type_symbol
_atom_site_label
_atom_site_fract_x
_atom_site_fract_y
_atom_site_fract_z
Si Si1 0.063032 0.392886 0.656579
Si Si2 0.328360 0.784604 0.020417
Si Si3 0.902258 0.391347 0.713334
Si Si4 0.772138 0.033243 0.639998
Si Si5 0.194055 0.200286 0.029129
Si Si6 0.426981 0.891409 0.190306
Si Si7 0.587272 0.444140 0.640860
Si Si8 0.699299 0.706833 0.794851
O O1 0.079270 0.670010 0.705206
O O2 0.112600 0.365190 0.566368
O O3 0.970404 0.369076 0.642757
O O4 0.091575 0.164958 0.732973
O O5 0.372118 0.696634 0.122647
O O6 0.253429 0.960689 0.030372
O O7 0.302894 0.581676 0.936327
O O8 0.394020 0.938899 0.969095
O O9 0.821541 0.290785 0.661095
O O10 0.817213 0.837512 0.575165
O O11 0.747955 0.920831 0.739906
O O12 0.241164 0.379205 0.113598
O O13 0.431490 0.817061 0.303237
O O14 0.511918 0.893953 0.158037
O O15 0.376185 0.147278 0.173636
O O16 0.665700 0.533759 0.704474
#
# Coordination Sequence:
#
# PCOD9250091 Si02
#       8
#     4   4   4   4   4   4   4   4
#     4  10  23  46  71 105 143 190 234 289 347 423
#     4  11  26  41  63 102 133 171 231 294 345 418
#     4  10  24  44  74 103 143 190 235 285 354 414
#     4  12  24  41  68 102 133 182 226 289 346 426
#     4  11  25  41  68  99 138 176 232 283 350 418
#     4  11  24  42  64  92 127 175 227 278 354 413
#     4  12  22  43  65  89 130 175 223 285 346 428
#     4  11  23  42  64  94 131 175 226 280 344 416
#
# _framework density 25.727522
#
# number of rings (size 3 to 8) (size 9 to 14) (size 15 to 20)
#    0.000    1.000    5.000    1.125    5.250    0.500 
#    0.000    1.875    0.000    0.000    0.000    0.000 
#    0.000    0.000    0.000    0.000    0.000    0.000 
#
# Total GULP energy -179024.026906 kJ/mol
# GULP energy per Si atom -5594.500841 kJ/mol
# Density = 2.566897 g / cm^3
# Si number density = 25.727522 Si / 1000 Ang^3
#
#
#
# Elastic Constant Matrix: (Units=GPa)
#
#
# Indices 1 2 3 4 5 6 
#
# 1 134.7169 9.1301 33.0677 0.0000 -32.4573 0.0000
# 2 9.1301 63.1568 6.5139 0.0000 1.7711 0.0000
# 3 33.0677 6.5139 108.8503 0.0000 -10.6041 0.0000
# 4 0.0000 0.0000 0.0000 29.7191 0.0000 9.1758
# 5 -32.4573 1.7711 -10.6041 0.0000 54.3208 0.0000
# 6 0.0000 0.0000 0.0000 9.1758 0.0000 34.3607
#
#
#
# Elastic Compliance Matrix: (Units=1/GPa)
#
#
# Indices 1 2 3 4 5 6 
#
# 1 0.009304 -0.001258 -0.002248 0.000000 0.005161 0.000000
# 2 -0.001258 0.016130 -0.000721 0.000000 -0.001418 0.000000
# 3 -0.002248 -0.000721 0.009974 0.000000 0.000627 0.000000
# 4 0.000000 0.000000 0.000000 0.036672 0.000000 -0.009793
# 5 0.005161 -0.001418 0.000627 0.000000 0.021662 0.000000
# 6 0.000000 0.000000 0.000000 -0.009793 0.000000 0.031718
#
#
# Mechanical properties :
#
#
# Convention : Reuss Voigt Hill
#
# Bulk Modulus (GPa) = 37.10215 44.90526 41.00371
# Shear Modulus (GPa) = 34.98996 40.88093 37.93544
#
# Velocity S-wave (km/s) = 3.69185 3.99055 3.84410
# Velocity P-wave (km/s) = 5.71187 6.22292 5.97286
#
# Compressibility (1/GPa) = 0.02695262
#
# Stress axis : x y z
#
# Youngs Moduli (GPa) = 107.48600 61.99785 100.25866
#
# Poissons Ratio (x) = 0.07798 0.22541
# Poissons Ratio (y) = 0.13520 0.07232
# Poissons Ratio (z) = 0.24166 0.04472
#
# Static dielectric constant tensor:
#      x y z
#    x 2.041310 0.000000 0.009920 
#    y 0.000000 2.162190 0.000000 
#    z 0.009920 0.000000 2.028380 
# 
# From -- ./inp_files/48183.got.cif
#   From: 2010.05.17/outbox.cif.g08.bks.cpg/sg14_25_cif.got.tgz:48183.got - 2010.06.03 17:49:19.
