data_PCOD9250696
_publ_section_title
;
Structure prediction by ZEFSAII (Michael W. Deem and Ramdas Pophale) SiO2 
 PCOD9250696
Probable space group: P 21/C
;
_chemical_formula_sum "Si O2"
_cell_formula_units_Z 28
_cell_length_a 8.097052
_cell_length_b 14.050917
_cell_length_c 12.819759
_cell_angle_alpha 90.000000
_cell_angle_beta 53.308022
_cell_angle_gamma 90.000000
_cell_volume 1169.525333
_symmetry_space_group_name_H-M "P 21/C"
_symmetry_group_IT_number 14
_symmetry_cell_setting 'monoclinic'
loop_
_space_group_symop_operation_xyz
x,y,z
-x,1/2+y,1/2-z
-x,-y,-z
x,1/2-y,1/2+z
loop_
_atom_site_type_symbol
_atom_site_label
_atom_site_fract_x
_atom_site_fract_y
_atom_site_fract_z
Si Si1 0.153228 0.213674 0.563834
Si Si2 0.524956 0.131409 0.743907
Si Si3 0.894744 0.562168 0.256168
Si Si4 0.301646 0.000430 0.494314
Si Si5 0.901442 0.597652 0.493685
Si Si6 0.543468 0.705136 0.394839
Si Si7 0.794705 0.342922 0.328086
O O1 0.064918 0.285936 0.508998
O O2 0.359433 0.258542 0.533185
O O3 0.012863 0.204132 0.721766
O O4 0.212224 0.106546 0.509683
O O5 0.632237 0.048206 0.637847
O O6 0.332302 0.089309 0.878687
O O7 0.461134 0.209060 0.683098
O O8 0.668900 0.184229 0.772013
O O9 0.944371 0.593040 0.354940
O O10 0.698105 0.623977 0.295762
O O11 0.820249 0.454811 0.300868
O O12 0.107410 0.559497 0.112516
O O13 0.500000 0.000000 0.500000
O O14 0.000000 0.500000 0.500000
O O15 0.317930 0.672960 0.519791
#
# Coordination Sequence:
#
# PCOD9250696 Si02
#       7
#     4   4   4   4   4   4   4
#     4  10  24  45  71 101 148 187 242 305 375 442
#     4  12  26  42  73 108 139 197 246 293 379 446
#     4  10  24  47  73  98 152 195 237 317 379 435
#     4  11  23  44  75 104 146 197 242 311 377 448
#     4  11  25  45  70 110 142 192 257 299 372 460
#     4  11  24  44  70 103 148 186 243 301 368 443
#     4  11  25  47  68 108 143 189 242 312 369 440
#
# _framework density 23.941334999999999
#
# number of rings (size 3 to 8) (size 9 to 14) (size 15 to 20)
#    0.000    1.143    4.286    1.286    6.000    6.857 
#    0.000    0.000    0.000    0.000    0.000    0.000 
#    0.000    0.000    0.000    0.000    0.000    0.000 
#
# Total GULP energy -156250.218602 kJ/mol
# GULP energy per Si atom -5580.364950 kJ/mol
# Density = 2.388684 g / cm^3
# Si number density = 23.941335 Si / 1000 Ang^3
#
#
#
# Elastic Constant Matrix: (Units=GPa)
#
#
# Indices 1 2 3 4 5 6 
#
# 1 43.0150 22.6297 4.7146 0.0000 1.1251 0.0000
# 2 22.6297 135.0851 53.8343 0.0000 -4.0472 0.0000
# 3 4.7146 53.8343 155.1676 0.0000 -21.7023 0.0000
# 4 0.0000 0.0000 0.0000 58.4097 0.0000 -35.7949
# 5 1.1251 -4.0472 -21.7023 0.0000 25.4590 0.0000
# 6 0.0000 0.0000 0.0000 -35.7949 0.0000 113.0637
#
#
#
# Elastic Compliance Matrix: (Units=1/GPa)
#
#
# Indices 1 2 3 4 5 6 
#
# 1 0.025624 -0.004582 0.000625 0.000000 -0.001328 0.000000
# 2 -0.004582 0.009450 -0.003294 0.000000 -0.001103 0.000000
# 3 0.000625 -0.003294 0.008505 0.000000 0.006699 0.000000
# 4 0.000000 0.000000 0.000000 0.021242 0.000000 0.006725
# 5 -0.001328 -0.001103 0.006699 0.000000 0.044873 0.000000
# 6 0.000000 0.000000 0.000000 0.006725 0.000000 0.010974
#
#
# Mechanical properties :
#
#
# Convention : Reuss Voigt Hill
#
# Bulk Modulus (GPa) = 34.38850 55.06945 44.72897
# Shear Modulus (GPa) = 34.51603 56.19240 45.35421
#
# Velocity S-wave (km/s) = 3.80108 4.84993 4.35718
# Velocity P-wave (km/s) = 5.80165 7.37660 6.63601
#
# Compressibility (1/GPa) = 0.02907949
#
# Stress axis : x y z
#
# Youngs Moduli (GPa) = 39.02560 105.82255 117.57397
#
# Poissons Ratio (x) = 0.48484 -0.07352
# Poissons Ratio (y) = 0.17880 0.38724
# Poissons Ratio (z) = -0.02440 0.34854
#
# Static dielectric constant tensor:
#      x y z
#    x 2.027610 0.000000 -0.016650 
#    y 0.000000 2.119330 0.000000 
#    z -0.016650 0.000000 1.905820 
# 
# From -- ./inp_files/41401.got.cif
#   From: 2010.05.17/outbox.cif.g08.bks.cpg/sg14_21_cif.got.tgz:41401.got - 2010.06.03 17:49:19.
