data_PCOD9250062
_publ_section_title
;
Structure prediction by ZEFSAII (Michael W. Deem and Ramdas Pophale) SiO2 
 PCOD9250062
Probable space group: P 21/C
;
_chemical_formula_sum "Si O2"
_cell_formula_units_Z 30
_cell_length_a 12.416710
_cell_length_b 14.425455
_cell_length_c 7.538775
_cell_angle_alpha 90.000000
_cell_angle_beta 87.361686
_cell_angle_gamma 90.000000
_cell_volume 1348.889111
_symmetry_space_group_name_H-M "P 21/C"
_symmetry_group_IT_number 14
_symmetry_cell_setting 'monoclinic'
loop_
_space_group_symop_operation_xyz
x,y,z
-x,1/2+y,1/2-z
-x,-y,-z
x,1/2-y,1/2+z
loop_
_atom_site_type_symbol
_atom_site_label
_atom_site_fract_x
_atom_site_fract_y
_atom_site_fract_z
Si Si1 0.365688 0.870786 0.100262
Si Si2 0.210345 0.021620 0.940201
Si Si3 0.652110 0.854180 0.630816
Si Si4 0.880612 0.580601 0.176256
Si Si5 0.500000 0.500000 0.000000
Si Si6 0.396130 0.353944 0.454392
Si Si7 0.117472 0.922642 0.618920
Si Si8 0.666672 0.338000 0.995016
O O1 0.319432 0.862801 0.299935
O O2 0.294263 0.941354 0.994903
O O3 0.491541 0.898280 0.118785
O O4 0.366750 0.769105 0.015058
O O5 0.145056 0.053449 0.118762
O O6 0.290904 0.102875 0.872727
O O7 0.135231 0.986836 0.789517
O O8 0.781809 0.855418 0.621739
O O9 0.615476 0.872765 0.835927
O O10 0.607347 0.755446 0.575402
O O11 0.609161 0.939497 0.520711
O O12 0.999587 0.622011 0.143130
O O13 0.878687 0.488392 0.054296
O O14 0.426407 0.592977 0.065486
O O15 0.218937 0.854138 0.606272
#
# Coordination Sequence:
#
# PCOD9250062 Si02
#       8
#     4   4   4   4   2   4   4   4
#     4  12  24  42  62  99 144 170 226 281 337 417
#     4  11  24  43  70  99 138 177 231 277 345 406
#     4  11  24  43  65  98 137 172 230 277 342 412
#     4  10  23  46  66  99 134 173 230 282 324 408
#     4  12  24  40  66  90 136 174 214 276 342 394
#     4  11  25  40  65 101 136 180 220 283 343 412
#     4  11  23  43  73  93 131 185 222 276 343 388
#     4  12  25  41  65 100 136 179 226 278 340 415
#
# _framework density 22.240525000000002
#
# number of rings (size 3 to 8) (size 9 to 14) (size 15 to 20)
#    0.000    0.800    4.000    3.200    5.600    0.000 
#    0.000    6.667    0.000    0.000    0.000    0.000 
#    0.000    0.000    0.000    0.000    0.000    0.000 
#
# Total GULP energy -167471.833241 kJ/mol
# GULP energy per Si atom -5582.394441 kJ/mol
# Density = 2.218990 g / cm^3
# Si number density = 22.240525 Si / 1000 Ang^3
#
#
#
# Elastic Constant Matrix: (Units=GPa)
#
#
# Indices 1 2 3 4 5 6 
#
# 1 133.9794 16.5777 9.4441 0.0000 -13.5712 0.0000
# 2 16.5777 67.2480 -10.7684 0.0000 -2.2824 0.0000
# 3 9.4441 -10.7684 62.6913 0.0000 -7.8540 0.0000
# 4 0.0000 0.0000 0.0000 7.0097 0.0000 -5.4138
# 5 -13.5712 -2.2824 -7.8540 0.0000 24.2030 0.0000
# 6 0.0000 0.0000 0.0000 -5.4138 0.0000 24.3079
#
#
#
# Elastic Compliance Matrix: (Units=1/GPa)
#
#
# Indices 1 2 3 4 5 6 
#
# 1 0.008206 -0.002058 -0.001082 0.000000 0.004056 0.000000
# 2 -0.002058 0.015941 0.003223 0.000000 0.001395 0.000000
# 3 -0.001082 0.003223 0.017335 0.000000 0.005323 0.000000
# 4 0.000000 0.000000 0.000000 0.172297 0.000000 0.038374
# 5 0.004056 0.001395 0.005323 0.000000 0.045450 0.000000
# 6 0.000000 0.000000 0.000000 0.038374 0.000000 0.049685
#
#
# Mechanical properties :
#
#
# Convention : Reuss Voigt Hill
#
# Bulk Modulus (GPa) = 24.01095 32.71395 28.36245
# Shear Modulus (GPa) = 15.49763 27.68180 21.58972
#
# Velocity S-wave (km/s) = 2.64260 3.53180 3.11905
# Velocity P-wave (km/s) = 4.48671 5.60112 5.07460
#
# Compressibility (1/GPa) = 0.04164767
#
# Stress axis : x y z
#
# Youngs Moduli (GPa) = 121.86808 62.73057 57.68822
#
# Poissons Ratio (x) = 0.12912 0.06239
# Poissons Ratio (y) = 0.25085 -0.18593
# Poissons Ratio (z) = 0.13181 -0.20218
#
# Static dielectric constant tensor:
#      x y z
#    x 1.803790 0.000000 0.014570 
#    y 0.000000 1.831560 0.000000 
#    z 0.014570 0.000000 1.878260 
# 
# From -- ./inp_files/13112.got.cif
#   From: 2010.05.17/outbox.cif.g08.bks.cpg/sg14_7_cif.got.tgz:13112.got - 2010.06.03 17:49:19.
