data_PCOD9250012
_publ_section_title
;
Structure prediction by ZEFSAII (Michael W. Deem and Ramdas Pophale) SiO2 
 PCOD9250012
Probable space group: P 21/C
;
_chemical_formula_sum "Si O2"
_cell_formula_units_Z 20
_cell_length_a 11.417831
_cell_length_b 7.525203
_cell_length_c 9.384385
_cell_angle_alpha 90.000000
_cell_angle_beta 86.451960
_cell_angle_gamma 90.000000
_cell_volume 804.774893
_symmetry_space_group_name_H-M "P 21/C"
_symmetry_group_IT_number 14
_symmetry_cell_setting 'monoclinic'
loop_
_space_group_symop_operation_xyz
x,y,z
-x,1/2+y,1/2-z
-x,-y,-z
x,1/2-y,1/2+z
loop_
_atom_site_type_symbol
_atom_site_label
_atom_site_fract_x
_atom_site_fract_y
_atom_site_fract_z
Si Si1 0.009902 0.162708 0.889088
Si Si2 0.756668 0.098493 0.842165
Si Si3 0.386309 0.842841 0.858576
Si Si4 0.411279 0.392399 0.105420
Si Si5 0.839279 0.694903 0.889459
O O1 0.093957 0.116183 0.751315
O O2 0.880432 0.203984 0.842622
O O3 0.073416 0.304937 0.983927
O O4 0.000000 0.000000 0.000000
O O5 0.676836 0.183729 0.724936
O O6 0.797911 0.892663 0.838473
O O7 0.685441 0.126336 0.993311
O O8 0.521046 0.791468 0.878861
O O9 0.390731 0.014272 0.758282
O O10 0.282452 0.387710 0.051004
O O11 0.500000 0.500000 0.000000
#
# Coordination Sequence:
#
# PCOD9250012 Si02
#       5
#     4   4   4   4   4
#     4  10  23  45  70 103 139 181 235 290 356 422
#     4  11  25  46  71 105 140 190 235 302 354 429
#     4  12  26  46  71 101 149 181 251 288 363 422
#     4  12  27  44  70 106 141 192 237 299 356 424
#     4  11  25  44  74 100 144 186 240 290 363 418
#
# _framework density 24.851669999999999
#
# number of rings (size 3 to 8) (size 9 to 14) (size 15 to 20)
#    0.000    0.800    2.000    4.800    8.400    3.200 
#    0.000    6.000    0.000    0.000    0.000    0.000 
#    0.000    0.000    0.000    0.000    0.000    0.000 
#
# Total GULP energy -112078.942074 kJ/mol
# GULP energy per Si atom -5603.947104 kJ/mol
# Density = 2.479511 g / cm^3
# Si number density = 24.851670 Si / 1000 Ang^3
#
#
#
# Elastic Constant Matrix: (Units=GPa)
#
#
# Indices 1 2 3 4 5 6 
#
# 1 173.0194 10.1460 42.1405 0.0000 -26.8345 0.0000
# 2 10.1460 44.5831 19.4384 0.0000 -23.7631 0.0000
# 3 42.1405 19.4384 121.3326 0.0000 -31.2023 0.0000
# 4 0.0000 0.0000 0.0000 34.5417 0.0000 -3.1330
# 5 -26.8345 -23.7631 -31.2023 0.0000 31.9400 0.0000
# 6 0.0000 0.0000 0.0000 -3.1330 0.0000 41.4807
#
#
#
# Elastic Compliance Matrix: (Units=1/GPa)
#
#
# Indices 1 2 3 4 5 6 
#
# 1 0.006918 0.002368 -0.001114 0.000000 0.006486 0.000000
# 2 0.002368 0.038199 0.001172 0.000000 0.031555 0.000000
# 3 -0.001114 0.001172 0.011251 0.000000 0.010927 0.000000
# 4 0.000000 0.000000 0.000000 0.029150 0.000000 0.002202
# 5 0.006486 0.031555 0.010927 0.000000 0.070909 0.000000
# 6 0.000000 0.000000 0.000000 0.002202 0.000000 0.024274
#
#
# Mechanical properties :
#
#
# Convention : Reuss Voigt Hill
#
# Bulk Modulus (GPa) = 16.33427 53.59831 34.96629
# Shear Modulus (GPa) = 25.47706 39.40649 32.44177
#
# Velocity S-wave (km/s) = 3.20529 3.98636 3.61697
# Velocity P-wave (km/s) = 4.50394 6.54234 5.61639
#
# Compressibility (1/GPa) = 0.06122098
#
# Stress axis : x y z
#
# Youngs Moduli (GPa) = 144.54781 26.17890 88.88022
#
# Poissons Ratio (x) = -0.06200 0.09904
# Poissons Ratio (y) = -0.34235 -0.10420
# Poissons Ratio (z) = 0.16107 -0.03069
#
# Static dielectric constant tensor:
#      x y z
#    x 1.991170 0.000000 0.071290 
#    y 0.000000 2.118550 0.000000 
#    z 0.071290 0.000000 1.894950 
# 
# From -- ./inp_files/11755.got.cif
#   From: 2010.05.17/outbox.cif.g08.bks.cpg/sg14_6_cif.got.tgz:11755.got - 2010.06.03 17:49:19.
