data_PCOD9250173
_publ_section_title
;
Structure prediction by ZEFSAII (Michael W. Deem and Ramdas Pophale) SiO2 
 PCOD9250173
Probable space group: P 21/C
;
_chemical_formula_sum "Si O2"
_cell_formula_units_Z 28
_cell_length_a 12.563132
_cell_length_b 8.744800
_cell_length_c 20.225464
_cell_angle_alpha 90.000000
_cell_angle_beta 26.381281
_cell_angle_gamma 90.000000
_cell_volume 987.334177
_symmetry_space_group_name_H-M "P 21/C"
_symmetry_group_IT_number 14
_symmetry_cell_setting 'monoclinic'
loop_
_space_group_symop_operation_xyz
x,y,z
-x,1/2+y,1/2-z
-x,-y,-z
x,1/2-y,1/2+z
loop_
_atom_site_type_symbol
_atom_site_label
_atom_site_fract_x
_atom_site_fract_y
_atom_site_fract_z
Si Si1 0.124245 0.509602 0.294861
Si Si2 0.000000 0.500000 0.500000
Si Si3 0.636213 0.755823 0.156274
Si Si4 0.731703 0.233384 0.031537
Si Si5 0.233973 0.165172 0.107533
Si Si6 0.347472 0.057760 0.485704
Si Si7 0.000000 0.000000 0.500000
Si Si8 0.665303 0.988261 0.813038
O O1 0.742462 0.576028 0.612505
O O2 0.985416 0.352574 0.393459
O O3 0.957537 0.592934 0.335591
O O4 0.132817 0.579297 0.363776
O O5 0.398661 0.512339 0.124654
O O6 0.374167 0.763267 0.336541
O O7 0.637432 0.679541 0.083570
O O8 0.818008 0.644101 0.093164
O O9 0.742300 0.396893 0.991825
O O10 0.539279 0.126264 0.102130
O O11 0.196722 0.346765 0.123237
O O12 0.504979 0.125121 0.932923
O O13 0.222968 0.095805 0.186011
O O14 0.142613 0.962161 0.348318
#
# Coordination Sequence:
#
# PCOD9250173 Si02
#       8
#     4   2   4   4   4   4   2   4
#     4  11  24  46  72 108 160 217 271 349 424 494
#     4  12  22  42  70 102 156 208 264 348 412 496
#     4  11  25  41  69 113 150 206 271 345 414 488
#     4  10  24  43  68 107 158 207 273 352 412 487
#     4  10  23  47  77 110 159 212 272 340 411 505
#     4  12  25  43  75 112 152 217 279 334 420 506
#     4  10  24  44  78 114 154 204 272 328 404 502
#     4   9  22  47  75 113 160 211 264 338 422 487
#
# _framework density 28.359190000000002
#
# number of rings (size 3 to 8) (size 9 to 14) (size 15 to 20)
#    0.000    1.429    2.857    0.857    4.000    1.714 
#    0.000    8.571    0.000    0.000    0.000    0.000 
#    0.000    0.000    0.000    0.000    0.000    0.000 
#
# Total GULP energy -156065.103848 kJ/mol
# GULP energy per Si atom -5573.753709 kJ/mol
# Density = 2.829464 g / cm^3
# Si number density = 28.359190 Si / 1000 Ang^3
#
#
#
# Elastic Constant Matrix: (Units=GPa)
#
#
# Indices 1 2 3 4 5 6 
#
# 1 141.4756 50.2032 36.6438 0.0000 -14.8075 0.0000
# 2 50.2032 136.5770 50.6796 0.0000 -11.3331 0.0000
# 3 36.6438 50.6796 168.9150 0.0000 -9.7334 0.0000
# 4 0.0000 0.0000 0.0000 33.2237 0.0000 4.3491
# 5 -14.8075 -11.3331 -9.7334 0.0000 34.6160 0.0000
# 6 0.0000 0.0000 0.0000 4.3491 0.0000 50.4135
#
#
#
# Elastic Compliance Matrix: (Units=1/GPa)
#
#
# Indices 1 2 3 4 5 6 
#
# 1 0.008483 -0.002565 -0.000925 0.000000 0.002529 0.000000
# 2 -0.002565 0.009158 -0.002116 0.000000 0.001306 0.000000
# 3 -0.000925 -0.002116 0.006803 0.000000 0.000825 0.000000
# 4 0.000000 0.000000 0.000000 0.030443 0.000000 -0.002626
# 5 0.002529 0.001306 0.000825 0.000000 0.030630 0.000000
# 6 0.000000 0.000000 0.000000 -0.002626 0.000000 0.020063
#
#
# Mechanical properties :
#
#
# Convention : Reuss Voigt Hill
#
# Bulk Modulus (GPa) = 75.57300 80.22453 77.89877
# Shear Modulus (GPa) = 41.25343 44.28004 42.76673
#
# Velocity S-wave (km/s) = 3.81816 3.95574 3.88756
# Velocity P-wave (km/s) = 6.79295 7.01527 6.90500
#
# Compressibility (1/GPa) = 0.01323224
#
# Stress axis : x y z
#
# Youngs Moduli (GPa) = 117.88526 109.19001 146.99016
#
# Poissons Ratio (x) = 0.28008 0.13595
# Poissons Ratio (y) = 0.30239 0.31104
# Poissons Ratio (z) = 0.10903 0.23105
#
# Static dielectric constant tensor:
#      x y z
#    x 2.358730 0.000000 0.040830 
#    y 0.000000 2.377300 0.000000 
#    z 0.040830 0.000000 2.168200 
# 
# From -- ./inp_files/68330.got.cif
#   From: 2010.05.17/outbox.cif.g08.bks.cpg/sg14_35_cif.got.tgz:68330.got - 2010.06.03 17:49:19.
