data_PCOD9250438
_publ_section_title
;
Structure prediction by ZEFSAII (Michael W. Deem and Ramdas Pophale) SiO2 
 PCOD9250438
Probable space group: P 21/C
;
_chemical_formula_sum "Si O2"
_cell_formula_units_Z 16
_cell_length_a 14.899217
_cell_length_b 4.630090
_cell_length_c 9.793558
_cell_angle_alpha 90.000000
_cell_angle_beta 116.304911
_cell_angle_gamma 90.000000
_cell_volume 605.645785
_symmetry_space_group_name_H-M "P 21/C"
_symmetry_group_IT_number 14
_symmetry_cell_setting 'monoclinic'
loop_
_space_group_symop_operation_xyz
x,y,z
-x,1/2+y,1/2-z
-x,-y,-z
x,1/2-y,1/2+z
loop_
_atom_site_type_symbol
_atom_site_label
_atom_site_fract_x
_atom_site_fract_y
_atom_site_fract_z
Si Si1 0.742783 0.442846 0.252278
Si Si2 0.594885 0.059169 0.970540
Si Si3 0.332534 0.482593 0.137478
Si Si4 0.964454 0.942767 0.818166
O O1 0.693803 0.742406 0.265995
O O2 0.670200 0.255624 0.108903
O O3 0.846434 0.499529 0.248502
O O4 0.000000 0.500000 0.500000
O O5 0.644375 0.738814 0.459156
O O6 0.500000 0.000000 0.000000
O O7 0.578122 0.280069 0.830137
O O8 0.246031 0.724289 0.109188
O O9 0.983738 0.629039 0.767366
#
# Coordination Sequence:
#
# PCOD9250438 Si02
#       4
#     4   4   4   4
#     4  11  25  45  73 105 151 205 254 330 400 481
#     4  11  24  43  71 106 146 195 259 327 397 475
#     4  10  24  42  71 102 147 191 255 309 398 460
#     4  12  29  50  82 120 166 213 274 336 413 489
#
# _framework density 26.418084
#
# number of rings (size 3 to 8) (size 9 to 14) (size 15 to 20)
#    0.000    1.000    0.000    4.500   10.500    4.000 
#    0.000    0.000    0.000    0.000    0.000    0.000 
#    0.000    0.000    0.000    0.000    0.000    0.000 
#
# Total GULP energy -89193.431630 kJ/mol
# GULP energy per Si atom -5574.589477 kJ/mol
# Density = 2.635796 g / cm^3
# Si number density = 26.418084 Si / 1000 Ang^3
#
#
#
# Elastic Constant Matrix: (Units=GPa)
#
#
# Indices 1 2 3 4 5 6 
#
# 1 216.2008 51.5760 41.7167 0.0000 -4.1783 0.0000
# 2 51.5760 221.3428 5.6693 0.0000 -7.8824 0.0000
# 3 41.7167 5.6693 74.6740 0.0000 -11.3660 0.0000
# 4 0.0000 0.0000 0.0000 35.7449 0.0000 -28.9175
# 5 -4.1783 -7.8824 -11.3660 0.0000 48.2327 0.0000
# 6 0.0000 0.0000 0.0000 -28.9175 0.0000 85.5051
#
#
#
# Elastic Compliance Matrix: (Units=1/GPa)
#
#
# Indices 1 2 3 4 5 6 
#
# 1 0.005495 -0.001218 -0.003044 0.000000 -0.000440 0.000000
# 2 -0.001218 0.004819 0.000434 0.000000 0.000784 0.000000
# 3 -0.003044 0.000434 0.015589 0.000000 0.003481 0.000000
# 4 0.000000 0.000000 0.000000 0.038513 0.000000 0.013025
# 5 -0.000440 0.000784 0.003481 0.000000 0.021643 0.000000
# 6 0.000000 0.000000 0.000000 0.013025 0.000000 0.016100
#
#
# Mechanical properties :
#
#
# Convention : Reuss Voigt Hill
#
# Bulk Modulus (GPa) = 54.80721 78.90463 66.85592
# Shear Modulus (GPa) = 43.14162 61.44690 52.29426
#
# Velocity S-wave (km/s) = 4.04547 4.82803 4.45397
# Velocity P-wave (km/s) = 6.52780 7.81104 7.19807
#
# Compressibility (1/GPa) = 0.01824577
#
# Stress axis : x y z
#
# Youngs Moduli (GPa) = 181.99047 207.53265 64.14763
#
# Poissons Ratio (x) = 0.25279 0.19528
# Poissons Ratio (y) = 0.22168 -0.02784
# Poissons Ratio (z) = 0.55402 -0.09007
#
# Static dielectric constant tensor:
#      x y z
#    x 2.161630 0.000000 -0.382120 
#    y 0.000000 2.305770 0.000000 
#    z -0.382120 0.000000 2.973230 
# 
# From -- ./inp_files/31034.got.cif
#   From: 2010.05.17/outbox.cif.g08.bks.cpg/sg14_16_cif.got.tgz:31034.got - 2010.06.03 17:49:19.
