data_PCOD9250727
_publ_section_title
;
Structure prediction by ZEFSAII (Michael W. Deem and Ramdas Pophale) SiO2 
 PCOD9250727
Probable space group: P 21/C
;
_chemical_formula_sum "Si O2"
_cell_formula_units_Z 28
_cell_length_a 18.574874
_cell_length_b 10.091396
_cell_length_c 10.197423
_cell_angle_alpha 90.000000
_cell_angle_beta 144.522077
_cell_angle_gamma 90.000000
_cell_volume 1109.396772
_symmetry_space_group_name_H-M "P 21/C"
_symmetry_group_IT_number 14
_symmetry_cell_setting 'monoclinic'
loop_
_space_group_symop_operation_xyz
x,y,z
-x,1/2+y,1/2-z
-x,-y,-z
x,1/2-y,1/2+z
loop_
_atom_site_type_symbol
_atom_site_label
_atom_site_fract_x
_atom_site_fract_y
_atom_site_fract_z
Si Si1 0.035314 0.107942 0.322230
Si Si2 0.756947 0.822041 0.839518
Si Si3 0.824171 0.084924 0.816252
Si Si4 0.243623 0.919397 0.574245
Si Si5 0.420138 0.519859 0.558352
Si Si6 0.398063 0.239154 0.135256
Si Si7 0.793258 0.340762 0.621157
O O1 0.115192 0.243539 0.442677
O O2 0.928979 0.115797 0.275357
O O3 0.126562 0.983410 0.476637
O O4 0.964730 0.090634 0.078520
O O5 0.766778 0.979771 0.832389
O O6 0.706054 0.761811 0.628912
O O7 0.662588 0.790404 0.815501
O O8 0.784998 0.027644 0.615475
O O9 0.793817 0.238852 0.744706
O O10 0.250074 0.762023 0.557164
O O11 0.362880 0.972964 0.827687
O O12 0.514063 0.636636 0.721834
O O13 0.475993 0.382800 0.690851
O O14 0.302138 0.547190 0.479194
#
# Coordination Sequence:
#
# PCOD9250727 Si02
#       7
#     4   4   4   4   4   4   4
#     4  12  22  44  77 115 160 203 258 320 406 478
#     4  12  28  51  79 122 159 213 270 329 401 483
#     4  10  25  45  74 116 164 211 249 330 408 481
#     4  10  24  45  75 112 163 208 263 324 405 477
#     4  12  28  55  77 120 151 218 274 339 396 475
#     4  12  32  52  86 111 164 209 279 336 394 476
#     4  10  26  43  79 114 162 203 259 330 404 480
#
# _framework density 25.238942000000002
#
# number of rings (size 3 to 8) (size 9 to 14) (size 15 to 20)
#    0.857    0.000    1.429    3.857    8.000    1.714 
#    0.000    0.000    0.000    0.000    0.000    0.000 
#    0.000    0.000    0.000    0.000    0.000    0.000 
#
# Total GULP energy -156628.350765 kJ/mol
# GULP energy per Si atom -5593.869670 kJ/mol
# Density = 2.518150 g / cm^3
# Si number density = 25.238942 Si / 1000 Ang^3
#
#
#
# Elastic Constant Matrix: (Units=GPa)
#
#
# Indices 1 2 3 4 5 6 
#
# 1 103.1950 20.7346 40.9734 0.0000 -18.7555 0.0000
# 2 20.7346 128.7692 27.2695 0.0000 -5.3710 0.0000
# 3 40.9734 27.2695 100.2303 0.0000 -11.7479 0.0000
# 4 0.0000 0.0000 0.0000 48.4146 0.0000 7.7312
# 5 -18.7555 -5.3710 -11.7479 0.0000 37.7427 0.0000
# 6 0.0000 0.0000 0.0000 7.7312 0.0000 43.4637
#
#
#
# Elastic Compliance Matrix: (Units=1/GPa)
#
#
# Indices 1 2 3 4 5 6 
#
# 1 0.012429 -0.000897 -0.004284 0.000000 0.004715 0.000000
# 2 -0.000897 0.008314 -0.001877 0.000000 0.000153 0.000000
# 3 -0.004284 -0.001877 0.012411 0.000000 0.001467 0.000000
# 4 0.000000 0.000000 0.000000 0.021259 0.000000 -0.003781
# 5 0.004715 0.000153 0.001467 0.000000 0.029317 0.000000
# 6 0.000000 0.000000 0.000000 -0.003781 0.000000 0.023680
#
#
# Mechanical properties :
#
#
# Convention : Reuss Voigt Hill
#
# Bulk Modulus (GPa) = 52.53032 56.68327 54.60679
# Shear Modulus (GPa) = 39.10152 42.13867 40.62009
#
# Velocity S-wave (km/s) = 3.94033 4.09049 4.01611
# Velocity P-wave (km/s) = 6.44670 6.69454 6.57179
#
# Compressibility (1/GPa) = 0.01903663
#
# Stress axis : x y z
#
# Youngs Moduli (GPa) = 80.45978 120.27522 80.57392
#
# Poissons Ratio (x) = 0.10793 0.34517
# Poissons Ratio (y) = 0.07220 0.15126
# Poissons Ratio (z) = 0.34468 0.22579
#
# Static dielectric constant tensor:
#      x y z
#    x 2.033710 0.000000 -0.025920 
#    y 0.000000 2.026100 0.000000 
#    z -0.025920 0.000000 1.949530 
# 
# From -- ./inp_files/35211.got.cif
#   From: 2010.05.17/outbox.cif.g08.bks.cpg/sg14_18_cif.got.tgz:35211.got - 2010.06.03 17:49:19.
