data_PCOD9250724
_publ_section_title
;
Structure prediction by ZEFSAII (Michael W. Deem and Ramdas Pophale) SiO2 
 PCOD9250724
Probable space group: P 21/C
;
_chemical_formula_sum "Si O2"
_cell_formula_units_Z 28
_cell_length_a 5.146159
_cell_length_b 18.088103
_cell_length_c 14.280120
_cell_angle_alpha 90.000000
_cell_angle_beta 118.900382
_cell_angle_gamma 90.000000
_cell_volume 1163.710720
_symmetry_space_group_name_H-M "P 21/C"
_symmetry_group_IT_number 14
_symmetry_cell_setting 'monoclinic'
loop_
_space_group_symop_operation_xyz
x,y,z
-x,1/2+y,1/2-z
-x,-y,-z
x,1/2-y,1/2+z
loop_
_atom_site_type_symbol
_atom_site_label
_atom_site_fract_x
_atom_site_fract_y
_atom_site_fract_z
Si Si1 0.517453 0.815081 0.003719
Si Si2 0.893894 0.276615 0.942454
Si Si3 0.711206 0.551223 0.652103
Si Si4 0.270377 0.042735 0.194482
Si Si5 0.520902 0.306360 0.705762
Si Si6 0.648205 0.512186 0.927214
Si Si7 0.790640 0.850627 0.345914
O O1 0.323926 0.785929 0.055859
O O2 0.629336 0.895886 0.052002
O O3 0.798925 0.761550 0.034535
O O4 0.346890 0.810236 0.875454
O O5 0.761809 0.315352 0.828502
O O6 0.935255 0.330485 0.038747
O O7 0.425918 0.509628 0.644448
O O8 0.835863 0.604592 0.757657
O O9 0.956336 0.491204 0.667420
O O10 0.282849 0.127495 0.165720
O O11 0.486786 0.037711 0.322213
O O12 0.372365 0.226941 0.697452
O O13 0.600676 0.594521 0.878225
O O14 0.500000 0.500000 0.000000
O O15 0.000000 0.500000 0.000000
#
# Coordination Sequence:
#
# PCOD9250724 Si02
#       7
#     4   4   4   4   4   4   4
#     4  11  26  43  72 101 137 192 228 294 352 423
#     4  11  25  44  71 107 143 177 239 301 352 418
#     4  11  24  47  68 101 141 191 234 279 359 431
#     4  11  26  42  70 100 142 186 233 292 347 424
#     4  11  26  46  71 109 140 184 241 294 355 419
#     4  11  23  43  68 102 139 185 235 289 357 419
#     4  10  24  45  75 103 143 188 234 298 361 424
#
# _framework density 24.060960999999999
#
# number of rings (size 3 to 8) (size 9 to 14) (size 15 to 20)
#    0.000    1.143    1.429    3.429    4.000   11.429 
#    0.000    0.000    0.000    0.000    0.000    0.000 
#    0.000    0.000    0.000    0.000    0.000    0.000 
#
# Total GULP energy -156844.111176 kJ/mol
# GULP energy per Si atom -5601.575399 kJ/mol
# Density = 2.400620 g / cm^3
# Si number density = 24.060961 Si / 1000 Ang^3
#
#
#
# Elastic Constant Matrix: (Units=GPa)
#
#
# Indices 1 2 3 4 5 6 
#
# 1 92.3947 10.8938 10.1461 0.0000 -2.9776 0.0000
# 2 10.8938 119.1866 19.0283 0.0000 -9.6085 0.0000
# 3 10.1461 19.0283 129.8154 0.0000 -19.0833 0.0000
# 4 0.0000 0.0000 0.0000 30.9308 0.0000 -0.3659
# 5 -2.9776 -9.6085 -19.0833 0.0000 19.7207 0.0000
# 6 0.0000 0.0000 0.0000 -0.3659 0.0000 32.2403
#
#
#
# Elastic Compliance Matrix: (Units=1/GPa)
#
#
# Indices 1 2 3 4 5 6 
#
# 1 0.011015 -0.000854 -0.000644 0.000000 0.000624 0.000000
# 2 -0.000854 0.008865 -0.000719 0.000000 0.003495 0.000000
# 3 -0.000644 -0.000719 0.009086 0.000000 0.008344 0.000000
# 4 0.000000 0.000000 0.000000 0.032335 0.000000 0.000367
# 5 0.000624 0.003495 0.008344 0.000000 0.060580 0.000000
# 6 0.000000 0.000000 0.000000 0.000367 0.000000 0.031021
#
#
# Mechanical properties :
#
#
# Convention : Reuss Voigt Hill
#
# Bulk Modulus (GPa) = 40.76352 46.83701 43.80027
# Shear Modulus (GPa) = 30.20946 36.66693 33.43819
#
# Velocity S-wave (km/s) = 3.54720 3.90797 3.73195
# Velocity P-wave (km/s) = 5.80994 6.31437 6.06740
#
# Compressibility (1/GPa) = 0.02453174
#
# Stress axis : x y z
#
# Youngs Moduli (GPa) = 90.78847 112.80657 110.06388
#
# Poissons Ratio (x) = 0.09629 0.07088
# Poissons Ratio (y) = 0.07750 0.07913
# Poissons Ratio (z) = 0.05847 0.08110
#
# Static dielectric constant tensor:
#      x y z
#    x 1.879600 0.000000 0.020320 
#    y 0.000000 1.964640 0.000000 
#    z 0.020320 0.000000 1.948280 
# 
# From -- ./inp_files/37783.got.cif
#   From: 2010.05.17/outbox.cif.g08.bks.cpg/sg14_19_cif.got.tgz:37783.got - 2010.06.03 17:49:19.
