data_PCOD9250307
_publ_section_title
;
Structure prediction by ZEFSAII (Michael W. Deem and Ramdas Pophale) SiO2 
 PCOD9250307
Probable space group: P 21/C
;
_chemical_formula_sum "Si O2"
_cell_formula_units_Z 28
_cell_length_a 18.366129
_cell_length_b 5.142391
_cell_length_c 19.243391
_cell_angle_alpha 90.000000
_cell_angle_beta 141.299806
_cell_angle_gamma 90.000000
_cell_volume 1136.356929
_symmetry_space_group_name_H-M "P 21/C"
_symmetry_group_IT_number 14
_symmetry_cell_setting 'monoclinic'
loop_
_space_group_symop_operation_xyz
x,y,z
-x,1/2+y,1/2-z
-x,-y,-z
x,1/2-y,1/2+z
loop_
_atom_site_type_symbol
_atom_site_label
_atom_site_fract_x
_atom_site_fract_y
_atom_site_fract_z
Si Si1 0.179369 0.898598 0.152680
Si Si2 0.940881 0.797254 0.507296
Si Si3 0.549220 0.634730 0.821410
Si Si4 0.078117 0.608677 0.305557
Si Si5 0.417073 0.370083 0.995622
Si Si6 0.796694 0.131723 0.479650
Si Si7 0.719095 0.149076 0.140296
O O1 0.264191 0.771098 0.271088
O O2 0.051113 0.894676 0.095538
O O3 0.199144 0.754539 0.094217
O O4 0.172256 0.190942 0.118421
O O5 0.898526 0.918028 0.546962
O O6 0.000000 0.000000 0.500000
O O7 0.534807 0.912774 0.773231
O O8 0.527899 0.671006 0.887633
O O9 0.676941 0.512570 0.905692
O O10 0.165733 0.657501 0.435847
O O11 0.159390 0.549756 0.300136
O O12 0.989092 0.378974 0.253161
O O13 0.366709 0.096220 0.930643
O O14 0.500000 0.500000 0.000000
O O15 0.320506 0.597308 0.932819
#
# Coordination Sequence:
#
# PCOD9250307 Si02
#       7
#     4   4   4   4   4   4   4
#     4  10  24  40  72 107 150 200 248 302 381 466
#     4   9  21  40  66 106 150 188 250 297 367 450
#     4  12  30  51  81 110 147 198 266 326 393 454
#     4  12  28  46  75 111 159 208 249 311 394 472
#     4  12  29  52  78 109 154 197 265 334 399 468
#     4  11  26  45  73 104 151 195 255 317 373 459
#     4  12  27  48  76 112 154 203 255 315 399 474
#
# _framework density 24.640145
#
# number of rings (size 3 to 8) (size 9 to 14) (size 15 to 20)
#    0.000    0.857    1.429    3.000   18.000    0.000 
#    0.000    0.000    0.000    0.000    0.000    0.000 
#    0.000    0.000    0.000    0.000    0.000    0.000 
#
# Total GULP energy -156563.597834 kJ/mol
# GULP energy per Si atom -5591.557065 kJ/mol
# Density = 2.458406 g / cm^3
# Si number density = 24.640145 Si / 1000 Ang^3
#
#
#
# Elastic Constant Matrix: (Units=GPa)
#
#
# Indices 1 2 3 4 5 6 
#
# 1 112.2955 12.0431 44.9377 0.0000 -11.8594 0.0000
# 2 12.0431 135.0481 44.4918 0.0000 -17.8900 0.0000
# 3 44.9377 44.4918 104.9685 0.0000 -32.8770 0.0000
# 4 0.0000 0.0000 0.0000 61.5399 0.0000 2.2474
# 5 -11.8594 -17.8900 -32.8770 0.0000 48.5021 0.0000
# 6 0.0000 0.0000 0.0000 2.2474 0.0000 28.7762
#
#
#
# Elastic Compliance Matrix: (Units=1/GPa)
#
#
# Indices 1 2 3 4 5 6 
#
# 1 0.010807 0.000632 -0.005070 0.000000 -0.000561 0.000000
# 2 0.000632 0.008674 -0.003678 0.000000 0.000861 0.000000
# 3 -0.005070 -0.003678 0.015797 0.000000 0.008111 0.000000
# 4 0.000000 0.000000 0.000000 0.016296 0.000000 -0.001273
# 5 -0.000561 0.000861 0.008111 0.000000 0.026296 0.000000
# 6 0.000000 0.000000 0.000000 -0.001273 0.000000 0.034850
#
#
# Mechanical properties :
#
#
# Convention : Reuss Voigt Hill
#
# Bulk Modulus (GPa) = 52.50272 61.69525 57.09898
# Shear Modulus (GPa) = 36.95474 44.48625 40.72050
#
# Velocity S-wave (km/s) = 3.87690 4.25365 4.06964
# Velocity P-wave (km/s) = 6.43386 7.01553 6.73098
#
# Compressibility (1/GPa) = 0.01904663
#
# Stress axis : x y z
#
# Youngs Moduli (GPa) = 92.53243 115.28653 63.30447
#
# Poissons Ratio (x) = -0.07290 0.32098
# Poissons Ratio (y) = -0.05851 0.23280
# Poissons Ratio (z) = 0.46917 0.42397
#
# Static dielectric constant tensor:
#      x y z
#    x 1.959920 0.000000 0.033690 
#    y 0.000000 2.016270 0.000000 
#    z 0.033690 0.000000 2.112870 
# 
# From -- ./inp_files/68981.got.cif
#   From: 2010.05.17/outbox.cif.g08.bks.cpg/sg14_35_cif.got.tgz:68981.got - 2010.06.03 17:49:19.
