data_PCOD9250875
_publ_section_title
;
Structure prediction by ZEFSAII (Michael W. Deem and Ramdas Pophale) SiO2 
 PCOD9250875
Probable space group: P 21/C
;
_chemical_formula_sum "Si O2"
_cell_formula_units_Z 16
_cell_length_a 9.021472
_cell_length_b 4.674806
_cell_length_c 26.437872
_cell_angle_alpha 90.000000
_cell_angle_beta 149.752573
_cell_angle_gamma 90.000000
_cell_volume 561.655194
_symmetry_space_group_name_H-M "P 21/C"
_symmetry_group_IT_number 14
_symmetry_cell_setting 'monoclinic'
loop_
_space_group_symop_operation_xyz
x,y,z
-x,1/2+y,1/2-z
-x,-y,-z
x,1/2-y,1/2+z
loop_
_atom_site_type_symbol
_atom_site_label
_atom_site_fract_x
_atom_site_fract_y
_atom_site_fract_z
Si Si1 0.405974 0.480776 0.251353
Si Si2 0.799560 0.179457 0.176460
Si Si3 0.744916 0.279371 0.053312
Si Si4 0.683906 0.377847 0.923604
O O1 0.470088 0.811929 0.261418
O O2 0.572719 0.333152 0.346941
O O3 0.060861 0.432482 0.147381
O O4 0.755435 0.074233 0.105377
O O5 0.538443 0.363759 0.125337
O O6 0.065680 0.410995 0.254963
O O7 0.500000 0.500000 0.000000
O O8 0.711952 0.200797 0.984852
O O9 0.000000 0.500000 0.000000
#
# Coordination Sequence:
#
# PCOD9250875 Si02
#       4
#     4   4   4   4
#     4  12  27  49  77 111 156 198 250 315 375 446
#     4  11  25  47  74 105 150 197 243 307 375 440
#     4  10  24  48  73 112 148 197 250 307 374 448
#     4  11  24  47  76 111 148 197 253 309 375 449
#
# _framework density 28.487231000000001
#
# number of rings (size 3 to 8) (size 9 to 14) (size 15 to 20)
#    0.000    1.000    5.000    0.000    3.500    1.000 
#    9.000    7.500    0.000    0.000    0.000    0.000 
#    0.000    0.000    0.000    0.000    0.000    0.000 
#
# Total GULP energy -89769.190498 kJ/mol
# GULP energy per Si atom -5610.574406 kJ/mol
# Density = 2.842239 g / cm^3
# Si number density = 28.487231 Si / 1000 Ang^3
#
#
#
# Elastic Constant Matrix: (Units=GPa)
#
#
# Indices 1 2 3 4 5 6 
#
# 1 183.4222 6.5607 62.1420 0.0000 -22.6697 0.0000
# 2 6.5607 90.6253 3.4815 0.0000 -22.1025 0.0000
# 3 62.1420 3.4815 131.9519 0.0001 -16.7521 0.0000
# 4 0.0000 0.0000 0.0001 28.5526 0.0000 -6.6315
# 5 -22.6697 -22.1025 -16.7521 0.0000 92.4433 0.0000
# 6 0.0000 0.0000 0.0000 -6.6315 0.0000 62.4136
#
#
#
# Elastic Compliance Matrix: (Units=1/GPa)
#
#
# Indices 1 2 3 4 5 6 
#
# 1 0.006591 -0.000106 -0.002968 0.000000 0.001053 0.000000
# 2 -0.000106 0.011720 0.000095 0.000000 0.002793 0.000000
# 3 -0.002968 0.000095 0.009093 0.000000 0.000943 0.000000
# 4 0.000000 0.000000 0.000000 0.035909 0.000000 0.003815
# 5 0.001053 0.002793 0.000943 0.000000 0.011914 0.000000
# 6 0.000000 0.000000 0.000000 0.003815 0.000000 0.016428
#
#
# Mechanical properties :
#
#
# Convention : Reuss Voigt Hill
#
# Bulk Modulus (GPa) = 46.62564 61.15195 53.88880
# Shear Modulus (GPa) = 47.72746 58.93625 53.33185
#
# Velocity S-wave (km/s) = 4.09760 4.55341 4.33151
# Velocity P-wave (km/s) = 6.22815 7.01126 6.63128
#
# Compressibility (1/GPa) = 0.02144743
#
# Stress axis : x y z
#
# Youngs Moduli (GPa) = 151.71579 85.32613 109.97118
#
# Poissons Ratio (x) = 0.00907 0.32635
# Poissons Ratio (y) = 0.01613 -0.01050
# Poissons Ratio (z) = 0.45023 -0.00815
#
# Static dielectric constant tensor:
#      x y z
#    x 2.290180 0.000000 -0.105030 
#    y 0.000000 2.123160 0.000000 
#    z -0.105030 0.000000 2.368920 
# 
# From -- ./inp_files/38414.got.cif
#   From: 2010.05.17/outbox.cif.g08.bks.cpg/sg14_20_cif.got.tgz:38414.got - 2010.06.03 17:49:19.
