data_PCOD9250616
_publ_section_title
;
Structure prediction by ZEFSAII (Michael W. Deem and Ramdas Pophale) SiO2 
 PCOD9250616
Probable space group: P 21/C
;
_chemical_formula_sum "Si O2"
_cell_formula_units_Z 32
_cell_length_a 5.279797
_cell_length_b 24.408963
_cell_length_c 11.506219
_cell_angle_alpha 90.000000
_cell_angle_beta 104.712250
_cell_angle_gamma 90.000000
_cell_volume 1434.239004
_symmetry_space_group_name_H-M "P 21/C"
_symmetry_group_IT_number 14
_symmetry_cell_setting 'monoclinic'
loop_
_space_group_symop_operation_xyz
x,y,z
-x,1/2+y,1/2-z
-x,-y,-z
x,1/2-y,1/2+z
loop_
_atom_site_type_symbol
_atom_site_label
_atom_site_fract_x
_atom_site_fract_y
_atom_site_fract_z
Si Si1 0.594217 0.037784 0.618179
Si Si2 0.035102 0.006160 0.144791
Si Si3 0.572505 0.830679 0.736355
Si Si4 0.297313 0.610482 0.389034
Si Si5 0.104712 0.387613 0.128659
Si Si6 0.992031 0.804885 0.588009
Si Si7 0.265718 0.102201 0.885905
Si Si8 0.053549 0.309276 0.532905
O O1 0.705382 0.006914 0.747942
O O2 0.338983 0.073343 0.615164
O O3 0.834641 0.077937 0.609907
O O4 0.500000 0.000000 0.500000
O O5 0.842991 0.957030 0.158954
O O6 0.921938 0.065659 0.162768
O O7 0.000000 0.000000 0.000000
O O8 0.493770 0.884883 0.802481
O O9 0.782976 0.828278 0.657254
O O10 0.707977 0.795456 0.853487
O O11 0.291325 0.812694 0.660020
O O12 0.453761 0.593876 0.523376
O O13 0.178843 0.669921 0.409683
O O14 0.217667 0.364388 0.263304
O O15 0.055192 0.339450 0.033274
O O16 0.971571 0.740892 0.556175
O O17 0.111430 0.135963 0.965722
#
# Coordination Sequence:
#
# PCOD9250616 Si02
#       8
#     4   4   4   4   4   4   4   4
#     4  11  26  48  73 104 149 191 240 302 368 437
#     4  11  22  43  74 111 147 197 242 310 372 440
#     4  11  27  49  69 110 141 187 248 297 365 430
#     4  11  23  45  77 106 152 185 249 305 369 431
#     4  11  26  48  70 106 144 194 243 285 366 442
#     4  12  28  47  76 101 148 194 243 297 365 432
#     4  10  24  44  70 109 147 189 244 299 367 433
#     4  11  26  47  74 109 142 192 240 312 358 428
#
# _framework density 22.311485000000001
#
# number of rings (size 3 to 8) (size 9 to 14) (size 15 to 20)
#    0.000    1.000    2.500    2.250    8.750    2.000 
#    4.500    0.000    0.000    0.000    0.000    0.000 
#    0.000    0.000    0.000    0.000    0.000    0.000 
#
# Total GULP energy -178494.536264 kJ/mol
# GULP energy per Si atom -5577.954258 kJ/mol
# Density = 2.226070 g / cm^3
# Si number density = 22.311485 Si / 1000 Ang^3
#
#
#
# Elastic Constant Matrix: (Units=GPa)
#
#
# Indices 1 2 3 4 5 6 
#
# 1 112.9822 25.7117 17.3830 0.0000 -4.3264 0.0000
# 2 25.7117 68.9978 26.2739 0.0000 -9.2035 0.0000
# 3 17.3830 26.2739 58.8659 0.0000 15.9030 0.0000
# 4 0.0000 0.0000 0.0000 -7.4661 0.0000 7.2586
# 5 -4.3264 -9.2035 15.9030 0.0000 34.2560 0.0000
# 6 0.0000 0.0000 0.0000 7.2586 0.0000 14.4216
#
#
#
# Elastic Compliance Matrix: (Units=1/GPa)
#
#
# Indices 1 2 3 4 5 6 
#
# 1 0.009841 -0.002652 -0.002133 0.000000 0.001521 0.000000
# 2 -0.002652 0.021375 -0.011684 0.000000 0.010832 0.000000
# 3 -0.002133 -0.011684 0.027160 0.000000 -0.016017 0.000000
# 4 0.000000 0.000000 0.000000 -0.089933 0.000000 0.045264
# 5 0.001521 0.010832 -0.016017 0.000000 0.039730 0.000000
# 6 0.000000 0.000000 0.000000 0.045264 0.000000 0.046558
#
#
# Mechanical properties :
#
#
# Convention : Reuss Voigt Hill
#
# Bulk Modulus (GPa) = 39.31110 42.17589 40.74350
# Shear Modulus (GPa) = 52.00248 19.67411 35.83830
#
# Velocity S-wave (km/s) = 4.83302 2.97272 4.01218
# Velocity P-wave (km/s) = 6.98581 5.54320 6.30589
#
# Compressibility (1/GPa) = 0.02543811
#
# Stress axis : x y z
#
# Youngs Moduli (GPa) = 101.61664 46.78255 36.81926
#
# Poissons Ratio (x) = 0.12407 0.07854
# Poissons Ratio (y) = 0.26949 0.43019
# Poissons Ratio (z) = 0.21676 0.54660
#
# Static dielectric constant tensor:
#      x y z
#    x 1.914770 0.000000 -0.063510 
#    y 0.000000 1.819910 0.000000 
#    z -0.063510 0.000000 1.987640 
# 
# From -- ./inp_files/22197.got.cif
#   From: 2010.05.17/outbox.cif.g08.bks.cpg/sg14_12_cif.got.tgz:22197.got - 2010.06.03 17:49:19.
