data_PCOD9250760
_publ_section_title
;
Structure prediction by ZEFSAII (Michael W. Deem and Ramdas Pophale) SiO2 
 PCOD9250760
Probable space group: P 21/C
;
_chemical_formula_sum "Si O2"
_cell_formula_units_Z 32
_cell_length_a 5.473776
_cell_length_b 21.373332
_cell_length_c 13.712320
_cell_angle_alpha 90.000000
_cell_angle_beta 55.850823
_cell_angle_gamma 90.000000
_cell_volume 1327.637671
_symmetry_space_group_name_H-M "P 21/C"
_symmetry_group_IT_number 14
_symmetry_cell_setting 'monoclinic'
loop_
_space_group_symop_operation_xyz
x,y,z
-x,1/2+y,1/2-z
-x,-y,-z
x,1/2-y,1/2+z
loop_
_atom_site_type_symbol
_atom_site_label
_atom_site_fract_x
_atom_site_fract_y
_atom_site_fract_z
Si Si1 0.818028 0.591651 0.266271
Si Si2 0.650887 0.384884 0.369998
Si Si3 0.224205 0.276887 0.811161
Si Si4 0.076269 0.002211 0.097790
Si Si5 0.681184 0.058195 0.502092
Si Si6 0.532640 0.025038 0.730607
Si Si7 0.514163 0.248110 0.447544
Si Si8 0.271366 0.329039 0.164535
O O1 0.865321 0.570308 0.367629
O O2 0.717158 0.661983 0.267976
O O3 0.602165 0.537816 0.273703
O O4 0.093346 0.581630 0.130028
O O5 0.506676 0.417133 0.309018
O O6 0.496232 0.323118 0.443978
O O7 0.704854 0.444396 0.429075
O O8 0.960495 0.358513 0.260485
O O9 0.394702 0.283696 0.875018
O O10 0.358714 0.212885 0.737498
O O11 0.862030 0.267927 0.894525
O O12 0.799407 0.983790 0.229562
O O13 0.000000 0.000000 0.000000
O O14 0.480466 0.117170 0.577010
O O15 0.500000 0.000000 0.500000
O O16 0.767442 0.036652 0.593127
O O17 0.284091 0.222869 0.577971
#
# Coordination Sequence:
#
# PCOD9250760 Si02
#       8
#     4   4   4   4   4   4   4   4
#     4  11  25  42  68 111 142 191 242 311 376 442
#     4  10  24  46  69 107 140 192 246 305 377 448
#     4  11  27  46  69 107 149 190 251 297 367 456
#     4  11  25  46  72 103 148 196 252 305 375 456
#     4  12  21  40  73 105 145 182 233 311 379 437
#     4  11  23  41  73 102 146 183 239 304 377 450
#     4  11  26  45  73 102 145 195 241 305 367 448
#     4  11  24  46  71 104 145 193 242 304 377 445
#
# _framework density 24.102964
#
# number of rings (size 3 to 8) (size 9 to 14) (size 15 to 20)
#    0.000    1.000    3.750    1.875    7.000    6.000 
#    0.000    0.000    0.000    0.000    0.000    0.000 
#    0.000    0.000    0.000    0.000    0.000    0.000 
#
# Total GULP energy -178636.670668 kJ/mol
# GULP energy per Si atom -5582.395958 kJ/mol
# Density = 2.404810 g / cm^3
# Si number density = 24.102964 Si / 1000 Ang^3
#
#
#
# Elastic Constant Matrix: (Units=GPa)
#
#
# Indices 1 2 3 4 5 6 
#
# 1 45.5137 13.6308 22.1639 0.0000 14.5867 0.0000
# 2 13.6308 159.4732 27.0720 0.0000 -2.7359 0.0000
# 3 22.1639 27.0720 115.3170 0.0000 1.8566 0.0000
# 4 0.0000 0.0000 0.0000 52.5582 0.0000 -0.0849
# 5 14.5867 -2.7359 1.8566 0.0000 38.8091 0.0000
# 6 0.0000 0.0000 0.0000 -0.0849 0.0000 28.9040
#
#
#
# Elastic Compliance Matrix: (Units=1/GPa)
#
#
# Indices 1 2 3 4 5 6 
#
# 1 0.028224 -0.001771 -0.004840 0.000000 -0.010502 0.000000
# 2 -0.001771 0.006653 -0.001241 0.000000 0.001194 0.000000
# 3 -0.004840 -0.001241 0.009873 0.000000 0.001259 0.000000
# 4 0.000000 0.000000 0.000000 0.019027 0.000000 0.000056
# 5 -0.010502 0.001194 0.001259 0.000000 0.029738 0.000000
# 6 0.000000 0.000000 0.000000 0.000056 0.000000 0.034597
#
#
# Mechanical properties :
#
#
# Convention : Reuss Voigt Hill
#
# Bulk Modulus (GPa) = 34.42671 49.55970 41.99321
# Shear Modulus (GPa) = 32.57364 41.21674 36.89519
#
# Velocity S-wave (km/s) = 3.68018 4.13973 3.91670
# Velocity P-wave (km/s) = 5.68968 6.59213 6.15746
#
# Compressibility (1/GPa) = 0.02904721
#
# Stress axis : x y z
#
# Youngs Moduli (GPa) = 35.43043 150.30521 101.28659
#
# Poissons Ratio (x) = 0.26619 0.49021
# Poissons Ratio (y) = 0.06275 0.12567
# Poissons Ratio (z) = 0.17148 0.18649
#
# Static dielectric constant tensor:
#      x y z
#    x 2.141330 0.000000 -0.025410 
#    y 0.000000 1.981930 0.000000 
#    z -0.025410 0.000000 1.997760 
# 
# From -- ./inp_files/38070.got.cif
#   From: 2010.05.17/outbox.cif.g08.bks.cpg/sg14_20_cif.got.tgz:38070.got - 2010.06.03 17:49:19.
