data_PCOD9250905
_publ_section_title
;
Structure prediction by ZEFSAII (Michael W. Deem and Ramdas Pophale) SiO2 
 PCOD9250905
Probable space group: P 21/C
;
_chemical_formula_sum "Si O2"
_cell_formula_units_Z 14
_cell_length_a 15.328373
_cell_length_b 5.159749
_cell_length_c 9.047709
_cell_angle_alpha 90.000000
_cell_angle_beta 39.399699
_cell_angle_gamma 90.000000
_cell_volume 454.202854
_symmetry_space_group_name_H-M "P 21/C"
_symmetry_group_IT_number 14
_symmetry_cell_setting 'monoclinic'
loop_
_space_group_symop_operation_xyz
x,y,z
-x,1/2+y,1/2-z
-x,-y,-z
x,1/2-y,1/2+z
loop_
_atom_site_type_symbol
_atom_site_label
_atom_site_fract_x
_atom_site_fract_y
_atom_site_fract_z
Si Si1 0.636299 0.094484 0.134236
Si Si2 0.132707 0.764654 0.461226
Si Si3 0.500000 0.500000 0.500000
Si Si4 0.830537 0.726722 0.790920
O O1 0.769471 0.254962 0.024635
O O2 0.519725 0.227222 0.383391
O O3 0.585045 0.120114 0.033808
O O4 0.698225 0.801747 0.063385
O O5 0.174579 0.516675 0.308753
O O6 0.970549 0.721691 0.702360
O O7 0.150100 0.025138 0.343521
#
# Coordination Sequence:
#
# PCOD9250905 Si02
#       4
#     4   4   2   4
#     4  12  28  57  86 137 188 256 322 401 469 591
#     4  10  24  49  86 130 178 233 307 397 486 564
#     4  12  32  54  90 130 194 264 326 384 480 580
#     4  10  24  49  86 130 177 234 307 396 487 566
#
# _framework density 30.823232000000001
#
# number of rings (size 3 to 8) (size 9 to 14) (size 15 to 20)
#    0.000    1.143    2.857    0.000    4.000   12.571 
#    0.000    0.000    0.000    0.000    0.000    0.000 
#    0.000    0.000    0.000    0.000    0.000    0.000 
#
# Total GULP energy -78112.276000 kJ/mol
# GULP energy per Si atom -5579.448286 kJ/mol
# Density = 3.075308 g / cm^3
# Si number density = 30.823232 Si / 1000 Ang^3
#
#
#
# Elastic Constant Matrix: (Units=GPa)
#
#
# Indices 1 2 3 4 5 6 
#
# 1 253.3897 90.0298 42.9280 0.0000 28.3303 0.0000
# 2 90.0298 214.4848 76.9636 0.0000 13.7148 0.0000
# 3 42.9280 76.9636 120.9563 0.0000 -6.2834 0.0000
# 4 0.0000 0.0000 0.0000 61.3153 0.0000 -1.8049
# 5 28.3303 13.7148 -6.2834 0.0000 69.7425 0.0000
# 6 0.0000 0.0000 0.0000 -1.8049 0.0000 75.5546
#
#
#
# Elastic Compliance Matrix: (Units=1/GPa)
#
#
# Indices 1 2 3 4 5 6 
#
# 1 0.004855 -0.001656 -0.000758 0.000000 -0.001715 0.000000
# 2 -0.001656 0.006776 -0.003776 0.000000 -0.001000 0.000000
# 3 -0.000758 -0.003776 0.011045 0.000000 0.002046 0.000000
# 4 0.000000 0.000000 0.000000 0.016321 0.000000 0.000390
# 5 -0.001715 -0.001000 0.002046 0.000000 0.015416 0.000000
# 6 0.000000 0.000000 0.000000 0.000390 0.000000 0.013245
#
#
# Mechanical properties :
#
#
# Convention : Reuss Voigt Hill
#
# Bulk Modulus (GPa) = 97.12483 112.07484 104.59983
# Shear Modulus (GPa) = 59.90081 66.58310 63.24196
#
# Velocity S-wave (km/s) = 4.41314 4.65279 4.53455
# Velocity P-wave (km/s) = 7.58594 8.08110 7.83743
#
# Compressibility (1/GPa) = 0.01029603
#
# Stress axis : x y z
#
# Youngs Moduli (GPa) = 205.96735 147.57187 90.53487
#
# Poissons Ratio (x) = 0.24440 0.06866
# Poissons Ratio (y) = 0.34111 0.34185
# Poissons Ratio (z) = 0.15621 0.55722
#
# Static dielectric constant tensor:
#      x y z
#    x 2.674210 0.000000 -0.740120 
#    y 0.000000 2.437810 0.000000 
#    z -0.740120 0.000000 3.661730 
# 
# From -- ./inp_files/14801.got.cif
#   From: 2010.05.17/outbox.cif.g08.bks.cpg/sg14_8_cif.got.tgz:14801.got - 2010.06.03 17:49:19.
