data_PCOD9250059
_publ_section_title
;
Structure prediction by ZEFSAII (Michael W. Deem and Ramdas Pophale) SiO2 
 PCOD9250059
Probable space group: P 21/C
;
_chemical_formula_sum "Si O2"
_cell_formula_units_Z 24
_cell_length_a 11.198003
_cell_length_b 11.154768
_cell_length_c 9.721355
_cell_angle_alpha 90.000000
_cell_angle_beta 76.252932
_cell_angle_gamma 90.000000
_cell_volume 1179.520684
_symmetry_space_group_name_H-M "P 21/C"
_symmetry_group_IT_number 14
_symmetry_cell_setting 'monoclinic'
loop_
_space_group_symop_operation_xyz
x,y,z
-x,1/2+y,1/2-z
-x,-y,-z
x,1/2-y,1/2+z
loop_
_atom_site_type_symbol
_atom_site_label
_atom_site_fract_x
_atom_site_fract_y
_atom_site_fract_z
Si Si1 0.835253 0.380104 0.046870
Si Si2 0.368785 0.775180 0.808830
Si Si3 0.099965 0.131342 0.365375
Si Si4 0.634226 0.490495 0.895742
Si Si5 0.243774 0.265420 0.089438
Si Si6 0.494413 0.361136 0.462020
O O1 0.771004 0.269585 0.139891
O O2 0.874472 0.488348 0.137351
O O3 0.728478 0.431259 0.978042
O O4 0.955242 0.348644 0.926080
O O5 0.375606 0.902434 0.730458
O O6 0.442410 0.677450 0.697872
O O7 0.430944 0.791319 0.939493
O O8 0.157718 0.193394 0.217138
O O9 0.167490 0.184631 0.481457
O O10 0.691410 0.621263 0.853401
O O11 0.500000 0.500000 0.000000
O O12 0.354769 0.183432 0.005302
O O13 0.500000 0.500000 0.500000
#
# Coordination Sequence:
#
# PCOD9250059 Si02
#       6
#     4   4   4   4   4   4
#     4  10  23  46  65  96 130 177 213 265 333 390
#     4  12  24  42  67  95 134 168 218 277 330 395
#     4  10  24  42  70  89 133 174 220 263 320 394
#     4  11  23  42  68  95 134 172 212 274 344 384
#     4  11  23  42  65  95 129 173 220 265 330 392
#     4  12  27  39  68  99 132 170 222 277 334 392
#
# _framework density 20.347248
#
# number of rings (size 3 to 8) (size 9 to 14) (size 15 to 20)
#    0.000    1.000    3.333    2.000   11.667    0.000 
#    0.000    0.833    0.000    0.000    0.000    0.000 
#    0.000    0.000    0.000    0.000    0.000    0.000 
#
# Total GULP energy -134276.823355 kJ/mol
# GULP energy per Si atom -5594.867640 kJ/mol
# Density = 2.030094 g / cm^3
# Si number density = 20.347248 Si / 1000 Ang^3
#
#
#
# Elastic Constant Matrix: (Units=GPa)
#
#
# Indices 1 2 3 4 5 6 
#
# 1 125.1361 27.6990 29.0158 0.0000 -33.9982 0.0000
# 2 27.6990 65.6553 8.0826 0.0000 -16.5148 0.0000
# 3 29.0158 8.0826 62.9443 0.0000 -13.7925 0.0000
# 4 0.0000 0.0000 0.0000 43.7968 0.0000 -7.9456
# 5 -33.9982 -16.5148 -13.7925 0.0000 38.0536 0.0000
# 6 0.0000 0.0000 0.0000 -7.9456 0.0000 20.4280
#
#
#
# Elastic Compliance Matrix: (Units=1/GPa)
#
#
# Indices 1 2 3 4 5 6 
#
# 1 0.011449 -0.002419 -0.003211 0.000000 0.008015 0.000000
# 2 -0.002419 0.017631 0.000059 0.000000 0.005512 0.000000
# 3 -0.003211 0.000059 0.018181 0.000000 0.003746 0.000000
# 4 0.000000 0.000000 0.000000 0.024566 0.000000 0.009555
# 5 0.008015 0.005512 0.003746 0.000000 0.037190 0.000000
# 6 0.000000 0.000000 0.000000 0.009555 0.000000 0.052669
#
#
# Mechanical properties :
#
#
# Convention : Reuss Voigt Hill
#
# Bulk Modulus (GPa) = 27.68639 42.59227 35.13933
# Shear Modulus (GPa) = 27.04664 33.05157 30.04911
#
# Velocity S-wave (km/s) = 3.64985 4.03473 3.84710
# Velocity P-wave (km/s) = 5.60342 6.53326 6.08612
#
# Compressibility (1/GPa) = 0.03611883
#
# Stress axis : x y z
#
# Youngs Moduli (GPa) = 87.34505 56.71932 55.00394
#
# Poissons Ratio (x) = 0.13718 0.17660
# Poissons Ratio (y) = 0.21126 -0.00323
# Poissons Ratio (z) = 0.28044 -0.00333
#
# Static dielectric constant tensor:
#      x y z
#    x 1.697650 0.000000 0.015740 
#    y 0.000000 1.755880 0.000000 
#    z 0.015740 0.000000 1.705530 
# 
# From -- ./inp_files/12359.got.cif
#   From: 2010.05.17/outbox.cif.g08.bks.cpg/sg14_7_cif.got.tgz:12359.got - 2010.06.03 17:49:19.
