data_PCOD9250496
_publ_section_title
;
Structure prediction by ZEFSAII (Michael W. Deem and Ramdas Pophale) SiO2 
 PCOD9250496
Probable space group: P 21/C
;
_chemical_formula_sum "Si O2"
_cell_formula_units_Z 28
_cell_length_a 7.962267
_cell_length_b 15.389684
_cell_length_c 8.949152
_cell_angle_alpha 90.000000
_cell_angle_beta 107.858159
_cell_angle_gamma 90.000000
_cell_volume 1043.764476
_symmetry_space_group_name_H-M "P 21/C"
_symmetry_group_IT_number 14
_symmetry_cell_setting 'monoclinic'
loop_
_space_group_symop_operation_xyz
x,y,z
-x,1/2+y,1/2-z
-x,-y,-z
x,1/2-y,1/2+z
loop_
_atom_site_type_symbol
_atom_site_label
_atom_site_fract_x
_atom_site_fract_y
_atom_site_fract_z
Si Si1 0.000000 0.500000 0.000000
Si Si2 0.295542 0.373305 0.241929
Si Si3 0.701852 0.386904 0.086726
Si Si4 0.014454 0.819913 0.119594
Si Si5 0.568501 0.686956 0.207874
Si Si6 0.413739 0.494448 0.680596
Si Si7 0.000000 0.000000 0.000000
Si Si8 0.904764 0.632343 0.110581
O O1 0.156433 0.569068 0.982743
O O2 0.990118 0.453843 0.820758
O O3 0.151159 0.345134 0.321267
O O4 0.396401 0.283990 0.223403
O O5 0.433457 0.443074 0.339094
O O6 0.179335 0.409972 0.068608
O O7 0.602539 0.462893 0.154433
O O8 0.809581 0.333026 0.238371
O O9 0.577894 0.323014 0.959469
O O10 0.993857 0.719568 0.078754
O O11 0.005756 0.891303 0.990895
O O12 0.529419 0.606327 0.305450
O O13 0.750238 0.658068 0.176914
O O14 0.216511 0.499832 0.568315
#
# Coordination Sequence:
#
# PCOD9250496 Si02
#       8
#     2   4   4   4   4   4   2   4
#     4  12  22  38  68  98 130 166 224 266 322 388
#     4  11  23  42  68  95 128 170 222 268 322 394
#     4  11  22  39  65 100 127 170 216 272 319 393
#     4  10  24  43  67  96 136 171 216 269 333 391
#     4  11  23  41  68  93 129 175 212 269 334 376
#     4  11  22  43  67  92 131 169 217 271 324 391
#     4  10  24  44  66  90 136 170 206 274 338 384
#     4  11  22  43  66  96 130 173 216 273 323 388
#
# _framework density 26.825973000000001
#
# number of rings (size 3 to 8) (size 9 to 14) (size 15 to 20)
#    0.000    1.143    4.286    2.143    0.000    2.857 
#    5.143    0.000    3.143    0.000    0.000    0.000 
#    0.000    0.000    0.000    0.000    0.000    0.000 
#
# Total GULP energy -156055.567501 kJ/mol
# GULP energy per Si atom -5573.413125 kJ/mol
# Density = 2.676492 g / cm^3
# Si number density = 26.825973 Si / 1000 Ang^3
#
#
#
# Elastic Constant Matrix: (Units=GPa)
#
#
# Indices 1 2 3 4 5 6 
#
# 1 71.4940 18.5067 34.3381 0.0000 9.8047 0.0000
# 2 18.5067 220.2014 37.8424 0.0000 22.6496 0.0000
# 3 34.3381 37.8424 106.3612 0.0000 39.4353 0.0000
# 4 0.0000 0.0000 0.0000 28.9452 0.0000 -2.3451
# 5 9.8047 22.6496 39.4353 0.0000 45.3369 0.0000
# 6 0.0000 0.0000 0.0000 -2.3451 0.0000 46.8861
#
#
#
# Elastic Compliance Matrix: (Units=1/GPa)
#
#
# Indices 1 2 3 4 5 6 
#
# 1 0.016700 -0.000581 -0.005835 0.000000 0.001754 0.000000
# 2 -0.000581 0.004915 -0.001029 0.000000 -0.001434 0.000000
# 3 -0.005835 -0.001029 0.016226 0.000000 -0.012338 0.000000
# 4 0.000000 0.000000 0.000000 0.034689 0.000000 0.001735
# 5 0.001754 -0.001434 -0.012338 0.000000 0.033126 0.000000
# 6 0.000000 0.000000 0.000000 0.001735 0.000000 0.021415
#
#
# Mechanical properties :
#
#
# Convention : Reuss Voigt Hill
#
# Bulk Modulus (GPa) = 43.57297 64.38123 53.97710
# Shear Modulus (GPa) = 33.41995 44.72494 39.07245
#
# Velocity S-wave (km/s) = 3.53343 4.08760 3.82057
# Velocity P-wave (km/s) = 5.73802 6.80659 6.29502
#
# Compressibility (1/GPa) = 0.02295001
#
# Stress axis : x y z
#
# Youngs Moduli (GPa) = 59.88184 203.47806 61.62759
#
# Poissons Ratio (x) = 0.11826 0.35960
# Poissons Ratio (y) = 0.03480 0.06342
# Poissons Ratio (z) = 0.34941 0.20940
#
# Static dielectric constant tensor:
#      x y z
#    x 1.911390 0.000000 0.319210 
#    y 0.000000 2.380270 0.000000 
#    z 0.319210 0.000000 1.818870 
# 
# From -- ./inp_files/25390.got.cif
#   From: 2010.05.17/outbox.cif.g08.bks.cpg/sg14_13_cif.got.tgz:25390.got - 2010.06.03 17:49:19.
