data_PCOD9250467
_publ_section_title
;
Structure prediction by ZEFSAII (Michael W. Deem and Ramdas Pophale) SiO2 
 PCOD9250467
Probable space group: P 21/C
;
_chemical_formula_sum "Si O2"
_cell_formula_units_Z 20
_cell_length_a 17.746237
_cell_length_b 9.445688
_cell_length_c 13.253843
_cell_angle_alpha 90.000000
_cell_angle_beta 20.431509
_cell_angle_gamma 90.000000
_cell_volume 775.560922
_symmetry_space_group_name_H-M "P 21/C"
_symmetry_group_IT_number 14
_symmetry_cell_setting 'monoclinic'
loop_
_space_group_symop_operation_xyz
x,y,z
-x,1/2+y,1/2-z
-x,-y,-z
x,1/2-y,1/2+z
loop_
_atom_site_type_symbol
_atom_site_label
_atom_site_fract_x
_atom_site_fract_y
_atom_site_fract_z
Si Si1 0.450208 0.827781 0.440558
Si Si2 0.196719 0.757928 0.431408
Si Si3 0.323145 0.226276 0.164788
Si Si4 0.981814 0.958194 0.323539
Si Si5 0.352950 0.408312 0.933274
O O1 0.233758 0.820086 0.778761
O O2 0.637481 0.836270 0.291238
O O3 0.486306 0.680696 0.338510
O O4 0.449109 0.952623 0.363260
O O5 0.173853 0.646034 0.550478
O O6 0.010249 0.875157 0.664995
O O7 0.431280 0.834813 0.150686
O O8 0.148959 0.114671 0.420828
O O9 0.279729 0.308982 0.117578
O O10 0.841682 0.947380 0.396519
#
# Coordination Sequence:
#
# PCOD9250467 Si02
#       5
#     4   4   4   4   4
#     4   9  23  37  67  96 129 165 212 262 320 379
#     4  10  24  43  64  96 133 169 213 266 324 374
#     4   9  22  43  67  92 132 170 211 272 316 376
#     4  11  24  43  68  93 131 175 212 266 322 384
#     4  11  21  41  69  94 127 171 217 257 326 381
#
# _framework density 25.787787000000002
#
# number of rings (size 3 to 8) (size 9 to 14) (size 15 to 20)
#    1.200    0.800    0.000    2.400    5.600    2.400 
#    3.600    1.000    0.000    0.000    0.000    0.000 
#    0.000    0.000    0.000    0.000    0.000    0.000 
#
# Total GULP energy -111876.603140 kJ/mol
# GULP energy per Si atom -5593.830157 kJ/mol
# Density = 2.572909 g / cm^3
# Si number density = 25.787787 Si / 1000 Ang^3
#
#
#
# Elastic Constant Matrix: (Units=GPa)
#
#
# Indices 1 2 3 4 5 6 
#
# 1 87.8879 13.8558 0.9199 0.0000 14.3736 0.0000
# 2 13.8558 110.1340 40.0053 0.0000 20.2547 0.0000
# 3 0.9199 40.0053 112.7824 0.0000 27.7876 0.0000
# 4 0.0000 0.0000 0.0000 29.4829 0.0000 7.5153
# 5 14.3736 20.2547 27.7876 0.0000 29.9774 0.0000
# 6 0.0000 0.0000 0.0000 7.5153 0.0000 39.1621
#
#
#
# Elastic Compliance Matrix: (Units=1/GPa)
#
#
# Indices 1 2 3 4 5 6 
#
# 1 0.012712 -0.000999 0.002055 0.000000 -0.007326 0.000000
# 2 -0.000999 0.011035 -0.002834 0.000000 -0.004350 0.000000
# 3 0.002055 -0.002834 0.012475 0.000000 -0.010635 0.000000
# 4 0.000000 0.000000 0.000000 0.035662 0.000000 -0.006844
# 5 -0.007326 -0.004350 -0.010635 0.000000 0.049668 0.000000
# 6 0.000000 0.000000 0.000000 -0.006844 0.000000 0.026848
#
#
# Mechanical properties :
#
#
# Convention : Reuss Voigt Hill
#
# Bulk Modulus (GPa) = 30.61149 46.70739 38.65944
# Shear Modulus (GPa) = 30.70397 36.79268 33.74833
#
# Velocity S-wave (km/s) = 3.45431 3.78133 3.62151
# Velocity P-wave (km/s) = 5.27314 6.10050 5.70185
#
# Compressibility (1/GPa) = 0.03266747
#
# Stress axis : x y z
#
# Youngs Moduli (GPa) = 78.66489 90.62049 80.15760
#
# Poissons Ratio (x) = 0.09050 -0.16476
# Poissons Ratio (y) = 0.07856 0.22720
# Poissons Ratio (z) = -0.16169 0.25685
#
# Static dielectric constant tensor:
#      x y z
#    x 2.010830 0.000000 -0.064630 
#    y 0.000000 2.073770 0.000000 
#    z -0.064630 0.000000 2.156230 
# 
# From -- ./inp_files/50006.got.cif
#   From: 2010.05.17/outbox.cif.g08.bks.cpg/sg14_26_cif.got.tgz:50006.got - 2010.06.03 17:49:19.
