data_PCOD9250783
_publ_section_title
;
Structure prediction by ZEFSAII (Michael W. Deem and Ramdas Pophale) SiO2 
 PCOD9250783
Probable space group: P 21/C
;
_chemical_formula_sum "Si O2"
_cell_formula_units_Z 20
_cell_length_a 16.341852
_cell_length_b 5.287634
_cell_length_c 18.253923
_cell_angle_alpha 90.000000
_cell_angle_beta 28.192136
_cell_angle_gamma 90.000000
_cell_volume 745.171364
_symmetry_space_group_name_H-M "P 21/C"
_symmetry_group_IT_number 14
_symmetry_cell_setting 'monoclinic'
loop_
_space_group_symop_operation_xyz
x,y,z
-x,1/2+y,1/2-z
-x,-y,-z
x,1/2-y,1/2+z
loop_
_atom_site_type_symbol
_atom_site_label
_atom_site_fract_x
_atom_site_fract_y
_atom_site_fract_z
Si Si1 0.361480 0.601679 0.270504
Si Si2 0.084021 0.578113 0.069885
Si Si3 0.772147 0.825058 0.256294
Si Si4 0.531621 0.106202 0.086914
Si Si5 0.895078 0.312001 0.777854
O O1 0.245781 0.750356 0.420873
O O2 0.234673 0.531809 0.302717
O O3 0.465398 0.332964 0.195790
O O4 0.489819 0.825937 0.145973
O O5 0.052150 0.637986 0.180839
O O6 0.059163 0.274854 0.098627
O O7 0.936556 0.643867 0.127275
O O8 0.798734 0.962955 0.311872
O O9 0.593460 0.680808 0.382303
O O10 0.732512 0.122471 0.910805
#
# Coordination Sequence:
#
# PCOD9250783 Si02
#       5
#     4   4   4   4   4
#     4  10  26  47  75 103 143 191 242 292 356 433
#     4  12  26  44  73 108 147 187 240 302 366 424
#     4  10  24  46  72 106 140 192 238 304 346 440
#     4  10  26  47  75 103 143 191 242 292 356 433
#     4  12  26  44  73 108 147 187 240 302 366 424
#
# _framework density 26.839465000000001
#
# number of rings (size 3 to 8) (size 9 to 14) (size 15 to 20)
#    1.200    0.000    2.000    2.400    5.600    4.800 
#    0.000    0.000    0.000    0.000    0.000    0.000 
#    0.000    0.000    0.000    0.000    0.000    0.000 
#
# Total GULP energy -111590.217303 kJ/mol
# GULP energy per Si atom -5579.510865 kJ/mol
# Density = 2.677838 g / cm^3
# Si number density = 26.839465 Si / 1000 Ang^3
#
#
#
# Elastic Constant Matrix: (Units=GPa)
#
#
# Indices 1 2 3 4 5 6 
#
# 1 133.5124 10.4097 30.7712 0.0000 -21.4418 0.0000
# 2 10.4097 81.2053 31.0876 0.0000 5.2614 0.0000
# 3 30.7712 31.0876 80.4963 0.0000 9.9585 0.0000
# 4 0.0000 0.0000 0.0000 47.2971 0.0000 -3.6204
# 5 -21.4418 5.2614 9.9585 0.0000 24.0742 0.0000
# 6 0.0000 0.0000 0.0000 -3.6204 0.0000 25.5800
#
#
#
# Elastic Compliance Matrix: (Units=1/GPa)
#
#
# Indices 1 2 3 4 5 6 
#
# 1 0.010656 -0.000014 -0.005526 0.000000 0.011780 0.000000
# 2 -0.000014 0.014469 -0.005470 0.000000 -0.000912 0.000000
# 3 -0.005526 -0.005470 0.018031 0.000000 -0.011185 0.000000
# 4 0.000000 0.000000 0.000000 0.021375 0.000000 0.003025
# 5 0.011780 -0.000912 -0.011185 0.000000 0.056856 0.000000
# 6 0.000000 0.000000 0.000000 0.003025 0.000000 0.039521
#
#
# Mechanical properties :
#
#
# Convention : Reuss Voigt Hill
#
# Bulk Modulus (GPa) = 47.30748 48.86122 48.08435
# Shear Modulus (GPa) = 26.31943 34.25328 30.28635
#
# Velocity S-wave (km/s) = 3.13489 3.57631 3.36285
# Velocity P-wave (km/s) = 5.54687 5.94120 5.74741
#
# Compressibility (1/GPa) = 0.02113831
#
# Stress axis : x y z
#
# Youngs Moduli (GPa) = 93.84087 69.11147 55.45901
#
# Poissons Ratio (x) = 0.00096 0.30644
# Poissons Ratio (y) = 0.00131 0.30336
# Poissons Ratio (z) = 0.51852 0.37803
#
# Static dielectric constant tensor:
#      x y z
#    x 2.029210 0.000000 0.038420 
#    y 0.000000 2.454510 0.000000 
#    z 0.038420 0.000000 2.200960 
# 
# From -- ./inp_files/59938.got.cif
#   From: 2010.05.17/outbox.cif.g08.bks.cpg/sg14_30_cif.got.tgz:59938.got - 2010.06.03 17:49:19.
