data_PCOD9250296
_publ_section_title
;
Structure prediction by ZEFSAII (Michael W. Deem and Ramdas Pophale) SiO2 
 PCOD9250296
Probable space group: P 21/C
;
_chemical_formula_sum "Si O2"
_cell_formula_units_Z 22
_cell_length_a 12.134710
_cell_length_b 5.277911
_cell_length_c 13.686684
_cell_angle_alpha 90.000000
_cell_angle_beta 112.077706
_cell_angle_gamma 90.000000
_cell_volume 812.301263
_symmetry_space_group_name_H-M "P 21/C"
_symmetry_group_IT_number 14
_symmetry_cell_setting 'monoclinic'
loop_
_space_group_symop_operation_xyz
x,y,z
-x,1/2+y,1/2-z
-x,-y,-z
x,1/2-y,1/2+z
loop_
_atom_site_type_symbol
_atom_site_label
_atom_site_fract_x
_atom_site_fract_y
_atom_site_fract_z
Si Si1 0.917599 0.464140 0.630209
Si Si2 0.000000 0.500000 0.500000
Si Si3 0.566521 0.403491 0.240419
Si Si4 0.147107 0.218567 0.717871
Si Si5 0.704609 0.092776 0.602564
Si Si6 0.768337 0.347084 0.918099
O O1 0.952436 0.587574 0.747383
O O2 0.798343 0.326283 0.630852
O O3 0.913954 0.690033 0.547632
O O4 0.059779 0.414611 0.632838
O O5 0.109040 0.721478 0.501173
O O6 0.514612 0.679219 0.243884
O O7 0.593565 0.349890 0.135070
O O8 0.690548 0.372733 0.340596
O O9 0.234319 0.361826 0.819524
O O10 0.207340 0.039200 0.660887
O O11 0.691486 0.046983 0.483089
#
# Coordination Sequence:
#
# PCOD9250296 Si02
#       6
#     4   2   4   4   4   4
#     4  11  22  37  66 105 154 202 246 310 394 489
#     4  10  24  40  70 114 154 190 258 316 404 484
#     4  12  28  55  81 113 160 217 281 349 408 474
#     4  12  22  43  69 110 165 206 253 318 404 495
#     4  11  26  46  72 110 150 206 270 333 402 475
#     4  11  26  49  78 119 154 210 266 333 409 495
#
# _framework density 27.083545999999998
#
# number of rings (size 3 to 8) (size 9 to 14) (size 15 to 20)
#    0.000    0.727    3.636    3.273    2.545    2.909 
#    3.273    0.000    0.000    0.000    0.000    0.000 
#    0.000    0.000    0.000    0.000    0.000    0.000 
#
# Total GULP energy -122728.628002 kJ/mol
# GULP energy per Si atom -5578.574000 kJ/mol
# Density = 2.702190 g / cm^3
# Si number density = 27.083546 Si / 1000 Ang^3
#
#
#
# Elastic Constant Matrix: (Units=GPa)
#
#
# Indices 1 2 3 4 5 6 
#
# 1 124.0476 38.0232 53.3931 0.0000 -49.2746 0.0000
# 2 38.0232 79.1265 13.1227 0.0000 -12.9084 0.0000
# 3 53.3931 13.1227 142.4895 0.0000 -72.8750 0.0000
# 4 0.0000 0.0000 0.0000 41.7739 0.0000 -4.4477
# 5 -49.2746 -12.9084 -72.8750 0.0000 81.5905 0.0000
# 6 0.0000 0.0000 0.0000 -4.4477 0.0000 62.6525
#
#
#
# Elastic Compliance Matrix: (Units=1/GPa)
#
#
# Indices 1 2 3 4 5 6 
#
# 1 0.012278 -0.004786 -0.001390 0.000000 0.005417 0.000000
# 2 -0.004786 0.014844 0.000275 0.000000 -0.000297 0.000000
# 3 -0.001390 0.000275 0.013083 0.000000 0.010889 0.000000
# 4 0.000000 0.000000 0.000000 0.024121 0.000000 0.001712
# 5 0.005417 -0.000297 0.010889 0.000000 0.025207 0.000000
# 6 0.000000 0.000000 0.000000 0.001712 0.000000 0.016083
#
#
# Mechanical properties :
#
#
# Convention : Reuss Voigt Hill
#
# Bulk Modulus (GPa) = 35.20807 61.63795 48.42301
# Shear Modulus (GPa) = 39.40571 53.27838 46.34204
#
# Velocity S-wave (km/s) = 3.81854 4.44011 4.14100
# Velocity P-wave (km/s) = 5.69822 7.00671 6.38607
#
# Compressibility (1/GPa) = 0.02840258
#
# Stress axis : x y z
#
# Youngs Moduli (GPa) = 81.44486 67.36765 76.43582
#
# Poissons Ratio (x) = 0.32242 0.10623
# Poissons Ratio (y) = 0.38980 -0.02099
# Poissons Ratio (z) = 0.11319 -0.01850
#
# Static dielectric constant tensor:
#      x y z
#    x 2.163670 0.000000 -0.083470 
#    y 0.000000 2.295660 0.000000 
#    z -0.083470 0.000000 2.745910 
# 
# From -- ./inp_files/42654.got.cif
#   From: 2010.05.17/outbox.cif.g08.bks.cpg/sg14_22_cif.got.tgz:42654.got - 2010.06.03 17:49:19.
