data_PCOD9250205
_publ_section_title
;
Structure prediction by ZEFSAII (Michael W. Deem and Ramdas Pophale) SiO2 
 PCOD9250205
Probable space group: P 21/C
;
_chemical_formula_sum "Si O2"
_cell_formula_units_Z 20
_cell_length_a 5.260080
_cell_length_b 17.524261
_cell_length_c 9.117901
_cell_angle_alpha 90.000000
_cell_angle_beta 102.144787
_cell_angle_gamma 90.000000
_cell_volume 821.668438
_symmetry_space_group_name_H-M "P 21/C"
_symmetry_group_IT_number 14
_symmetry_cell_setting 'monoclinic'
loop_
_space_group_symop_operation_xyz
x,y,z
-x,1/2+y,1/2-z
-x,-y,-z
x,1/2-y,1/2+z
loop_
_atom_site_type_symbol
_atom_site_label
_atom_site_fract_x
_atom_site_fract_y
_atom_site_fract_z
Si Si1 0.463717 0.874213 0.527743
Si Si2 0.151966 0.917501 0.097420
Si Si3 0.459990 0.301045 0.399332
Si Si4 0.115631 0.387964 0.155827
Si Si5 0.330204 0.077803 0.134246
O O1 0.519608 0.783732 0.542078
O O2 0.156417 0.882916 0.462612
O O3 0.555149 0.905923 0.694141
O O4 0.651555 0.910286 0.425544
O O5 0.286158 0.836843 0.147785
O O6 0.962101 0.937448 0.211023
O O7 0.350708 0.987056 0.110869
O O8 0.979328 0.910502 0.931352
O O9 0.437294 0.360042 0.532287
O O10 0.229244 0.313021 0.253811
#
# Coordination Sequence:
#
# PCOD9250205 Si02
#       5
#     4   4   4   4   4
#     4  12  27  43  72 106 141 182 233 296 355 413
#     4  10  23  49  71 101 143 192 236 287 344 430
#     4  11  24  45  72  98 147 180 240 282 358 418
#     4  11  26  46  67 103 141 183 228 295 351 410
#     4  10  25  43  74 104 138 193 237 284 351 422
#
# _framework density 24.340716
#
# number of rings (size 3 to 8) (size 9 to 14) (size 15 to 20)
#    0.000    1.200    2.000    1.800   11.200    1.600 
#    0.000    0.000    0.000    0.000    0.000    0.000 
#    0.000    0.000    0.000    0.000    0.000    0.000 
#
# Total GULP energy -111696.068709 kJ/mol
# GULP energy per Si atom -5584.803435 kJ/mol
# Density = 2.428532 g / cm^3
# Si number density = 24.340716 Si / 1000 Ang^3
#
#
#
# Elastic Constant Matrix: (Units=GPa)
#
#
# Indices 1 2 3 4 5 6 
#
# 1 139.7640 23.4735 70.5519 0.0000 21.0501 0.0000
# 2 23.4735 64.4717 -3.9250 0.0000 15.3620 0.0000
# 3 70.5519 -3.9250 125.6650 0.0000 41.7378 0.0000
# 4 0.0000 0.0000 0.0000 17.8528 0.0000 43.9355
# 5 21.0501 15.3620 41.7378 0.0000 47.6713 0.0000
# 6 0.0000 0.0000 0.0000 43.9355 0.0000 -94.4839
#
#
#
# Elastic Compliance Matrix: (Units=1/GPa)
#
#
# Indices 1 2 3 4 5 6 
#
# 1 0.011476 -0.005489 -0.007781 0.000000 0.003515 0.000000
# 2 -0.005489 0.020440 0.007195 0.000000 -0.010463 0.000000
# 3 -0.007781 0.007195 0.017174 0.000000 -0.013919 0.000000
# 4 0.000000 0.000000 0.000000 0.026121 0.000000 0.012146
# 5 0.003515 -0.010463 -0.013919 0.000000 0.034983 0.000000
# 6 0.000000 0.000000 0.000000 0.012146 0.000000 -0.004936
#
#
# Mechanical properties :
#
#
# Convention : Reuss Voigt Hill
#
# Bulk Modulus (GPa) = 27.07156 56.67793 41.87474
# Shear Modulus (GPa) = 38.54369 10.19475 24.36922
#
# Velocity S-wave (km/s) = 3.98365 2.04877 3.16756
# Velocity P-wave (km/s) = 5.68378 5.37888 5.53343
#
# Compressibility (1/GPa) = 0.03693914
#
# Stress axis : x y z
#
# Youngs Moduli (GPa) = 87.14185 48.92292 58.22682
#
# Poissons Ratio (x) = 0.26855 0.45309
# Poissons Ratio (y) = 0.47835 -0.41896
# Poissons Ratio (z) = 0.67809 -0.35202
#
# Static dielectric constant tensor:
#      x y z
#    x 2.057860 0.000000 -0.051730 
#    y 0.000000 1.936940 0.000000 
#    z -0.051730 0.000000 1.941040 
# 
# From -- ./inp_files/5534.got.cif
#   From: 2010.05.17/outbox.cif.g08.bks.cpg/sg14_3_cif.got.tgz:5534.got - 2010.06.03 17:49:19.
