data_PCOD9250599
_publ_section_title
;
Structure prediction by ZEFSAII (Michael W. Deem and Ramdas Pophale) SiO2 
 PCOD9250599
Probable space group: P 21/C
;
_chemical_formula_sum "Si O2"
_cell_formula_units_Z 20
_cell_length_a 4.949060
_cell_length_b 19.578441
_cell_length_c 10.206417
_cell_angle_alpha 90.000000
_cell_angle_beta 55.555402
_cell_angle_gamma 90.000000
_cell_volume 815.560469
_symmetry_space_group_name_H-M "P 21/C"
_symmetry_group_IT_number 14
_symmetry_cell_setting 'monoclinic'
loop_
_space_group_symop_operation_xyz
x,y,z
-x,1/2+y,1/2-z
-x,-y,-z
x,1/2-y,1/2+z
loop_
_atom_site_type_symbol
_atom_site_label
_atom_site_fract_x
_atom_site_fract_y
_atom_site_fract_z
Si Si1 0.063530 0.240912 0.568145
Si Si2 0.789748 0.973105 0.331819
Si Si3 0.387731 0.611540 0.754182
Si Si4 0.577498 0.689816 0.289296
Si Si5 0.727259 0.565845 0.411312
O O1 0.811722 0.179734 0.668372
O O2 0.812314 0.301188 0.597830
O O3 0.288193 0.214470 0.387920
O O4 0.260789 0.262924 0.642624
O O5 0.644556 0.908746 0.294629
O O6 0.111422 0.947931 0.320696
O O7 0.500000 0.000000 0.500000
O O8 0.915172 0.031898 0.197738
O O9 0.598213 0.613285 0.563979
O O10 0.678834 0.612374 0.296463
O O11 0.500000 0.500000 0.500000
#
# Coordination Sequence:
#
# PCOD9250599 Si02
#       5
#     4   4   4   4   4
#     4  12  26  46  72 104 137 181 229 288 347 409
#     4  11  23  40  65  96 133 176 223 278 333 400
#     4  11  23  42  65  95 133 173 223 276 335 403
#     4  12  26  46  71 101 137 179 230 284 345 412
#     4  10  24  44  68  98 137 183 227 280 342 408
#
# _framework density 24.523012000000001
#
# number of rings (size 3 to 8) (size 9 to 14) (size 15 to 20)
#    0.000    0.800    0.000    7.200    0.000   11.200 
#    0.000    0.000    0.000    0.000    0.000    0.000 
#    0.000    0.000    0.000    0.000    0.000    0.000 
#
# Total GULP energy -112024.506555 kJ/mol
# GULP energy per Si atom -5601.225328 kJ/mol
# Density = 2.446720 g / cm^3
# Si number density = 24.523012 Si / 1000 Ang^3
#
#
#
# Elastic Constant Matrix: (Units=GPa)
#
#
# Indices 1 2 3 4 5 6 
#
# 1 90.5303 14.6993 27.7092 0.0000 -11.3352 0.0000
# 2 14.6993 89.0622 45.2140 0.0000 -9.4246 0.0000
# 3 27.7092 45.2140 155.4203 0.0000 -27.2900 0.0000
# 4 0.0000 0.0000 0.0000 52.9987 0.0000 0.2348
# 5 -11.3352 -9.4246 -27.2900 0.0000 38.9198 0.0000
# 6 0.0000 0.0000 0.0000 0.2348 0.0000 28.7431
#
#
#
# Elastic Compliance Matrix: (Units=1/GPa)
#
#
# Indices 1 2 3 4 5 6 
#
# 1 0.011929 -0.001000 -0.001446 0.000000 0.002218 0.000000
# 2 -0.001000 0.013269 -0.003614 0.000000 0.000388 0.000000
# 3 -0.001446 -0.003614 0.008571 0.000000 0.004713 0.000000
# 4 0.000000 0.000000 0.000000 0.018869 0.000000 -0.000154
# 5 0.002218 0.000388 0.004713 0.000000 0.029739 0.000000
# 6 0.000000 0.000000 0.000000 -0.000154 0.000000 0.034792
#
#
# Mechanical properties :
#
#
# Convention : Reuss Voigt Hill
#
# Bulk Modulus (GPa) = 46.19230 56.69532 51.44381
# Shear Modulus (GPa) = 36.62881 40.62501 38.62691
#
# Velocity S-wave (km/s) = 3.86897 4.07456 3.97310
# Velocity P-wave (km/s) = 6.23184 6.73093 6.48619
#
# Compressibility (1/GPa) = 0.02164863
#
# Stress axis : x y z
#
# Youngs Moduli (GPa) = 83.83089 75.36513 116.67313
#
# Poissons Ratio (x) = 0.07535 0.16876
# Poissons Ratio (y) = 0.08381 0.42162
# Poissons Ratio (z) = 0.12126 0.27235
#
# Static dielectric constant tensor:
#      x y z
#    x 1.943480 0.000000 0.040570 
#    y 0.000000 2.063410 0.000000 
#    z 0.040570 0.000000 1.929760 
# 
# From -- ./inp_files/5846.got.cif
#   From: 2010.05.17/outbox.cif.g08.bks.cpg/sg14_3_cif.got.tgz:5846.got - 2010.06.03 17:49:19.
