data_PCOD9250891
_publ_section_title
;
Structure prediction by ZEFSAII (Michael W. Deem and Ramdas Pophale) SiO2 
 PCOD9250891
Probable space group: P 21/C
;
_chemical_formula_sum "Si O2"
_cell_formula_units_Z 16
_cell_length_a 10.397425
_cell_length_b 13.014963
_cell_length_c 8.953094
_cell_angle_alpha 90.000000
_cell_angle_beta 150.527976
_cell_angle_gamma 90.000000
_cell_volume 596.081555
_symmetry_space_group_name_H-M "P 21/C"
_symmetry_group_IT_number 14
_symmetry_cell_setting 'monoclinic'
loop_
_space_group_symop_operation_xyz
x,y,z
-x,1/2+y,1/2-z
-x,-y,-z
x,1/2-y,1/2+z
loop_
_atom_site_type_symbol
_atom_site_label
_atom_site_fract_x
_atom_site_fract_y
_atom_site_fract_z
Si Si1 0.499570 0.808450 0.853332
Si Si2 0.173109 0.416300 0.091439
Si Si3 0.326897 0.416299 0.908570
Si Si4 0.000410 0.691551 0.646644
O O1 0.509690 0.690978 0.920261
O O2 0.749980 0.819387 0.999971
O O3 0.249981 0.825963 0.499986
O O4 0.564600 0.884958 0.053664
O O5 0.009695 0.309022 0.920268
O O6 0.000000 0.500000 0.000000
O O7 0.250007 0.443275 0.000009
O O8 0.500000 0.500000 0.000000
O O9 0.064601 0.384957 0.553672
#
# Coordination Sequence:
#
# PCOD9250891 Si02
#       4
#     4   4   4   4
#     4  10  24  50  79 110 157 208 259 327 392 459
#     4  10  24  48  80 115 155 205 263 322 393 472
#     4  10  24  48  80 115 155 205 263 322 393 472
#     4  10  24  50  79 110 157 208 259 327 392 459
#
# _framework density 26.841965999999999
#
# number of rings (size 3 to 8) (size 9 to 14) (size 15 to 20)
#    0.000    2.000    0.000    0.000    0.000   22.000 
#    0.000   35.000    0.000    0.000    0.000    0.000 
#    0.000    0.000    0.000    0.000    0.000    0.000 
#
# Total GULP energy -89999.320815 kJ/mol
# GULP energy per Si atom -5624.957551 kJ/mol
# Density = 2.678087 g / cm^3
# Si number density = 26.841966 Si / 1000 Ang^3
#
#
#
# Elastic Constant Matrix: (Units=GPa)
#
#
# Indices 1 2 3 4 5 6 
#
# 1 216.3936 106.9079 114.6587 0.0000 -31.7275 0.0000
# 2 106.9079 203.1536 97.8461 0.0000 -12.4182 0.0000
# 3 114.6587 97.8461 329.4242 0.0000 -22.3031 0.0000
# 4 0.0000 0.0000 0.0000 18.8867 0.0000 10.2302
# 5 -31.7275 -12.4182 -22.3031 0.0000 52.4051 0.0000
# 6 0.0000 0.0000 0.0000 10.2302 0.0000 40.8263
#
#
#
# Elastic Compliance Matrix: (Units=1/GPa)
#
#
# Indices 1 2 3 4 5 6 
#
# 1 0.007307 -0.002955 -0.001456 0.000000 0.003104 0.000000
# 2 -0.002955 0.006961 -0.001080 0.000000 -0.000599 0.000000
# 3 -0.001456 -0.001080 0.003898 0.000000 0.000522 0.000000
# 4 0.000000 0.000000 0.000000 0.061262 0.000000 -0.015351
# 5 0.003104 -0.000599 0.000522 0.000000 0.021042 0.000000
# 6 0.000000 0.000000 0.000000 -0.015351 0.000000 0.028341
#
#
# Mechanical properties :
#
#
# Convention : Reuss Voigt Hill
#
# Bulk Modulus (GPa) = 139.14931 154.19966 146.67449
# Shear Modulus (GPa) = 35.16515 51.06086 43.11300
#
# Velocity S-wave (km/s) = 3.62343 4.36624 4.01206
# Velocity P-wave (km/s) = 8.33417 9.10992 8.73067
#
# Compressibility (1/GPa) = 0.00718653
#
# Stress axis : x y z
#
# Youngs Moduli (GPa) = 136.84840 143.66600 256.52537
#
# Poissons Ratio (x) = 0.42447 0.37341
# Poissons Ratio (y) = 0.40433 0.27695
# Poissons Ratio (z) = 0.19920 0.15510
#
# Static dielectric constant tensor:
#      x y z
#    x 2.121320 0.000000 0.001780 
#    y 0.000000 2.132300 0.000000 
#    z 0.001780 0.000000 2.052870 
# 
# From -- ./inp_files/28380.got.cif
#   From: 2010.05.17/outbox.cif.g08.bks.cpg/sg14_15_cif.got.tgz:28380.got - 2010.06.03 17:49:19.
