data_PCOD9250767
_publ_section_title
;
Structure prediction by ZEFSAII (Michael W. Deem and Ramdas Pophale) SiO2 
 PCOD9250767
Probable space group: P 21/C
;
_chemical_formula_sum "Si O2"
_cell_formula_units_Z 32
_cell_length_a 10.928730
_cell_length_b 11.869556
_cell_length_c 11.628824
_cell_angle_alpha 90.000000
_cell_angle_beta 70.226535
_cell_angle_gamma 90.000000
_cell_volume 1419.537661
_symmetry_space_group_name_H-M "P 21/C"
_symmetry_group_IT_number 14
_symmetry_cell_setting 'monoclinic'
loop_
_space_group_symop_operation_xyz
x,y,z
-x,1/2+y,1/2-z
-x,-y,-z
x,1/2-y,1/2+z
loop_
_atom_site_type_symbol
_atom_site_label
_atom_site_fract_x
_atom_site_fract_y
_atom_site_fract_z
Si Si1 0.490424 0.027465 0.660487
Si Si2 0.357177 0.238946 0.616539
Si Si3 0.155541 0.856384 0.215361
Si Si4 0.759620 0.105126 0.304576
Si Si5 0.260572 0.067722 0.324035
Si Si6 0.407064 0.429101 0.445834
Si Si7 0.143816 0.541039 0.478964
Si Si8 0.121296 0.092123 0.593235
O O1 0.466435 0.152508 0.622965
O O2 0.455369 0.041308 0.805294
O O3 0.384620 0.945781 0.636421
O O4 0.631079 0.973359 0.619124
O O5 0.314177 0.329415 0.728733
O O6 0.413297 0.303249 0.488800
O O7 0.230190 0.169129 0.620573
O O8 0.231074 0.739030 0.194161
O O9 0.132329 0.873490 0.087496
O O10 0.017515 0.858736 0.324722
O O11 0.229277 0.962184 0.250783
O O12 0.853236 0.033245 0.360717
O O13 0.802635 0.079722 0.160260
O O14 0.142224 0.095698 0.448576
O O15 0.500000 0.500000 0.500000
O O16 0.252816 0.455257 0.492262
O O17 0.000000 0.500000 0.500000
#
# Coordination Sequence:
#
# PCOD9250767 Si02
#       8
#     4   4   4   4   4   4   4   4
#     4  10  24  46  70 105 143 185 235 299 360 431
#     4  11  24  44  72 100 142 193 234 296 362 427
#     4  12  26  44  75 103 143 190 240 299 352 434
#     4  10  26  45  69 106 138 190 239 291 364 422
#     4  12  26  47  71 108 145 188 240 295 369 429
#     4  11  21  44  70 102 137 182 245 289 349 436
#     4  11  23  44  71  99 140 186 239 294 349 426
#     4  11  27  47  68 105 147 188 237 298 358 433
#
# _framework density 22.542548
#
# number of rings (size 3 to 8) (size 9 to 14) (size 15 to 20)
#    0.000    1.000    3.750    1.125    7.000    3.000 
#    4.500    0.000    0.000    0.000    0.000    0.000 
#    0.000    0.000    0.000    0.000    0.000    0.000 
#
# Total GULP energy -178910.704613 kJ/mol
# GULP energy per Si atom -5590.959519 kJ/mol
# Density = 2.249124 g / cm^3
# Si number density = 22.542548 Si / 1000 Ang^3
#
#
#
# Elastic Constant Matrix: (Units=GPa)
#
#
# Indices 1 2 3 4 5 6 
#
# 1 92.9377 29.5025 0.4736 0.0000 8.9736 0.0000
# 2 29.5025 122.2853 29.4767 0.0000 11.6778 0.0000
# 3 0.4736 29.4767 92.6927 0.0000 11.2610 0.0000
# 4 0.0000 0.0000 0.0000 32.6950 0.0000 2.2088
# 5 8.9736 11.6778 11.2610 0.0000 33.7079 0.0000
# 6 0.0000 0.0000 0.0000 2.2088 0.0000 16.0498
#
#
#
# Elastic Compliance Matrix: (Units=1/GPa)
#
#
# Indices 1 2 3 4 5 6 
#
# 1 0.011927 -0.002917 0.001177 0.000000 -0.002558 0.000000
# 2 -0.002917 0.009732 -0.002882 0.000000 -0.001632 0.000000
# 3 0.001177 -0.002882 0.012107 0.000000 -0.003360 0.000000
# 4 0.000000 0.000000 0.000000 0.030873 0.000000 -0.004249
# 5 -0.002558 -0.001632 -0.003360 0.000000 0.032036 0.000000
# 6 0.000000 0.000000 0.000000 -0.004249 0.000000 0.062891
#
#
# Mechanical properties :
#
#
# Convention : Reuss Voigt Hill
#
# Bulk Modulus (GPa) = 40.77761 47.42460 44.10110
# Shear Modulus (GPa) = 28.25159 33.05474 30.65317
#
# Velocity S-wave (km/s) = 3.54398 3.83342 3.69154
# Velocity P-wave (km/s) = 5.90549 6.37785 6.14621
#
# Compressibility (1/GPa) = 0.02452326
#
# Stress axis : x y z
#
# Youngs Moduli (GPa) = 83.84431 102.75553 82.59794
#
# Poissons Ratio (x) = 0.29974 -0.09725
# Poissons Ratio (y) = 0.24458 0.23801
# Poissons Ratio (z) = -0.09872 0.29610
#
# Static dielectric constant tensor:
#      x y z
#    x 1.762320 0.000000 -0.013310 
#    y 0.000000 1.851630 0.000000 
#    z -0.013310 0.000000 1.823500 
# 
# From -- ./inp_files/29068.got.cif
#   From: 2010.05.17/outbox.cif.g08.bks.cpg/sg14_15_cif.got.tgz:29068.got - 2010.06.03 17:49:19.
