data_PCOD9250993
_publ_section_title
;
Structure prediction by ZEFSAII (Michael W. Deem and Ramdas Pophale) SiO2 
 PCOD9250993
Probable space group: P 21/C
;
_chemical_formula_sum "Si O2"
_cell_formula_units_Z 16
_cell_length_a 11.346162
_cell_length_b 9.162220
_cell_length_c 10.063328
_cell_angle_alpha 90.000000
_cell_angle_beta 135.599058
_cell_angle_gamma 90.000000
_cell_volume 731.960651
_symmetry_space_group_name_H-M "P 21/C"
_symmetry_group_IT_number 14
_symmetry_cell_setting 'monoclinic'
loop_
_space_group_symop_operation_xyz
x,y,z
-x,1/2+y,1/2-z
-x,-y,-z
x,1/2-y,1/2+z
loop_
_atom_site_type_symbol
_atom_site_label
_atom_site_fract_x
_atom_site_fract_y
_atom_site_fract_z
Si Si1 0.584713 0.080680 0.945987
Si Si2 0.971598 0.096220 0.190141
Si Si3 0.061168 0.189612 0.983847
Si Si4 0.551678 0.902507 0.664550
O O1 0.785700 0.067886 0.097768
O O2 0.932745 0.672529 0.110439
O O3 0.543580 0.250302 0.914116
O O4 0.500000 0.000000 0.000000
O O5 0.027284 0.940025 0.173574
O O6 0.511942 0.999649 0.759630
O O7 0.972628 0.198466 0.057456
O O8 0.250299 0.138022 0.170132
O O9 0.500000 0.000000 0.500000
#
# Coordination Sequence:
#
# PCOD9250993 Si02
#       4
#     4   4   4   4
#     4  11  26  44  70 102 137 187 231 290 355 415
#     4  10  25  44  68 101 135 180 236 282 348 407
#     4  10  25  45  69 102 136 183 233 288 342 415
#     4  11  26  45  70 101 143 182 232 290 351 425
#
# _framework density 21.859100000000002
#
# number of rings (size 3 to 8) (size 9 to 14) (size 15 to 20)
#    0.000    1.500    0.000    1.500   24.500    1.000 
#    0.000    0.000    0.000    0.000    0.000    0.000 
#    0.000    0.000    0.000    0.000    0.000    0.000 
#
# Total GULP energy -89419.008723 kJ/mol
# GULP energy per Si atom -5588.688045 kJ/mol
# Density = 2.180935 g / cm^3
# Si number density = 21.859100 Si / 1000 Ang^3
#
#
#
# Elastic Constant Matrix: (Units=GPa)
#
#
# Indices 1 2 3 4 5 6 
#
# 1 164.6987 32.3977 58.6893 0.0000 -30.2672 0.0000
# 2 32.3977 82.7434 34.9844 0.0000 -11.8112 0.0000
# 3 58.6893 34.9844 87.8020 0.0000 -26.7050 0.0000
# 4 0.0000 0.0000 0.0000 15.2870 0.0000 -20.3719
# 5 -30.2672 -11.8112 -26.7050 0.0000 34.3093 0.0000
# 6 0.0000 0.0000 0.0000 -20.3719 0.0000 40.9961
#
#
#
# Elastic Compliance Matrix: (Units=1/GPa)
#
#
# Indices 1 2 3 4 5 6 
#
# 1 0.008436 -0.001038 -0.004023 0.000000 0.003954 0.000000
# 2 -0.001038 0.014673 -0.005103 0.000000 0.000164 0.000000
# 3 -0.004023 -0.005103 0.018994 0.000000 0.009479 0.000000
# 4 0.000000 0.000000 0.000000 0.193658 0.000000 0.096233
# 5 0.003954 0.000164 0.009479 0.000000 0.040069 0.000000
# 6 0.000000 0.000000 0.000000 0.096233 0.000000 0.072213
#
#
# Mechanical properties :
#
#
# Convention : Reuss Voigt Hill
#
# Bulk Modulus (GPa) = 45.92137 65.26520 55.59328
# Shear Modulus (GPa) = 13.31103 32.06335 22.68719
#
# Velocity S-wave (km/s) = 2.47036 3.83406 3.22511
# Velocity P-wave (km/s) = 5.40282 7.03719 6.27346
#
# Compressibility (1/GPa) = 0.02177635
#
# Stress axis : x y z
#
# Youngs Moduli (GPa) = 118.54109 68.15339 52.64701
#
# Poissons Ratio (x) = 0.07073 0.21179
# Poissons Ratio (y) = 0.12302 0.26865
# Poissons Ratio (z) = 0.47687 0.34777
#
# Static dielectric constant tensor:
#      x y z
#    x 1.940640 0.000000 -0.041310 
#    y 0.000000 1.803910 0.000000 
#    z -0.041310 0.000000 1.836540 
# 
# From -- ./inp_files/22905.got.cif
#   From: 2010.05.17/outbox.cif.g08.bks.cpg/sg14_12_cif.got.tgz:22905.got - 2010.06.03 17:49:19.
