data_PCOD9250941
_publ_section_title
;
Structure prediction by ZEFSAII (Michael W. Deem and Ramdas Pophale) SiO2 
 PCOD9250941
Probable space group: P 21/C
;
_chemical_formula_sum "Si O2"
_cell_formula_units_Z 16
_cell_length_a 5.076632
_cell_length_b 7.861802
_cell_length_c 19.673913
_cell_angle_alpha 90.000000
_cell_angle_beta 118.665317
_cell_angle_gamma 90.000000
_cell_volume 688.976368
_symmetry_space_group_name_H-M "P 21/C"
_symmetry_group_IT_number 14
_symmetry_cell_setting 'monoclinic'
loop_
_space_group_symop_operation_xyz
x,y,z
-x,1/2+y,1/2-z
-x,-y,-z
x,1/2-y,1/2+z
loop_
_atom_site_type_symbol
_atom_site_label
_atom_site_fract_x
_atom_site_fract_y
_atom_site_fract_z
Si Si1 0.705672 0.110383 0.476875
Si Si2 0.337580 0.702337 0.659398
Si Si3 0.688410 0.129642 0.201781
Si Si4 0.975293 0.874851 0.894806
O O1 0.578545 0.164407 0.388066
O O2 0.795500 0.282267 0.527921
O O3 0.500000 0.000000 0.500000
O O4 0.000000 0.000000 0.500000
O O5 0.242236 0.786451 0.717900
O O6 0.607894 0.568806 0.703659
O O7 0.069192 0.577351 0.600491
O O8 0.922824 0.149452 0.170504
O O9 0.360691 0.198915 0.137329
#
# Coordination Sequence:
#
# PCOD9250941 Si02
#       4
#     4   4   4   4
#     4  12  28  43  71  99 139 181 231 281 344 412
#     4  10  27  43  71 100 140 178 232 285 347 405
#     4  10  25  41  72  98 137 179 228 282 348 403
#     4  10  25  44  68  98 139 177 229 282 348 402
#
# _framework density 23.222860000000001
#
# number of rings (size 3 to 8) (size 9 to 14) (size 15 to 20)
#    1.500    0.000    0.000    2.250   14.000    1.000 
#    0.000    0.000    0.000    0.000    0.000    0.000 
#    0.000    0.000    0.000    0.000    0.000    0.000 
#
# Total GULP energy -89433.967470 kJ/mol
# GULP energy per Si atom -5589.622967 kJ/mol
# Density = 2.317000 g / cm^3
# Si number density = 23.222860 Si / 1000 Ang^3
#
#
#
# Elastic Constant Matrix: (Units=GPa)
#
#
# Indices 1 2 3 4 5 6 
#
# 1 112.6304 17.5649 2.5515 0.0000 -21.2899 0.0000
# 2 17.5649 45.8346 22.4373 0.0000 -8.0108 0.0000
# 3 2.5515 22.4373 58.6817 0.0000 -26.7069 0.0000
# 4 0.0000 0.0000 0.0000 54.6438 0.0000 -2.3158
# 5 -21.2899 -8.0108 -26.7069 0.0000 33.4679 0.0000
# 6 0.0000 0.0000 0.0000 -2.3158 0.0000 29.3143
#
#
#
# Elastic Compliance Matrix: (Units=1/GPa)
#
#
# Indices 1 2 3 4 5 6 
#
# 1 0.011891 -0.005995 0.007168 0.000000 0.011849 0.000000
# 2 -0.005995 0.030029 -0.015209 0.000000 -0.008762 0.000000
# 3 0.007168 -0.015209 0.036058 0.000000 0.029693 0.000000
# 4 0.000000 0.000000 0.000000 0.018362 0.000000 0.001451
# 5 0.011849 -0.008762 0.029693 0.000000 0.059014 0.000000
# 6 0.000000 0.000000 0.000000 0.001451 0.000000 0.034228
#
#
# Mechanical properties :
#
#
# Convention : Reuss Voigt Hill
#
# Bulk Modulus (GPa) = 20.03751 33.58378 26.81064
# Shear Modulus (GPa) = 21.34121 35.12474 28.23297
#
# Velocity S-wave (km/s) = 3.03475 3.89332 3.49053
# Velocity P-wave (km/s) = 4.57457 5.89096 5.27400
#
# Compressibility (1/GPa) = 0.04990640
#
# Stress axis : x y z
#
# Youngs Moduli (GPa) = 84.09822 33.30165 27.73277
#
# Poissons Ratio (x) = 0.19963 -0.19878
# Poissons Ratio (y) = 0.50415 0.42178
# Poissons Ratio (z) = -0.60279 0.50648
#
# Static dielectric constant tensor:
#      x y z
#    x 1.847990 0.000000 0.069050 
#    y 0.000000 1.887030 0.000000 
#    z 0.069050 0.000000 1.858350 
# 
# From -- ./inp_files/52448.got.cif
#   From: 2010.05.17/outbox.cif.g08.bks.cpg/sg14_27_cif.got.tgz:52448.got - 2010.06.03 17:49:19.
