data_PCOD9250619
_publ_section_title
;
Structure prediction by ZEFSAII (Michael W. Deem and Ramdas Pophale) SiO2 
 PCOD9250619
Probable space group: P 21/C
;
_chemical_formula_sum "Si O2"
_cell_formula_units_Z 24
_cell_length_a 10.819350
_cell_length_b 10.955586
_cell_length_c 9.526420
_cell_angle_alpha 90.000000
_cell_angle_beta 68.297807
_cell_angle_gamma 90.000000
_cell_volume 1049.149980
_symmetry_space_group_name_H-M "P 21/C"
_symmetry_group_IT_number 14
_symmetry_cell_setting 'monoclinic'
loop_
_space_group_symop_operation_xyz
x,y,z
-x,1/2+y,1/2-z
-x,-y,-z
x,1/2-y,1/2+z
loop_
_atom_site_type_symbol
_atom_site_label
_atom_site_fract_x
_atom_site_fract_y
_atom_site_fract_z
Si Si1 0.203764 0.491324 0.647560
Si Si2 0.747508 0.418301 0.062112
Si Si3 0.709057 0.355869 0.629402
Si Si4 0.437364 0.361723 0.910164
Si Si5 0.101579 0.498525 0.264195
Si Si6 0.287761 0.267080 0.223728
O O1 0.223067 0.560111 0.786718
O O2 0.303107 0.544037 0.488734
O O3 0.224804 0.349932 0.673481
O O4 0.054956 0.513178 0.655468
O O5 0.727471 0.275237 0.051398
O O6 0.620618 0.501593 0.076809
O O7 0.862090 0.470228 0.912458
O O8 0.583441 0.355909 0.785469
O O9 0.835432 0.393499 0.670080
O O10 0.343530 0.280095 0.847540
O O11 0.409866 0.312539 0.076508
O O12 0.181664 0.376394 0.273895
#
# Coordination Sequence:
#
# PCOD9250619 Si02
#       6
#     4   4   4   4   4   4
#     4  11  25  45  68 100 131 177 220 268 330 390
#     4  10  25  43  67 100 134 174 213 278 326 383
#     4  12  26  40  71 100 132 171 223 267 327 393
#     4  10  25  43  67  98 135 173 218 270 333 386
#     4  11  25  45  68 100 131 177 220 268 330 390
#     4  10  24  44  70  94 136 174 216 276 326 386
#
# _framework density 22.87566
#
# number of rings (size 3 to 8) (size 9 to 14) (size 15 to 20)
#    0.000    1.333    0.000    3.000   14.000    2.667 
#    0.000    0.000    0.000    0.000    0.000    0.000 
#    0.000    0.000    0.000    0.000    0.000    0.000 
#
# Total GULP energy -134478.938310 kJ/mol
# GULP energy per Si atom -5603.289096 kJ/mol
# Density = 2.282359 g / cm^3
# Si number density = 22.875660 Si / 1000 Ang^3
#
#
#
# Elastic Constant Matrix: (Units=GPa)
#
#
# Indices 1 2 3 4 5 6 
#
# 1 32.5515 11.7804 5.8891 0.0000 -6.2992 0.0000
# 2 11.7804 123.4761 8.5872 0.0000 -1.6426 0.0000
# 3 5.8891 8.5872 67.7807 0.0000 -2.2626 0.0000
# 4 0.0000 0.0000 0.0000 29.9711 0.0000 4.5401
# 5 -6.2992 -1.6426 -2.2626 0.0000 37.9847 0.0000
# 6 0.0000 0.0000 0.0000 4.5401 0.0000 23.5606
#
#
#
# Elastic Compliance Matrix: (Units=1/GPa)
#
#
# Indices 1 2 3 4 5 6 
#
# 1 0.033221 -0.002937 -0.002339 0.000000 0.005243 0.000000
# 2 -0.002937 0.008434 -0.000819 0.000000 -0.000171 0.000000
# 3 -0.002339 -0.000819 0.015076 0.000000 0.000475 0.000000
# 4 0.000000 0.000000 0.000000 0.034369 0.000000 -0.006623
# 5 0.005243 -0.000171 0.000475 0.000000 0.027217 0.000000
# 6 0.000000 0.000000 0.000000 -0.006623 0.000000 0.043720
#
#
# Mechanical properties :
#
#
# Convention : Reuss Voigt Hill
#
# Bulk Modulus (GPa) = 22.45148 30.70241 26.57694
# Shear Modulus (GPa) = 26.44465 31.47340 28.95902
#
# Velocity S-wave (km/s) = 3.40371 3.71326 3.56185
# Velocity P-wave (km/s) = 5.02821 5.64225 5.34406
#
# Compressibility (1/GPa) = 0.04454050
#
# Stress axis : x y z
#
# Youngs Moduli (GPa) = 30.10117 118.57290 66.32925
#
# Poissons Ratio (x) = 0.34826 0.15516
# Poissons Ratio (y) = 0.08841 0.05432
# Poissons Ratio (z) = 0.07042 0.09711
#
# Static dielectric constant tensor:
#      x y z
#    x 1.817560 0.000000 0.016640 
#    y 0.000000 1.827380 0.000000 
#    z 0.016640 0.000000 1.840040 
# 
# From -- ./inp_files/28535.got.cif
#   From: 2010.05.17/outbox.cif.g08.bks.cpg/sg14_15_cif.got.tgz:28535.got - 2010.06.03 17:49:19.
