data_PCOD9250215
_publ_section_title
;
Structure prediction by ZEFSAII (Michael W. Deem and Ramdas Pophale) SiO2 
 PCOD9250215
Probable space group: P 21/C
;
_chemical_formula_sum "Si O2"
_cell_formula_units_Z 24
_cell_length_a 11.724880
_cell_length_b 7.779425
_cell_length_c 9.545637
_cell_angle_alpha 90.000000
_cell_angle_beta 78.353072
_cell_angle_gamma 90.000000
_cell_volume 852.757318
_symmetry_space_group_name_H-M "P 21/C"
_symmetry_group_IT_number 14
_symmetry_cell_setting 'monoclinic'
loop_
_space_group_symop_operation_xyz
x,y,z
-x,1/2+y,1/2-z
-x,-y,-z
x,1/2-y,1/2+z
loop_
_atom_site_type_symbol
_atom_site_label
_atom_site_fract_x
_atom_site_fract_y
_atom_site_fract_z
Si Si1 0.347219 0.289088 0.764168
Si Si2 0.634043 0.066386 0.951646
Si Si3 0.160538 0.689167 0.448373
Si Si4 0.853363 0.903113 0.517504
Si Si5 0.005361 0.744964 0.728989
Si Si6 0.573706 0.072237 0.351408
O O1 0.475264 0.357836 0.770705
O O2 0.305312 0.426516 0.661254
O O3 0.636669 0.247267 0.378535
O O4 0.265243 0.304603 0.918587
O O5 0.713879 0.103174 0.066471
O O6 0.642981 0.902320 0.292809
O O7 0.500000 0.000000 0.000000
O O8 0.081862 0.629522 0.601117
O O9 0.096040 0.667984 0.316185
O O10 0.171770 0.894582 0.469491
O O11 0.935724 0.856531 0.630451
O O12 0.914754 0.842378 0.359532
O O13 0.500000 0.000000 0.500000
#
# Coordination Sequence:
#
# PCOD9250215 Si02
#       6
#     4   4   4   4   4   4
#     4  12  27  49  80 122 171 225 288 362 440 519
#     4  12  27  49  84 122 168 228 289 350 442 510
#     4  11  25  50  83 119 176 224 283 369 431 520
#     4  11  26  48  83 124 175 229 288 364 436 518
#     4  10  23  49  80 123 167 230 295 348 441 523
#     4  12  26  49  79 117 167 221 293 356 428 528
#
# _framework density 28.143995
#
# number of rings (size 3 to 8) (size 9 to 14) (size 15 to 20)
#    0.000    0.667    3.333    4.000    4.667    1.333 
#    0.000   20.833    0.000    0.000    0.000    0.000 
#    0.000    0.000    0.000    0.000    0.000    0.000 
#
# Total GULP energy -134689.180463 kJ/mol
# GULP energy per Si atom -5612.049186 kJ/mol
# Density = 2.807994 g / cm^3
# Si number density = 28.143995 Si / 1000 Ang^3
#
#
#
# Elastic Constant Matrix: (Units=GPa)
#
#
# Indices 1 2 3 4 5 6 
#
# 1 148.1989 48.4149 49.6465 0.0000 0.4205 0.0000
# 2 48.4149 229.3138 78.7764 0.0000 -4.6690 0.0000
# 3 49.6465 78.7764 192.9063 0.0000 3.3729 0.0000
# 4 0.0000 0.0000 0.0000 54.4906 0.0000 -0.6345
# 5 0.4205 -4.6690 3.3729 0.0000 67.5125 0.0000
# 6 0.0000 0.0000 0.0000 -0.6345 0.0000 50.1392
#
#
#
# Elastic Compliance Matrix: (Units=1/GPa)
#
#
# Indices 1 2 3 4 5 6 
#
# 1 0.007610 -0.001088 -0.001514 0.000000 -0.000047 0.000000
# 2 -0.001088 0.005242 -0.001869 0.000000 0.000463 0.000000
# 3 -0.001514 -0.001869 0.006344 0.000000 -0.000437 0.000000
# 4 0.000000 0.000000 0.000000 0.018354 0.000000 0.000232
# 5 -0.000047 0.000463 -0.000437 0.000000 0.014866 0.000000
# 6 0.000000 0.000000 0.000000 0.000232 0.000000 0.019947
#
#
# Mechanical properties :
#
#
# Convention : Reuss Voigt Hill
#
# Bulk Modulus (GPa) = 97.50234 102.67718 100.08976
# Shear Modulus (GPa) = 59.01573 60.66721 59.84147
#
# Velocity S-wave (km/s) = 4.58418 4.64788 4.61614
# Velocity P-wave (km/s) = 7.92079 8.08491 8.00327
#
# Compressibility (1/GPa) = 0.01025616
#
# Stress axis : x y z
#
# Youngs Moduli (GPa) = 131.40239 190.77098 157.62512
#
# Poissons Ratio (x) = 0.20751 0.23857
# Poissons Ratio (y) = 0.14293 0.29456
# Poissons Ratio (z) = 0.19888 0.35650
#
# Static dielectric constant tensor:
#      x y z
#    x 2.091940 0.000000 -0.495560 
#    y 0.000000 2.155070 0.000000 
#    z -0.495560 0.000000 2.002160 
# 
# From -- ./inp_files/12425.got.cif
#   From: 2010.05.17/outbox.cif.g08.bks.cpg/sg14_7_cif.got.tgz:12425.got - 2010.06.03 17:49:19.
