data_PCOD9250197
_publ_section_title
;
Structure prediction by ZEFSAII (Michael W. Deem and Ramdas Pophale) SiO2 
 PCOD9250197
Probable space group: P 21/C
;
_chemical_formula_sum "Si O2"
_cell_formula_units_Z 22
_cell_length_a 9.040969
_cell_length_b 16.543931
_cell_length_c 8.524163
_cell_angle_alpha 90.000000
_cell_angle_beta 132.290122
_cell_angle_gamma 90.000000
_cell_volume 943.167257
_symmetry_space_group_name_H-M "P 21/C"
_symmetry_group_IT_number 14
_symmetry_cell_setting 'monoclinic'
loop_
_space_group_symop_operation_xyz
x,y,z
-x,1/2+y,1/2-z
-x,-y,-z
x,1/2-y,1/2+z
loop_
_atom_site_type_symbol
_atom_site_label
_atom_site_fract_x
_atom_site_fract_y
_atom_site_fract_z
Si Si1 0.374634 0.581104 0.407211
Si Si2 0.188482 0.840231 0.078284
Si Si3 0.000000 0.000000 0.500000
Si Si4 0.870219 0.022252 0.752184
Si Si5 0.728118 0.849306 0.657140
Si Si6 0.523872 0.719226 0.316519
O O1 0.500000 0.500000 0.500000
O O2 0.296941 0.608394 0.520567
O O3 0.519802 0.650696 0.445360
O O4 0.186570 0.563947 0.160644
O O5 0.212051 0.890498 0.256497
O O6 0.301972 0.755885 0.160271
O O7 0.957507 0.831511 0.867569
O O8 0.998217 0.978082 0.309638
O O9 0.721236 0.945850 0.622331
O O10 0.000000 0.000000 0.000000
O O11 0.664349 0.794778 0.464558
O O12 0.594170 0.820632 0.706322
#
# Coordination Sequence:
#
# PCOD9250197 Si02
#       6
#     4   4   2   4   4   4
#     4  12  28  48  74 115 149 200 265 317 379 471
#     4  11  26  50  71 107 160 191 256 321 377 456
#     4  12  26  46  84 104 144 204 248 312 400 430
#     4  10  23  48  76 111 144 197 250 308 371 462
#     4  11  26  48  74 105 152 198 248 312 387 446
#     4  12  28  46  72 112 149 202 251 315 383 460
#
# _framework density 23.325659999999999
#
# number of rings (size 3 to 8) (size 9 to 14) (size 15 to 20)
#    0.000    0.727    5.455    1.091   10.182    2.182 
#    0.000    0.000    0.000    0.000    0.000    0.000 
#    0.000    0.000    0.000    0.000    0.000    0.000 
#
# Total GULP energy -122606.479740 kJ/mol
# GULP energy per Si atom -5573.021806 kJ/mol
# Density = 2.327257 g / cm^3
# Si number density = 23.325660 Si / 1000 Ang^3
#
#
#
# Elastic Constant Matrix: (Units=GPa)
#
#
# Indices 1 2 3 4 5 6 
#
# 1 82.1259 15.7539 15.2327 0.0000 -11.0907 0.0000
# 2 15.7539 72.3986 12.7952 0.0000 21.2985 0.0000
# 3 15.2327 12.7952 72.8043 0.0000 -0.5661 0.0000
# 4 0.0000 0.0000 0.0000 39.8005 0.0000 14.0749
# 5 -11.0907 21.2985 -0.5661 0.0000 36.7117 0.0000
# 6 0.0000 0.0000 0.0000 14.0749 0.0000 31.3585
#
#
#
# Elastic Compliance Matrix: (Units=1/GPa)
#
#
# Indices 1 2 3 4 5 6 
#
# 1 0.014475 -0.004887 -0.002114 0.000000 0.007176 0.000000
# 2 -0.004887 0.018988 -0.002412 0.000000 -0.012530 0.000000
# 3 -0.002114 -0.002412 0.014609 0.000000 0.000986 0.000000
# 4 0.000000 0.000000 0.000000 0.029866 0.000000 -0.013405
# 5 0.007176 -0.012530 0.000986 0.000000 0.036691 0.000000
# 6 0.000000 0.000000 0.000000 -0.013405 0.000000 0.037906
#
#
# Mechanical properties :
#
#
# Convention : Reuss Voigt Hill
#
# Bulk Modulus (GPa) = 34.19221 34.98805 34.59013
# Shear Modulus (GPa) = 27.60745 33.81060 30.70903
#
# Velocity S-wave (km/s) = 3.44403 3.81136 3.63234
# Velocity P-wave (km/s) = 5.52319 5.86524 5.69678
#
# Compressibility (1/GPa) = 0.02924643
#
# Stress axis : x y z
#
# Youngs Moduli (GPa) = 69.08457 52.66438 68.44951
#
# Poissons Ratio (x) = 0.25738 0.14469
# Poissons Ratio (y) = 0.33762 0.16510
# Poissons Ratio (z) = 0.14604 0.12703
#
# Static dielectric constant tensor:
#      x y z
#    x 1.655770 0.000000 -0.235490 
#    y 0.000000 2.087400 0.000000 
#    z -0.235490 0.000000 1.591460 
# 
# From -- ./inp_files/9571.got.cif
#   From: 2010.05.17/outbox.cif.g08.bks.cpg/sg14_5_cif.got.tgz:9571.got - 2010.06.03 17:49:19.
