data_PCOD9250208
_publ_section_title
;
Structure prediction by ZEFSAII (Michael W. Deem and Ramdas Pophale) SiO2 
 PCOD9250208
Probable space group: P 21/C
;
_chemical_formula_sum "Si O2"
_cell_formula_units_Z 32
_cell_length_a 8.151282
_cell_length_b 22.914974
_cell_length_c 13.390065
_cell_angle_alpha 90.000000
_cell_angle_beta 147.506826
_cell_angle_gamma 90.000000
_cell_volume 1343.579193
_symmetry_space_group_name_H-M "P 21/C"
_symmetry_group_IT_number 14
_symmetry_cell_setting 'monoclinic'
loop_
_space_group_symop_operation_xyz
x,y,z
-x,1/2+y,1/2-z
-x,-y,-z
x,1/2-y,1/2+z
loop_
_atom_site_type_symbol
_atom_site_label
_atom_site_fract_x
_atom_site_fract_y
_atom_site_fract_z
Si Si1 0.723142 0.911986 0.460529
Si Si2 0.432827 0.337563 0.944446
Si Si3 0.602149 0.813970 0.915424
Si Si4 0.642509 0.073472 0.136734
Si Si5 0.958674 0.764837 0.275080
Si Si6 0.389964 0.964626 0.104577
Si Si7 0.417081 0.202429 0.727395
Si Si8 0.973260 0.632289 0.437266
O O1 0.514500 0.886637 0.445068
O O2 0.606522 0.953477 0.311344
O O3 0.749154 0.850933 0.412687
O O4 0.004687 0.942723 0.661623
O O5 0.124252 0.299601 0.808363
O O6 0.326166 0.363742 0.784977
O O7 0.707953 0.292183 0.068008
O O8 0.363833 0.864093 0.814037
O O9 0.502457 0.754865 0.807970
O O10 0.871218 0.843083 0.989962
O O11 0.741852 0.802603 0.094288
O O12 0.421160 0.030440 0.083854
O O13 0.557206 0.069095 0.975772
O O14 0.816976 0.771438 0.312259
O O15 0.083542 0.933946 0.985912
O O16 0.726376 0.173271 0.931744
#
# Coordination Sequence:
#
# PCOD9250208 Si02
#       8
#     4   4   4   4   4   4   4   4
#     4  11  23  42  73 101 139 185 230 287 353 416
#     4  12  25  41  66  99 139 180 231 279 346 418
#     4  12  26  39  69 101 139 178 239 280 359 412
#     4  11  25  43  75 106 134 190 240 295 349 420
#     4  12  26  41  63  98 142 182 225 277 345 430
#     4  10  23  49  71  99 142 185 243 295 348 414
#     4  11  25  42  68  98 145 183 228 281 352 426
#     4  11  24  45  66  99 137 184 227 289 347 418
#
# _framework density 23.816980000000001
#
# number of rings (size 3 to 8) (size 9 to 14) (size 15 to 20)
#    0.000    0.750    3.750    4.125    5.250    0.500 
#    0.000    0.000    0.000    1.500    0.000    0.000 
#    0.000    0.000    0.000    0.000    0.000    0.000 
#
# Total GULP energy -178491.981057 kJ/mol
# GULP energy per Si atom -5577.874408 kJ/mol
# Density = 2.376277 g / cm^3
# Si number density = 23.816980 Si / 1000 Ang^3
#
#
#
# Elastic Constant Matrix: (Units=GPa)
#
#
# Indices 1 2 3 4 5 6 
#
# 1 56.6544 2.6293 21.2856 0.0000 -3.0538 0.0000
# 2 2.6293 31.5389 10.7067 0.0000 -9.6731 0.0000
# 3 21.2856 10.7067 102.0512 0.0000 -9.2388 0.0000
# 4 0.0000 0.0000 0.0000 24.3523 0.0000 -8.7625
# 5 -3.0538 -9.6731 -9.2388 0.0000 20.4421 0.0000
# 6 0.0000 0.0000 0.0000 -8.7625 0.0000 14.2359
#
#
#
# Elastic Compliance Matrix: (Units=1/GPa)
#
#
# Indices 1 2 3 4 5 6 
#
# 1 0.019176 0.000075 -0.003905 0.000000 0.001135 0.000000
# 2 0.000075 0.037663 -0.002453 0.000000 0.016725 0.000000
# 3 -0.003905 -0.002453 0.011170 0.000000 0.003304 0.000000
# 4 0.000000 0.000000 0.000000 0.052746 0.000000 0.032466
# 5 0.001135 0.016725 0.003304 0.000000 0.058496 0.000000
# 6 0.000000 0.000000 0.000000 0.032466 0.000000 0.090229
#
#
# Mechanical properties :
#
#
# Convention : Reuss Voigt Hill
#
# Bulk Modulus (GPa) = 18.03643 28.83198 23.43421
# Shear Modulus (GPa) = 16.63756 22.18090 19.40923
#
# Velocity S-wave (km/s) = 2.64589 3.05504 2.85780
# Velocity P-wave (km/s) = 4.11384 4.95745 4.55522
#
# Compressibility (1/GPa) = 0.05544334
#
# Stress axis : x y z
#
# Youngs Moduli (GPa) = 52.14957 26.55136 89.52618
#
# Poissons Ratio (x) = -0.00200 0.34957
# Poissons Ratio (y) = -0.00392 0.21961
# Poissons Ratio (z) = 0.20363 0.06513
#
# Static dielectric constant tensor:
#      x y z
#    x 1.937120 0.000000 -0.016570 
#    y 0.000000 2.029690 0.000000 
#    z -0.016570 0.000000 1.989740 
# 
# From -- ./inp_files/42251.got.cif
#   From: 2010.05.17/outbox.cif.g08.bks.cpg/sg14_22_cif.got.tgz:42251.got - 2010.06.03 17:49:19.
