data_PCOD9250872
_publ_section_title
;
Structure prediction by ZEFSAII (Michael W. Deem and Ramdas Pophale) SiO2 
 PCOD9250872
Probable space group: P 21/C
;
_chemical_formula_sum "Si O2"
_cell_formula_units_Z 22
_cell_length_a 11.039155
_cell_length_b 11.518219
_cell_length_c 7.588484
_cell_angle_alpha 90.000000
_cell_angle_beta 110.587832
_cell_angle_gamma 90.000000
_cell_volume 903.263194
_symmetry_space_group_name_H-M "P 21/C"
_symmetry_group_IT_number 14
_symmetry_cell_setting 'monoclinic'
loop_
_space_group_symop_operation_xyz
x,y,z
-x,1/2+y,1/2-z
-x,-y,-z
x,1/2-y,1/2+z
loop_
_atom_site_type_symbol
_atom_site_label
_atom_site_fract_x
_atom_site_fract_y
_atom_site_fract_z
Si Si1 0.000000 0.000000 0.500000
Si Si2 0.300065 0.604827 0.674393
Si Si3 0.832623 0.832876 0.375382
Si Si4 0.570527 0.956711 0.212816
Si Si5 0.237643 0.641204 0.033555
Si Si6 0.108550 0.422514 0.463957
O O1 0.888961 0.105646 0.422966
O O2 0.112452 0.081602 0.449048
O O3 0.453488 0.589542 0.772448
O O4 0.268560 0.723168 0.559768
O O5 0.239420 0.496022 0.542206
O O6 0.229899 0.613601 0.824266
O O7 0.683156 0.858040 0.257466
O O8 0.867584 0.702432 0.435781
O O9 0.915358 0.898903 0.259187
O O10 0.643757 0.067325 0.328298
O O11 0.500000 0.000000 0.000000
O O12 0.000000 0.500000 0.500000
#
# Coordination Sequence:
#
# PCOD9250872 Si02
#       6
#     2   4   4   4   4   4
#     4  10  24  48  72  98 144 198 246 300 376 420
#     4  12  26  46  75 111 148 198 251 302 376 450
#     4  11  27  46  75 104 152 192 246 313 365 443
#     4  11  24  48  74 108 152 199 249 307 376 442
#     4  11  26  46  76 106 153 195 251 310 367 448
#     4  12  28  46  75 109 149 196 252 303 381 442
#
# _framework density 24.356137
#
# number of rings (size 3 to 8) (size 9 to 14) (size 15 to 20)
#    0.000    0.727    1.818    3.818   12.727    1.455 
#    0.000    0.000    0.000    0.000    0.000    0.000 
#    0.000    0.000    0.000    0.000    0.000    0.000 
#
# Total GULP energy -122807.482949 kJ/mol
# GULP energy per Si atom -5582.158316 kJ/mol
# Density = 2.430070 g / cm^3
# Si number density = 24.356137 Si / 1000 Ang^3
#
#
#
# Elastic Constant Matrix: (Units=GPa)
#
#
# Indices 1 2 3 4 5 6 
#
# 1 160.7669 51.8126 15.6295 0.0000 20.8805 0.0000
# 2 51.8126 200.2896 38.7268 0.0000 15.6652 0.0000
# 3 15.6295 38.7268 85.3212 0.0000 1.9316 0.0000
# 4 0.0000 0.0000 0.0000 38.0952 0.0000 4.2127
# 5 20.8805 15.6652 1.9316 0.0000 43.0157 0.0000
# 6 0.0000 0.0000 0.0000 4.2127 0.0000 33.4682
#
#
#
# Elastic Compliance Matrix: (Units=1/GPa)
#
#
# Indices 1 2 3 4 5 6 
#
# 1 0.007137 -0.001513 -0.000555 0.000000 -0.002888 0.000000
# 2 -0.001513 0.005951 -0.002394 0.000000 -0.001325 0.000000
# 3 -0.000555 -0.002394 0.012896 0.000000 0.000562 0.000000
# 4 0.000000 0.000000 0.000000 0.026621 0.000000 -0.003351
# 5 -0.002888 -0.001325 0.000562 0.000000 0.025107 0.000000
# 6 0.000000 0.000000 0.000000 -0.003351 0.000000 0.030301
#
#
# Mechanical properties :
#
#
# Convention : Reuss Voigt Hill
#
# Bulk Modulus (GPa) = 58.61853 73.19060 65.90457
# Shear Modulus (GPa) = 40.77560 45.59639 43.18600
#
# Velocity S-wave (km/s) = 4.09607 4.33144 4.21539
# Velocity P-wave (km/s) = 6.81835 7.42499 7.12813
#
# Compressibility (1/GPa) = 0.01705945
#
# Stress axis : x y z
#
# Youngs Moduli (GPa) = 140.11633 168.04870 77.54383
#
# Poissons Ratio (x) = 0.25425 0.04306
# Poissons Ratio (y) = 0.21199 0.18563
# Poissons Ratio (z) = 0.07780 0.40228
#
# Static dielectric constant tensor:
#      x y z
#    x 1.972160 0.000000 -0.052970 
#    y 0.000000 1.821610 0.000000 
#    z -0.052970 0.000000 0.988520 
# 
# From -- ./inp_files/12233.got.cif
#   From: 2010.05.17/outbox.cif.g08.bks.cpg/sg14_7_cif.got.tgz:12233.got - 2010.06.03 17:49:19.
