data_PCOD9250473
_publ_section_title
;
Structure prediction by ZEFSAII (Michael W. Deem and Ramdas Pophale) SiO2 
 PCOD9250473
Probable space group: P 21/C
;
_chemical_formula_sum "Si O2"
_cell_formula_units_Z 20
_cell_length_a 5.049739
_cell_length_b 9.459937
_cell_length_c 18.223253
_cell_angle_alpha 90.000000
_cell_angle_beta 93.616258
_cell_angle_gamma 90.000000
_cell_volume 868.795339
_symmetry_space_group_name_H-M "P 21/C"
_symmetry_group_IT_number 14
_symmetry_cell_setting 'monoclinic'
loop_
_space_group_symop_operation_xyz
x,y,z
-x,1/2+y,1/2-z
-x,-y,-z
x,1/2-y,1/2+z
loop_
_atom_site_type_symbol
_atom_site_label
_atom_site_fract_x
_atom_site_fract_y
_atom_site_fract_z
Si Si1 0.634218 0.888922 0.107427
Si Si2 0.360773 0.076861 0.337839
Si Si3 0.751102 0.279212 0.112774
Si Si4 0.165807 0.578614 0.260652
Si Si5 0.754157 0.885280 0.946499
O O1 0.607612 0.723618 0.119586
O O2 0.790148 0.958165 0.177765
O O3 0.355725 0.973535 0.095454
O O4 0.783758 0.915860 0.033195
O O5 0.741587 0.222317 0.196798
O O6 0.132804 0.092823 0.272153
O O7 0.264590 0.947027 0.385996
O O8 0.008443 0.203009 0.084215
O O9 0.501240 0.216851 0.065868
O O10 0.361105 0.545172 0.196924
#
# Coordination Sequence:
#
# PCOD9250473 Si02
#       5
#     4   4   4   4   4
#     4  10  24  43  67  93 128 175 223 267 332 404
#     4  12  24  39  65  95 129 169 216 278 334 393
#     4  11  23  41  63  94 130 167 220 279 331 388
#     4  11  23  40  62  92 129 169 214 268 337 402
#     4  10  24  43  65  91 128 175 221 270 328 402
#
# _framework density 23.020379999999999
#
# number of rings (size 3 to 8) (size 9 to 14) (size 15 to 20)
#    0.000    1.200    0.000    6.000    0.000   15.200 
#    0.000    0.000    0.000    0.000    0.000    0.000 
#    0.000    0.000    0.000    0.000    0.000    0.000 
#
# Total GULP energy -112012.256255 kJ/mol
# GULP energy per Si atom -5600.612813 kJ/mol
# Density = 2.296798 g / cm^3
# Si number density = 23.020380 Si / 1000 Ang^3
#
#
#
# Elastic Constant Matrix: (Units=GPa)
#
#
# Indices 1 2 3 4 5 6 
#
# 1 138.5468 41.8621 27.5535 0.0000 -8.5097 0.0000
# 2 41.8621 214.4454 49.0813 0.0000 -5.3903 0.0000
# 3 27.5535 49.0813 66.6400 0.0000 0.0717 0.0000
# 4 0.0000 0.0000 0.0000 -4.2704 0.0000 7.1929
# 5 -8.5097 -5.3903 0.0717 0.0000 33.8351 0.0000
# 6 0.0000 0.0000 0.0000 7.1929 0.0000 6.6205
#
#
#
# Elastic Compliance Matrix: (Units=1/GPa)
#
#
# Indices 1 2 3 4 5 6 
#
# 1 0.008150 -0.000928 -0.002689 0.000000 0.001908 0.000000
# 2 -0.000928 0.005742 -0.003846 0.000000 0.000690 0.000000
# 3 -0.002689 -0.003846 0.018952 0.000000 -0.001329 0.000000
# 4 0.000000 0.000000 0.000000 -0.082745 0.000000 0.089900
# 5 0.001908 0.000690 -0.001329 0.000000 0.030148 0.000000
# 6 0.000000 0.000000 0.000000 0.089900 0.000000 0.053373
#
#
# Mechanical properties :
#
#
# Convention : Reuss Voigt Hill
#
# Bulk Modulus (GPa) = 55.80710 72.95847 64.38279
# Shear Modulus (GPa) = 91.71482 27.31272 59.51377
#
# Velocity S-wave (km/s) = 6.31880 3.44824 5.09007
# Velocity P-wave (km/s) = 8.80519 6.90040 7.91034
#
# Compressibility (1/GPa) = 0.01791887
#
# Stress axis : x y z
#
# Youngs Moduli (GPa) = 122.70051 174.15802 52.76536
#
# Poissons Ratio (x) = 0.16156 0.14186
# Poissons Ratio (y) = 0.11382 0.20295
# Poissons Ratio (z) = 0.32989 0.66984
#
# Static dielectric constant tensor:
#      x y z
#    x 1.875550 0.000000 0.000720 
#    y 0.000000 1.872750 0.000000 
#    z 0.000720 0.000000 1.867350 
# 
# From -- ./inp_files/62950.got.cif
#   From: 2010.05.17/outbox.cif.g08.bks.cpg/sg14_32_cif.got.tgz:62950.got - 2010.06.03 17:49:19.
