data_PCOD9250992
_publ_section_title
;
Structure prediction by ZEFSAII (Michael W. Deem and Ramdas Pophale) SiO2 
 PCOD9250992
Probable space group: P 21/C
;
_chemical_formula_sum "Si O2"
_cell_formula_units_Z 24
_cell_length_a 18.121820
_cell_length_b 8.651740
_cell_length_c 9.485794
_cell_angle_alpha 90.000000
_cell_angle_beta 142.859322
_cell_angle_gamma 90.000000
_cell_volume 897.952646
_symmetry_space_group_name_H-M "P 21/C"
_symmetry_group_IT_number 14
_symmetry_cell_setting 'monoclinic'
loop_
_space_group_symop_operation_xyz
x,y,z
-x,1/2+y,1/2-z
-x,-y,-z
x,1/2-y,1/2+z
loop_
_atom_site_type_symbol
_atom_site_label
_atom_site_fract_x
_atom_site_fract_y
_atom_site_fract_z
Si Si1 0.432551 0.931866 0.592447
Si Si2 0.371925 0.266796 0.425845
Si Si3 0.890027 0.776015 0.318495
Si Si4 0.882758 0.395910 0.670738
Si Si5 0.753085 0.221253 0.244280
Si Si6 0.240834 0.459972 0.020895
O O1 0.545745 0.886374 0.861020
O O2 0.384835 0.780877 0.437346
O O3 0.433975 0.097325 0.518296
O O4 0.313563 0.951076 0.511511
O O5 0.239195 0.263713 0.297687
O O6 0.337213 0.329863 0.219914
O O7 0.997295 0.806920 0.591674
O O8 0.894820 0.921880 0.219269
O O9 0.883303 0.617906 0.220615
O O10 0.839980 0.349466 0.450465
O O11 0.782434 0.337028 0.632272
O O12 0.780323 0.072328 0.381849
#
# Coordination Sequence:
#
# PCOD9250992 Si02
#       6
#     4   4   4   4   4   4
#     4  11  25  44  70 104 139 185 234 292 349 419
#     4  11  23  44  69 102 141 183 233 290 350 413
#     4  10  25  44  67 104 137 189 224 290 342 420
#     4  11  25  46  72 102 145 179 236 282 351 416
#     4  12  24  45  72 105 140 187 228 291 346 419
#     4  11  23  45  69 105 140 181 235 283 356 411
#
# _framework density 26.727467999999998
#
# number of rings (size 3 to 8) (size 9 to 14) (size 15 to 20)
#    0.000    1.000    3.333    2.500    2.333    2.000 
#    3.000    5.000    0.000    0.000    0.000    0.000 
#    0.000    0.000    0.000    0.000    0.000    0.000 
#
# Total GULP energy -134493.637129 kJ/mol
# GULP energy per Si atom -5603.901547 kJ/mol
# Density = 2.666663 g / cm^3
# Si number density = 26.727468 Si / 1000 Ang^3
#
#
#
# Elastic Constant Matrix: (Units=GPa)
#
#
# Indices 1 2 3 4 5 6 
#
# 1 42.1179 10.0383 2.4876 0.0000 7.5087 0.0000
# 2 10.0383 70.9000 10.0127 0.0000 4.5465 0.0000
# 3 2.4876 10.0127 118.5931 0.0000 6.3551 0.0000
# 4 0.0000 0.0000 0.0000 60.8875 0.0000 -9.6855
# 5 7.5087 4.5465 6.3551 0.0000 32.8336 0.0000
# 6 0.0000 0.0000 0.0000 -9.6855 0.0000 21.7724
#
#
#
# Elastic Compliance Matrix: (Units=1/GPa)
#
#
# Indices 1 2 3 4 5 6 
#
# 1 0.025479 -0.003267 0.000030 0.000000 -0.005380 0.000000
# 2 -0.003267 0.014795 -0.001122 0.000000 -0.001084 0.000000
# 3 0.000030 -0.001122 0.008608 0.000000 -0.001517 0.000000
# 4 0.000000 0.000000 0.000000 0.017674 0.000000 0.007862
# 5 -0.005380 -0.001084 -0.001517 0.000000 0.032131 0.000000
# 6 0.000000 0.000000 0.000000 0.007862 0.000000 0.049427
#
#
# Mechanical properties :
#
#
# Convention : Reuss Voigt Hill
#
# Bulk Modulus (GPa) = 24.89876 30.74312 27.82094
# Shear Modulus (GPa) = 29.37367 37.03684 33.20525
#
# Velocity S-wave (km/s) = 3.31872 3.72657 3.52854
# Velocity P-wave (km/s) = 4.90115 5.48122 5.19928
#
# Compressibility (1/GPa) = 0.04016264
#
# Stress axis : x y z
#
# Youngs Moduli (GPa) = 39.24826 67.59075 116.17559
#
# Poissons Ratio (x) = 0.22079 -0.00345
# Poissons Ratio (y) = 0.12821 0.13041
# Poissons Ratio (z) = -0.00116 0.07587
#
# Static dielectric constant tensor:
#      x y z
#    x 2.137130 0.000000 -0.038230 
#    y 0.000000 2.276120 0.000000 
#    z -0.038230 0.000000 2.063870 
# 
# From -- ./inp_files/35678.got.cif
#   From: 2010.05.17/outbox.cif.g08.bks.cpg/sg14_18_cif.got.tgz:35678.got - 2010.06.03 17:49:19.
