data_PCOD9250115
_publ_section_title
;
Structure prediction by ZEFSAII (Michael W. Deem and Ramdas Pophale) SiO2 
 PCOD9250115
Probable space group: P 21/C
;
_chemical_formula_sum "Si O2"
_cell_formula_units_Z 22
_cell_length_a 7.450552
_cell_length_b 10.975577
_cell_length_c 11.063124
_cell_angle_alpha 90.000000
_cell_angle_beta 103.225916
_cell_angle_gamma 90.000000
_cell_volume 880.680994
_symmetry_space_group_name_H-M "P 21/C"
_symmetry_group_IT_number 14
_symmetry_cell_setting 'monoclinic'
loop_
_space_group_symop_operation_xyz
x,y,z
-x,1/2+y,1/2-z
-x,-y,-z
x,1/2-y,1/2+z
loop_
_atom_site_type_symbol
_atom_site_label
_atom_site_fract_x
_atom_site_fract_y
_atom_site_fract_z
Si Si1 0.577181 0.922688 0.125100
Si Si2 0.782272 0.999257 0.488580
Si Si3 0.000000 0.000000 0.000000
Si Si4 0.232602 0.600436 0.750182
Si Si5 0.295158 0.279526 0.559587
Si Si6 0.334123 0.855479 0.745768
O O1 0.417367 0.903971 0.196442
O O2 0.723355 0.017403 0.200208
O O3 0.646984 0.803016 0.071644
O O4 0.500000 0.000000 0.000000
O O5 0.253586 0.974277 0.376028
O O6 0.724180 0.865209 0.434351
O O7 0.689308 0.108950 0.397381
O O8 0.000000 0.000000 0.500000
O O9 0.077090 0.941492 0.135464
O O10 0.122571 0.129974 0.048931
O O11 0.210644 0.744411 0.771859
O O12 0.460105 0.323891 0.674566
#
# Coordination Sequence:
#
# PCOD9250115 Si02
#       6
#     4   4   2   4   4   4
#     4  10  23  46  75 121 151 217 268 324 406 493
#     4  12  31  54  79 130 169 217 282 354 417 498
#     4  12  26  54  78 124 158 226 258 346 424 478
#     4  12  28  49  84 117 171 216 278 343 415 497
#     4  11  27  51  89 114 172 213 286 338 417 500
#     4  11  26  50  80 122 159 222 274 335 417 499
#
# _framework density 24.980668000000001
#
# number of rings (size 3 to 8) (size 9 to 14) (size 15 to 20)
#    0.000    0.727    3.636    2.182   10.182    4.364 
#    3.273    0.000    0.000    0.000    0.000    0.000 
#    0.000    0.000    0.000    0.000    0.000    0.000 
#
# Total GULP energy -122520.505513 kJ/mol
# GULP energy per Si atom -5569.113887 kJ/mol
# Density = 2.492381 g / cm^3
# Si number density = 24.980668 Si / 1000 Ang^3
#
#
#
# Elastic Constant Matrix: (Units=GPa)
#
#
# Indices 1 2 3 4 5 6 
#
# 1 100.8411 42.7788 31.8926 0.0000 -4.6017 0.0000
# 2 42.7788 129.2995 61.8611 0.0000 1.0028 0.0000
# 3 31.8926 61.8611 178.5850 0.0000 11.4361 0.0000
# 4 0.0000 0.0000 0.0000 58.9870 0.0000 -0.5872
# 5 -4.6017 1.0028 11.4361 0.0000 18.4575 0.0000
# 6 0.0000 0.0000 0.0000 -0.5872 0.0000 36.3892
#
#
#
# Elastic Compliance Matrix: (Units=1/GPa)
#
#
# Indices 1 2 3 4 5 6 
#
# 1 0.011916 -0.003398 -0.001201 0.000000 0.003899 0.000000
# 2 -0.003398 0.010282 -0.002983 0.000000 0.000442 0.000000
# 3 -0.001201 -0.002983 0.007139 0.000000 -0.004561 0.000000
# 4 0.000000 0.000000 0.000000 0.016956 0.000000 0.000274
# 5 0.003899 0.000442 -0.004561 0.000000 0.057952 0.000000
# 6 0.000000 0.000000 0.000000 0.000274 0.000000 0.027485
#
#
# Mechanical properties :
#
#
# Convention : Reuss Voigt Hill
#
# Bulk Modulus (GPa) = 70.55435 75.75450 73.15442
# Shear Modulus (GPa) = 32.97751 40.91296 36.94523
#
# Velocity S-wave (km/s) = 3.63729 4.05135 3.84989
# Velocity P-wave (km/s) = 6.77825 7.23019 7.00786
#
# Compressibility (1/GPa) = 0.01417347
#
# Stress axis : x y z
#
# Youngs Moduli (GPa) = 83.92211 97.25662 140.06827
#
# Poissons Ratio (x) = 0.33050 0.16816
# Poissons Ratio (y) = 0.28518 0.41784
# Poissons Ratio (z) = 0.10075 0.29013
#
# Static dielectric constant tensor:
#      x y z
#    x 2.048110 0.000000 -0.033130 
#    y 0.000000 2.057310 0.000000 
#    z -0.033130 0.000000 2.079700 
# 
# From -- ./inp_files/39897.got.cif
#   From: 2010.05.17/outbox.cif.g08.bks.cpg/sg14_20_cif.got.tgz:39897.got - 2010.06.03 17:49:19.
