data_PCOD9250152
_publ_section_title
;
Structure prediction by ZEFSAII (Michael W. Deem and Ramdas Pophale) SiO2 
 PCOD9250152
Probable space group: P 21/C
;
_chemical_formula_sum "Si O2"
_cell_formula_units_Z 22
_cell_length_a 4.590850
_cell_length_b 8.595601
_cell_length_c 19.811297
_cell_angle_alpha 90.000000
_cell_angle_beta 104.729035
_cell_angle_gamma 90.000000
_cell_volume 756.085957
_symmetry_space_group_name_H-M "P 21/C"
_symmetry_group_IT_number 14
_symmetry_cell_setting 'monoclinic'
loop_
_space_group_symop_operation_xyz
x,y,z
-x,1/2+y,1/2-z
-x,-y,-z
x,1/2-y,1/2+z
loop_
_atom_site_type_symbol
_atom_site_label
_atom_site_fract_x
_atom_site_fract_y
_atom_site_fract_z
Si Si1 0.563650 0.543464 0.609311
Si Si2 0.222878 0.222840 0.010264
Si Si3 0.000000 0.000000 0.500000
Si Si4 0.991139 0.813752 0.795772
Si Si5 0.613798 0.198123 0.299813
Si Si6 0.350030 0.958049 0.388332
O O1 0.690069 0.646989 0.555259
O O2 0.328959 0.414287 0.566941
O O3 0.847696 0.456764 0.659231
O O4 0.416907 0.648207 0.658184
O O5 0.368288 0.383706 0.052465
O O6 0.894381 0.301903 0.997783
O O7 0.143488 0.036289 0.432433
O O8 0.076468 0.817666 0.721431
O O9 0.142859 0.665825 0.838973
O O10 0.633847 0.801787 0.775148
O O11 0.515765 0.059838 0.342520
#
# Coordination Sequence:
#
# PCOD9250152 Si02
#       6
#     4   4   2   4   4   4
#     4  10  23  47  71 105 150 193 260 319 393 464
#     4  10  24  47  69 107 145 196 249 328 389 465
#     4  12  24  44  76 106 146 200 254 334 392 480
#     4  11  27  46  72 107 149 202 255 317 389 472
#     4  12  25  47  74 107 149 202 253 323 383 476
#     4  11  26  43  74 105 148 196 259 315 402 469
#
# _framework density 29.097221000000001
#
# number of rings (size 3 to 8) (size 9 to 14) (size 15 to 20)
#    0.000    1.091    1.818    2.727    7.636    0.000 
#    6.545    2.727    0.000    0.000    0.000    0.000 
#    0.000    0.000    0.000    0.000    0.000    0.000 
#
# Total GULP energy -123351.182398 kJ/mol
# GULP energy per Si atom -5606.871927 kJ/mol
# Density = 2.903099 g / cm^3
# Si number density = 29.097221 Si / 1000 Ang^3
#
#
#
# Elastic Constant Matrix: (Units=GPa)
#
#
# Indices 1 2 3 4 5 6 
#
# 1 91.8991 17.9662 37.6835 0.0000 6.2078 0.0000
# 2 17.9662 185.4687 63.9741 0.0000 1.2755 0.0000
# 3 37.6835 63.9741 166.0030 0.0000 -12.0815 0.0000
# 4 0.0000 0.0000 0.0000 46.6140 0.0000 1.8006
# 5 6.2078 1.2755 -12.0815 0.0000 51.8351 0.0000
# 6 0.0000 0.0000 0.0000 1.8006 0.0000 47.5786
#
#
#
# Elastic Compliance Matrix: (Units=1/GPa)
#
#
# Indices 1 2 3 4 5 6 
#
# 1 0.012234 -0.000184 -0.002861 0.000000 -0.002128 0.000000
# 2 -0.000184 0.006248 -0.002417 0.000000 -0.000695 0.000000
# 3 -0.002861 -0.002417 0.007766 0.000000 0.002212 0.000000
# 4 0.000000 0.000000 0.000000 0.021484 0.000000 -0.000813
# 5 -0.002128 -0.000695 0.002212 0.000000 0.020079 0.000000
# 6 0.000000 0.000000 0.000000 -0.000813 0.000000 0.021049
#
#
# Mechanical properties :
#
#
# Convention : Reuss Voigt Hill
#
# Bulk Modulus (GPa) = 65.25317 75.84650 70.54984
# Shear Modulus (GPa) = 47.66802 50.78868 49.22835
#
# Velocity S-wave (km/s) = 4.05190 4.18243 4.11768
# Velocity P-wave (km/s) = 6.66071 7.03184 6.84879
#
# Compressibility (1/GPa) = 0.01532492
#
# Stress axis : x y z
#
# Youngs Moduli (GPa) = 81.73659 160.05344 128.76806
#
# Poissons Ratio (x) = 0.02937 0.36846
# Poissons Ratio (y) = 0.01500 0.31120
# Poissons Ratio (z) = 0.23388 0.38681
#
# Static dielectric constant tensor:
#      x y z
#    x -0.842110 0.000000 -1.704110 
#    y 0.000000 1.865860 0.000000 
#    z -1.704110 0.000000 1.250560 
# 
# From -- ./inp_files/63120.got.cif
#   From: 2010.05.17/outbox.cif.g08.bks.cpg/sg14_32_cif.got.tgz:63120.got - 2010.06.03 17:49:19.
