data_PCOD9250815
_publ_section_title
;
Structure prediction by ZEFSAII (Michael W. Deem and Ramdas Pophale) SiO2 
 PCOD9250815
Probable space group: P 21/C
;
_chemical_formula_sum "Si O2"
_cell_formula_units_Z 20
_cell_length_a 9.100421
_cell_length_b 8.905341
_cell_length_c 10.265534
_cell_angle_alpha 90.000000
_cell_angle_beta 76.895694
_cell_angle_gamma 90.000000
_cell_volume 810.278337
_symmetry_space_group_name_H-M "P 21/C"
_symmetry_group_IT_number 14
_symmetry_cell_setting 'monoclinic'
loop_
_space_group_symop_operation_xyz
x,y,z
-x,1/2+y,1/2-z
-x,-y,-z
x,1/2-y,1/2+z
loop_
_atom_site_type_symbol
_atom_site_label
_atom_site_fract_x
_atom_site_fract_y
_atom_site_fract_z
Si Si1 0.373299 0.460289 0.710966
Si Si2 0.152046 0.598480 0.943655
Si Si3 0.863008 0.566613 0.438209
Si Si4 0.322253 0.366561 0.297803
Si Si5 0.129699 0.643203 0.232197
O O1 0.277238 0.513379 0.604690
O O2 0.532684 0.541431 0.683541
O O3 0.151492 0.727453 0.833831
O O4 0.289608 0.500290 0.863575
O O5 0.169843 0.680715 0.077570
O O6 0.624319 0.778902 0.791354
O O7 0.000000 0.500000 0.000000
O O8 0.781518 0.675729 0.556608
O O9 0.000000 0.500000 0.500000
O O10 0.951770 0.617542 0.290987
O O11 0.220318 0.489303 0.242388
#
# Coordination Sequence:
#
# PCOD9250815 Si02
#       5
#     4   4   4   4   4
#     4  12  26  49  77 110 160 205 261 317 387 466
#     4  12  27  47  79 115 152 203 258 320 387 461
#     4  10  24  46  79 108 153 199 255 320 383 455
#     4  11  27  49  74 115 153 211 251 323 387 462
#     4  11  27  48  78 113 154 196 260 322 388 459
#
# _framework density 24.682874999999999
#
# number of rings (size 3 to 8) (size 9 to 14) (size 15 to 20)
#    0.000    0.800    2.000    3.000   11.200    0.800 
#    7.200    0.000    0.000    0.000    0.000    0.000 
#    0.000    0.000    0.000    0.000    0.000    0.000 
#
# Total GULP energy -111623.121445 kJ/mol
# GULP energy per Si atom -5581.156072 kJ/mol
# Density = 2.462670 g / cm^3
# Si number density = 24.682875 Si / 1000 Ang^3
#
#
#
# Elastic Constant Matrix: (Units=GPa)
#
#
# Indices 1 2 3 4 5 6 
#
# 1 104.6961 48.0066 37.8427 0.0000 -5.5122 0.0000
# 2 48.0066 148.0703 37.9793 0.0000 0.2340 0.0000
# 3 37.8427 37.9793 167.1451 0.0000 14.8943 0.0000
# 4 0.0000 0.0000 0.0000 32.5612 0.0000 0.3229
# 5 -5.5122 0.2340 14.8943 0.0000 41.2798 0.0000
# 6 0.0000 0.0000 0.0000 0.3229 0.0000 25.9110
#
#
#
# Elastic Compliance Matrix: (Units=1/GPa)
#
#
# Indices 1 2 3 4 5 6 
#
# 1 0.011992 -0.003335 -0.002172 0.000000 0.002404 0.000000
# 2 -0.003335 0.008112 -0.001079 0.000000 -0.000102 0.000000
# 3 -0.002172 -0.001079 0.006969 0.000000 -0.002798 0.000000
# 4 0.000000 0.000000 0.000000 0.030715 0.000000 -0.000383
# 5 0.002404 -0.000102 -0.002798 0.000000 0.025556 0.000000
# 6 0.000000 0.000000 0.000000 -0.000383 0.000000 0.038598
#
#
# Mechanical properties :
#
#
# Convention : Reuss Voigt Hill
#
# Bulk Modulus (GPa) = 71.93232 74.17429 73.05330
# Shear Modulus (GPa) = 35.77885 39.68924 37.73405
#
# Velocity S-wave (km/s) = 3.81141 4.01430 3.91417
# Velocity P-wave (km/s) = 6.96958 7.18347 7.07733
#
# Compressibility (1/GPa) = 0.01390196
#
# Stress axis : x y z
#
# Youngs Moduli (GPa) = 83.38870 123.27906 143.49217
#
# Poissons Ratio (x) = 0.41111 0.31160
# Poissons Ratio (y) = 0.27809 0.15484
# Poissons Ratio (z) = 0.18108 0.13303
#
# Static dielectric constant tensor:
#      x y z
#    x 2.019090 0.000000 0.016780 
#    y 0.000000 2.150520 0.000000 
#    z 0.016780 0.000000 1.971850 
# 
# From -- ./inp_files/23739.got.cif
#   From: 2010.05.17/outbox.cif.g08.bks.cpg/sg14_12_cif.got.tgz:23739.got - 2010.06.03 17:49:19.
