data_PCOD9250877
_publ_section_title
;
Structure prediction by ZEFSAII (Michael W. Deem and Ramdas Pophale) SiO2 
 PCOD9250877
Probable space group: P 21/C
;
_chemical_formula_sum "Si O2"
_cell_formula_units_Z 26
_cell_length_a 11.519119
_cell_length_b 7.977756
_cell_length_c 12.080668
_cell_angle_alpha 90.000000
_cell_angle_beta 82.002505
_cell_angle_gamma 90.000000
_cell_volume 1099.376392
_symmetry_space_group_name_H-M "P 21/C"
_symmetry_group_IT_number 14
_symmetry_cell_setting 'monoclinic'
loop_
_space_group_symop_operation_xyz
x,y,z
-x,1/2+y,1/2-z
-x,-y,-z
x,1/2-y,1/2+z
loop_
_atom_site_type_symbol
_atom_site_label
_atom_site_fract_x
_atom_site_fract_y
_atom_site_fract_z
Si Si1 0.483424 0.426109 0.166234
Si Si2 0.000000 0.500000 0.500000
Si Si3 0.570705 0.956099 0.881577
Si Si4 0.066005 0.104519 0.585461
Si Si5 0.693386 0.032639 0.475929
Si Si6 0.909815 0.394107 0.694600
Si Si7 0.803922 0.150346 0.876332
O O1 0.449010 0.238224 0.139961
O O2 0.510588 0.444034 0.289754
O O3 0.376132 0.531310 0.131045
O O4 0.598733 0.484233 0.083974
O O5 0.124719 0.489839 0.402787
O O6 0.073086 0.594500 0.590461
O O7 0.706338 0.009798 0.871244
O O8 0.500000 0.000000 0.000000
O O9 0.009909 0.290112 0.607107
O O10 0.203175 0.102860 0.538243
O O11 0.056245 0.000573 0.701416
O O12 0.000000 0.000000 0.500000
O O13 0.754083 0.212751 0.468929
O O14 0.829884 0.248466 0.756989
#
# Coordination Sequence:
#
# PCOD9250877 Si02
#       7
#     4   2   4   4   4   4   4
#     4  11  26  48  74 111 145 193 251 306 370 444
#     4  12  26  44  74 110 148 194 248 296 376 448
#     4  12  27  48  78 109 144 193 252 305 377 442
#     4  11  25  44  71 103 144 189 239 293 360 438
#     4  10  24  48  74 102 148 193 236 307 368 428
#     4  11  24  46  68 108 142 194 239 294 366 436
#     4  11  25  47  74 108 148 195 240 310 371 440
#
# _framework density 23.649771999999999
#
# number of rings (size 3 to 8) (size 9 to 14) (size 15 to 20)
#    0.000    0.923    3.077    2.769    8.615    2.462 
#    0.000    0.000    0.000    0.000    0.000    0.000 
#    0.000    0.000    0.000    0.000    0.000    0.000 
#
# Total GULP energy -145038.704220 kJ/mol
# GULP energy per Si atom -5578.411701 kJ/mol
# Density = 2.359594 g / cm^3
# Si number density = 23.649772 Si / 1000 Ang^3
#
#
#
# Elastic Constant Matrix: (Units=GPa)
#
#
# Indices 1 2 3 4 5 6 
#
# 1 121.6472 28.7469 30.4522 0.0000 -5.3443 0.0000
# 2 28.7469 77.3394 4.3813 0.0000 1.1245 0.0000
# 3 30.4522 4.3813 145.5223 0.0000 -1.9497 0.0000
# 4 0.0000 0.0000 0.0000 31.5241 0.0000 1.5822
# 5 -5.3443 1.1245 -1.9497 0.0000 23.7537 0.0000
# 6 0.0000 0.0000 0.0000 1.5822 0.0000 49.3890
#
#
#
# Elastic Compliance Matrix: (Units=1/GPa)
#
#
# Indices 1 2 3 4 5 6 
#
# 1 0.009613 -0.003498 -0.001877 0.000000 0.002174 0.000000
# 2 -0.003498 0.014235 0.000284 0.000000 -0.001438 0.000000
# 3 -0.001877 0.000284 0.007258 0.000000 0.000160 0.000000
# 4 0.000000 0.000000 0.000000 0.031773 0.000000 -0.001018
# 5 0.002174 -0.001438 0.000160 0.000000 0.042669 0.000000
# 6 0.000000 0.000000 0.000000 -0.001018 0.000000 0.020280
#
#
# Mechanical properties :
#
#
# Convention : Reuss Voigt Hill
#
# Bulk Modulus (GPa) = 47.79289 52.40774 50.10032
# Shear Modulus (GPa) = 34.96877 39.66192 37.31534
#
# Velocity S-wave (km/s) = 3.84944 4.09963 3.97650
# Velocity P-wave (km/s) = 6.32535 6.67962 6.50490
#
# Compressibility (1/GPa) = 0.02092361
#
# Stress axis : x y z
#
# Youngs Moduli (GPa) = 104.03011 70.24879 137.77544
#
# Poissons Ratio (x) = 0.24575 0.25862
# Poissons Ratio (y) = 0.36393 -0.03916
# Poissons Ratio (z) = 0.19527 -0.01997
#
# Static dielectric constant tensor:
#      x y z
#    x 1.903010 0.000000 -0.112410 
#    y 0.000000 1.561520 0.000000 
#    z -0.112410 0.000000 1.606620 
# 
# From -- ./inp_files/28137.got.cif
#   From: 2010.05.17/outbox.cif.g08.bks.cpg/sg14_15_cif.got.tgz:28137.got - 2010.06.03 17:49:19.
