data_PCOD9250420
_publ_section_title
;
Structure prediction by ZEFSAII (Michael W. Deem and Ramdas Pophale) SiO2 
 PCOD9250420
Probable space group: P 21/C
;
_chemical_formula_sum "Si O2"
_cell_formula_units_Z 32
_cell_length_a 10.950721
_cell_length_b 7.981788
_cell_length_c 27.976081
_cell_angle_alpha 90.000000
_cell_angle_beta 147.552031
_cell_angle_gamma 90.000000
_cell_volume 1311.978195
_symmetry_space_group_name_H-M "P 21/C"
_symmetry_group_IT_number 14
_symmetry_cell_setting 'monoclinic'
loop_
_space_group_symop_operation_xyz
x,y,z
-x,1/2+y,1/2-z
-x,-y,-z
x,1/2-y,1/2+z
loop_
_atom_site_type_symbol
_atom_site_label
_atom_site_fract_x
_atom_site_fract_y
_atom_site_fract_z
Si Si1 0.543548 0.486513 0.420299
Si Si2 0.608976 0.692481 0.355071
Si Si3 0.913795 0.622744 0.601887
Si Si4 0.333013 0.623731 0.685419
Si Si5 0.853638 0.277876 0.967311
Si Si6 0.101489 0.275189 0.300624
Si Si7 0.757300 0.523613 0.020062
Si Si8 0.245777 0.595372 0.880891
O O1 0.515254 0.648752 0.376693
O O2 0.668964 0.544455 0.509924
O O3 0.727508 0.371372 0.453784
O O4 0.322405 0.373885 0.354577
O O5 0.557738 0.520697 0.309886
O O6 0.483182 0.824479 0.280095
O O7 0.877483 0.736080 0.447463
O O8 0.975032 0.626326 0.677277
O O9 0.106667 0.542290 0.633279
O O10 0.910236 0.815572 0.582087
O O11 0.260993 0.767499 0.623208
O O12 0.803453 0.440535 0.983913
O O13 0.908199 0.273234 0.197202
O O14 0.159189 0.089221 0.336907
O O15 0.785543 0.389182 0.072456
O O16 0.503973 0.589220 0.948512
#
# Coordination Sequence:
#
# PCOD9250420 Si02
#       8
#     4   4   4   4   4   4   4   4
#     4  11  22  45  68  92 131 180 219 279 342 403
#     4  11  25  43  70  95 137 179 227 289 332 408
#     4  11  24  42  65  97 136 173 221 281 337 411
#     4  11  25  44  65 102 134 174 235 273 346 406
#     4  11  22  47  70  93 133 183 224 278 340 406
#     4  11  25  41  69  98 133 173 225 278 347 399
#     4  10  24  42  69  93 138 177 223 279 341 400
#     4  10  24  45  61 103 135 173 229 281 335 412
#
# _framework density 24.390647999999999
#
# number of rings (size 3 to 8) (size 9 to 14) (size 15 to 20)
#    0.000    1.250    3.750    1.125    7.000    4.500 
#    0.000    0.000    0.000    0.000    0.000    0.000 
#    0.000    0.000    0.000    0.000    0.000    0.000 
#
# Total GULP energy -179037.605966 kJ/mol
# GULP energy per Si atom -5594.925186 kJ/mol
# Density = 2.433513 g / cm^3
# Si number density = 24.390648 Si / 1000 Ang^3
#
#
#
# Elastic Constant Matrix: (Units=GPa)
#
#
# Indices 1 2 3 4 5 6 
#
# 1 79.4439 11.6853 4.5012 0.0000 -7.6995 0.0000
# 2 11.6853 39.9840 -6.0918 0.0000 -5.1557 0.0000
# 3 4.5012 -6.0918 64.5508 0.0000 -11.7733 0.0000
# 4 0.0000 0.0000 0.0000 30.3948 0.0000 -13.4243
# 5 -7.6995 -5.1557 -11.7733 0.0000 20.4834 0.0000
# 6 0.0000 0.0000 0.0000 -13.4243 0.0000 35.3049
#
#
#
# Elastic Compliance Matrix: (Units=1/GPa)
#
#
# Indices 1 2 3 4 5 6 
#
# 1 0.013515 -0.003539 -0.000572 0.000000 0.003860 0.000000
# 2 -0.003539 0.027760 0.004355 0.000000 0.008160 0.000000
# 3 -0.000572 0.004355 0.017989 0.000000 0.011221 0.000000
# 4 0.000000 0.000000 0.000000 0.039541 0.000000 0.015035
# 5 0.003860 0.008160 0.011221 0.000000 0.058774 0.000000
# 6 0.000000 0.000000 0.000000 0.015035 0.000000 0.034042
#
#
# Mechanical properties :
#
#
# Convention : Reuss Voigt Hill
#
# Bulk Modulus (GPa) = 16.73621 22.68533 19.71077
# Shear Modulus (GPa) = 23.69104 28.82889 26.25997
#
# Velocity S-wave (km/s) = 3.11998 3.44170 3.28478
# Velocity P-wave (km/s) = 4.45597 5.01146 4.74186
#
# Compressibility (1/GPa) = 0.05975068
#
# Stress axis : x y z
#
# Youngs Moduli (GPa) = 73.99400 36.02304 55.58929
#
# Poissons Ratio (x) = 0.12749 0.03181
# Poissons Ratio (y) = 0.26187 -0.24208
# Poissons Ratio (z) = 0.04235 -0.15688
#
# Static dielectric constant tensor:
#      x y z
#    x 1.911940 0.000000 -0.017970 
#    y 0.000000 1.967350 0.000000 
#    z -0.017970 0.000000 1.941330 
# 
# From -- ./inp_files/79965.got.cif
#   From: 2010.05.17/outbox.cif.g08.bks.cpg/sg14_40_cif.got.tgz:79965.got - 2010.06.03 17:49:19.
