data_PCOD9250865
_publ_section_title
;
Structure prediction by ZEFSAII (Michael W. Deem and Ramdas Pophale) SiO2 
 PCOD9250865
Probable space group: P 21/C
;
_chemical_formula_sum "Si O2"
_cell_formula_units_Z 20
_cell_length_a 8.934160
_cell_length_b 12.474356
_cell_length_c 7.700210
_cell_angle_alpha 90.000000
_cell_angle_beta 127.416154
_cell_angle_gamma 90.000000
_cell_volume 681.597539
_symmetry_space_group_name_H-M "P 21/C"
_symmetry_group_IT_number 14
_symmetry_cell_setting 'monoclinic'
loop_
_space_group_symop_operation_xyz
x,y,z
-x,1/2+y,1/2-z
-x,-y,-z
x,1/2-y,1/2+z
loop_
_atom_site_type_symbol
_atom_site_label
_atom_site_fract_x
_atom_site_fract_y
_atom_site_fract_z
Si Si1 0.436150 0.315356 0.427258
Si Si2 0.636345 0.076747 0.764749
Si Si3 0.047847 0.148015 0.496135
Si Si4 0.846026 0.628694 0.315696
Si Si5 0.336839 0.897289 0.588797
O O1 0.597638 0.348861 0.403248
O O2 0.519308 0.153995 0.170985
O O3 0.343484 0.197355 0.364158
O O4 0.241878 0.378097 0.238004
O O5 0.686665 0.141875 0.626201
O O6 0.439809 0.010098 0.622774
O O7 0.791515 0.980929 0.873262
O O8 0.056822 0.113481 0.302199
O O9 0.048372 0.279067 0.501045
O O10 0.865689 0.104871 0.464829
#
# Coordination Sequence:
#
# PCOD9250865 Si02
#       5
#     4   4   4   4   4
#     4  10  25  49  77 107 156 203 248 317 383 444
#     4  11  24  47  79 113 152 198 258 310 377 455
#     4  10  24  48  72 107 156 196 253 314 376 453
#     4  10  24  48  72 107 160 197 248 326 369 447
#     4  11  24  47  78 107 149 200 252 313 378 454
#
# _framework density 29.342828999999998
#
# number of rings (size 3 to 8) (size 9 to 14) (size 15 to 20)
#    1.200    0.400    0.000    4.200    0.000    4.800 
#    7.200    5.000    8.800    0.000    0.000    0.000 
#    0.000    0.000    0.000    0.000    0.000    0.000 
#
# Total GULP energy -112015.667367 kJ/mol
# GULP energy per Si atom -5600.783368 kJ/mol
# Density = 2.927604 g / cm^3
# Si number density = 29.342829 Si / 1000 Ang^3
#
#
#
# Elastic Constant Matrix: (Units=GPa)
#
#
# Indices 1 2 3 4 5 6 
#
# 1 275.5103 77.5745 97.2218 0.0000 -18.7124 0.0000
# 2 77.5745 149.9260 88.3834 0.0000 -12.8490 0.0000
# 3 97.2218 88.3834 146.7539 0.0000 -7.5103 0.0000
# 4 0.0000 0.0000 0.0000 49.4106 0.0000 -18.3068
# 5 -18.7124 -12.8490 -7.5103 0.0000 70.6168 0.0000
# 6 0.0000 0.0000 0.0000 -18.3068 0.0000 53.4373
#
#
#
# Elastic Compliance Matrix: (Units=1/GPa)
#
#
# Indices 1 2 3 4 5 6 
#
# 1 0.004872 -0.000885 -0.002651 0.000000 0.000848 0.000000
# 2 -0.000885 0.010609 -0.005747 0.000000 0.001085 0.000000
# 3 -0.002651 -0.005747 0.012008 0.000000 -0.000471 0.000000
# 4 0.000000 0.000000 0.000000 0.023181 0.000000 0.007941
# 5 0.000848 0.001085 -0.000471 0.000000 0.014533 0.000000
# 6 0.000000 0.000000 0.000000 0.007941 0.000000 0.021434
#
#
# Mechanical properties :
#
#
# Convention : Reuss Voigt Hill
#
# Bulk Modulus (GPa) = 112.09133 122.06108 117.07620
# Shear Modulus (GPa) = 46.22013 55.29363 50.75688
#
# Velocity S-wave (km/s) = 3.97315 4.34568 4.16358
# Velocity P-wave (km/s) = 7.70269 8.17731 7.94355
#
# Compressibility (1/GPa) = 0.00892130
#
# Stress axis : x y z
#
# Youngs Moduli (GPa) = 205.25478 94.25790 83.28035
#
# Poissons Ratio (x) = 0.08346 0.22077
# Poissons Ratio (y) = 0.18173 0.47864
# Poissons Ratio (z) = 0.54412 0.54174
#
# Static dielectric constant tensor:
#      x y z
#    x 2.273230 0.000000 0.061190 
#    y 0.000000 2.522310 0.000000 
#    z 0.061190 0.000000 2.296800 
# 
# From -- ./inp_files/9245.got.cif
#   From: 2010.05.17/outbox.cif.g08.bks.cpg/sg14_5_cif.got.tgz:9245.got - 2010.06.03 17:49:19.
