data_PCOD9250292
_publ_section_title
;
Structure prediction by ZEFSAII (Michael W. Deem and Ramdas Pophale) SiO2 
 PCOD9250292
Probable space group: P 21/C
;
_chemical_formula_sum "Si O2"
_cell_formula_units_Z 20
_cell_length_a 11.260393
_cell_length_b 11.085467
_cell_length_c 11.074057
_cell_angle_alpha 90.000000
_cell_angle_beta 137.121205
_cell_angle_gamma 90.000000
_cell_volume 940.611599
_symmetry_space_group_name_H-M "P 21/C"
_symmetry_group_IT_number 14
_symmetry_cell_setting 'monoclinic'
loop_
_space_group_symop_operation_xyz
x,y,z
-x,1/2+y,1/2-z
-x,-y,-z
x,1/2-y,1/2+z
loop_
_atom_site_type_symbol
_atom_site_label
_atom_site_fract_x
_atom_site_fract_y
_atom_site_fract_z
Si Si1 0.896829 0.011084 0.551650
Si Si2 0.390628 0.861695 0.791125
Si Si3 0.322845 0.268624 0.113542
Si Si4 0.892535 0.524278 0.541080
Si Si5 0.612772 0.109790 0.955113
O O1 0.795455 0.884830 0.494956
O O2 0.751664 0.114918 0.418230
O O3 0.000000 0.000000 0.500000
O O4 0.004977 0.035027 0.754243
O O5 0.531461 0.756812 0.880057
O O6 0.511247 0.981781 0.882812
O O7 0.298919 0.859493 0.852255
O O8 0.456095 0.297080 0.321042
O O9 0.209978 0.150119 0.050108
O O10 0.757176 0.413797 0.461650
O O11 0.000000 0.500000 0.500000
#
# Coordination Sequence:
#
# PCOD9250292 Si02
#       5
#     4   4   4   4   4
#     4  11  23  43  67 100 132 175 225 271 330 401
#     4   9  19  40  65  91 124 172 223 259 320 409
#     4  10  24  40  69  93 133 180 218 272 337 387
#     4  11  25  43  63 105 140 162 224 287 325 387
#     4   9  19  41  64  90 127 173 216 262 327 401
#
# _framework density 21.262761000000001
#
# number of rings (size 3 to 8) (size 9 to 14) (size 15 to 20)
#    0.000    2.000    2.000    0.000    5.600    3.200 
#    3.600    3.000    0.000    0.000    0.000    0.000 
#    0.000    0.000    0.000    0.000    0.000    0.000 
#
# Total GULP energy -111418.322634 kJ/mol
# GULP energy per Si atom -5570.916132 kJ/mol
# Density = 2.121437 g / cm^3
# Si number density = 21.262761 Si / 1000 Ang^3
#
#
#
# Elastic Constant Matrix: (Units=GPa)
#
#
# Indices 1 2 3 4 5 6 
#
# 1 134.1814 46.8250 37.4381 0.0000 -0.1294 0.0000
# 2 46.8250 97.1716 53.2893 0.0000 9.9087 0.0000
# 3 37.4381 53.2893 137.8277 0.0000 -6.4658 0.0000
# 4 0.0000 0.0000 0.0000 31.7642 0.0000 28.2730
# 5 -0.1294 9.9087 -6.4658 0.0000 27.8106 0.0000
# 6 0.0000 0.0000 0.0000 28.2730 0.0000 31.8623
#
#
#
# Elastic Compliance Matrix: (Units=1/GPa)
#
#
# Indices 1 2 3 4 5 6 
#
# 1 0.009105 -0.004056 -0.000844 0.000000 0.001291 0.000000
# 2 -0.004056 0.015897 -0.005370 0.000000 -0.006931 0.000000
# 3 -0.000844 -0.005370 0.009757 0.000000 0.004178 0.000000
# 4 0.000000 0.000000 0.000000 0.149788 0.000000 -0.132914
# 5 0.001291 -0.006931 0.004178 0.000000 0.039404 0.000000
# 6 0.000000 0.000000 0.000000 -0.132914 0.000000 0.149327
#
#
# Mechanical properties :
#
#
# Convention : Reuss Voigt Hill
#
# Bulk Modulus (GPa) = 70.33097 71.58730 70.95913
# Shear Modulus (GPa) = 12.54522 33.72930 23.13726
#
# Velocity S-wave (km/s) = 2.43165 3.98717 3.30230
# Velocity P-wave (km/s) = 6.40568 7.41200 6.92714
#
# Compressibility (1/GPa) = 0.01421849
#
# Stress axis : x y z
#
# Youngs Moduli (GPa) = 109.83140 62.90376 102.49063
#
# Poissons Ratio (x) = 0.25514 0.08654
# Poissons Ratio (y) = 0.44548 0.55037
# Poissons Ratio (z) = 0.09274 0.33779
#
# Static dielectric constant tensor:
#      x y z
#    x 1.811130 0.000000 -0.036170 
#    y 0.000000 1.798410 0.000000 
#    z -0.036170 0.000000 1.809930 
# 
# From -- ./inp_files/23548.got.cif
#   From: 2010.05.17/outbox.cif.g08.bks.cpg/sg14_12_cif.got.tgz:23548.got - 2010.06.03 17:49:19.
