data_PCOD9250975
_publ_section_title
;
Structure prediction by ZEFSAII (Michael W. Deem and Ramdas Pophale) SiO2 
 PCOD9250975
Probable space group: P 21/C
;
_chemical_formula_sum "Si O2"
_cell_formula_units_Z 20
_cell_length_a 5.593433
_cell_length_b 22.050829
_cell_length_c 7.556702
_cell_angle_alpha 90.000000
_cell_angle_beta 60.886535
_cell_angle_gamma 90.000000
_cell_volume 814.286189
_symmetry_space_group_name_H-M "P 21/C"
_symmetry_group_IT_number 14
_symmetry_cell_setting 'monoclinic'
loop_
_space_group_symop_operation_xyz
x,y,z
-x,1/2+y,1/2-z
-x,-y,-z
x,1/2-y,1/2+z
loop_
_atom_site_type_symbol
_atom_site_label
_atom_site_fract_x
_atom_site_fract_y
_atom_site_fract_z
Si Si1 0.369036 0.161493 0.406075
Si Si2 0.877531 0.678725 0.651741
Si Si3 0.225715 0.049998 0.948553
Si Si4 0.404611 0.752396 0.401741
Si Si5 0.293514 0.026548 0.334520
O O1 0.121033 0.174977 0.633070
O O2 0.597508 0.201373 0.428788
O O3 0.386580 0.088958 0.396181
O O4 0.392170 0.193478 0.205753
O O5 0.901809 0.612597 0.566722
O O6 0.109103 0.723428 0.504514
O O7 0.572128 0.701913 0.712621
O O8 0.488457 0.028095 0.741979
O O9 0.287669 0.048384 0.133253
O O10 0.000000 0.000000 0.000000
O O11 0.000000 0.000000 0.500000
#
# Coordination Sequence:
#
# PCOD9250975 Si02
#       5
#     4   4   4   4   4
#     4  10  25  44  71 102 148 184 246 291 362 431
#     4  10  25  45  70 105 144 192 240 300 355 438
#     4  11  25  48  76 110 147 185 246 302 371 436
#     4  10  25  43  69 102 143 191 240 292 363 425
#     4  11  26  48  77 111 144 193 241 307 371 434
#
# _framework density 24.561388999999998
#
# number of rings (size 3 to 8) (size 9 to 14) (size 15 to 20)
#    1.200    0.400    0.000    2.400    5.600    8.000 
#    3.600    0.000    0.000    0.000    0.000    0.000 
#    0.000    0.000    0.000    0.000    0.000    0.000 
#
# Total GULP energy -111395.156794 kJ/mol
# GULP energy per Si atom -5569.757840 kJ/mol
# Density = 2.450549 g / cm^3
# Si number density = 24.561389 Si / 1000 Ang^3
#
#
#
# Elastic Constant Matrix: (Units=GPa)
#
#
# Indices 1 2 3 4 5 6 
#
# 1 64.6160 77.0761 54.3973 0.0000 -13.5278 0.0000
# 2 77.0761 180.9535 57.5810 0.0000 5.0576 0.0000
# 3 54.3973 57.5810 154.5990 0.0000 -11.4366 0.0000
# 4 0.0000 0.0000 0.0000 40.6123 0.0000 6.8546
# 5 -13.5278 5.0576 -11.4366 0.0000 42.7714 0.0000
# 6 0.0000 0.0000 0.0000 6.8546 0.0000 41.7244
#
#
#
# Elastic Compliance Matrix: (Units=1/GPa)
#
#
# Indices 1 2 3 4 5 6 
#
# 1 0.047025 -0.017601 -0.008913 0.000000 0.014571 0.000000
# 2 -0.017601 0.012940 0.000866 0.000000 -0.006866 0.000000
# 3 -0.008913 0.000866 0.009249 0.000000 -0.000448 0.000000
# 4 0.000000 0.000000 0.000000 0.025325 0.000000 -0.004161
# 5 0.014571 -0.006866 -0.000448 0.000000 0.028681 0.000000
# 6 0.000000 0.000000 0.000000 -0.004161 0.000000 0.024650
#
#
# Mechanical properties :
#
#
# Convention : Reuss Voigt Hill
#
# Bulk Modulus (GPa) = 55.81156 86.47524 71.14340
# Shear Modulus (GPa) = 24.37372 39.09591 31.73481
#
# Velocity S-wave (km/s) = 3.15359 3.99402 3.59842
# Velocity P-wave (km/s) = 6.00273 7.52023 6.80392
#
# Compressibility (1/GPa) = 0.01791743
#
# Stress axis : x y z
#
# Youngs Moduli (GPa) = 21.26517 77.28079 108.12279
#
# Poissons Ratio (x) = 1.36024 0.96367
# Poissons Ratio (y) = 0.37429 -0.09362
# Poissons Ratio (z) = 0.18953 -0.06691
#
# Static dielectric constant tensor:
#      x y z
#    x 2.203440 0.000000 0.194080 
#    y 0.000000 1.926060 0.000000 
#    z 0.194080 0.000000 2.135520 
# 
# From -- ./inp_files/6467.got.cif
#   From: 2010.05.17/outbox.cif.g08.bks.cpg/sg14_4_cif.got.tgz:6467.got - 2010.06.03 17:49:19.
