data_PCOD9250187
_publ_section_title
;
Structure prediction by ZEFSAII (Michael W. Deem and Ramdas Pophale) SiO2 
 PCOD9250187
Probable space group: P 21/C
;
_chemical_formula_sum "Si O2"
_cell_formula_units_Z 18
_cell_length_a 6.399671
_cell_length_b 9.884798
_cell_length_c 18.412883
_cell_angle_alpha 90.000000
_cell_angle_beta 37.801538
_cell_angle_gamma 90.000000
_cell_volume 713.932066
_symmetry_space_group_name_H-M "P 21/C"
_symmetry_group_IT_number 14
_symmetry_cell_setting 'monoclinic'
loop_
_space_group_symop_operation_xyz
x,y,z
-x,1/2+y,1/2-z
-x,-y,-z
x,1/2-y,1/2+z
loop_
_atom_site_type_symbol
_atom_site_label
_atom_site_fract_x
_atom_site_fract_y
_atom_site_fract_z
Si Si1 0.500000 0.000000 0.000000
Si Si2 0.646215 0.961833 0.353921
Si Si3 0.359439 0.294190 0.000769
Si Si4 0.451623 0.727777 0.774384
Si Si5 0.566392 0.995100 0.826564
O O1 0.545155 0.152396 0.955239
O O2 0.632664 0.047278 0.046303
O O3 0.549798 0.875474 0.451003
O O4 0.574512 0.869519 0.305323
O O5 0.042902 0.999974 0.251912
O O6 0.447318 0.103369 0.411999
O O7 0.958843 0.264503 0.113879
O O8 0.540025 0.638094 0.679330
O O9 0.565062 0.878930 0.764683
#
# Coordination Sequence:
#
# PCOD9250187 Si02
#       5
#     2   4   4   4   4
#     4  12  26  46  68 108 146 182 230 304 350 410
#     4  10  23  48  70  99 145 193 228 292 360 426
#     4  10  24  43  72 103 143 186 233 293 355 419
#     4  11  25  48  71 108 136 190 248 283 353 435
#     4  11  28  44  75 103 147 186 238 294 357 420
#
# _framework density 25.212482999999999
#
# number of rings (size 3 to 8) (size 9 to 14) (size 15 to 20)
#    0.000    1.333    2.222    0.667    9.333    0.889 
#    0.000    0.000    0.000    0.000    0.000    0.000 
#    0.000    0.000    0.000    0.000    0.000    0.000 
#
# Total GULP energy -100251.883445 kJ/mol
# GULP energy per Si atom -5569.549080 kJ/mol
# Density = 2.515510 g / cm^3
# Si number density = 25.212483 Si / 1000 Ang^3
#
#
#
# Elastic Constant Matrix: (Units=GPa)
#
#
# Indices 1 2 3 4 5 6 
#
# 1 260.6170 47.5636 4.3576 0.0000 -121.6249 0.0000
# 2 47.5636 154.8553 19.8718 0.0000 -15.5570 0.0000
# 3 4.3576 19.8718 44.4319 0.0000 20.1981 0.0000
# 4 0.0000 0.0000 0.0000 2.0368 0.0000 -30.3849
# 5 -121.6249 -15.5570 20.1981 0.0000 175.9321 0.0000
# 6 0.0000 0.0000 0.0000 -30.3849 0.0000 -177.7178
#
#
#
# Elastic Compliance Matrix: (Units=1/GPa)
#
#
# Indices 1 2 3 4 5 6 
#
# 1 0.006124 -0.001178 -0.002058 0.000000 0.004366 0.000000
# 2 -0.001178 0.007252 -0.003217 0.000000 0.000196 0.000000
# 3 -0.002058 -0.003217 0.026295 0.000000 -0.004726 0.000000
# 4 0.000000 0.000000 0.000000 0.138278 0.000000 -0.023642
# 5 0.004366 0.000196 -0.004726 0.000000 0.009262 0.000000
# 6 0.000000 0.000000 0.000000 -0.023642 0.000000 -0.001585
#
#
# Mechanical properties :
#
#
# Convention : Reuss Voigt Hill
#
# Bulk Modulus (GPa) = 37.36288 67.05446 52.20867
# Shear Modulus (GPa) = 24.10167 25.92430 25.01299
#
# Velocity S-wave (km/s) = 3.09519 3.21009 3.15316
# Velocity P-wave (km/s) = 5.25594 6.35555 5.83172
#
# Compressibility (1/GPa) = 0.02676453
#
# Stress axis : x y z
#
# Youngs Moduli (GPa) = 163.29613 137.89194 38.02938
#
# Poissons Ratio (x) = 0.16247 0.07827
# Poissons Ratio (y) = 0.19240 0.12234
# Poissons Ratio (z) = 0.33609 0.44360
#
# Static dielectric constant tensor:
#      x y z
#    x 1.970270 0.000000 0.037790 
#    y 0.000000 1.979670 0.000000 
#    z 0.037790 0.000000 2.080390 
# 
# From -- ./inp_files/20445.got.cif
#   From: 2010.05.17/outbox.cif.g08.bks.cpg/sg14_11_cif.got.tgz:20445.got - 2010.06.03 17:49:19.
