data_PCOD9250610
_publ_section_title
;
Structure prediction by ZEFSAII (Michael W. Deem and Ramdas Pophale) SiO2 
 PCOD9250610
Probable space group: P 21/C
;
_chemical_formula_sum "Si O2"
_cell_formula_units_Z 28
_cell_length_a 8.126079
_cell_length_b 14.495616
_cell_length_c 11.294631
_cell_angle_alpha 90.000000
_cell_angle_beta 58.402449
_cell_angle_gamma 90.000000
_cell_volume 1133.186947
_symmetry_space_group_name_H-M "P 21/C"
_symmetry_group_IT_number 14
_symmetry_cell_setting 'monoclinic'
loop_
_space_group_symop_operation_xyz
x,y,z
-x,1/2+y,1/2-z
-x,-y,-z
x,1/2-y,1/2+z
loop_
_atom_site_type_symbol
_atom_site_label
_atom_site_fract_x
_atom_site_fract_y
_atom_site_fract_z
Si Si1 0.003845 0.149631 0.988561
Si Si2 0.593113 0.411219 0.230863
Si Si3 0.615353 0.413471 0.750860
Si Si4 0.335060 0.231722 0.299942
Si Si5 0.958609 0.362009 0.238660
Si Si6 0.176441 0.529122 0.088421
Si Si7 0.125841 0.342592 0.682974
O O1 0.998045 0.107480 0.859942
O O2 0.116202 0.245571 0.921708
O O3 0.787796 0.140432 0.119361
O O4 0.129781 0.112419 0.051644
O O5 0.469224 0.503618 0.295274
O O6 0.450661 0.326929 0.256734
O O7 0.742894 0.383471 0.276780
O O8 0.720153 0.434349 0.066739
O O9 0.448308 0.339833 0.836816
O O10 0.690915 0.454295 0.846060
O O11 0.320056 0.189007 0.173876
O O12 0.105595 0.424243 0.108276
O O13 0.004264 0.253052 0.214258
O O14 0.984731 0.587823 0.189786
#
# Coordination Sequence:
#
# PCOD9250610 Si02
#       7
#     4   4   4   4   4   4   4
#     4  10  25  46  69  94 150 181 239 290 357 427
#     4  12  26  43  73 110 144 189 246 290 352 436
#     4  11  25  45  71 108 144 190 236 302 358 416
#     4  11  26  42  71 109 139 193 238 294 367 416
#     4  11  25  44  73 105 141 193 236 297 363 414
#     4  11  25  45  74 105 147 191 241 293 354 430
#     4  10  24  44  70 101 142 193 231 301 364 411
#
# _framework density 24.709071999999999
#
# number of rings (size 3 to 8) (size 9 to 14) (size 15 to 20)
#    0.000    1.143    0.000    5.143   12.000    6.857 
#    0.000    0.000    0.000    0.000    0.000    0.000 
#    0.000    0.000    0.000    0.000    0.000    0.000 
#
# Total GULP energy -156653.883561 kJ/mol
# GULP energy per Si atom -5594.781556 kJ/mol
# Density = 2.465283 g / cm^3
# Si number density = 24.709072 Si / 1000 Ang^3
#
#
#
# Elastic Constant Matrix: (Units=GPa)
#
#
# Indices 1 2 3 4 5 6 
#
# 1 130.8452 35.9424 34.3356 0.0000 7.3096 0.0000
# 2 35.9424 124.0079 22.8820 0.0000 -17.4685 0.0000
# 3 34.3356 22.8820 105.7789 0.0000 -0.9647 0.0000
# 4 0.0000 0.0000 0.0000 23.2531 0.0000 -6.7204
# 5 7.3096 -17.4685 -0.9647 0.0000 22.4651 0.0000
# 6 0.0000 0.0000 0.0000 -6.7204 0.0000 52.3204
#
#
#
# Elastic Compliance Matrix: (Units=1/GPa)
#
#
# Indices 1 2 3 4 5 6 
#
# 1 0.009439 -0.003067 -0.002451 0.000000 -0.005561 0.000000
# 2 -0.003067 0.010449 -0.001182 0.000000 0.009072 0.000000
# 3 -0.002451 -0.001182 0.010508 0.000000 0.000330 0.000000
# 4 0.000000 0.000000 0.000000 0.044663 0.000000 0.005737
# 5 -0.005561 0.009072 0.000330 0.000000 0.053392 0.000000
# 6 0.000000 0.000000 0.000000 0.005737 0.000000 0.019850
#
#
# Mechanical properties :
#
#
# Convention : Reuss Voigt Hill
#
# Bulk Modulus (GPa) = 58.83829 60.77245 59.80537
# Shear Modulus (GPa) = 29.87468 37.43919 33.65693
#
# Velocity S-wave (km/s) = 3.48092 3.89678 3.69471
# Velocity P-wave (km/s) = 6.32613 6.70038 6.51594
#
# Compressibility (1/GPa) = 0.01699574
#
# Stress axis : x y z
#
# Youngs Moduli (GPa) = 105.94378 95.70314 95.16528
#
# Poissons Ratio (x) = 0.29351 0.23326
# Poissons Ratio (y) = 0.32492 0.11249
# Poissons Ratio (z) = 0.25968 0.11313
#
# Static dielectric constant tensor:
#      x y z
#    x 1.972000 0.000000 0.024230 
#    y 0.000000 1.937560 0.000000 
#    z 0.024230 0.000000 1.996610 
# 
# From -- ./inp_files/25426.got.cif
#   From: 2010.05.17/outbox.cif.g08.bks.cpg/sg14_13_cif.got.tgz:25426.got - 2010.06.03 17:49:19.
