data_PCOD9250785
_publ_section_title
;
Structure prediction by ZEFSAII (Michael W. Deem and Ramdas Pophale) SiO2 
 PCOD9250785
Probable space group: P 21/C
;
_chemical_formula_sum "Si O2"
_cell_formula_units_Z 16
_cell_length_a 5.254086
_cell_length_b 9.570491
_cell_length_c 11.532034
_cell_angle_alpha 90.000000
_cell_angle_beta 112.382972
_cell_angle_gamma 90.000000
_cell_volume 536.190391
_symmetry_space_group_name_H-M "P 21/C"
_symmetry_group_IT_number 14
_symmetry_cell_setting 'monoclinic'
loop_
_space_group_symop_operation_xyz
x,y,z
-x,1/2+y,1/2-z
-x,-y,-z
x,1/2-y,1/2+z
loop_
_atom_site_type_symbol
_atom_site_label
_atom_site_fract_x
_atom_site_fract_y
_atom_site_fract_z
Si Si1 0.242108 0.045346 0.161033
Si Si2 0.938608 0.651761 0.148008
Si Si3 0.561064 0.652379 0.888116
Si Si4 0.630228 0.210040 0.938586
O O1 0.471100 0.958573 0.277224
O O2 0.253349 0.946166 0.049357
O O3 0.026943 0.063057 0.230168
O O4 0.303030 0.201943 0.129500
O O5 0.698322 0.767991 0.132497
O O6 0.206217 0.718748 0.139091
O O7 0.773734 0.579627 0.013799
O O8 0.320249 0.711577 0.931040
#
# Coordination Sequence:
#
# PCOD9250785 Si02
#       4
#     4   4   4   4
#     4  12  22  48  76 106 144 194 238 294 360 428
#     4  10  25  46  69 106 143 185 235 296 350 422
#     4  10  24  46  72 106 146 186 240 296 356 424
#     4  10  25  46  69 106 143 185 235 296 350 422
#
# _framework density 29.840147000000002
#
# number of rings (size 3 to 8) (size 9 to 14) (size 15 to 20)
#    1.500    0.000    2.500    1.500    0.000    6.000 
#    0.000    0.000    0.000    0.000    0.000    0.000 
#    0.000    0.000    0.000    0.000    0.000    0.000 
#
# Total GULP energy -89411.321459 kJ/mol
# GULP energy per Si atom -5588.207591 kJ/mol
# Density = 2.977223 g / cm^3
# Si number density = 29.840147 Si / 1000 Ang^3
#
#
#
# Elastic Constant Matrix: (Units=GPa)
#
#
# Indices 1 2 3 4 5 6 
#
# 1 166.6264 50.2185 13.4540 0.0000 -43.0378 0.0000
# 2 50.2185 171.2490 39.1221 0.0000 -24.8356 0.0000
# 3 13.4540 39.1221 116.8264 0.0000 -36.8721 0.0000
# 4 0.0000 0.0000 0.0000 57.3153 0.0000 -4.4932
# 5 -43.0378 -24.8356 -36.8721 0.0000 55.9179 0.0000
# 6 0.0000 0.0000 0.0000 -4.4932 0.0000 67.5191
#
#
#
# Elastic Compliance Matrix: (Units=1/GPa)
#
#
# Indices 1 2 3 4 5 6 
#
# 1 0.008112 -0.001824 0.001757 0.000000 0.006592 0.000000
# 2 -0.001824 0.006877 -0.001985 0.000000 0.000341 0.000000
# 3 0.001757 -0.001985 0.011581 0.000000 0.008107 0.000000
# 4 0.000000 0.000000 0.000000 0.017539 0.000000 0.001167
# 5 0.006592 0.000341 0.008107 0.000000 0.028454 0.000000
# 6 0.000000 0.000000 0.000000 0.001167 0.000000 0.014888
#
#
# Mechanical properties :
#
#
# Convention : Reuss Voigt Hill
#
# Bulk Modulus (GPa) = 44.51210 73.36566 58.93888
# Shear Modulus (GPa) = 50.48208 59.61091 55.04650
#
# Velocity S-wave (km/s) = 4.11755 4.47438 4.29967
# Velocity P-wave (km/s) = 6.12820 7.16471 6.66663
#
# Compressibility (1/GPa) = 0.02246580
#
# Stress axis : x y z
#
# Youngs Moduli (GPa) = 123.27414 145.40246 86.34930
#
# Poissons Ratio (x) = 0.26525 -0.15173
# Poissons Ratio (y) = 0.22488 0.17142
# Poissons Ratio (z) = -0.21662 0.28866
#
# Static dielectric constant tensor:
#      x y z
#    x 2.344920 0.000000 0.096930 
#    y 0.000000 2.379970 0.000000 
#    z 0.096930 0.000000 2.527480 
# 
# From -- ./inp_files/20276.got.cif
#   From: 2010.05.17/outbox.cif.g08.bks.cpg/sg14_11_cif.got.tgz:20276.got - 2010.06.03 17:49:19.
