data_PCOD9250312
_publ_section_title
;
Structure prediction by ZEFSAII (Michael W. Deem and Ramdas Pophale) SiO2 
 PCOD9250312
Probable space group: P 21/C
;
_chemical_formula_sum "Si O2"
_cell_formula_units_Z 20
_cell_length_a 19.160850
_cell_length_b 9.997802
_cell_length_c 14.376121
_cell_angle_alpha 90.000000
_cell_angle_beta 19.084515
_cell_angle_gamma 90.000000
_cell_volume 900.448687
_symmetry_space_group_name_H-M "P 21/C"
_symmetry_group_IT_number 14
_symmetry_cell_setting 'monoclinic'
loop_
_space_group_symop_operation_xyz
x,y,z
-x,1/2+y,1/2-z
-x,-y,-z
x,1/2-y,1/2+z
loop_
_atom_site_type_symbol
_atom_site_label
_atom_site_fract_x
_atom_site_fract_y
_atom_site_fract_z
Si Si1 0.999123 0.757150 0.340517
Si Si2 0.802397 0.834561 0.774680
Si Si3 0.471053 0.682386 0.314747
Si Si4 0.789133 0.501645 0.994840
Si Si5 0.736909 0.385585 0.252683
O O1 0.853637 0.753474 0.616018
O O2 0.898199 0.864056 0.397154
O O3 0.234348 0.816454 0.069782
O O4 0.043773 0.607646 0.250391
O O5 0.023941 0.828164 0.552887
O O6 0.766108 0.983511 0.781006
O O7 0.612308 0.784357 0.077945
O O8 0.621011 0.550694 0.129692
O O9 0.421653 0.706302 0.487483
O O10 0.676097 0.430586 0.226228
#
# Coordination Sequence:
#
# PCOD9250312 Si02
#       5
#     4   4   4   4   4
#     4  10  24  41  62  93 127 165 209 256 311 373
#     4   9  19  38  60  86 123 162 203 254 309 369
#     4  11  21  36  62  89 119 160 207 254 306 361
#     4  11  22  40  64  91 126 166 208 257 309 372
#     4   9  19  37  60  86 120 164 208 249 306 376
#
# _framework density 22.211148999999999
#
# number of rings (size 3 to 8) (size 9 to 14) (size 15 to 20)
#    0.000    2.000    0.000    4.200    0.000    4.000 
#    0.000    3.000    0.000    0.000    0.000    0.000 
#    0.000    0.000    0.000    0.000    0.000    0.000 
#
# Total GULP energy -111631.060427 kJ/mol
# GULP energy per Si atom -5581.553021 kJ/mol
# Density = 2.216060 g / cm^3
# Si number density = 22.211149 Si / 1000 Ang^3
#
#
#
# Elastic Constant Matrix: (Units=GPa)
#
#
# Indices 1 2 3 4 5 6 
#
# 1 61.0918 28.9954 24.6782 0.0000 -4.4572 0.0000
# 2 28.9954 47.3272 17.1108 0.0000 5.9080 0.0000
# 3 24.6782 17.1108 118.7626 0.0000 4.2289 0.0000
# 4 0.0000 0.0000 0.0000 44.0265 0.0000 5.4797
# 5 -4.4572 5.9080 4.2289 0.0000 34.7707 0.0000
# 6 0.0000 0.0000 0.0000 5.4797 0.0000 34.9285
#
#
#
# Elastic Compliance Matrix: (Units=1/GPa)
#
#
# Indices 1 2 3 4 5 6 
#
# 1 0.025322 -0.015093 -0.003308 0.000000 0.006213 0.000000
# 2 -0.015093 0.031697 -0.001175 0.000000 -0.007178 0.000000
# 3 -0.003308 -0.001175 0.009325 0.000000 -0.001359 0.000000
# 4 0.000000 0.000000 0.000000 0.023166 0.000000 -0.003634
# 5 0.006213 -0.007178 -0.001359 0.000000 0.030941 0.000000
# 6 0.000000 0.000000 0.000000 -0.003634 0.000000 0.029200
#
#
# Mechanical properties :
#
#
# Convention : Reuss Voigt Hill
#
# Bulk Modulus (GPa) = 36.77627 40.97227 38.87427
# Shear Modulus (GPa) = 25.26926 33.17165 29.22046
#
# Velocity S-wave (km/s) = 3.37662 3.86873 3.63102
# Velocity P-wave (km/s) = 5.63876 6.20023 5.92615
#
# Compressibility (1/GPa) = 0.02719144
#
# Stress axis : x y z
#
# Youngs Moduli (GPa) = 39.49116 31.54843 107.23527
#
# Poissons Ratio (x) = 0.47617 0.35478
# Poissons Ratio (y) = 0.59605 0.12599
# Poissons Ratio (z) = 0.13065 0.03707
#
# Static dielectric constant tensor:
#      x y z
#    x 1.860750 0.000000 -0.023810 
#    y 0.000000 1.855440 0.000000 
#    z -0.023810 0.000000 1.886900 
# 
# From -- ./inp_files/50010.got.cif
#   From: 2010.05.17/outbox.cif.g08.bks.cpg/sg14_26_cif.got.tgz:50010.got - 2010.06.03 17:49:19.
