data_PCOD9250551
_publ_section_title
;
Structure prediction by ZEFSAII (Michael W. Deem and Ramdas Pophale) SiO2 
 PCOD9250551
Probable space group: P 21/C
;
_chemical_formula_sum "Si O2"
_cell_formula_units_Z 20
_cell_length_a 5.246150
_cell_length_b 21.216503
_cell_length_c 8.110417
_cell_angle_alpha 90.000000
_cell_angle_beta 98.546069
_cell_angle_gamma 90.000000
_cell_volume 892.706336
_symmetry_space_group_name_H-M "P 21/C"
_symmetry_group_IT_number 14
_symmetry_cell_setting 'monoclinic'
loop_
_space_group_symop_operation_xyz
x,y,z
-x,1/2+y,1/2-z
-x,-y,-z
x,1/2-y,1/2+z
loop_
_atom_site_type_symbol
_atom_site_label
_atom_site_fract_x
_atom_site_fract_y
_atom_site_fract_z
Si Si1 0.098570 0.074303 0.839915
Si Si2 0.232576 0.942231 0.862686
Si Si3 0.106746 0.884361 0.514066
Si Si4 0.617909 0.674157 0.456383
Si Si5 0.366182 0.191388 0.415926
O O1 0.942973 0.076524 0.655911
O O2 0.934250 0.062017 0.988126
O O3 0.302114 0.016288 0.848901
O O4 0.202482 0.143885 0.887231
O O5 0.083509 0.924789 0.679717
O O6 0.432754 0.885330 0.902814
O O7 0.393409 0.855604 0.536625
O O8 0.883998 0.831339 0.507931
O O9 0.720254 0.690492 0.284078
O O10 0.527682 0.740303 0.521051
#
# Coordination Sequence:
#
# PCOD9250551 Si02
#       5
#     4   4   4   4   4
#     4  11  23  42  71  93 136 178 220 276 333 390
#     4  10  24  44  64 101 132 178 224 273 328 400
#     4  11  25  46  68 103 131 177 220 279 328 400
#     4  11  24  43  66  97 136 173 223 277 327 402
#     4  11  26  43  70  98 137 172 224 273 336 391
#
# _framework density 22.403786
#
# number of rings (size 3 to 8) (size 9 to 14) (size 15 to 20)
#    0.000    1.200    2.000    2.400    8.400    1.600 
#    0.000    3.000    0.000    0.000    0.000    0.000 
#    0.000    0.000    0.000    0.000    0.000    0.000 
#
# Total GULP energy -111529.721982 kJ/mol
# GULP energy per Si atom -5576.486099 kJ/mol
# Density = 2.235279 g / cm^3
# Si number density = 22.403786 Si / 1000 Ang^3
#
#
#
# Elastic Constant Matrix: (Units=GPa)
#
#
# Indices 1 2 3 4 5 6 
#
# 1 40.6198 -0.2435 8.4487 0.0000 0.0559 0.0000
# 2 -0.2435 100.0486 35.0618 0.0000 -6.6050 0.0000
# 3 8.4487 35.0618 174.5774 0.0000 2.3735 0.0000
# 4 0.0000 0.0000 0.0000 110.0796 0.0000 -28.7713
# 5 0.0559 -6.6050 2.3735 0.0000 25.8320 0.0000
# 6 0.0000 0.0000 0.0000 -28.7713 0.0000 38.7490
#
#
#
# Elastic Compliance Matrix: (Units=1/GPa)
#
#
# Indices 1 2 3 4 5 6 
#
# 1 0.024895 0.000535 -0.001315 0.000000 0.000204 0.000000
# 2 0.000535 0.010993 -0.002275 0.000000 0.003019 0.000000
# 3 -0.001315 -0.002275 0.006264 0.000000 -0.001154 0.000000
# 4 0.000000 0.000000 0.000000 0.011272 0.000000 0.008369
# 5 0.000204 0.003019 -0.001154 0.000000 0.039589 0.000000
# 6 0.000000 0.000000 0.000000 0.008369 0.000000 0.032021
#
#
# Mechanical properties :
#
#
# Convention : Reuss Voigt Hill
#
# Bulk Modulus (GPa) = 27.74505 44.64222 36.19364
# Shear Modulus (GPa) = 34.92634 53.06403 43.99518
#
# Velocity S-wave (km/s) = 3.95264 4.87203 4.43622
# Velocity P-wave (km/s) = 5.76559 7.18460 6.51385
#
# Compressibility (1/GPa) = 0.03604247
#
# Stress axis : x y z
#
# Youngs Moduli (GPa) = 40.16877 90.96785 159.63465
#
# Poissons Ratio (x) = -0.04866 0.20992
# Poissons Ratio (y) = -0.02148 0.36312
# Poissons Ratio (z) = 0.05282 0.20693
#
# Static dielectric constant tensor:
#      x y z
#    x 1.919700 0.000000 0.025920 
#    y 0.000000 1.893090 0.000000 
#    z 0.025920 0.000000 1.846990 
# 
# From -- ./inp_files/5530.got.cif
#   From: 2010.05.17/outbox.cif.g08.bks.cpg/sg14_3_cif.got.tgz:5530.got - 2010.06.03 17:49:19.
