data_PCOD9250706
_publ_section_title
;
Structure prediction by ZEFSAII (Michael W. Deem and Ramdas Pophale) SiO2 
 PCOD9250706
Probable space group: P 21/C
;
_chemical_formula_sum "Si O2"
_cell_formula_units_Z 20
_cell_length_a 4.849392
_cell_length_b 16.728338
_cell_length_c 12.368582
_cell_angle_alpha 90.000000
_cell_angle_beta 53.558230
_cell_angle_gamma 90.000000
_cell_volume 807.169933
_symmetry_space_group_name_H-M "P 21/C"
_symmetry_group_IT_number 14
_symmetry_cell_setting 'monoclinic'
loop_
_space_group_symop_operation_xyz
x,y,z
-x,1/2+y,1/2-z
-x,-y,-z
x,1/2-y,1/2+z
loop_
_atom_site_type_symbol
_atom_site_label
_atom_site_fract_x
_atom_site_fract_y
_atom_site_fract_z
Si Si1 0.772562 0.391259 0.981206
Si Si2 0.577507 0.800860 0.614640
Si Si3 0.383359 0.869778 0.060641
Si Si4 0.708685 0.474361 0.217782
Si Si5 0.140138 0.606386 0.384274
O O1 0.476934 0.364845 0.969165
O O2 0.044654 0.318387 0.928273
O O3 0.983815 0.464452 0.879846
O O4 0.656413 0.418476 0.125775
O O5 0.489226 0.715806 0.585168
O O6 0.309055 0.825045 0.770569
O O7 0.225685 0.921191 0.193113
O O8 0.159325 0.868938 0.005226
O O9 0.750451 0.907531 0.941696
O O10 0.373263 0.528702 0.313551
#
# Coordination Sequence:
#
# PCOD9250706 Si02
#       5
#     4   4   4   4   4
#     4  10  24  46  70  97 136 179 226 268 326 405
#     4  11  25  44  67  98 138 175 222 277 333 398
#     4  12  26  40  72  97 139 173 222 276 342 389
#     4  10  24  45  72 100 133 181 224 274 332 395
#     4  11  25  45  65 101 135 172 226 279 328 399
#
# _framework density 24.777927999999999
#
# number of rings (size 3 to 8) (size 9 to 14) (size 15 to 20)
#    0.000    1.200    0.000    4.800    5.600   13.600 
#    0.000    0.000    0.000    0.000    0.000    0.000 
#    0.000    0.000    0.000    0.000    0.000    0.000 
#
# Total GULP energy -112299.040135 kJ/mol
# GULP energy per Si atom -5614.952007 kJ/mol
# Density = 2.472153 g / cm^3
# Si number density = 24.777928 Si / 1000 Ang^3
#
#
#
# Elastic Constant Matrix: (Units=GPa)
#
#
# Indices 1 2 3 4 5 6 
#
# 1 98.8334 6.1291 12.8310 0.0000 7.4971 0.0000
# 2 6.1291 92.2556 46.1661 0.0000 14.4572 0.0000
# 3 12.8310 46.1661 111.3896 0.0000 27.4824 0.0000
# 4 0.0000 0.0000 0.0000 11.0419 0.0000 9.1309
# 5 7.4971 14.4572 27.4824 0.0000 35.0955 0.0000
# 6 0.0000 0.0000 0.0000 9.1309 0.0000 24.4800
#
#
#
# Elastic Compliance Matrix: (Units=1/GPa)
#
#
# Indices 1 2 3 4 5 6 
#
# 1 0.010342 -0.000049 -0.000782 0.000000 -0.001577 0.000000
# 2 -0.000049 0.013738 -0.005323 0.000000 -0.001481 0.000000
# 3 -0.000782 -0.005323 0.013252 0.000000 -0.008017 0.000000
# 4 0.000000 0.000000 0.000000 0.130956 0.000000 -0.048846
# 5 -0.001577 -0.001481 -0.008017 0.000000 0.035719 0.000000
# 6 0.000000 0.000000 0.000000 -0.048846 0.000000 0.059069
#
#
# Mechanical properties :
#
#
# Convention : Reuss Voigt Hill
#
# Bulk Modulus (GPa) = 39.96028 48.08122 44.02075
# Shear Modulus (GPa) = 17.62264 29.94697 23.78480
#
# Velocity S-wave (km/s) = 2.66977 3.48029 3.10162
# Velocity P-wave (km/s) = 5.06616 5.96631 5.53456
#
# Compressibility (1/GPa) = 0.02502485
#
# Stress axis : x y z
#
# Youngs Moduli (GPa) = 96.69117 72.78837 75.46127
#
# Poissons Ratio (x) = 0.00354 0.05902
# Poissons Ratio (y) = 0.00470 0.40169
# Poissons Ratio (z) = 0.07563 0.38746
#
# Static dielectric constant tensor:
#      x y z
#    x 1.882690 0.000000 -0.023410 
#    y 0.000000 1.972730 0.000000 
#    z -0.023410 0.000000 1.929900 
# 
# From -- ./inp_files/21131.got.cif
#   From: 2010.05.17/outbox.cif.g08.bks.cpg/sg14_11_cif.got.tgz:21131.got - 2010.06.03 17:49:19.
