data_PCOD9250485
_publ_section_title
;
Structure prediction by ZEFSAII (Michael W. Deem and Ramdas Pophale) SiO2 
 PCOD9250485
Probable space group: P 21/C
;
_chemical_formula_sum "Si O2"
_cell_formula_units_Z 22
_cell_length_a 18.372637
_cell_length_b 7.005222
_cell_length_c 11.794859
_cell_angle_alpha 90.000000
_cell_angle_beta 143.724350
_cell_angle_gamma 90.000000
_cell_volume 898.185733
_symmetry_space_group_name_H-M "P 21/C"
_symmetry_group_IT_number 14
_symmetry_cell_setting 'monoclinic'
loop_
_space_group_symop_operation_xyz
x,y,z
-x,1/2+y,1/2-z
-x,-y,-z
x,1/2-y,1/2+z
loop_
_atom_site_type_symbol
_atom_site_label
_atom_site_fract_x
_atom_site_fract_y
_atom_site_fract_z
Si Si1 0.844866 0.274291 0.748238
Si Si2 0.940562 0.463770 0.063998
Si Si3 0.620120 0.259177 0.796117
Si Si4 0.866179 0.623279 0.207472
Si Si5 0.399056 0.197823 0.687336
Si Si6 0.500000 0.500000 0.000000
O O1 0.732462 0.292307 0.519667
O O2 0.973111 0.356589 0.857981
O O3 0.857497 0.046592 0.788725
O O4 0.832347 0.413264 0.840680
O O5 0.889536 0.501359 0.122945
O O6 0.028032 0.279858 0.159809
O O7 0.608278 0.485449 0.771532
O O8 0.613895 0.149338 0.670753
O O9 0.506443 0.694910 0.799424
O O10 0.736766 0.730414 0.033638
O O11 0.440118 0.346731 0.832926
#
# Coordination Sequence:
#
# PCOD9250485 Si02
#       6
#     4   4   4   4   4   2
#     4  10  24  43  66  97 135 179 228 287 339 406
#     4  11  22  43  69  98 136 181 227 286 341 400
#     4  11  24  46  69 102 142 181 238 291 355 424
#     4  11  23  45  67 101 136 178 233 277 343 421
#     4  11  25  46  70 105 141 179 237 286 355 420
#     4  12  24  46  72  98 138 194 224 294 350 416
#
# _framework density 24.493818000000001
#
# number of rings (size 3 to 8) (size 9 to 14) (size 15 to 20)
#    0.000    1.091    3.636    2.182    0.000    4.364 
#    6.545    0.000    0.000    0.000    0.000    0.000 
#    0.000    0.000    0.000    0.000    0.000    0.000 
#
# Total GULP energy -122549.472094 kJ/mol
# GULP energy per Si atom -5570.430550 kJ/mol
# Density = 2.443807 g / cm^3
# Si number density = 24.493818 Si / 1000 Ang^3
#
#
#
# Elastic Constant Matrix: (Units=GPa)
#
#
# Indices 1 2 3 4 5 6 
#
# 1 45.3031 11.9121 22.6469 0.0000 18.9722 0.0000
# 2 11.9121 129.1226 41.7878 0.0000 -0.9513 0.0000
# 3 22.6469 41.7878 130.4969 0.0000 14.1807 0.0000
# 4 0.0000 0.0000 0.0000 -50.5720 0.0000 -2.7016
# 5 18.9722 -0.9513 14.1807 0.0000 22.1913 0.0000
# 6 0.0000 0.0000 0.0000 -2.7016 0.0000 23.0406
#
#
#
# Elastic Compliance Matrix: (Units=1/GPa)
#
#
# Indices 1 2 3 4 5 6 
#
# 1 0.036424 -0.002885 -0.002149 0.000000 -0.029891 0.000000
# 2 -0.002885 0.008979 -0.002885 0.000000 0.004695 0.000000
# 3 -0.002149 -0.002885 0.009428 0.000000 -0.004311 0.000000
# 4 0.000000 0.000000 0.000000 -0.019651 0.000000 -0.002304
# 5 -0.029891 0.004695 -0.004311 0.000000 0.073573 0.000000
# 6 0.000000 0.000000 0.000000 -0.002304 0.000000 0.043131
#
#
# Mechanical properties :
#
#
# Convention : Reuss Voigt Hill
#
# Bulk Modulus (GPa) = 25.64534 50.84623 38.24578
# Shear Modulus (GPa) = 27.66698 14.17037 20.91868
#
# Velocity S-wave (km/s) = 3.36452 2.40787 2.92556
# Velocity P-wave (km/s) = 5.05828 5.34175 5.20195
#
# Compressibility (1/GPa) = 0.03899345
#
# Stress axis : x y z
#
# Youngs Moduli (GPa) = 27.45431 111.37229 106.06459
#
# Poissons Ratio (x) = 0.32130 0.22796
# Poissons Ratio (y) = 0.07920 0.30597
# Poissons Ratio (z) = 0.05901 0.32128
#
# Static dielectric constant tensor:
#      x y z
#    x 2.025840 0.000000 -0.047480 
#    y 0.000000 1.965460 0.000000 
#    z -0.047480 0.000000 1.946580 
# 
# From -- ./inp_files/50840.got.cif
#   From: 2010.05.17/outbox.cif.g08.bks.cpg/sg14_26_cif.got.tgz:50840.got - 2010.06.03 17:49:19.
