data_PCOD9250427
_publ_section_title
;
Structure prediction by ZEFSAII (Michael W. Deem and Ramdas Pophale) SiO2 
 PCOD9250427
Probable space group: P 21/C
;
_chemical_formula_sum "Si O2"
_cell_formula_units_Z 32
_cell_length_a 30.583414
_cell_length_b 5.185821
_cell_length_c 8.952777
_cell_angle_alpha 90.000000
_cell_angle_beta 72.622397
_cell_angle_gamma 90.000000
_cell_volume 1355.102620
_symmetry_space_group_name_H-M "P 21/C"
_symmetry_group_IT_number 14
_symmetry_cell_setting 'monoclinic'
loop_
_space_group_symop_operation_xyz
x,y,z
-x,1/2+y,1/2-z
-x,-y,-z
x,1/2-y,1/2+z
loop_
_atom_site_type_symbol
_atom_site_label
_atom_site_fract_x
_atom_site_fract_y
_atom_site_fract_z
Si Si1 0.974521 0.208457 0.128274
Si Si2 0.662838 0.775542 0.705479
Si Si3 0.483988 0.595069 0.352796
Si Si4 0.619668 0.063459 0.989260
Si Si5 0.701960 0.069462 0.400013
Si Si6 0.195093 0.887066 0.725842
Si Si7 0.835066 0.888535 0.567258
Si Si8 0.063872 0.435921 0.088703
O O1 0.932627 0.126432 0.275512
O O2 0.018520 0.282191 0.183895
O O3 0.953429 0.422023 0.041571
O O4 0.000000 0.000000 0.000000
O O5 0.642138 0.578833 0.607173
O O6 0.698619 0.665020 0.787837
O O7 0.620042 0.876116 0.846206
O O8 0.690544 0.979657 0.578460
O O9 0.508886 0.850251 0.264745
O O10 0.500000 0.500000 0.500000
O O11 0.430146 0.661800 0.420468
O O12 0.657317 0.269289 0.902753
O O13 0.751400 0.192769 0.337907
O O14 0.169215 0.632324 0.814076
O O15 0.181570 0.999165 0.576042
O O16 0.189149 0.131661 0.844319
O O17 0.888310 0.806647 0.492297
#
# Coordination Sequence:
#
# PCOD9250427 Si02
#       8
#     4   4   4   4   4   4   4   4
#     4  11  23  42  66 101 134 178 239 288 350 412
#     4  10  24  42  70 106 136 183 236 304 351 427
#     4  12  29  49  76 108 155 198 246 300 369 449
#     4  11  25  43  74 103 143 188 240 298 361 425
#     4  11  25  43  75 100 144 180 250 295 363 423
#     4  12  29  50  75 109 147 199 244 308 369 448
#     4  12  29  49  76 107 154 195 246 298 383 443
#     4  11  25  41  72  98 139 183 234 296 351 433
#
# _framework density 23.614446999999998
#
# number of rings (size 3 to 8) (size 9 to 14) (size 15 to 20)
#    0.000    0.750    1.250    4.125   17.500    0.000 
#    0.000    0.000    0.000    0.000    0.000    0.000 
#    0.000    0.000    0.000    0.000    0.000    0.000 
#
# Total GULP energy -178857.043948 kJ/mol
# GULP energy per Si atom -5589.282623 kJ/mol
# Density = 2.356070 g / cm^3
# Si number density = 23.614447 Si / 1000 Ang^3
#
#
#
# Elastic Constant Matrix: (Units=GPa)
#
#
# Indices 1 2 3 4 5 6 
#
# 1 89.2662 3.4721 23.6574 0.0000 -31.9093 0.0000
# 2 3.4721 66.5506 19.6065 0.0000 -5.9472 0.0000
# 3 23.6574 19.6065 113.7681 0.0000 2.7302 0.0000
# 4 0.0000 0.0000 0.0000 47.4406 0.0000 1.7475
# 5 -31.9093 -5.9472 2.7302 0.0000 30.3220 0.0000
# 6 0.0000 0.0000 0.0000 1.7475 0.0000 28.3440
#
#
#
# Elastic Compliance Matrix: (Units=1/GPa)
#
#
# Indices 1 2 3 4 5 6 
#
# 1 0.020586 0.002496 -0.005254 0.000000 0.022626 0.000000
# 2 0.002496 0.016481 -0.003507 0.000000 0.006175 0.000000
# 3 -0.005254 -0.003507 0.010659 0.000000 -0.007176 0.000000
# 4 0.000000 0.000000 0.000000 0.021127 0.000000 -0.001303
# 5 0.022626 0.006175 -0.007176 0.000000 0.058647 0.000000
# 6 0.000000 0.000000 0.000000 -0.001303 0.000000 0.035361
#
#
# Mechanical properties :
#
#
# Convention : Reuss Voigt Hill
#
# Bulk Modulus (GPa) = 28.41336 40.33967 34.37651
# Shear Modulus (GPa) = 26.72040 36.07792 31.39916
#
# Velocity S-wave (km/s) = 3.36747 3.91294 3.65040
# Velocity P-wave (km/s) = 5.21326 6.12654 5.68826
#
# Compressibility (1/GPa) = 0.03519472
#
# Stress axis : x y z
#
# Youngs Moduli (GPa) = 48.57772 60.67564 93.81770
#
# Poissons Ratio (x) = -0.15143 0.49289
# Poissons Ratio (y) = -0.12124 0.32906
# Poissons Ratio (z) = 0.25521 0.21282
#
# Static dielectric constant tensor:
#      x y z
#    x 1.918400 0.000000 -0.002930 
#    y 0.000000 2.393060 0.000000 
#    z -0.002930 0.000000 1.931140 
# 
# From -- ./inp_files/19891.got.cif
#   From: 2010.05.17/outbox.cif.g08.bks.cpg/sg14_10_cif.got.tgz:19891.got - 2010.06.03 17:49:19.
