data_PCOD9250261
_publ_section_title
;
Structure prediction by ZEFSAII (Michael W. Deem and Ramdas Pophale) SiO2 
 PCOD9250261
Probable space group: P 21/C
;
_chemical_formula_sum "Si O2"
_cell_formula_units_Z 26
_cell_length_a 8.349177
_cell_length_b 21.013939
_cell_length_c 11.533751
_cell_angle_alpha 90.000000
_cell_angle_beta 36.545144
_cell_angle_gamma 90.000000
_cell_volume 1204.956477
_symmetry_space_group_name_H-M "P 21/C"
_symmetry_group_IT_number 14
_symmetry_cell_setting 'monoclinic'
loop_
_space_group_symop_operation_xyz
x,y,z
-x,1/2+y,1/2-z
-x,-y,-z
x,1/2-y,1/2+z
loop_
_atom_site_type_symbol
_atom_site_label
_atom_site_fract_x
_atom_site_fract_y
_atom_site_fract_z
Si Si1 0.877479 0.931983 0.609441
Si Si2 0.273876 0.613644 0.073047
Si Si3 0.797955 0.296253 0.672932
Si Si4 0.816785 0.687348 0.989821
Si Si5 0.019173 0.492304 0.626436
Si Si6 0.500000 0.000000 0.000000
Si Si7 0.104006 0.131509 0.795482
O O1 0.812717 0.883716 0.544326
O O2 0.619446 0.950846 0.833915
O O3 0.089310 0.896504 0.569216
O O4 0.000000 0.000000 0.500000
O O5 0.196318 0.671791 0.202748
O O6 0.217790 0.551485 0.185581
O O7 0.583010 0.620675 0.857360
O O8 0.972051 0.232587 0.570539
O O9 0.932079 0.344393 0.503312
O O10 0.485311 0.286099 0.825460
O O11 0.901409 0.680838 0.806787
O O12 0.298132 0.467333 0.516664
O O13 0.000000 0.500000 0.500000
O O14 0.000702 0.563442 0.688440
#
# Coordination Sequence:
#
# PCOD9250261 Si02
#       7
#     4   4   4   4   4   2   4
#     4  11  25  44  71 107 140 184 239 302 363 430
#     4  10  24  42  68 105 135 181 236 282 368 424
#     4  11  26  47  68 101 138 187 239 292 355 440
#     4  11  27  46  72 101 142 186 242 291 363 440
#     4  11  21  41  69  99 141 182 228 300 352 432
#     4  10  24  40  62 104 138 178 230 290 366 420
#     4  11  24  44  70  97 137 183 231 294 356 421
#
# _framework density 21.577544
#
# number of rings (size 3 to 8) (size 9 to 14) (size 15 to 20)
#    0.000    1.231    1.538    3.231    8.615    1.231 
#    5.538    0.000    0.000    0.000    0.000    0.000 
#    0.000    0.000    0.000    0.000    0.000    0.000 
#
# Total GULP energy -144819.329677 kJ/mol
# GULP energy per Si atom -5569.974218 kJ/mol
# Density = 2.152843 g / cm^3
# Si number density = 21.577544 Si / 1000 Ang^3
#
#
#
# Elastic Constant Matrix: (Units=GPa)
#
#
# Indices 1 2 3 4 5 6 
#
# 1 79.8300 13.9447 36.7371 0.0000 -0.0228 0.0000
# 2 13.9447 82.6480 21.5139 0.0000 -17.1683 0.0000
# 3 36.7371 21.5139 79.1077 0.0000 0.2475 0.0000
# 4 0.0000 0.0000 0.0000 16.8064 0.0000 -6.6194
# 5 -0.0228 -17.1683 0.2475 0.0000 19.0345 0.0000
# 6 0.0000 0.0000 0.0000 -6.6194 0.0000 32.5374
#
#
#
# Elastic Compliance Matrix: (Units=1/GPa)
#
#
# Indices 1 2 3 4 5 6 
#
# 1 0.015993 -0.001001 -0.007152 0.000000 -0.000790 0.000000
# 2 -0.001001 0.016405 -0.004043 0.000000 0.014848 0.000000
# 3 -0.007152 -0.004043 0.017074 0.000000 -0.003877 0.000000
# 4 0.000000 0.000000 0.000000 0.064684 0.000000 0.013159
# 5 -0.000790 0.014848 -0.003877 0.000000 0.065978 0.000000
# 6 0.000000 0.000000 0.000000 0.013159 0.000000 0.033411
#
#
# Mechanical properties :
#
#
# Convention : Reuss Voigt Hill
#
# Bulk Modulus (GPa) = 39.87311 42.88635 41.37973
# Shear Modulus (GPa) = 20.30067 24.96833 22.63450
#
# Velocity S-wave (km/s) = 3.07061 3.40537 3.24232
# Velocity P-wave (km/s) = 5.57590 5.94817 5.76504
#
# Compressibility (1/GPa) = 0.02507956
#
# Stress axis : x y z
#
# Youngs Moduli (GPa) = 62.52898 60.95622 58.56812
#
# Poissons Ratio (x) = 0.06100 0.41889
# Poissons Ratio (y) = 0.06258 0.23680
# Poissons Ratio (z) = 0.44722 0.24646
#
# Static dielectric constant tensor:
#      x y z
#    x 1.835810 0.000000 -0.009200 
#    y 0.000000 1.799120 0.000000 
#    z -0.009200 0.000000 1.801280 
# 
# From -- ./inp_files/26562.got.cif
#   From: 2010.05.17/outbox.cif.g08.bks.cpg/sg14_14_cif.got.tgz:26562.got - 2010.06.03 17:49:19.
