data_PCOD9250331
_publ_section_title
;
Structure prediction by ZEFSAII (Michael W. Deem and Ramdas Pophale) SiO2 
 PCOD9250331
Probable space group: P 21/C
;
_chemical_formula_sum "Si O2"
_cell_formula_units_Z 20
_cell_length_a 11.467472
_cell_length_b 10.299640
_cell_length_c 10.043967
_cell_angle_alpha 90.000000
_cell_angle_beta 132.340944
_cell_angle_gamma 90.000000
_cell_volume 876.854575
_symmetry_space_group_name_H-M "P 21/C"
_symmetry_group_IT_number 14
_symmetry_cell_setting 'monoclinic'
loop_
_space_group_symop_operation_xyz
x,y,z
-x,1/2+y,1/2-z
-x,-y,-z
x,1/2-y,1/2+z
loop_
_atom_site_type_symbol
_atom_site_label
_atom_site_fract_x
_atom_site_fract_y
_atom_site_fract_z
Si Si1 0.957078 0.288634 0.880007
Si Si2 0.774482 0.535075 0.769871
Si Si3 0.765639 0.669495 0.509016
Si Si4 0.256331 0.541080 0.728197
Si Si5 0.388631 0.430530 0.100653
O O1 0.842665 0.405641 0.755666
O O2 0.854080 0.168187 0.855197
O O3 0.062954 0.235474 0.840391
O O4 0.085745 0.367647 0.070191
O O5 0.696141 0.609940 0.588780
O O6 0.665586 0.493641 0.809308
O O7 0.799593 0.569534 0.416787
O O8 0.648993 0.784389 0.382082
O O9 0.432970 0.566456 0.810102
O O10 0.280952 0.480747 0.894985
#
# Coordination Sequence:
#
# PCOD9250331 Si02
#       5
#     4   4   4   4   4
#     4  10  24  41  67  98 133 170 215 270 332 393
#     4  10  24  43  68  98 134 168 220 274 323 392
#     4  11  24  43  67  98 130 172 222 281 324 390
#     4  11  25  43  71  92 136 180 216 267 341 391
#     4  10  24  46  63  99 135 174 221 274 322 400
#
# _framework density 22.808800999999999
#
# number of rings (size 3 to 8) (size 9 to 14) (size 15 to 20)
#    0.000    1.600    0.000    3.000   14.000    0.800 
#    3.600    0.000    0.000    0.000    0.000    0.000 
#    0.000    0.000    0.000    0.000    0.000    0.000 
#
# Total GULP energy -111557.146727 kJ/mol
# GULP energy per Si atom -5577.857336 kJ/mol
# Density = 2.275689 g / cm^3
# Si number density = 22.808801 Si / 1000 Ang^3
#
#
#
# Elastic Constant Matrix: (Units=GPa)
#
#
# Indices 1 2 3 4 5 6 
#
# 1 114.4026 24.7601 26.8281 0.0000 -8.9403 0.0000
# 2 24.7601 92.8931 12.4633 0.0000 9.9133 0.0000
# 3 26.8281 12.4633 31.9990 0.0000 -1.5134 0.0000
# 4 0.0000 0.0000 0.0000 -1.3871 0.0000 -1.8554
# 5 -8.9403 9.9133 -1.5134 0.0000 31.4056 0.0000
# 6 0.0000 0.0000 0.0000 -1.8554 0.0000 41.4861
#
#
#
# Elastic Compliance Matrix: (Units=1/GPa)
#
#
# Indices 1 2 3 4 5 6 
#
# 1 0.011539 -0.002305 -0.008607 0.000000 0.003598 0.000000
# 2 -0.002305 0.012292 -0.003077 0.000000 -0.004684 0.000000
# 3 -0.008607 -0.003077 0.039686 0.000000 0.000433 0.000000
# 4 0.000000 0.000000 0.000000 -0.680232 0.000000 -0.030422
# 5 0.003598 -0.004684 0.000433 0.000000 0.034365 0.000000
# 6 0.000000 0.000000 0.000000 -0.030422 0.000000 0.022744
#
#
# Mechanical properties :
#
#
# Convention : Reuss Voigt Hill
#
# Bulk Modulus (GPa) = 28.13698 40.82196 34.47947
# Shear Modulus (GPa) = -9.61941 25.98379 8.18219
#
# Velocity S-wave (km/s) = -2.05586 3.37887 1.89607
# Velocity P-wave (km/s) = 2.59372 5.75835 4.46576
#
# Compressibility (1/GPa) = 0.03554042
#
# Stress axis : x y z
#
# Youngs Moduli (GPa) = 86.65952 81.35274 25.19793
#
# Poissons Ratio (x) = 0.18751 0.21687
# Poissons Ratio (y) = 0.19975 0.07753
# Poissons Ratio (z) = 0.74586 0.25030
#
# Static dielectric constant tensor:
#      x y z
#    x 1.836280 0.000000 0.043940 
#    y 0.000000 1.847110 0.000000 
#    z 0.043940 0.000000 1.867610 
# 
# From -- ./inp_files/27870.got.cif
#   From: 2010.05.17/outbox.cif.g08.bks.cpg/sg14_14_cif.got.tgz:27870.got - 2010.06.03 17:49:19.
