data_PCOD9250691
_publ_section_title
;
Structure prediction by ZEFSAII (Michael W. Deem and Ramdas Pophale) SiO2 
 PCOD9250691
Probable space group: P 21/C
;
_chemical_formula_sum "Si O2"
_cell_formula_units_Z 22
_cell_length_a 14.656611
_cell_length_b 7.395548
_cell_length_c 25.802580
_cell_angle_alpha 90.000000
_cell_angle_beta 162.551540
_cell_angle_gamma 90.000000
_cell_volume 838.625138
_symmetry_space_group_name_H-M "P 21/C"
_symmetry_group_IT_number 14
_symmetry_cell_setting 'monoclinic'
loop_
_space_group_symop_operation_xyz
x,y,z
-x,1/2+y,1/2-z
-x,-y,-z
x,1/2-y,1/2+z
loop_
_atom_site_type_symbol
_atom_site_label
_atom_site_fract_x
_atom_site_fract_y
_atom_site_fract_z
Si Si1 0.896371 0.709268 0.446855
Si Si2 0.754470 0.110761 0.667974
Si Si3 0.500000 0.500000 0.500000
Si Si4 0.717766 0.155786 0.429768
Si Si5 0.648701 0.449289 0.479981
Si Si6 0.612300 0.306946 0.206302
O O1 0.982082 0.817499 0.441173
O O2 0.095632 0.760953 0.603702
O O3 0.000000 0.500000 0.500000
O O4 0.534875 0.720008 0.249874
O O5 0.689608 0.317137 0.619927
O O6 0.719117 0.099646 0.710709
O O7 0.500000 0.000000 0.500000
O O8 0.093601 0.033925 0.840180
O O9 0.402796 0.401387 0.390198
O O10 0.726963 0.287438 0.484353
O O11 0.595904 0.961043 0.380603
O O12 0.568624 0.625047 0.403742
#
# Coordination Sequence:
#
# PCOD9250691 Si02
#       6
#     4   4   2   4   4   4
#     4  10  24  45  70 109 147 189 245 299 367 450
#     4  11  25  46  71  99 144 188 243 305 361 439
#     4  10  26  44  66 106 134 186 236 298 374 422
#     4  11  24  46  74 100 150 192 238 307 367 438
#     4  11  25  43  72 101 138 187 243 300 364 442
#     4  10  25  43  67 106 141 186 245 295 365 441
#
# _framework density 26.233415000000001
#
# number of rings (size 3 to 8) (size 9 to 14) (size 15 to 20)
#    0.000    1.455    0.000    3.273   12.727    5.091 
#    0.000    0.000    0.000    0.000    0.000    0.000 
#    0.000    0.000    0.000    0.000    0.000    0.000 
#
# Total GULP energy -122720.733565 kJ/mol
# GULP energy per Si atom -5578.215162 kJ/mol
# Density = 2.617371 g / cm^3
# Si number density = 26.233415 Si / 1000 Ang^3
#
#
#
# Elastic Constant Matrix: (Units=GPa)
#
#
# Indices 1 2 3 4 5 6 
#
# 1 85.4963 34.8633 -11.0101 0.0000 -35.2198 0.0000
# 2 34.8633 115.0044 31.5409 0.0000 -17.3392 0.0000
# 3 -11.0101 31.5409 93.1439 0.0000 -17.2061 0.0000
# 4 0.0000 0.0000 0.0000 45.8413 0.0000 -11.3061
# 5 -35.2198 -17.3392 -17.2061 0.0000 34.1170 0.0000
# 6 0.0000 0.0000 0.0000 -11.3061 0.0000 46.2372
#
#
#
# Elastic Compliance Matrix: (Units=1/GPa)
#
#
# Indices 1 2 3 4 5 6 
#
# 1 0.030098 -0.007440 0.012261 0.000000 0.033473 0.000000
# 2 -0.007440 0.011835 -0.005728 0.000000 -0.004555 0.000000
# 3 0.012261 -0.005728 0.017561 0.000000 0.018602 0.000000
# 4 0.000000 0.000000 0.000000 0.023214 0.000000 0.005677
# 5 0.033473 -0.004555 0.018602 0.000000 0.070933 0.000000
# 6 0.000000 0.000000 0.000000 0.005677 0.000000 0.023016
#
#
# Mechanical properties :
#
#
# Convention : Reuss Voigt Hill
#
# Bulk Modulus (GPa) = 17.33733 44.93701 31.13717
# Shear Modulus (GPa) = 25.29082 41.12247 33.20665
#
# Velocity S-wave (km/s) = 3.10831 3.96354 3.56169
# Velocity P-wave (km/s) = 4.41649 6.17358 5.36742
#
# Compressibility (1/GPa) = 0.05767901
#
# Stress axis : x y z
#
# Youngs Moduli (GPa) = 33.22441 84.49417 56.94289
#
# Poissons Ratio (x) = 0.62864 -0.69815
# Poissons Ratio (y) = 0.24719 0.32620
# Poissons Ratio (z) = -0.40735 0.48402
#
# Static dielectric constant tensor:
#      x y z
#    x 1.979500 0.000000 -0.047400 
#    y 0.000000 1.956980 0.000000 
#    z -0.047400 0.000000 2.064200 
# 
# From -- ./inp_files/73802.got.cif
#   From: 2010.05.17/outbox.cif.g08.bks.cpg/sg14_37_cif.got.tgz:73802.got - 2010.06.03 17:49:19.
