data_PCOD9250081
_publ_section_title
;
Structure prediction by ZEFSAII (Michael W. Deem and Ramdas Pophale) SiO2 
 PCOD9250081
Probable space group: P 21/C
;
_chemical_formula_sum "Si O2"
_cell_formula_units_Z 28
_cell_length_a 8.945421
_cell_length_b 11.030883
_cell_length_c 13.960664
_cell_angle_alpha 90.000000
_cell_angle_beta 125.132115
_cell_angle_gamma 90.000000
_cell_volume 1126.623321
_symmetry_space_group_name_H-M "P 21/C"
_symmetry_group_IT_number 14
_symmetry_cell_setting 'monoclinic'
loop_
_space_group_symop_operation_xyz
x,y,z
-x,1/2+y,1/2-z
-x,-y,-z
x,1/2-y,1/2+z
loop_
_atom_site_type_symbol
_atom_site_label
_atom_site_fract_x
_atom_site_fract_y
_atom_site_fract_z
Si Si1 0.353886 0.646950 0.595831
Si Si2 0.021912 0.724570 0.216634
Si Si3 0.135685 0.636553 0.070560
Si Si4 0.861393 0.776071 0.853886
Si Si5 0.795738 0.913921 0.017527
Si Si6 0.553896 0.253453 0.564167
Si Si7 0.404151 0.414743 0.162066
O O1 0.258337 0.743815 0.628596
O O2 0.227722 0.557452 0.486146
O O3 0.451138 0.730713 0.552227
O O4 0.446574 0.552478 0.703253
O O5 0.015732 0.634591 0.122762
O O6 0.234161 0.732600 0.326425
O O7 0.896547 0.684254 0.259409
O O8 0.930540 0.849578 0.143541
O O9 0.257990 0.520443 0.100534
O O10 0.016039 0.674952 0.935595
O O11 0.869719 0.875050 0.940578
O O12 0.679993 0.701389 0.812593
O O13 0.594089 0.855204 0.958612
O O14 0.480406 0.132411 0.589469
#
# Coordination Sequence:
#
# PCOD9250081 Si02
#       7
#     4   4   4   4   4   4   4
#     4  12  24  45  74 106 144 185 243 302 360 437
#     4  11  22  45  69 109 144 190 244 300 367 429
#     4  11  24  45  70 102 150 183 241 304 360 434
#     4  10  23  46  70 103 146 189 246 298 370 431
#     4  10  25  44  74 110 144 191 246 304 360 440
#     4  11  23  46  72 107 146 189 249 290 365 435
#     4  11  25  46  73 103 144 196 236 304 367 430
#
# _framework density 24.853024999999999
#
# number of rings (size 3 to 8) (size 9 to 14) (size 15 to 20)
#    0.000    1.143    2.857    2.571    2.000    4.000 
#    2.571    0.000    0.000    0.000    0.000    0.000 
#    0.000    0.000    0.000    0.000    0.000    0.000 
#
# Total GULP energy -156422.160687 kJ/mol
# GULP energy per Si atom -5586.505739 kJ/mol
# Density = 2.479646 g / cm^3
# Si number density = 24.853025 Si / 1000 Ang^3
#
#
#
# Elastic Constant Matrix: (Units=GPa)
#
#
# Indices 1 2 3 4 5 6 
#
# 1 112.9217 24.2650 35.5925 0.0000 -19.6221 0.0000
# 2 24.2650 74.6689 38.3273 0.0000 -6.2410 0.0000
# 3 35.5925 38.3273 92.4986 0.0000 -18.3219 0.0000
# 4 0.0000 0.0000 0.0000 26.0459 0.0000 11.5649
# 5 -19.6221 -6.2410 -18.3219 0.0000 51.8622 0.0000
# 6 0.0000 0.0000 0.0000 11.5649 0.0000 29.2768
#
#
#
# Elastic Compliance Matrix: (Units=1/GPa)
#
#
# Indices 1 2 3 4 5 6 
#
# 1 0.010605 -0.001782 -0.002785 0.000000 0.002814 0.000000
# 2 -0.001782 0.017321 -0.006679 0.000000 -0.000949 0.000000
# 3 -0.002785 -0.006679 0.015357 0.000000 0.003568 0.000000
# 4 0.000000 0.000000 0.000000 0.046560 0.000000 -0.018392
# 5 0.002814 -0.000949 0.003568 0.000000 0.021493 0.000000
# 6 0.000000 0.000000 0.000000 -0.018392 0.000000 0.041422
#
#
# Mechanical properties :
#
#
# Convention : Reuss Voigt Hill
#
# Bulk Modulus (GPa) = 48.09854 52.93988 50.51921
# Shear Modulus (GPa) = 27.44523 33.56391 30.50457
#
# Velocity S-wave (km/s) = 3.32671 3.67890 3.50723
# Velocity P-wave (km/s) = 5.84390 6.27639 6.06401
#
# Compressibility (1/GPa) = 0.02079065
#
# Stress axis : x y z
#
# Youngs Moduli (GPa) = 94.29125 57.73481 65.11666
#
# Poissons Ratio (x) = 0.10286 0.18137
# Poissons Ratio (y) = 0.16798 0.43494
# Poissons Ratio (z) = 0.26262 0.38564
#
# Static dielectric constant tensor:
#      x y z
#    x 2.061650 0.000000 0.117310 
#    y 0.000000 1.972500 0.000000 
#    z 0.117310 0.000000 2.054770 
# 
# From -- ./inp_files/40160.got.cif
#   From: 2010.05.17/outbox.cif.g08.bks.cpg/sg14_21_cif.got.tgz:40160.got - 2010.06.03 17:49:19.
