data_PCOD9250633
_publ_section_title
;
Structure prediction by ZEFSAII (Michael W. Deem and Ramdas Pophale) SiO2 
 PCOD9250633
Probable space group: P 21/C
;
_chemical_formula_sum "Si O2"
_cell_formula_units_Z 26
_cell_length_a 11.230586
_cell_length_b 8.304618
_cell_length_c 22.530764
_cell_angle_alpha 90.000000
_cell_angle_beta 149.769695
_cell_angle_gamma 90.000000
_cell_volume 1057.980447
_symmetry_space_group_name_H-M "P 21/C"
_symmetry_group_IT_number 14
_symmetry_cell_setting 'monoclinic'
loop_
_space_group_symop_operation_xyz
x,y,z
-x,1/2+y,1/2-z
-x,-y,-z
x,1/2-y,1/2+z
loop_
_atom_site_type_symbol
_atom_site_label
_atom_site_fract_x
_atom_site_fract_y
_atom_site_fract_z
Si Si1 0.354249 0.618711 0.048099
Si Si2 0.839372 0.873216 0.111395
Si Si3 0.962342 0.514525 0.182764
Si Si4 0.284983 0.942006 0.228027
Si Si5 0.350285 0.200069 0.157895
Si Si6 0.000000 0.000000 0.500000
Si Si7 0.482319 0.482628 0.374072
O O1 0.218265 0.604563 0.927269
O O2 0.166374 0.584098 0.019284
O O3 0.551890 0.480689 0.144251
O O4 0.469763 0.793689 0.102394
O O5 0.839825 0.687279 0.129132
O O6 0.028078 0.898054 0.139771
O O7 0.944696 0.966342 0.212932
O O8 0.592339 0.934897 0.979714
O O9 0.204530 0.518713 0.248574
O O10 0.404185 0.800707 0.240502
O O11 0.298171 0.105111 0.195586
O O12 0.384432 0.063297 0.123509
O O13 0.155539 0.333406 0.061462
#
# Coordination Sequence:
#
# PCOD9250633 Si02
#       7
#     4   4   4   4   4   2   4
#     4  11  27  45  76 107 152 193 252 305 379 442
#     4  12  27  49  75 108 150 199 254 305 377 439
#     4  12  29  50  76 107 151 199 251 314 364 455
#     4  11  25  46  76 113 146 199 243 311 377 449
#     4  11  24  44  75 110 153 190 249 311 377 449
#     4  10  24  44  72 110 148 196 246 304 370 446
#     4  12  27  49  76 111 147 200 247 314 376 451
#
# _framework density 24.575123999999999
#
# number of rings (size 3 to 8) (size 9 to 14) (size 15 to 20)
#    0.000    0.615    1.538    5.077   10.769    6.769 
#    0.000    0.000    0.000    0.000    0.000    0.000 
#    0.000    0.000    0.000    0.000    0.000    0.000 
#
# Total GULP energy -145275.765410 kJ/mol
# GULP energy per Si atom -5587.529439 kJ/mol
# Density = 2.451919 g / cm^3
# Si number density = 24.575124 Si / 1000 Ang^3
#
#
#
# Elastic Constant Matrix: (Units=GPa)
#
#
# Indices 1 2 3 4 5 6 
#
# 1 28.5102 11.3867 3.3849 0.0000 6.2538 0.0000
# 2 11.3867 90.4287 5.4526 0.0000 -22.8007 0.0000
# 3 3.3849 5.4526 66.6968 0.0000 -17.7771 0.0000
# 4 0.0000 0.0000 0.0000 35.6429 0.0000 -9.5114
# 5 6.2538 -22.8007 -17.7771 0.0000 32.6083 0.0000
# 6 0.0000 0.0000 0.0000 -9.5114 0.0000 32.8741
#
#
#
# Elastic Compliance Matrix: (Units=1/GPa)
#
#
# Indices 1 2 3 4 5 6 
#
# 1 0.043932 -0.009899 -0.006448 0.000000 -0.018862 0.000000
# 2 -0.009899 0.015812 0.003115 0.000000 0.014653 0.000000
# 3 -0.006448 0.003115 0.018692 0.000000 0.013605 0.000000
# 4 0.000000 0.000000 0.000000 0.030403 0.000000 0.008797
# 5 -0.018862 0.014653 0.013605 0.000000 0.051947 0.000000
# 6 0.000000 0.000000 0.000000 0.008797 0.000000 0.032964
#
#
# Mechanical properties :
#
#
# Convention : Reuss Voigt Hill
#
# Bulk Modulus (GPa) = 19.24103 25.12048 22.18075
# Shear Modulus (GPa) = 21.04933 31.25249 26.15091
#
# Velocity S-wave (km/s) = 2.92983 3.56998 3.26563
# Velocity P-wave (km/s) = 4.39223 5.21892 4.82332
#
# Compressibility (1/GPa) = 0.05197228
#
# Stress axis : x y z
#
# Youngs Moduli (GPa) = 22.76263 63.24471 53.49870
#
# Poissons Ratio (x) = 0.62606 0.34495
# Poissons Ratio (y) = 0.22533 -0.16666
# Poissons Ratio (z) = 0.14677 -0.19702
#
# Static dielectric constant tensor:
#      x y z
#    x 1.966180 0.000000 -0.038540 
#    y 0.000000 1.879010 0.000000 
#    z -0.038540 0.000000 1.977400 
# 
# From -- ./inp_files/73184.got.cif
#   From: 2010.05.17/outbox.cif.g08.bks.cpg/sg14_37_cif.got.tgz:73184.got - 2010.06.03 17:49:19.
