data_PCOD9250281
_publ_section_title
;
Structure prediction by ZEFSAII (Michael W. Deem and Ramdas Pophale) SiO2 
 PCOD9250281
Probable space group: P 21/C
;
_chemical_formula_sum "Si O2"
_cell_formula_units_Z 30
_cell_length_a 27.787648
_cell_length_b 8.469377
_cell_length_c 11.644501
_cell_angle_alpha 90.000000
_cell_angle_beta 31.110209
_cell_angle_gamma 90.000000
_cell_volume 1415.959198
_symmetry_space_group_name_H-M "P 21/C"
_symmetry_group_IT_number 14
_symmetry_cell_setting 'monoclinic'
loop_
_space_group_symop_operation_xyz
x,y,z
-x,1/2+y,1/2-z
-x,-y,-z
x,1/2-y,1/2+z
loop_
_atom_site_type_symbol
_atom_site_label
_atom_site_fract_x
_atom_site_fract_y
_atom_site_fract_z
Si Si1 0.499276 0.746514 0.500890
Si Si2 0.362865 0.988919 0.384814
Si Si3 0.391853 0.493192 0.093755
Si Si4 0.916074 0.495061 0.336760
Si Si5 0.000000 0.000000 0.000000
Si Si6 0.913551 0.276472 0.011435
Si Si7 0.825363 0.650812 0.737160
Si Si8 0.789360 0.001212 0.877543
O O1 0.563609 0.621194 0.305503
O O2 0.406713 0.667980 0.741823
O O3 0.559755 0.825964 0.478294
O O4 0.468284 0.878310 0.473790
O O5 0.361478 0.984986 0.525399
O O6 0.261467 0.041480 0.549359
O O7 0.305315 0.510883 0.357338
O O8 0.915460 0.317812 0.387672
O O9 0.854298 0.599789 0.549878
O O10 0.872142 0.497486 0.302119
O O11 0.016962 0.574891 0.137447
O O12 0.950514 0.146464 0.026039
O O13 0.913911 0.882907 0.136460
O O14 0.813712 0.350624 0.246759
O O15 0.794586 0.832780 0.804049
#
# Coordination Sequence:
#
# PCOD9250281 Si02
#       8
#     4   4   4   4   2   4   4   4
#     4  10  24  42  70  96 137 171 216 282 332 403
#     4  11  22  44  69  99 131 174 226 269 338 404
#     4  11  23  42  67  99 135 172 216 276 341 401
#     4  11  24  43  65  92 133 178 224 281 328 396
#     4  10  24  40  66  92 132 174 218 278 328 396
#     4  11  25  41  65  95 132 179 232 274 331 400
#     4  11  23  43  66  98 131 178 224 278 333 405
#     4  12  24  42  66  95 136 174 219 281 335 397
#
# _framework density 21.187051
#
# number of rings (size 3 to 8) (size 9 to 14) (size 15 to 20)
#    0.000    1.067    4.000    2.000    7.467    0.000 
#    0.000    0.000    5.867    0.000    0.000    0.000 
#    0.000    0.000    0.000    0.000    0.000    0.000 
#
# Total GULP energy -167239.562269 kJ/mol
# GULP energy per Si atom -5574.652076 kJ/mol
# Density = 2.113883 g / cm^3
# Si number density = 21.187051 Si / 1000 Ang^3
#
#
#
# Elastic Constant Matrix: (Units=GPa)
#
#
# Indices 1 2 3 4 5 6 
#
# 1 43.5811 4.1108 0.2807 0.0000 -4.1226 0.0000
# 2 4.1108 72.7910 25.9776 0.0000 2.0170 0.0000
# 3 0.2807 25.9776 96.0759 0.0000 3.7125 0.0000
# 4 0.0000 0.0000 0.0000 43.8346 0.0000 -3.1249
# 5 -4.1226 2.0170 3.7125 0.0000 12.5216 0.0000
# 6 0.0000 0.0000 0.0000 -3.1249 0.0000 27.5935
#
#
#
# Elastic Compliance Matrix: (Units=1/GPa)
#
#
# Indices 1 2 3 4 5 6 
#
# 1 0.023861 -0.001589 0.000047 0.000000 0.008098 0.000000
# 2 -0.001589 0.015330 -0.004071 0.000000 -0.001785 0.000000
# 3 0.000047 -0.004071 0.011616 0.000000 -0.002773 0.000000
# 4 0.000000 0.000000 0.000000 0.022999 0.000000 0.002605
# 5 0.008098 -0.001785 -0.002773 0.000000 0.083638 0.000000
# 6 0.000000 0.000000 0.000000 0.002605 0.000000 0.036535
#
#
# Mechanical properties :
#
#
# Convention : Reuss Voigt Hill
#
# Bulk Modulus (GPa) = 25.26439 30.35403 27.80921
# Shear Modulus (GPa) = 22.89378 28.92853 25.91115
#
# Velocity S-wave (km/s) = 3.29075 3.69912 3.50089
# Velocity P-wave (km/s) = 5.13702 5.70986 5.43100
#
# Compressibility (1/GPa) = 0.03958140
#
# Stress axis : x y z
#
# Youngs Moduli (GPa) = 41.90878 65.23081 86.08585
#
# Poissons Ratio (x) = 0.10363 -0.00404
# Poissons Ratio (y) = 0.06658 0.35049
# Poissons Ratio (z) = -0.00197 0.26558
#
# Static dielectric constant tensor:
#      x y z
#    x 1.734090 0.000000 -0.003580 
#    y 0.000000 1.792550 0.000000 
#    z -0.003580 0.000000 1.790870 
# 
# From -- ./inp_files/36416.got.cif
#   From: 2010.05.17/outbox.cif.g08.bks.cpg/sg14_19_cif.got.tgz:36416.got - 2010.06.03 17:49:19.
