data_PCOD9250512
_publ_section_title
;
Structure prediction by ZEFSAII (Michael W. Deem and Ramdas Pophale) SiO2 
 PCOD9250512
Probable space group: P 21/C
;
_chemical_formula_sum "Si O2"
_cell_formula_units_Z 12
_cell_length_a 8.396412
_cell_length_b 5.666333
_cell_length_c 19.974545
_cell_angle_alpha 90.000000
_cell_angle_beta 153.603608
_cell_angle_gamma 90.000000
_cell_volume 422.494883
_symmetry_space_group_name_H-M "P 21/C"
_symmetry_group_IT_number 14
_symmetry_cell_setting 'monoclinic'
loop_
_space_group_symop_operation_xyz
x,y,z
-x,1/2+y,1/2-z
-x,-y,-z
x,1/2-y,1/2+z
loop_
_atom_site_type_symbol
_atom_site_label
_atom_site_fract_x
_atom_site_fract_y
_atom_site_fract_z
Si Si1 0.746279 0.925274 0.194698
Si Si2 0.146089 0.244217 0.412817
Si Si3 0.193439 0.749205 0.085824
O O1 0.105748 0.974903 0.373119
O O2 0.855562 0.860921 0.160870
O O3 0.527666 0.753887 0.161361
O O4 0.470935 0.143147 0.075696
O O5 0.795129 0.260910 0.328888
O O6 0.000000 0.500000 0.000000
O O7 0.000000 0.000000 0.000000
#
# Coordination Sequence:
#
# PCOD9250512 Si02
#       3
#     4   4   4
#     4  10  24  43  69 105 146 191 241 298 359 427
#     4  10  24  44  69 105 144 190 241 297 359 427
#     4  10  24  46  72 102 142 190 239 294 358 427
#
# _framework density 28.402712999999999
#
# number of rings (size 3 to 8) (size 9 to 14) (size 15 to 20)
#    0.000    2.000    0.000    0.000    0.000   24.000 
#    0.000    0.000    0.000    0.000    0.000    0.000 
#    0.000    0.000    0.000    0.000    0.000    0.000 
#
# Total GULP energy -66932.286278 kJ/mol
# GULP energy per Si atom -5577.690523 kJ/mol
# Density = 2.833807 g / cm^3
# Si number density = 28.402713 Si / 1000 Ang^3
#
#
#
# Elastic Constant Matrix: (Units=GPa)
#
#
# Indices 1 2 3 4 5 6 
#
# 1 312.6371 69.5728 91.8674 0.0000 -17.4846 0.0000
# 2 69.5728 140.0236 49.9094 0.0000 11.1405 0.0000
# 3 91.8674 49.9094 96.6922 0.0000 3.9197 0.0000
# 4 0.0000 0.0000 0.0000 64.7696 0.0000 0.6129
# 5 -17.4846 11.1405 3.9197 0.0000 36.7677 0.0000
# 6 0.0000 0.0000 0.0000 0.6129 0.0000 63.1415
#
#
#
# Elastic Compliance Matrix: (Units=1/GPa)
#
#
# Indices 1 2 3 4 5 6 
#
# 1 0.004846 -0.001187 -0.004117 0.000000 0.003103 0.000000
# 2 -0.001187 0.009220 -0.003510 0.000000 -0.002984 0.000000
# 3 -0.004117 -0.003510 0.016172 0.000000 -0.002618 0.000000
# 4 0.000000 0.000000 0.000000 0.015441 0.000000 -0.000150
# 5 0.003103 -0.002984 -0.002618 0.000000 0.029857 0.000000
# 6 0.000000 0.000000 0.000000 -0.000150 0.000000 0.015839
#
#
# Mechanical properties :
#
#
# Convention : Reuss Voigt Hill
#
# Bulk Modulus (GPa) = 79.30989 108.00579 93.65784
# Shear Modulus (GPa) = 44.16673 55.46931 49.81802
#
# Velocity S-wave (km/s) = 3.94765 4.42402 4.19261
# Velocity P-wave (km/s) = 6.98302 8.01281 7.51557
#
# Compressibility (1/GPa) = 0.01260877
#
# Stress axis : x y z
#
# Youngs Moduli (GPa) = 206.34562 108.45859 61.83520
#
# Poissons Ratio (x) = 0.12877 0.25460
# Poissons Ratio (y) = 0.24498 0.21705
# Poissons Ratio (z) = 0.84961 0.38071
#
# Static dielectric constant tensor:
#      x y z
#    x 2.269000 0.000000 0.100460 
#    y 0.000000 2.492020 0.000000 
#    z 0.100460 0.000000 2.265020 
# 
# From -- ./inp_files/22404.got.cif
#   From: 2010.05.17/outbox.cif.g08.bks.cpg/sg14_12_cif.got.tgz:22404.got - 2010.06.03 17:49:19.
