data_PCOD9250977
_publ_section_title
;
Structure prediction by ZEFSAII (Michael W. Deem and Ramdas Pophale) SiO2 
 PCOD9250977
Probable space group: P 21/C
;
_chemical_formula_sum "Si O2"
_cell_formula_units_Z 20
_cell_length_a 10.184100
_cell_length_b 12.205560
_cell_length_c 17.944388
_cell_angle_alpha 90.000000
_cell_angle_beta 21.279652
_cell_angle_gamma 90.000000
_cell_volume 809.506443
_symmetry_space_group_name_H-M "P 21/C"
_symmetry_group_IT_number 14
_symmetry_cell_setting 'monoclinic'
loop_
_space_group_symop_operation_xyz
x,y,z
-x,1/2+y,1/2-z
-x,-y,-z
x,1/2-y,1/2+z
loop_
_atom_site_type_symbol
_atom_site_label
_atom_site_fract_x
_atom_site_fract_y
_atom_site_fract_z
Si Si1 0.659163 0.100828 0.561501
Si Si2 0.330650 0.053565 0.895300
Si Si3 0.426401 0.340004 0.487622
Si Si4 0.498841 0.649112 0.388187
Si Si5 0.686119 0.105886 0.322058
O O1 0.477306 0.722139 0.886005
O O2 0.520968 0.007262 0.578073
O O3 0.508925 0.068858 0.722374
O O4 0.088685 0.112310 0.339025
O O5 0.276018 0.927865 0.950175
O O6 0.570727 0.105114 0.835722
O O7 0.943599 0.113645 0.111491
O O8 0.611392 0.369304 0.467316
O O9 0.436328 0.210240 0.467795
O O10 0.011625 0.382016 0.709640
#
# Coordination Sequence:
#
# PCOD9250977 Si02
#       5
#     4   4   4   4   4
#     4  12  27  44  75 104 140 185 231 290 345 415
#     4  10  26  45  73  99 141 181 234 284 348 408
#     4  10  25  44  71  98 143 182 228 285 339 417
#     4  12  26  46  69 106 143 181 234 284 349 411
#     4  10  25  43  72 101 138 182 233 277 352 401
#
# _framework density 24.706413000000001
#
# number of rings (size 3 to 8) (size 9 to 14) (size 15 to 20)
#    1.200    0.000    0.000    4.200    8.400    3.200 
#    0.000    0.000    0.000    0.000    0.000    0.000 
#    0.000    0.000    0.000    0.000    0.000    0.000 
#
# Total GULP energy -111829.750728 kJ/mol
# GULP energy per Si atom -5591.487536 kJ/mol
# Density = 2.465018 g / cm^3
# Si number density = 24.706413 Si / 1000 Ang^3
#
#
#
# Elastic Constant Matrix: (Units=GPa)
#
#
# Indices 1 2 3 4 5 6 
#
# 1 103.8545 53.7386 38.8824 0.0000 31.8811 0.0000
# 2 53.7386 166.2513 36.8888 0.0000 11.4684 0.0000
# 3 38.8824 36.8888 98.9676 0.0000 5.6653 0.0000
# 4 0.0000 0.0000 0.0000 36.4902 0.0000 -10.3317
# 5 31.8811 11.4684 5.6653 0.0000 40.6578 0.0000
# 6 0.0000 0.0000 0.0000 -10.3317 0.0000 39.7790
#
#
#
# Elastic Compliance Matrix: (Units=1/GPa)
#
#
# Indices 1 2 3 4 5 6 
#
# 1 0.016721 -0.003600 -0.004571 0.000000 -0.011459 0.000000
# 2 -0.003600 0.007427 -0.001407 0.000000 0.000924 0.000000
# 3 -0.004571 -0.001407 0.012295 0.000000 0.002268 0.000000
# 4 0.000000 0.000000 0.000000 0.029580 0.000000 0.007683
# 5 -0.011459 0.000924 0.002268 0.000000 0.033004 0.000000
# 6 0.000000 0.000000 0.000000 0.007683 0.000000 0.027134
#
#
# Mechanical properties :
#
#
# Convention : Reuss Voigt Hill
#
# Bulk Modulus (GPa) = 57.84985 69.78811 63.81898
# Shear Modulus (GPa) = 33.09511 39.35630 36.22571
#
# Velocity S-wave (km/s) = 3.66394 3.99552 3.83331
# Velocity P-wave (km/s) = 6.43156 7.04229 6.74384
#
# Compressibility (1/GPa) = 0.01728613
#
# Stress axis : x y z
#
# Youngs Moduli (GPa) = 59.80584 134.64275 81.33458
#
# Poissons Ratio (x) = 0.48471 0.37182
# Poissons Ratio (y) = 0.21530 0.11443
# Poissons Ratio (z) = 0.27340 0.18942
#
# Static dielectric constant tensor:
#      x y z
#    x 2.020660 0.000000 -0.017530 
#    y 0.000000 1.967210 0.000000 
#    z -0.017530 0.000000 1.951400 
# 
# From -- ./inp_files/57844.got.cif
#   From: 2010.05.17/outbox.cif.g08.bks.cpg/sg14_29_cif.got.tgz:57844.got - 2010.06.03 17:49:19.
