data_PCOD9250524
_publ_section_title
;
Structure prediction by ZEFSAII (Michael W. Deem and Ramdas Pophale) SiO2 
 PCOD9250524
Probable space group: P 21/C
;
_chemical_formula_sum "Si O2"
_cell_formula_units_Z 20
_cell_length_a 9.065285
_cell_length_b 16.107638
_cell_length_c 7.428416
_cell_angle_alpha 90.000000
_cell_angle_beta 50.429100
_cell_angle_gamma 90.000000
_cell_volume 836.126576
_symmetry_space_group_name_H-M "P 21/C"
_symmetry_group_IT_number 14
_symmetry_cell_setting 'monoclinic'
loop_
_space_group_symop_operation_xyz
x,y,z
-x,1/2+y,1/2-z
-x,-y,-z
x,1/2-y,1/2+z
loop_
_atom_site_type_symbol
_atom_site_label
_atom_site_fract_x
_atom_site_fract_y
_atom_site_fract_z
Si Si1 0.494717 0.166833 0.666789
Si Si2 0.050098 0.613934 0.627123
Si Si3 0.176090 0.430789 0.542225
Si Si4 0.819819 0.686671 0.112522
Si Si5 0.241118 0.769943 0.239898
O O1 0.643107 0.186541 0.393662
O O2 0.626368 0.173903 0.739688
O O3 0.371286 0.084216 0.778733
O O4 0.344634 0.244690 0.777546
O O5 0.987805 0.599443 0.469384
O O6 0.861891 0.637837 0.894079
O O7 0.207493 0.679623 0.578435
O O8 0.128774 0.524384 0.628502
O O9 0.197419 0.373400 0.702670
O O10 0.024080 0.732437 0.980381
#
# Coordination Sequence:
#
# PCOD9250524 Si02
#       5
#     4   4   4   4   4
#     4  12  23  42  66 102 133 181 226 277 338 403
#     4   9  24  43  70 101 135 177 230 276 342 406
#     4  11  22  45  72  97 138 183 222 282 342 401
#     4  10  24  43  70  96 139 177 224 282 338 400
#     4  10  26  40  67 100 137 174 232 277 339 403
#
# _framework density 23.919823999999998
#
# number of rings (size 3 to 8) (size 9 to 14) (size 15 to 20)
#    1.200    0.400    2.000    1.800    5.600    0.800 
#    0.000    0.000    0.000    6.000    0.000    0.000 
#    0.000    0.000    0.000    0.000    0.000    0.000 
#
# Total GULP energy -111654.928159 kJ/mol
# GULP energy per Si atom -5582.746408 kJ/mol
# Density = 2.386538 g / cm^3
# Si number density = 23.919824 Si / 1000 Ang^3
#
#
#
# Elastic Constant Matrix: (Units=GPa)
#
#
# Indices 1 2 3 4 5 6 
#
# 1 109.0124 -5.4859 15.1944 0.0000 -3.7760 0.0000
# 2 -5.4859 47.1403 -9.0344 0.0000 -3.3125 0.0000
# 3 15.1944 -9.0344 84.6995 0.0000 -9.2345 0.0000
# 4 0.0000 0.0000 0.0000 17.0641 0.0000 3.1644
# 5 -3.7760 -3.3125 -9.2345 0.0000 47.6657 0.0000
# 6 0.0000 0.0000 0.0000 3.1644 0.0000 26.8953
#
#
#
# Elastic Compliance Matrix: (Units=1/GPa)
#
#
# Indices 1 2 3 4 5 6 
#
# 1 0.009449 0.000838 -0.001550 0.000000 0.000506 0.000000
# 2 0.000838 0.021918 0.002412 0.000000 0.002057 0.000000
# 3 -0.001550 0.002412 0.012613 0.000000 0.002488 0.000000
# 4 0.000000 0.000000 0.000000 0.059910 0.000000 -0.007049
# 5 0.000506 0.002057 0.002488 0.000000 0.021645 0.000000
# 6 0.000000 0.000000 0.000000 -0.007049 0.000000 0.038010
#
#
# Mechanical properties :
#
#
# Convention : Reuss Voigt Hill
#
# Bulk Modulus (GPa) = 21.10669 26.91115 24.00892
# Shear Modulus (GPa) = 28.41897 34.33689 31.37793
#
# Velocity S-wave (km/s) = 3.45061 3.79291 3.62580
# Velocity P-wave (km/s) = 4.97179 5.51874 5.25239
#
# Compressibility (1/GPa) = 0.04737835
#
# Stress axis : x y z
#
# Youngs Moduli (GPa) = 105.83023 45.62554 79.28246
#
# Poissons Ratio (x) = -0.03824 0.12293
# Poissons Ratio (y) = -0.08869 -0.19121
# Poissons Ratio (z) = 0.16409 -0.11004
#
# Static dielectric constant tensor:
#      x y z
#    x 1.898050 0.000000 0.063090 
#    y 0.000000 1.957720 0.000000 
#    z 0.063090 0.000000 2.008920 
# 
# From -- ./inp_files/9313.got.cif
#   From: 2010.05.17/outbox.cif.g08.bks.cpg/sg14_5_cif.got.tgz:9313.got - 2010.06.03 17:49:19.
