data_PCOD9250812
_publ_section_title
;
Structure prediction by ZEFSAII (Michael W. Deem and Ramdas Pophale) SiO2 
 PCOD9250812
Probable space group: P 21/C
;
_chemical_formula_sum "Si O2"
_cell_formula_units_Z 16
_cell_length_a 9.968857
_cell_length_b 13.232438
_cell_length_c 4.978206
_cell_angle_alpha 90.000000
_cell_angle_beta 67.524145
_cell_angle_gamma 90.000000
_cell_volume 606.805078
_symmetry_space_group_name_H-M "P 21/C"
_symmetry_group_IT_number 14
_symmetry_cell_setting 'monoclinic'
loop_
_space_group_symop_operation_xyz
x,y,z
-x,1/2+y,1/2-z
-x,-y,-z
x,1/2-y,1/2+z
loop_
_atom_site_type_symbol
_atom_site_label
_atom_site_fract_x
_atom_site_fract_y
_atom_site_fract_z
Si Si1 0.573529 0.579946 0.741231
Si Si2 0.132618 0.016257 0.701151
Si Si3 0.280540 0.688788 0.909356
Si Si4 0.748217 0.672508 0.213364
O O1 0.737070 0.565990 0.725779
O O2 0.617264 0.592597 0.388086
O O3 0.500000 0.500000 0.000000
O O4 0.449910 0.666181 0.842540
O O5 0.119654 0.097769 0.468028
O O6 0.191215 0.909793 0.553292
O O7 0.000000 0.000000 0.000000
O O8 0.247364 0.781886 0.130309
O O9 0.741936 0.748160 0.471923
#
# Coordination Sequence:
#
# PCOD9250812 Si02
#       4
#     4   4   4   4
#     4  10  24  46  76 110 150 199 251 320 386 452
#     4  11  28  50  78 113 162 202 264 319 395 467
#     4  11  27  47  76 111 153 199 258 322 385 456
#     4  12  25  46  75 113 151 205 259 314 382 461
#
# _framework density 26.367612000000001
#
# number of rings (size 3 to 8) (size 9 to 14) (size 15 to 20)
#    0.000    1.000    2.500    1.500   10.500    5.000 
#    0.000    0.000    0.000    0.000    0.000    0.000 
#    0.000    0.000    0.000    0.000    0.000    0.000 
#
# Total GULP energy -89140.442136 kJ/mol
# GULP energy per Si atom -5571.277633 kJ/mol
# Density = 2.630760 g / cm^3
# Si number density = 26.367612 Si / 1000 Ang^3
#
#
#
# Elastic Constant Matrix: (Units=GPa)
#
#
# Indices 1 2 3 4 5 6 
#
# 1 88.4763 26.9559 47.9789 0.0000 -9.1873 0.0000
# 2 26.9559 97.2513 105.7186 0.0000 -24.7122 0.0000
# 3 47.9789 105.7186 226.1996 0.0000 -20.8864 0.0000
# 4 0.0000 0.0000 0.0000 78.2181 0.0000 11.7060
# 5 -9.1873 -24.7122 -20.8864 0.0000 56.3297 0.0000
# 6 0.0000 0.0000 0.0000 11.7060 0.0000 8.0337
#
#
#
# Elastic Compliance Matrix: (Units=1/GPa)
#
#
# Indices 1 2 3 4 5 6 
#
# 1 0.012879 -0.000950 -0.002208 0.000000 0.000865 0.000000
# 2 -0.000950 0.022936 -0.009944 0.000000 0.006220 0.000000
# 3 -0.002208 -0.009944 0.009423 0.000000 -0.001229 0.000000
# 4 0.000000 0.000000 0.000000 0.016350 0.000000 -0.023824
# 5 0.000865 0.006220 -0.001229 0.000000 0.020167 0.000000
# 6 0.000000 0.000000 0.000000 -0.023824 0.000000 0.159189
#
#
# Mechanical properties :
#
#
# Convention : Reuss Voigt Hill
#
# Bulk Modulus (GPa) = 52.53403 85.91489 69.22446
# Shear Modulus (GPa) = 18.28204 43.93457 31.10831
#
# Velocity S-wave (km/s) = 2.63601 4.08638 3.43854
# Velocity P-wave (km/s) = 5.40664 7.41073 6.48655
#
# Compressibility (1/GPa) = 0.01903528
#
# Stress axis : x y z
#
# Youngs Moduli (GPa) = 77.64583 43.59954 106.12117
#
# Poissons Ratio (x) = 0.04140 0.23432
# Poissons Ratio (y) = 0.07374 1.05525
# Poissons Ratio (z) = 0.17144 0.43354
#
# Static dielectric constant tensor:
#      x y z
#    x 2.277980 0.000000 0.107790 
#    y 0.000000 2.282370 0.000000 
#    z 0.107790 0.000000 2.171360 
# 
# From -- ./inp_files/2443.got.cif
#   From: 2010.05.17/outbox.cif.g08.bks.cpg/sg14_2_cif.got.tgz:2443.got - 2010.06.03 17:49:19.
