data_PCOD9250400
_publ_section_title
;
Structure prediction by ZEFSAII (Michael W. Deem and Ramdas Pophale) SiO2 
 PCOD9250400
Probable space group: P 21/C
;
_chemical_formula_sum "Si O2"
_cell_formula_units_Z 32
_cell_length_a 9.380645
_cell_length_b 14.914253
_cell_length_c 11.545979
_cell_angle_alpha 90.000000
_cell_angle_beta 88.340622
_cell_angle_gamma 90.000000
_cell_volume 1614.666396
_symmetry_space_group_name_H-M "P 21/C"
_symmetry_group_IT_number 14
_symmetry_cell_setting 'monoclinic'
loop_
_space_group_symop_operation_xyz
x,y,z
-x,1/2+y,1/2-z
-x,-y,-z
x,1/2-y,1/2+z
loop_
_atom_site_type_symbol
_atom_site_label
_atom_site_fract_x
_atom_site_fract_y
_atom_site_fract_z
Si Si1 0.498383 0.333648 0.782311
Si Si2 0.413323 0.477064 0.616976
Si Si3 0.086697 0.462544 0.107898
Si Si4 0.177673 0.878461 0.769186
Si Si5 0.895458 0.323226 0.247405
Si Si6 0.600184 0.913438 0.488309
Si Si7 0.433752 0.858140 0.280607
Si Si8 0.866566 0.061234 0.971529
O O1 0.440798 0.378290 0.665505
O O2 0.663033 0.366625 0.786491
O O3 0.399579 0.369864 0.886203
O O4 0.508414 0.227011 0.790112
O O5 0.500000 0.500000 0.500000
O O6 0.460706 0.548075 0.715264
O O7 0.251134 0.500003 0.589155
O O8 0.101852 0.540573 0.203891
O O9 0.007429 0.377859 0.167499
O O10 0.244510 0.436427 0.062175
O O11 0.000000 0.500000 0.000000
O O12 0.095676 0.784170 0.756558
O O13 0.190701 0.899764 0.905579
O O14 0.736230 0.346650 0.204573
O O15 0.902702 0.360926 0.378449
O O16 0.514546 0.853325 0.399473
O O17 0.500000 0.000000 0.500000
O O18 0.000000 0.000000 0.000000
#
# Coordination Sequence:
#
# PCOD9250400 Si02
#       8
#     4   4   4   4   4   4   4   4
#     4  11  24  42  70 101 130 173 223 277 335 396
#     4  11  22  40  66  95 126 170 218 273 325 392
#     4  12  26  44  66  99 136 179 221 274 331 400
#     4  11  23  43  71  97 130 179 222 269 339 399
#     4  10  25  43  66  97 132 174 225 273 330 403
#     4  12  23  44  70  94 136 176 219 280 333 389
#     4  10  24  42  67  97 129 170 226 272 333 391
#     4  11  23  42  66  91 133 174 214 271 329 391
#
# _framework density 19.818335999999999
#
# number of rings (size 3 to 8) (size 9 to 14) (size 15 to 20)
#    0.000    1.000    5.000    0.750    5.250    2.000 
#    4.500    0.000    0.000    0.000    0.000    0.000 
#    0.000    0.000    0.000    0.000    0.000    0.000 
#
# Total GULP energy -178804.618459 kJ/mol
# GULP energy per Si atom -5587.644327 kJ/mol
# Density = 1.977323 g / cm^3
# Si number density = 19.818336 Si / 1000 Ang^3
#
#
#
# Elastic Constant Matrix: (Units=GPa)
#
#
# Indices 1 2 3 4 5 6 
#
# 1 72.5709 52.2165 42.5566 0.0000 -9.5296 0.0000
# 2 52.2165 94.8754 18.8759 0.0000 -5.8214 0.0000
# 3 42.5566 18.8759 100.0608 0.0000 -1.9039 0.0000
# 4 0.0000 0.0000 0.0000 25.4535 0.0000 3.5787
# 5 -9.5296 -5.8214 -1.9039 0.0000 36.6070 0.0000
# 6 0.0000 0.0000 0.0000 3.5787 0.0000 26.0865
#
#
#
# Elastic Compliance Matrix: (Units=1/GPa)
#
#
# Indices 1 2 3 4 5 6 
#
# 1 0.031183 -0.014777 -0.010375 0.000000 0.005228 0.000000
# 2 -0.014777 0.018052 0.002864 0.000000 -0.000827 0.000000
# 3 -0.010375 0.002864 0.013837 0.000000 -0.001526 0.000000
# 4 0.000000 0.000000 0.000000 0.040060 0.000000 -0.005496
# 5 0.005228 -0.000827 -0.001526 0.000000 0.028467 0.000000
# 6 0.000000 0.000000 0.000000 -0.005496 0.000000 0.039088
#
#
# Mechanical properties :
#
#
# Convention : Reuss Voigt Hill
#
# Bulk Modulus (GPa) = 54.06796 54.97835 54.52316
# Shear Modulus (GPa) = 22.58050 27.88662 25.23356
#
# Velocity S-wave (km/s) = 3.37912 3.75522 3.57212
# Velocity P-wave (km/s) = 6.52424 6.82668 6.67717
#
# Compressibility (1/GPa) = 0.01849524
#
# Stress axis : x y z
#
# Youngs Moduli (GPa) = 32.06908 55.39403 72.26826
#
# Poissons Ratio (x) = 0.81856 0.74980
# Poissons Ratio (y) = 0.47389 -0.20694
# Poissons Ratio (z) = 0.33272 -0.15862
#
# Static dielectric constant tensor:
#      x y z
#    x 1.687600 0.000000 0.022010 
#    y 0.000000 1.774180 0.000000 
#    z 0.022010 0.000000 1.823090 
# 
# From -- ./inp_files/25258.got.cif
#   From: 2010.05.17/outbox.cif.g08.bks.cpg/sg14_13_cif.got.tgz:25258.got - 2010.06.03 17:49:19.
