data_PCOD9250074
_publ_section_title
;
Structure prediction by ZEFSAII (Michael W. Deem and Ramdas Pophale) SiO2 
 PCOD9250074
Probable space group: P 21/C
;
_chemical_formula_sum "Si O2"
_cell_formula_units_Z 16
_cell_length_a 13.085631
_cell_length_b 7.256984
_cell_length_c 17.615111
_cell_angle_alpha 90.000000
_cell_angle_beta 21.210263
_cell_angle_gamma 90.000000
_cell_volume 605.194060
_symmetry_space_group_name_H-M "P 21/C"
_symmetry_group_IT_number 14
_symmetry_cell_setting 'monoclinic'
loop_
_space_group_symop_operation_xyz
x,y,z
-x,1/2+y,1/2-z
-x,-y,-z
x,1/2-y,1/2+z
loop_
_atom_site_type_symbol
_atom_site_label
_atom_site_fract_x
_atom_site_fract_y
_atom_site_fract_z
Si Si1 0.748965 0.647585 0.688071
Si Si2 0.188924 0.010504 0.250969
Si Si3 0.788424 0.531537 0.894761
Si Si4 0.155102 0.337060 0.533505
O O1 0.821966 0.846523 0.672379
O O2 0.627961 0.648353 0.685279
O O3 0.000000 0.500000 0.500000
O O4 0.501464 0.575066 0.913805
O O5 0.969622 0.064978 0.336480
O O6 0.080651 0.801661 0.338856
O O7 0.500000 0.000000 0.000000
O O8 0.721010 0.725975 0.980809
O O9 0.993267 0.511804 0.680451
#
# Coordination Sequence:
#
# PCOD9250074 Si02
#       4
#     4   4   4   4
#     4  12  26  42  71 104 133 179 234 281 343 414
#     4  10  23  46  69  95 140 179 222 280 354 401
#     4  10  25  43  66  99 133 177 223 282 338 413
#     4  10  25  43  68  93 141 175 225 281 347 405
#
# _framework density 26.437801
#
# number of rings (size 3 to 8) (size 9 to 14) (size 15 to 20)
#    1.500    0.000    2.500    0.750    7.000    5.000 
#    0.000    0.000    0.000    0.000    0.000    0.000 
#    0.000    0.000    0.000    0.000    0.000    0.000 
#
# Total GULP energy -89285.762151 kJ/mol
# GULP energy per Si atom -5580.360134 kJ/mol
# Density = 2.637763 g / cm^3
# Si number density = 26.437801 Si / 1000 Ang^3
#
#
#
# Elastic Constant Matrix: (Units=GPa)
#
#
# Indices 1 2 3 4 5 6 
#
# 1 75.4428 20.9299 21.6627 0.0000 15.8904 0.0000
# 2 20.9299 95.2931 14.0759 0.0000 9.4379 0.0000
# 3 21.6627 14.0759 113.2236 0.0000 15.6866 0.0000
# 4 0.0000 0.0000 0.0000 36.3410 0.0000 18.6538
# 5 15.8904 9.4379 15.6866 0.0000 55.9672 0.0000
# 6 0.0000 0.0000 0.0000 18.6538 0.0000 43.6759
#
#
#
# Elastic Compliance Matrix: (Units=1/GPa)
#
#
# Indices 1 2 3 4 5 6 
#
# 1 0.015317 -0.002723 -0.002136 0.000000 -0.003291 0.000000
# 2 -0.002723 0.011295 -0.000756 0.000000 -0.000920 0.000000
# 3 -0.002136 -0.000756 0.009606 0.000000 -0.001958 0.000000
# 4 0.000000 0.000000 0.000000 0.035243 0.000000 -0.015052
# 5 -0.003291 -0.000920 -0.001958 0.000000 0.019506 0.000000
# 6 0.000000 0.000000 0.000000 -0.015052 0.000000 0.029325
#
#
# Mechanical properties :
#
#
# Convention : Reuss Voigt Hill
#
# Bulk Modulus (GPa) = 40.01838 44.14405 42.08122
# Shear Modulus (GPa) = 35.75242 42.34955 39.05098
#
# Velocity S-wave (km/s) = 3.68138 4.00666 3.84746
# Velocity P-wave (km/s) = 5.76539 6.17560 5.97402
#
# Compressibility (1/GPa) = 0.02498852
#
# Stress axis : x y z
#
# Youngs Moduli (GPa) = 65.28707 88.53723 104.10079
#
# Poissons Ratio (x) = 0.24106 0.22237
# Poissons Ratio (y) = 0.17776 0.07868
# Poissons Ratio (z) = 0.13946 0.06692
#
# Static dielectric constant tensor:
#      x y z
#    x 2.233230 0.000000 0.094000 
#    y 0.000000 2.451950 0.000000 
#    z 0.094000 0.000000 2.057010 
# 
# From -- ./inp_files/48240.got.cif
#   From: 2010.05.17/outbox.cif.g08.bks.cpg/sg14_25_cif.got.tgz:48240.got - 2010.06.03 17:49:19.
