data_PCOD9250900
_publ_section_title
;
Structure prediction by ZEFSAII (Michael W. Deem and Ramdas Pophale) SiO2 
 PCOD9250900
Probable space group: P 21/C
;
_chemical_formula_sum "Si O2"
_cell_formula_units_Z 30
_cell_length_a 18.123677
_cell_length_b 7.076863
_cell_length_c 18.158538
_cell_angle_alpha 90.000000
_cell_angle_beta 25.149539
_cell_angle_gamma 90.000000
_cell_volume 989.780191
_symmetry_space_group_name_H-M "P 21/C"
_symmetry_group_IT_number 14
_symmetry_cell_setting 'monoclinic'
loop_
_space_group_symop_operation_xyz
x,y,z
-x,1/2+y,1/2-z
-x,-y,-z
x,1/2-y,1/2+z
loop_
_atom_site_type_symbol
_atom_site_label
_atom_site_fract_x
_atom_site_fract_y
_atom_site_fract_z
Si Si1 0.427995 0.214578 0.000412
Si Si2 0.022796 0.957600 0.225930
Si Si3 0.514118 0.934741 0.679449
Si Si4 0.729420 0.525013 0.759374
Si Si5 0.157641 0.688056 0.995981
Si Si6 0.005299 0.159544 0.102401
Si Si7 0.586975 0.133379 0.073912
Si Si8 0.000000 0.500000 0.000000
O O1 0.366933 0.296288 0.976148
O O2 0.577016 0.373109 0.882225
O O3 0.458063 0.994632 0.956610
O O4 0.303403 0.259852 0.181078
O O5 0.868836 0.020370 0.419586
O O6 0.010981 0.821183 0.165290
O O7 0.048651 0.146921 0.149267
O O8 0.532805 0.144927 0.626564
O O9 0.332224 0.813146 0.843105
O O10 0.524639 0.951651 0.757849
O O11 0.847887 0.563130 0.581612
O O12 0.826368 0.435853 0.740967
O O13 0.117881 0.641778 0.947530
O O14 0.792283 0.404404 0.402508
O O15 0.982614 0.363676 0.086963
#
# Coordination Sequence:
#
# PCOD9250900 Si02
#       8
#     4   4   4   4   4   4   4   2
#     4  11  24  49  79 120 169 237 301 382 458 572
#     4  11  26  50  83 129 176 236 319 396 477 559
#     4  11  24  51  79 126 175 235 308 375 475 568
#     4  10  24  49  80 116 172 230 307 377 468 561
#     4  11  26  51  82 131 176 241 307 397 472 579
#     4  11  24  49  79 120 172 236 297 392 463 565
#     4  11  25  48  81 123 176 241 300 394 471 565
#     4  12  26  48  82 126 180 238 298 372 486 552
#
# _framework density 30.309761000000002
#
# number of rings (size 3 to 8) (size 9 to 14) (size 15 to 20)
#    0.000    1.067    1.333    4.800    3.733    3.200 
#   24.000    1.333    0.000    0.000    0.000    0.000 
#    0.000    0.000    0.000    0.000    0.000    0.000 
#
# Total GULP energy -167336.149045 kJ/mol
# GULP energy per Si atom -5577.871635 kJ/mol
# Density = 3.024077 g / cm^3
# Si number density = 30.309761 Si / 1000 Ang^3
#
#
#
# Elastic Constant Matrix: (Units=GPa)
#
#
# Indices 1 2 3 4 5 6 
#
# 1 137.5741 36.8507 46.4980 0.0000 6.7002 0.0000
# 2 36.8507 152.2523 31.4067 0.0000 -21.8872 0.0000
# 3 46.4980 31.4067 173.1696 0.0000 4.7977 0.0000
# 4 0.0000 0.0000 0.0000 33.5668 0.0000 3.3563
# 5 6.7002 -21.8872 4.7977 0.0000 47.4879 0.0000
# 6 0.0000 0.0000 0.0000 3.3563 0.0000 67.6773
#
#
#
# Elastic Compliance Matrix: (Units=1/GPa)
#
#
# Indices 1 2 3 4 5 6 
#
# 1 0.008520 -0.001949 -0.001881 0.000000 -0.001910 0.000000
# 2 -0.001949 0.007819 -0.001005 0.000000 0.003980 0.000000
# 3 -0.001881 -0.001005 0.006486 0.000000 -0.000853 0.000000
# 4 0.000000 0.000000 0.000000 0.029940 0.000000 -0.001485
# 5 -0.001910 0.003980 -0.000853 0.000000 0.023248 0.000000
# 6 0.000000 0.000000 0.000000 -0.001485 0.000000 0.014850
#
#
# Mechanical properties :
#
#
# Convention : Reuss Voigt Hill
#
# Bulk Modulus (GPa) = 76.01953 76.94518 76.48236
# Shear Modulus (GPa) = 47.65661 52.96244 50.30952
#
# Velocity S-wave (km/s) = 3.96955 4.18469 4.07854
# Velocity P-wave (km/s) = 6.79302 6.98500 6.88968
#
# Compressibility (1/GPa) = 0.01315451
#
# Stress axis : x y z
#
# Youngs Moduli (GPa) = 117.37588 127.88987 154.18356
#
# Poissons Ratio (x) = 0.24920 0.29007
# Poissons Ratio (y) = 0.22872 0.15498
# Poissons Ratio (z) = 0.22082 0.12855
#
# Static dielectric constant tensor:
#      x y z
#    x 2.394560 0.000000 -0.090200 
#    y 0.000000 2.828390 0.000000 
#    z -0.090200 0.000000 2.397700 
# 
# From -- ./inp_files/70103.got.cif
#   From: 2010.05.17/outbox.cif.g08.bks.cpg/sg14_36_cif.got.tgz:70103.got - 2010.06.03 17:49:19.
