data_PCOD9250198
_publ_section_title
;
Structure prediction by ZEFSAII (Michael W. Deem and Ramdas Pophale) SiO2 
 PCOD9250198
Probable space group: P 21/C
;
_chemical_formula_sum "Si O2"
_cell_formula_units_Z 16
_cell_length_a 14.210860
_cell_length_b 8.995127
_cell_length_c 12.999501
_cell_angle_alpha 90.000000
_cell_angle_beta 158.287438
_cell_angle_gamma 90.000000
_cell_volume 614.749116
_symmetry_space_group_name_H-M "P 21/C"
_symmetry_group_IT_number 14
_symmetry_cell_setting 'monoclinic'
loop_
_space_group_symop_operation_xyz
x,y,z
-x,1/2+y,1/2-z
-x,-y,-z
x,1/2-y,1/2+z
loop_
_atom_site_type_symbol
_atom_site_label
_atom_site_fract_x
_atom_site_fract_y
_atom_site_fract_z
Si Si1 0.320169 0.625454 0.771136
Si Si2 0.996118 0.518065 0.711658
Si Si3 0.485676 0.138041 0.184672
Si Si4 0.182115 0.909750 0.761881
O O1 0.069123 0.559204 0.461543
O O2 0.247935 0.753760 0.778079
O O3 0.466473 0.709620 0.826187
O O4 0.500000 0.500000 0.000000
O O5 0.762278 0.631633 0.496208
O O6 0.957333 0.407172 0.769335
O O7 0.266945 0.591381 0.001734
O O8 0.425825 0.011259 0.038406
O O9 0.000000 0.000000 0.500000
#
# Coordination Sequence:
#
# PCOD9250198 Si02
#       4
#     4   4   4   4
#     4  12  26  45  78 120 141 196 273 318 369 468
#     4  10  26  45  75 103 153 199 244 306 386 461
#     4  10  24  50  71 100 155 204 238 312 401 441
#     4  10  23  48  78 101 154 206 242 305 404 453
#
# _framework density 26.026876000000001
#
# number of rings (size 3 to 8) (size 9 to 14) (size 15 to 20)
#    1.500    0.000    2.500    0.750    3.500    6.000 
#    0.000    8.750    0.000    0.000    0.000    0.000 
#    0.000    0.000    0.000    0.000    0.000    0.000 
#
# Total GULP energy -89723.184239 kJ/mol
# GULP energy per Si atom -5607.699015 kJ/mol
# Density = 2.596764 g / cm^3
# Si number density = 26.026876 Si / 1000 Ang^3
#
#
#
# Elastic Constant Matrix: (Units=GPa)
#
#
# Indices 1 2 3 4 5 6 
#
# 1 87.5295 58.1149 53.1255 0.0000 -10.9109 0.0000
# 2 58.1149 189.6774 119.7331 0.0000 -12.6142 0.0000
# 3 53.1255 119.7331 257.8036 0.0000 -8.3553 0.0000
# 4 0.0000 0.0000 0.0000 51.0215 0.0000 -5.0289
# 5 -10.9109 -12.6142 -8.3553 0.0000 51.9373 0.0000
# 6 0.0000 0.0000 0.0000 -5.0289 0.0000 53.7875
#
#
#
# Elastic Compliance Matrix: (Units=1/GPa)
#
#
# Indices 1 2 3 4 5 6 
#
# 1 0.014864 -0.003575 -0.001337 0.000000 0.002039 0.000000
# 2 -0.003575 0.008402 -0.003140 0.000000 0.000784 0.000000
# 3 -0.001337 -0.003140 0.005608 0.000000 -0.000141 0.000000
# 4 0.000000 0.000000 0.000000 0.019782 0.000000 0.001850
# 5 0.002039 0.000784 -0.000141 0.000000 0.019850 0.000000
# 6 0.000000 0.000000 0.000000 0.001850 0.000000 0.018765
#
#
# Mechanical properties :
#
#
# Convention : Reuss Voigt Hill
#
# Bulk Modulus (GPa) = 78.30381 110.77304 94.53843
# Shear Modulus (GPa) = 46.45575 51.61840 49.03707
#
# Velocity S-wave (km/s) = 4.22941 4.45823 4.34532
# Velocity P-wave (km/s) = 7.34858 8.31592 7.84717
#
# Compressibility (1/GPa) = 0.01277077
#
# Stress axis : x y z
#
# Youngs Moduli (GPa) = 67.27855 119.02520 178.31392
#
# Poissons Ratio (x) = 0.42547 0.23834
# Poissons Ratio (y) = 0.24050 0.55989
# Poissons Ratio (z) = 0.08993 0.37373
#
# Static dielectric constant tensor:
#      x y z
#    x 2.123490 0.000000 0.020560 
#    y 0.000000 2.039820 0.000000 
#    z 0.020560 0.000000 1.945510 
# 
# From -- ./inp_files/48469.got.cif
#   From: 2010.05.17/outbox.cif.g08.bks.cpg/sg14_25_cif.got.tgz:48469.got - 2010.06.03 17:49:19.
