data_PCOD9250202
_publ_section_title
;
Structure prediction by ZEFSAII (Michael W. Deem and Ramdas Pophale) SiO2 
 PCOD9250202
Probable space group: P 21/C
;
_chemical_formula_sum "Si O2"
_cell_formula_units_Z 20
_cell_length_a 11.768058
_cell_length_b 7.830444
_cell_length_c 11.242022
_cell_angle_alpha 90.000000
_cell_angle_beta 134.908916
_cell_angle_gamma 90.000000
_cell_volume 733.685489
_symmetry_space_group_name_H-M "P 21/C"
_symmetry_group_IT_number 14
_symmetry_cell_setting 'monoclinic'
loop_
_space_group_symop_operation_xyz
x,y,z
-x,1/2+y,1/2-z
-x,-y,-z
x,1/2-y,1/2+z
loop_
_atom_site_type_symbol
_atom_site_label
_atom_site_fract_x
_atom_site_fract_y
_atom_site_fract_z
Si Si1 0.532122 0.648169 0.759522
Si Si2 0.029566 0.155506 0.183407
Si Si3 0.235104 0.975824 0.164956
Si Si4 0.450955 0.798974 0.944204
Si Si5 0.127100 0.998724 0.489348
O O1 0.381897 0.528769 0.682331
O O2 0.553785 0.735252 0.906265
O O3 0.690932 0.540168 0.845761
O O4 0.481079 0.755638 0.604019
O O5 0.910939 0.314745 0.090958
O O6 0.190228 0.129876 0.221776
O O7 0.076016 0.128973 0.351339
O O8 0.914315 0.018358 0.036179
O O9 0.282766 0.803448 0.279797
O O10 0.500000 0.000000 0.000000
O O11 0.000000 0.000000 0.500000
#
# Coordination Sequence:
#
# PCOD9250202 Si02
#       5
#     4   4   4   4   4
#     4  10  26  50  88 130 171 229 294 369 442 534
#     4  11  27  53  81 126 174 232 290 371 439 529
#     4   9  25  49  89 121 174 227 289 362 449 513
#     4  10  23  48  87 134 174 224 291 367 447 534
#     4  12  31  52  85 125 176 235 298 360 449 532
#
# _framework density 27.259639
#
# number of rings (size 3 to 8) (size 9 to 14) (size 15 to 20)
#    1.200    0.400    0.000    1.200   11.200    4.000 
#    0.000    0.000    0.000    0.000    0.000    0.000 
#    0.000    0.000    0.000    0.000    0.000    0.000 
#
# Total GULP energy -111386.423890 kJ/mol
# GULP energy per Si atom -5569.321194 kJ/mol
# Density = 2.719759 g / cm^3
# Si number density = 27.259639 Si / 1000 Ang^3
#
#
#
# Elastic Constant Matrix: (Units=GPa)
#
#
# Indices 1 2 3 4 5 6 
#
# 1 207.9107 12.7889 58.3031 0.0000 5.7590 0.0000
# 2 12.7889 41.1713 -3.9067 0.0000 1.3397 0.0000
# 3 58.3031 -3.9067 152.7213 0.0000 9.7683 0.0000
# 4 0.0000 0.0000 0.0000 40.2533 0.0000 -3.5709
# 5 5.7590 1.3397 9.7683 0.0000 29.9293 0.0000
# 6 0.0000 0.0000 0.0000 -3.5709 0.0000 47.1245
#
#
#
# Elastic Compliance Matrix: (Units=1/GPa)
#
#
# Indices 1 2 3 4 5 6 
#
# 1 0.005537 -0.001914 -0.002145 0.000000 -0.000280 0.000000
# 2 -0.001914 0.025061 0.001450 0.000000 -0.001227 0.000000
# 3 -0.002145 0.001450 0.007539 0.000000 -0.002113 0.000000
# 4 0.000000 0.000000 0.000000 0.025011 0.000000 0.001895
# 5 -0.000280 -0.001227 -0.002113 0.000000 0.034210 0.000000
# 6 0.000000 0.000000 0.000000 0.001895 0.000000 0.021364
#
#
# Mechanical properties :
#
#
# Convention : Reuss Voigt Hill
#
# Bulk Modulus (GPa) = 30.37752 59.57491 44.97622
# Shear Modulus (GPa) = 37.06118 45.76930 41.41524
#
# Velocity S-wave (km/s) = 3.69122 4.10202 3.90203
# Velocity P-wave (km/s) = 5.41616 6.65864 6.06928
#
# Compressibility (1/GPa) = 0.03291908
#
# Stress axis : x y z
#
# Youngs Moduli (GPa) = 180.61299 39.90280 132.64520
#
# Poissons Ratio (x) = 0.07638 0.28449
# Poissons Ratio (y) = 0.34574 -0.19238
# Poissons Ratio (z) = 0.38737 -0.05787
#
# Static dielectric constant tensor:
#      x y z
#    x 2.039260 0.000000 -0.351220 
#    y 0.000000 0.552910 0.000000 
#    z -0.351220 0.000000 1.003870 
# 
# From -- ./inp_files/27613.got.cif
#   From: 2010.05.17/outbox.cif.g08.bks.cpg/sg14_14_cif.got.tgz:27613.got - 2010.06.03 17:49:19.
