data_PCOD9250384
_publ_section_title
;
Structure prediction by ZEFSAII (Michael W. Deem and Ramdas Pophale) SiO2 
 PCOD9250384
Probable space group: P 21/C
;
_chemical_formula_sum "Si O2"
_cell_formula_units_Z 28
_cell_length_a 9.050182
_cell_length_b 10.685241
_cell_length_c 14.010100
_cell_angle_alpha 90.000000
_cell_angle_beta 107.390082
_cell_angle_gamma 90.000000
_cell_volume 1292.897778
_symmetry_space_group_name_H-M "P 21/C"
_symmetry_group_IT_number 14
_symmetry_cell_setting 'monoclinic'
loop_
_space_group_symop_operation_xyz
x,y,z
-x,1/2+y,1/2-z
-x,-y,-z
x,1/2-y,1/2+z
loop_
_atom_site_type_symbol
_atom_site_label
_atom_site_fract_x
_atom_site_fract_y
_atom_site_fract_z
Si Si1 0.159195 0.238416 0.125653
Si Si2 0.102571 0.691831 0.283234
Si Si3 0.489546 0.099442 0.386253
Si Si4 0.714704 0.932176 0.191106
Si Si5 0.453542 0.101773 0.167691
Si Si6 0.818165 0.722642 0.087290
Si Si7 0.608054 0.172472 0.599383
O O1 0.233986 0.339637 0.213506
O O2 0.270903 0.117178 0.142956
O O3 0.996868 0.198374 0.138851
O O4 0.155171 0.294278 0.019155
O O5 0.192752 0.562119 0.287155
O O6 0.228601 0.802282 0.318688
O O7 0.977135 0.703972 0.175403
O O8 0.515788 0.143806 0.284274
O O9 0.320710 0.138833 0.395386
O O10 0.612625 0.148538 0.486693
O O11 0.480679 0.949422 0.380016
O O12 0.534754 0.971048 0.160128
O O13 0.759951 0.861547 0.103210
O O14 0.508260 0.204674 0.102336
#
# Coordination Sequence:
#
# PCOD9250384 Si02
#       7
#     4   4   4   4   4   4   4
#     4  11  23  43  66  98 131 173 220 259 334 390
#     4  10  24  44  64  95 137 170 211 275 323 391
#     4  11  22  40  70  92 129 171 220 273 318 387
#     4  10  24  43  63  95 134 166 221 269 325 382
#     4  11  21  41  66  94 128 169 213 274 325 382
#     4  11  24  41  66  96 131 172 216 266 329 387
#     4  10  24  42  65  99 127 164 229 269 323 386
#
# _framework density 21.656777999999999
#
# number of rings (size 3 to 8) (size 9 to 14) (size 15 to 20)
#    0.000    1.429    4.286    0.857    6.000    4.000 
#    0.000    0.000    0.000    0.000    0.000    0.000 
#    0.000    0.000    0.000    0.000    0.000    0.000 
#
# Total GULP energy -156379.759339 kJ/mol
# GULP energy per Si atom -5584.991405 kJ/mol
# Density = 2.160749 g / cm^3
# Si number density = 21.656778 Si / 1000 Ang^3
#
#
#
# Elastic Constant Matrix: (Units=GPa)
#
#
# Indices 1 2 3 4 5 6 
#
# 1 70.1539 9.0972 13.0093 0.0000 3.3427 0.0000
# 2 9.0972 62.1412 31.1710 0.0000 4.8269 0.0000
# 3 13.0093 31.1710 69.8152 0.0000 -6.0447 0.0000
# 4 0.0000 0.0000 0.0000 20.2565 0.0000 3.4566
# 5 3.3427 4.8269 -6.0447 0.0000 37.3356 0.0000
# 6 0.0000 0.0000 0.0000 3.4566 0.0000 27.5550
#
#
#
# Elastic Compliance Matrix: (Units=1/GPa)
#
#
# Indices 1 2 3 4 5 6 
#
# 1 0.014911 -0.000759 -0.002583 0.000000 -0.001655 0.000000
# 2 -0.000759 0.021459 -0.009811 0.000000 -0.004295 0.000000
# 3 -0.002583 -0.009811 0.019590 0.000000 0.004671 0.000000
# 4 0.000000 0.000000 0.000000 0.050447 0.000000 -0.006328
# 5 -0.001655 -0.004295 0.004671 0.000000 0.028244 0.000000
# 6 0.000000 0.000000 0.000000 -0.006328 0.000000 0.037085
#
#
# Mechanical properties :
#
#
# Convention : Reuss Voigt Hill
#
# Bulk Modulus (GPa) = 33.72322 34.29614 34.00968
# Shear Modulus (GPa) = 24.04720 26.95161 25.49940
#
# Velocity S-wave (km/s) = 3.33585 3.53156 3.43510
# Velocity P-wave (km/s) = 5.51749 5.70086 5.60992
#
# Compressibility (1/GPa) = 0.02965316
#
# Stress axis : x y z
#
# Youngs Moduli (GPa) = 67.06635 46.60156 51.04694
#
# Poissons Ratio (x) = 0.03535 0.13186
# Poissons Ratio (y) = 0.05088 0.50083
# Poissons Ratio (z) = 0.17324 0.45722
#
# Static dielectric constant tensor:
#      x y z
#    x 1.799000 0.000000 0.023660 
#    y 0.000000 1.796430 0.000000 
#    z 0.023660 0.000000 1.817490 
# 
# From -- ./inp_files/40106.got.cif
#   From: 2010.05.17/outbox.cif.g08.bks.cpg/sg14_21_cif.got.tgz:40106.got - 2010.06.03 17:49:19.
