data_PCOD9250592
_publ_section_title
;
Structure prediction by ZEFSAII (Michael W. Deem and Ramdas Pophale) SiO2 
 PCOD9250592
Probable space group: P 21/C
;
_chemical_formula_sum "Si O2"
_cell_formula_units_Z 20
_cell_length_a 16.074559
_cell_length_b 5.101935
_cell_length_c 8.675771
_cell_angle_alpha 90.000000
_cell_angle_beta 86.743040
_cell_angle_gamma 90.000000
_cell_volume 710.362486
_symmetry_space_group_name_H-M "P 21/C"
_symmetry_group_IT_number 14
_symmetry_cell_setting 'monoclinic'
loop_
_space_group_symop_operation_xyz
x,y,z
-x,1/2+y,1/2-z
-x,-y,-z
x,1/2-y,1/2+z
loop_
_atom_site_type_symbol
_atom_site_label
_atom_site_fract_x
_atom_site_fract_y
_atom_site_fract_z
Si Si1 0.600263 0.283663 0.553331
Si Si2 0.163877 0.362764 0.517410
Si Si3 0.727136 0.515495 0.221502
Si Si4 0.944471 0.000373 0.250570
Si Si5 0.422068 0.123988 0.703307
O O1 0.581570 0.579182 0.610511
O O2 0.603974 0.128689 0.394375
O O3 0.687516 0.216808 0.627135
O O4 0.516889 0.168841 0.645516
O O5 0.230177 0.210385 0.404249
O O6 0.207447 0.529871 0.648458
O O7 0.108429 0.519417 0.400854
O O8 0.110288 0.137758 0.610555
O O9 0.647901 0.656973 0.309887
O O10 0.016026 0.780126 0.214596
#
# Coordination Sequence:
#
# PCOD9250592 Si02
#       5
#     4   4   4   4   4
#     4  11  24  40  64  91 129 188 239 288 341 403
#     4  10  24  44  68 102 136 176 214 298 358 416
#     4  11  22  46  58  99 144 166 236 287 346 406
#     4  11  24  50  78 103 138 182 234 283 358 454
#     4  11  24  40  64  91 129 188 239 288 341 403
#
# _framework density 28.154643
#
# number of rings (size 3 to 8) (size 9 to 14) (size 15 to 20)
#    0.000    1.200    4.000    1.200    2.800    0.800 
#   21.600    0.000    0.000    0.000    0.000    0.000 
#    0.000    0.000    0.000    0.000    0.000    0.000 
#
# Total GULP energy -112111.217690 kJ/mol
# GULP energy per Si atom -5605.560884 kJ/mol
# Density = 2.809056 g / cm^3
# Si number density = 28.154643 Si / 1000 Ang^3
#
#
#
# Elastic Constant Matrix: (Units=GPa)
#
#
# Indices 1 2 3 4 5 6 
#
# 1 128.3246 19.3622 40.3899 0.0000 16.8240 0.0000
# 2 19.3622 70.1720 -3.6971 0.0000 7.7612 0.0000
# 3 40.3899 -3.6971 122.5105 0.0000 4.1675 0.0000
# 4 0.0000 0.0000 0.0000 32.4205 0.0000 -7.3307
# 5 16.8240 7.7612 4.1675 0.0000 72.3984 0.0000
# 6 0.0000 0.0000 0.0000 -7.3307 0.0000 29.7314
#
#
#
# Elastic Compliance Matrix: (Units=1/GPa)
#
#
# Indices 1 2 3 4 5 6 
#
# 1 0.009386 -0.002563 -0.003113 0.000000 -0.001727 0.000000
# 2 -0.002563 0.015151 0.001340 0.000000 -0.001106 0.000000
# 3 -0.003113 0.001340 0.009228 0.000000 0.000049 0.000000
# 4 0.000000 0.000000 0.000000 0.032666 0.000000 0.008054
# 5 -0.001727 -0.001106 0.000049 0.000000 0.014330 0.000000
# 6 0.000000 0.000000 0.000000 0.008054 0.000000 0.035620
#
#
# Mechanical properties :
#
#
# Convention : Reuss Voigt Hill
#
# Bulk Modulus (GPa) = 39.85306 48.12413 43.98860
# Shear Modulus (GPa) = 37.47688 44.57352 41.02520
#
# Velocity S-wave (km/s) = 3.65239 3.98322 3.82139
# Velocity P-wave (km/s) = 5.65442 6.18746 5.92693
#
# Compressibility (1/GPa) = 0.02509217
#
# Stress axis : x y z
#
# Youngs Moduli (GPa) = 106.54601 66.00361 108.37033
#
# Poissons Ratio (x) = 0.16915 0.33734
# Poissons Ratio (y) = 0.27305 -0.14519
# Poissons Ratio (z) = 0.33167 -0.08843
#
# Static dielectric constant tensor:
#      x y z
#    x 2.167130 0.000000 -0.002270 
#    y 0.000000 2.219690 0.000000 
#    z -0.002270 0.000000 2.235720 
# 
# From -- ./inp_files/17254.got.cif
#   From: 2010.05.17/outbox.cif.g08.bks.cpg/sg14_9_cif.got.tgz:17254.got - 2010.06.03 17:49:19.
