data_PCOD9250959
_publ_section_title
;
Structure prediction by ZEFSAII (Michael W. Deem and Ramdas Pophale) SiO2 
 PCOD9250959
Probable space group: P 21/C
;
_chemical_formula_sum "Si O2"
_cell_formula_units_Z 20
_cell_length_a 11.595634
_cell_length_b 9.238422
_cell_length_c 9.806696
_cell_angle_alpha 90.000000
_cell_angle_beta 52.225238
_cell_angle_gamma 90.000000
_cell_volume 830.377605
_symmetry_space_group_name_H-M "P 21/C"
_symmetry_group_IT_number 14
_symmetry_cell_setting 'monoclinic'
loop_
_space_group_symop_operation_xyz
x,y,z
-x,1/2+y,1/2-z
-x,-y,-z
x,1/2-y,1/2+z
loop_
_atom_site_type_symbol
_atom_site_label
_atom_site_fract_x
_atom_site_fract_y
_atom_site_fract_z
Si Si1 0.370886 0.318761 0.399889
Si Si2 0.144058 0.966921 0.976387
Si Si3 0.158785 0.064542 0.253192
Si Si4 0.598503 0.486385 0.064407
Si Si5 0.845917 0.342829 0.999720
O O1 0.310254 0.366362 0.592659
O O2 0.515800 0.393304 0.240232
O O3 0.378835 0.148029 0.397234
O O4 0.249198 0.393824 0.390780
O O5 0.247376 0.901741 0.560659
O O6 0.210295 0.809506 0.900945
O O7 0.116500 0.958028 0.159305
O O8 0.000000 0.000000 0.000000
O O9 0.020729 0.172232 0.354659
O O10 0.169144 0.971828 0.380495
O O11 0.500000 0.500000 0.000000
#
# Coordination Sequence:
#
# PCOD9250959 Si02
#       5
#     4   4   4   4   4
#     4  10  27  48  70 108 144 199 240 306 356 440
#     4  10  25  42  77 103 148 184 243 295 373 424
#     4   9  26  43  76 104 149 181 250 300 367 427
#     4  12  29  48  76 106 153 196 253 292 375 437
#     4  11  25  45  73 112 142 192 238 310 366 440
#
# _framework density 24.085429000000001
#
# number of rings (size 3 to 8) (size 9 to 14) (size 15 to 20)
#    1.200    0.400    0.000    1.200   16.800    2.400 
#    0.000    0.000    0.000    0.000    0.000    0.000 
#    0.000    0.000    0.000    0.000    0.000    0.000 
#
# Total GULP energy -111663.293975 kJ/mol
# GULP energy per Si atom -5583.164699 kJ/mol
# Density = 2.403061 g / cm^3
# Si number density = 24.085429 Si / 1000 Ang^3
#
#
#
# Elastic Constant Matrix: (Units=GPa)
#
#
# Indices 1 2 3 4 5 6 
#
# 1 116.1808 61.8200 7.4787 0.0000 15.0727 0.0000
# 2 61.8200 182.6294 13.6103 0.0000 2.8807 0.0000
# 3 7.4787 13.6103 73.9278 0.0000 -7.6851 0.0000
# 4 0.0000 0.0000 0.0000 10.4960 0.0000 -0.4449
# 5 15.0727 2.8807 -7.6851 0.0000 26.6353 0.0000
# 6 0.0000 0.0000 0.0000 -0.4449 0.0000 41.1047
#
#
#
# Elastic Compliance Matrix: (Units=1/GPa)
#
#
# Indices 1 2 3 4 5 6 
#
# 1 0.011484 -0.003700 -0.001149 0.000000 -0.006430 0.000000
# 2 -0.003700 0.006766 -0.000752 0.000000 0.001145 0.000000
# 3 -0.001149 -0.000752 0.014286 0.000000 0.004853 0.000000
# 4 0.000000 0.000000 0.000000 0.095318 0.000000 0.001032
# 5 -0.006430 0.001145 0.004853 0.000000 0.042460 0.000000
# 6 0.000000 0.000000 0.000000 0.001032 0.000000 0.024339
#
#
# Mechanical properties :
#
#
# Convention : Reuss Voigt Hill
#
# Bulk Modulus (GPa) = 46.87525 59.83957 53.35741
# Shear Modulus (GPa) = 23.47766 34.96913 29.22339
#
# Velocity S-wave (km/s) = 3.12551 3.81449 3.48706
# Velocity P-wave (km/s) = 5.70346 6.65575 6.19792
#
# Compressibility (1/GPa) = 0.02133322
#
# Stress axis : x y z
#
# Youngs Moduli (GPa) = 87.07403 147.79420 69.99873
#
# Poissons Ratio (x) = 0.54690 0.08043
# Poissons Ratio (y) = 0.32221 0.05266
# Poissons Ratio (z) = 0.10005 0.11118
#
# Static dielectric constant tensor:
#      x y z
#    x 1.964790 0.000000 -0.043960 
#    y 0.000000 1.968050 0.000000 
#    z -0.043960 0.000000 2.001270 
# 
# From -- ./inp_files/17513.got.cif
#   From: 2010.05.17/outbox.cif.g08.bks.cpg/sg14_9_cif.got.tgz:17513.got - 2010.06.03 17:49:19.
