data_PCOD9250270
_publ_section_title
;
Structure prediction by ZEFSAII (Michael W. Deem and Ramdas Pophale) SiO2 
 PCOD9250270
Probable space group: P 21/C
;
_chemical_formula_sum "Si O2"
_cell_formula_units_Z 20
_cell_length_a 10.546349
_cell_length_b 7.508460
_cell_length_c 10.814507
_cell_angle_alpha 90.000000
_cell_angle_beta 116.701801
_cell_angle_gamma 90.000000
_cell_volume 765.041351
_symmetry_space_group_name_H-M "P 21/C"
_symmetry_group_IT_number 14
_symmetry_cell_setting 'monoclinic'
loop_
_space_group_symop_operation_xyz
x,y,z
-x,1/2+y,1/2-z
-x,-y,-z
x,1/2-y,1/2+z
loop_
_atom_site_type_symbol
_atom_site_label
_atom_site_fract_x
_atom_site_fract_y
_atom_site_fract_z
Si Si1 0.580195 0.869396 0.215591
Si Si2 0.185915 0.100207 0.220752
Si Si3 0.308308 0.644389 0.438448
Si Si4 0.256528 0.488643 0.992228
Si Si5 0.919895 0.288082 0.486230
O O1 0.656340 0.679661 0.226739
O O2 0.650561 0.017471 0.155172
O O3 0.618144 0.906474 0.373989
O O4 0.418466 0.878025 0.101213
O O5 0.084401 0.221065 0.089816
O O6 0.164731 0.127471 0.358131
O O7 0.131055 0.907662 0.149711
O O8 0.316088 0.857721 0.424997
O O9 0.152923 0.612057 0.426377
O O10 0.157167 0.600054 0.040984
#
# Coordination Sequence:
#
# PCOD9250270 Si02
#       5
#     4   4   4   4   4
#     4  11  24  40  65  92 119 161 206 247 297 364
#     4  11  24  40  65  92 119 161 206 247 297 364
#     4   9  24  42  61  88 128 156 200 250 303 355
#     4  10  24  40  64  86 124 164 194 252 306 348
#     4   9  24  42  61  88 128 156 200 250 303 355
#
# _framework density 26.142375999999999
#
# number of rings (size 3 to 8) (size 9 to 14) (size 15 to 20)
#    1.200    0.800    0.000    1.200    8.400    4.800 
#    0.000    0.000    0.000    0.000    0.000    0.000 
#    0.000    0.000    0.000    0.000    0.000    0.000 
#
# Total GULP energy -111584.903974 kJ/mol
# GULP energy per Si atom -5579.245199 kJ/mol
# Density = 2.608287 g / cm^3
# Si number density = 26.142376 Si / 1000 Ang^3
#
#
#
# Elastic Constant Matrix: (Units=GPa)
#
#
# Indices 1 2 3 4 5 6 
#
# 1 34.1138 0.5836 6.5274 0.0000 9.2718 0.0000
# 2 0.5836 78.3460 38.4706 0.0000 -5.0985 0.0000
# 3 6.5274 38.4706 187.8764 0.0000 2.7480 0.0000
# 4 0.0000 0.0000 0.0000 28.5948 0.0000 -0.2480
# 5 9.2718 -5.0985 2.7480 0.0000 18.2012 0.0000
# 6 0.0000 0.0000 0.0000 -0.2480 0.0000 27.9066
#
#
#
# Elastic Compliance Matrix: (Units=1/GPa)
#
#
# Indices 1 2 3 4 5 6 
#
# 1 0.034263 -0.001051 -0.000717 0.000000 -0.017640 0.000000
# 2 -0.001051 0.014587 -0.003025 0.000000 0.005078 0.000000
# 3 -0.000717 -0.003025 0.005987 0.000000 -0.001386 0.000000
# 4 0.000000 0.000000 0.000000 0.034974 0.000000 0.000311
# 5 -0.017640 0.005078 -0.001386 0.000000 0.065559 0.000000
# 6 0.000000 0.000000 0.000000 0.000311 0.000000 0.035837
#
#
# Mechanical properties :
#
#
# Convention : Reuss Voigt Hill
#
# Bulk Modulus (GPa) = 22.09848 43.49993 32.79921
# Shear Modulus (GPa) = 23.16127 31.92416 27.54272
#
# Velocity S-wave (km/s) = 2.97975 3.49831 3.24939
# Velocity P-wave (km/s) = 4.50666 5.74398 5.16252
#
# Compressibility (1/GPa) = 0.04525198
#
# Stress axis : x y z
#
# Youngs Moduli (GPa) = 29.18580 68.55199 167.02287
#
# Poissons Ratio (x) = 0.07205 0.11979
# Poissons Ratio (y) = 0.03067 0.50521
# Poissons Ratio (z) = 0.02093 0.20735
#
# Static dielectric constant tensor:
#      x y z
#    x 2.024530 0.000000 -0.031200 
#    y 0.000000 2.118800 0.000000 
#    z -0.031200 0.000000 2.020530 
# 
# From -- ./inp_files/31413.got.cif
#   From: 2010.05.17/outbox.cif.g08.bks.cpg/sg14_16_cif.got.tgz:31413.got - 2010.06.03 17:49:19.
