data_PCOD9250038
_publ_section_title
;
Structure prediction by ZEFSAII (Michael W. Deem and Ramdas Pophale) SiO2 
 PCOD9250038
Probable space group: P 21/C
;
_chemical_formula_sum "Si O2"
_cell_formula_units_Z 32
_cell_length_a 6.622466
_cell_length_b 28.670686
_cell_length_c 7.416558
_cell_angle_alpha 90.000000
_cell_angle_beta 70.504472
_cell_angle_gamma 90.000000
_cell_volume 1327.451837
_symmetry_space_group_name_H-M "P 21/C"
_symmetry_group_IT_number 14
_symmetry_cell_setting 'monoclinic'
loop_
_space_group_symop_operation_xyz
x,y,z
-x,1/2+y,1/2-z
-x,-y,-z
x,1/2-y,1/2+z
loop_
_atom_site_type_symbol
_atom_site_label
_atom_site_fract_x
_atom_site_fract_y
_atom_site_fract_z
Si Si1 0.748590 0.972703 0.777182
Si Si2 0.557737 0.370348 0.138453
Si Si3 0.087898 0.936076 0.391270
Si Si4 0.171178 0.069885 0.898108
Si Si5 0.869464 0.810505 0.654199
Si Si6 0.228408 0.208586 0.723853
Si Si7 0.510686 0.615118 0.262845
Si Si8 0.087674 0.657163 0.411445
O O1 0.550195 0.937606 0.811235
O O2 0.946425 0.949592 0.606311
O O3 0.735812 0.023629 0.695054
O O4 0.794328 0.972669 0.976498
O O5 0.792638 0.386654 0.130583
O O6 0.388313 0.401494 0.299911
O O7 0.454096 0.318701 0.179042
O O8 0.538819 0.385370 0.935057
O O9 0.931946 0.939078 0.265566
O O10 0.015521 0.105916 0.046959
O O11 0.755085 0.763819 0.761096
O O12 0.873321 0.803592 0.439631
O O13 0.724838 0.855679 0.729381
O O14 0.076958 0.819664 0.716019
O O15 0.059695 0.189350 0.919983
O O16 0.325803 0.646431 0.405715
#
# Coordination Sequence:
#
# PCOD9250038 Si02
#       8
#     4   4   4   4   4   4   4   4
#     4  11  24  46  69  98 144 184 233 294 337 411
#     4  10  24  43  69 102 137 181 227 287 342 406
#     4  11  25  46  68 101 142 187 234 284 350 407
#     4  11  23  44  68 101 134 184 232 280 341 412
#     4  11  22  47  67  96 139 170 225 284 335 411
#     4  10  23  45  73  98 137 173 225 286 337 418
#     4  11  24  45  67 102 137 179 228 280 345 407
#     4  11  24  42  70  97 132 183 217 278 349 404
#
# _framework density 24.106338000000001
#
# number of rings (size 3 to 8) (size 9 to 14) (size 15 to 20)
#    0.000    1.250    3.750    1.125    1.750    1.000 
#    6.750    1.250    0.000    0.000    0.000    0.000 
#    0.000    0.000    0.000    0.000    0.000    0.000 
#
# Total GULP energy -178999.739944 kJ/mol
# GULP energy per Si atom -5593.741873 kJ/mol
# Density = 2.405147 g / cm^3
# Si number density = 24.106338 Si / 1000 Ang^3
#
#
#
# Elastic Constant Matrix: (Units=GPa)
#
#
# Indices 1 2 3 4 5 6 
#
# 1 62.9956 18.4079 22.4197 0.0000 8.5701 0.0000
# 2 18.4079 98.5973 14.1674 0.0000 2.4671 0.0000
# 3 22.4197 14.1674 83.5633 0.0000 21.7666 0.0000
# 4 0.0000 0.0000 0.0000 30.1789 0.0000 2.6940
# 5 8.5701 2.4671 21.7666 0.0000 21.2102 0.0000
# 6 0.0000 0.0000 0.0000 2.6940 0.0000 33.7373
#
#
#
# Elastic Compliance Matrix: (Units=1/GPa)
#
#
# Indices 1 2 3 4 5 6 
#
# 1 0.018445 -0.002845 -0.003564 0.000000 -0.003464 0.000000
# 2 -0.002845 0.010845 -0.001428 0.000000 0.001353 0.000000
# 3 -0.003564 -0.001428 0.017398 0.000000 -0.016248 0.000000
# 4 0.000000 0.000000 0.000000 0.033374 0.000000 -0.002665
# 5 -0.003464 0.001353 -0.016248 0.000000 0.065063 0.000000
# 6 0.000000 0.000000 0.000000 -0.002665 0.000000 0.029854
#
#
# Mechanical properties :
#
#
# Convention : Reuss Voigt Hill
#
# Bulk Modulus (GPa) = 32.24370 39.46067 35.85218
# Shear Modulus (GPa) = 24.87692 29.70269 27.28981
#
# Velocity S-wave (km/s) = 3.21591 3.51401 3.36826
# Velocity P-wave (km/s) = 5.21479 5.73318 5.48012
#
# Compressibility (1/GPa) = 0.03101381
#
# Stress axis : x y z
#
# Youngs Moduli (GPa) = 54.21484 92.21091 57.47952
#
# Poissons Ratio (x) = 0.26233 0.20486
# Poissons Ratio (y) = 0.15423 0.08207
# Poissons Ratio (z) = 0.19322 0.13167
#
# Static dielectric constant tensor:
#      x y z
#    x 1.977130 0.000000 -0.000740 
#    y 0.000000 1.864870 0.000000 
#    z -0.000740 0.000000 1.941440 
# 
# From -- ./inp_files/6953.got.cif
#   From: 2010.05.17/outbox.cif.g08.bks.cpg/sg14_4_cif.got.tgz:6953.got - 2010.06.03 17:49:19.
