data_PCOD9250484
_publ_section_title
;
Structure prediction by ZEFSAII (Michael W. Deem and Ramdas Pophale) SiO2 
 PCOD9250484
Probable space group: P 21/C
;
_chemical_formula_sum "Si O2"
_cell_formula_units_Z 28
_cell_length_a 9.077483
_cell_length_b 8.906495
_cell_length_c 22.350185
_cell_angle_alpha 90.000000
_cell_angle_beta 134.043478
_cell_angle_gamma 90.000000
_cell_volume 1298.879891
_symmetry_space_group_name_H-M "P 21/C"
_symmetry_group_IT_number 14
_symmetry_cell_setting 'monoclinic'
loop_
_space_group_symop_operation_xyz
x,y,z
-x,1/2+y,1/2-z
-x,-y,-z
x,1/2-y,1/2+z
loop_
_atom_site_type_symbol
_atom_site_label
_atom_site_fract_x
_atom_site_fract_y
_atom_site_fract_z
Si Si1 0.641235 0.139373 0.333379
Si Si2 0.275758 0.941557 0.428602
Si Si3 0.993829 0.792947 0.653910
Si Si4 0.635721 0.719539 0.846237
Si Si5 0.291472 0.809295 0.837206
Si Si6 0.255102 0.004879 0.929595
Si Si7 0.878717 0.252266 0.513878
O O1 0.452969 0.214470 0.242381
O O2 0.724924 0.234584 0.414042
O O3 0.837221 0.147896 0.344773
O O4 0.600582 0.962666 0.336865
O O5 0.303363 0.797141 0.396797
O O6 0.172017 0.894834 0.461185
O O7 0.500000 0.000000 0.500000
O O8 0.140219 0.069324 0.361503
O O9 0.846386 0.665444 0.587360
O O10 0.126677 0.737794 0.746607
O O11 0.501123 0.804273 0.858901
O O12 0.876031 0.749605 0.926696
O O13 0.215689 0.960257 0.848516
O O14 0.171726 0.893397 0.957500
O O15 0.500000 0.000000 0.000000
#
# Coordination Sequence:
#
# PCOD9250484 Si02
#       7
#     4   4   4   4   4   4   4
#     4  11  26  44  71 106 135 183 225 286 340 414
#     4  11  22  42  68  97 126 182 225 270 339 407
#     4  11  23  43  67  97 137 171 228 282 336 401
#     4  11  25  46  71 103 138 177 236 274 348 412
#     4  10  24  43  66  96 133 177 222 281 336 404
#     4  11  26  45  65 102 133 178 230 281 340 400
#     4  11  25  45  72  96 142 183 223 281 344 410
#
# _framework density 21.557036
#
# number of rings (size 3 to 8) (size 9 to 14) (size 15 to 20)
#    0.000    1.143    1.429    3.857    8.000    2.857 
#   10.286    0.000    0.000    0.000    0.000    0.000 
#    0.000    0.000    0.000    0.000    0.000    0.000 
#
# Total GULP energy -156221.829584 kJ/mol
# GULP energy per Si atom -5579.351057 kJ/mol
# Density = 2.150797 g / cm^3
# Si number density = 21.557036 Si / 1000 Ang^3
#
#
#
# Elastic Constant Matrix: (Units=GPa)
#
#
# Indices 1 2 3 4 5 6 
#
# 1 67.1356 10.1451 24.4790 0.0000 7.1851 0.0000
# 2 10.1451 41.5364 -7.1871 0.0000 3.8779 0.0000
# 3 24.4790 -7.1871 80.7066 0.0000 -4.3261 0.0000
# 4 0.0000 0.0000 0.0000 30.2799 0.0000 11.1010
# 5 7.1851 3.8779 -4.3261 0.0000 35.0469 0.0000
# 6 0.0000 0.0000 0.0000 11.1010 0.0000 24.4680
#
#
#
# Elastic Compliance Matrix: (Units=1/GPa)
#
#
# Indices 1 2 3 4 5 6 
#
# 1 0.018385 -0.005202 -0.006252 0.000000 -0.003965 0.000000
# 2 -0.005202 0.026135 0.003833 0.000000 -0.001352 0.000000
# 3 -0.006252 0.003833 0.014772 0.000000 0.002681 0.000000
# 4 0.000000 0.000000 0.000000 0.039614 0.000000 -0.017973
# 5 -0.003965 -0.001352 0.002681 0.000000 0.029827 0.000000
# 6 0.000000 0.000000 0.000000 -0.017973 0.000000 0.049024
#
#
# Mechanical properties :
#
#
# Convention : Reuss Voigt Hill
#
# Bulk Modulus (GPa) = 22.70180 27.13916 24.92048
# Shear Modulus (GPa) = 24.07503 28.75508 26.41506
#
# Velocity S-wave (km/s) = 3.34549 3.65623 3.50431
# Velocity P-wave (km/s) = 5.04747 5.51732 5.28762
#
# Compressibility (1/GPa) = 0.04404938
#
# Stress axis : x y z
#
# Youngs Moduli (GPa) = 54.39089 38.26242 67.69580
#
# Poissons Ratio (x) = 0.19905 0.42325
# Poissons Ratio (y) = 0.28295 -0.25946
# Poissons Ratio (z) = 0.34007 -0.14665
#
# Static dielectric constant tensor:
#      x y z
#    x 1.353490 0.000000 0.174450 
#    y 0.000000 1.777690 0.000000 
#    z 0.174450 0.000000 1.714800 
# 
# From -- ./inp_files/64971.got.cif
#   From: 2010.05.17/outbox.cif.g08.bks.cpg/sg14_33_cif.got.tgz:64971.got - 2010.06.03 17:49:19.
