data_PCOD9250894
_publ_section_title
;
Structure prediction by ZEFSAII (Michael W. Deem and Ramdas Pophale) SiO2 
 PCOD9250894
Probable space group: P 21/C
;
_chemical_formula_sum "Si O2"
_cell_formula_units_Z 32
_cell_length_a 14.721891
_cell_length_b 8.587419
_cell_length_c 23.400957
_cell_angle_alpha 90.000000
_cell_angle_beta 152.842221
_cell_angle_gamma 90.000000
_cell_volume 1350.348439
_symmetry_space_group_name_H-M "P 21/C"
_symmetry_group_IT_number 14
_symmetry_cell_setting 'monoclinic'
loop_
_space_group_symop_operation_xyz
x,y,z
-x,1/2+y,1/2-z
-x,-y,-z
x,1/2-y,1/2+z
loop_
_atom_site_type_symbol
_atom_site_label
_atom_site_fract_x
_atom_site_fract_y
_atom_site_fract_z
Si Si1 0.906130 0.987252 0.759902
Si Si2 0.294724 0.649002 0.749960
Si Si3 0.084036 0.244733 0.520543
Si Si4 0.141297 0.927292 0.509947
Si Si5 0.562629 0.978671 0.774082
Si Si6 0.803513 0.642073 0.663731
Si Si7 0.714821 0.152302 0.968227
Si Si8 0.572995 0.461449 0.622927
O O1 0.823887 0.821839 0.692287
O O2 0.001366 0.089414 0.762289
O O3 0.099162 0.948229 0.906680
O O4 0.751120 0.075188 0.713961
O O5 0.440040 0.552041 0.790720
O O6 0.367869 0.824229 0.801142
O O7 0.091454 0.644524 0.599043
O O8 0.290900 0.332187 0.641670
O O9 0.024690 0.166523 0.547566
O O10 0.087332 0.106967 0.475521
O O11 0.336702 0.933729 0.659797
O O12 0.207058 0.827765 0.492519
O O13 0.647991 0.097424 0.868252
O O14 0.760467 0.526763 0.692836
O O15 0.602225 0.613031 0.514165
O O16 0.531140 0.110020 0.905694
#
# Coordination Sequence:
#
# PCOD9250894 Si02
#       8
#     4   4   4   4   4   4   4   4
#     4  11  24  44  74  94 135 175 232 288 360 402
#     4  12  24  41  70 105 137 194 220 285 345 426
#     4  11  24  43  63  97 144 189 238 279 328 409
#     4  11  25  40  66  97 140 196 234 276 332 413
#     4  12  24  44  65 101 157 183 227 281 340 417
#     4  10  24  49  69  99 129 174 229 313 345 409
#     4  11  23  43  65 102 134 186 221 280 346 411
#     4  10  25  45  72  96 138 174 235 289 357 403
#
# _framework density 23.697586999999999
#
# number of rings (size 3 to 8) (size 9 to 14) (size 15 to 20)
#    0.000    1.000    2.500    3.375    5.250    1.500 
#    2.250    0.000    0.000    0.000    0.000    0.000 
#    0.000    0.000    0.000    0.000    0.000    0.000 
#
# Total GULP energy -179116.849868 kJ/mol
# GULP energy per Si atom -5597.401558 kJ/mol
# Density = 2.364365 g / cm^3
# Si number density = 23.697587 Si / 1000 Ang^3
#
#
#
# Elastic Constant Matrix: (Units=GPa)
#
#
# Indices 1 2 3 4 5 6 
#
# 1 93.4872 12.2027 5.2480 0.0000 -7.2633 0.0000
# 2 12.2027 50.3800 -1.3128 0.0000 -6.5276 0.0000
# 3 5.2480 -1.3128 41.8438 0.0000 13.0368 0.0000
# 4 0.0000 0.0000 0.0000 42.0196 0.0000 2.3750
# 5 -7.2633 -6.5276 13.0368 0.0000 17.3032 0.0000
# 6 0.0000 0.0000 0.0000 2.3750 0.0000 43.9132
#
#
#
# Elastic Compliance Matrix: (Units=1/GPa)
#
#
# Indices 1 2 3 4 5 6 
#
# 1 0.011708 -0.002034 -0.003691 0.000000 0.006928 0.000000
# 2 -0.002034 0.021401 -0.001729 0.000000 0.008522 0.000000
# 3 -0.003691 -0.001729 0.032659 0.000000 -0.026808 0.000000
# 4 0.000000 0.000000 0.000000 0.023871 0.000000 -0.001291
# 5 0.006928 0.008522 -0.026808 0.000000 0.084113 0.000000
# 6 0.000000 0.000000 0.000000 -0.001291 0.000000 0.022842
#
#
# Mechanical properties :
#
#
# Convention : Reuss Voigt Hill
#
# Bulk Modulus (GPa) = 19.66139 24.22078 21.94108
# Shear Modulus (GPa) = 21.88614 31.95208 26.91911
#
# Velocity S-wave (km/s) = 3.04231 3.67594 3.37403
# Velocity P-wave (km/s) = 4.54485 5.31598 4.94547
#
# Compressibility (1/GPa) = 0.05086111
#
# Stress axis : x y z
#
# Youngs Moduli (GPa) = 85.41475 46.72674 30.61920
#
# Poissons Ratio (x) = 0.09506 0.11300
# Poissons Ratio (y) = 0.17376 0.05293
# Poissons Ratio (z) = 0.31523 0.08077
#
# Static dielectric constant tensor:
#      x y z
#    x 1.916170 0.000000 -0.012610 
#    y 0.000000 1.910710 0.000000 
#    z -0.012610 0.000000 1.881520 
# 
# From -- ./inp_files/73771.got.cif
#   From: 2010.05.17/outbox.cif.g08.bks.cpg/sg14_37_cif.got.tgz:73771.got - 2010.06.03 17:49:19.
