data_PCOD9250926
_publ_section_title
;
Structure prediction by ZEFSAII (Michael W. Deem and Ramdas Pophale) SiO2 
 PCOD9250926
Probable space group: P 21/C
;
_chemical_formula_sum "Si O2"
_cell_formula_units_Z 20
_cell_length_a 8.655581
_cell_length_b 9.659762
_cell_length_c 8.530269
_cell_angle_alpha 90.000000
_cell_angle_beta 86.012236
_cell_angle_gamma 90.000000
_cell_volume 711.496296
_symmetry_space_group_name_H-M "P 21/C"
_symmetry_group_IT_number 14
_symmetry_cell_setting 'monoclinic'
loop_
_space_group_symop_operation_xyz
x,y,z
-x,1/2+y,1/2-z
-x,-y,-z
x,1/2-y,1/2+z
loop_
_atom_site_type_symbol
_atom_site_label
_atom_site_fract_x
_atom_site_fract_y
_atom_site_fract_z
Si Si1 0.332431 0.501814 0.843858
Si Si2 0.559745 0.274066 0.939290
Si Si3 0.849326 0.316605 0.716634
Si Si4 0.280306 0.436012 0.489282
Si Si5 0.931063 0.668261 0.026057
O O1 0.469861 0.390936 0.849365
O O2 0.273491 0.476838 0.672140
O O3 0.207074 0.442443 0.979320
O O4 0.403558 0.647054 0.899202
O O5 0.724029 0.258568 0.846069
O O6 0.447645 0.140720 0.953943
O O7 0.769310 0.433773 0.614520
O O8 0.938151 0.197051 0.612888
O O9 0.984352 0.371218 0.819682
O O10 0.156820 0.315572 0.457570
#
# Coordination Sequence:
#
# PCOD9250926 Si02
#       5
#     4   4   4   4   4
#     4  10  24  52  85 117 168 226 283 349 421 507
#     4  10  27  50  84 123 167 225 290 341 423 511
#     4  12  28  51  83 124 170 224 284 351 426 501
#     4  11  26  56  84 119 178 222 281 353 421 510
#     4  11  26  49  82 127 170 218 278 349 433 502
#
# _framework density 28.109772
#
# number of rings (size 3 to 8) (size 9 to 14) (size 15 to 20)
#    0.000    1.200    2.000    0.600    5.600    8.000 
#    0.000    0.000    0.000    0.000    0.000    0.000 
#    0.000    0.000    0.000    0.000    0.000    0.000 
#
# Total GULP energy -112174.038145 kJ/mol
# GULP energy per Si atom -5608.701907 kJ/mol
# Density = 2.804579 g / cm^3
# Si number density = 28.109772 Si / 1000 Ang^3
#
#
#
# Elastic Constant Matrix: (Units=GPa)
#
#
# Indices 1 2 3 4 5 6 
#
# 1 195.9903 67.9141 71.6186 0.0000 -23.9103 0.0000
# 2 67.9141 188.1262 29.4449 0.0000 -18.4378 0.0000
# 3 71.6186 29.4449 114.4570 0.0000 -0.7512 0.0000
# 4 0.0000 0.0000 0.0000 44.1471 0.0000 14.3714
# 5 -23.9103 -18.4378 -0.7512 0.0000 63.2026 0.0000
# 6 0.0000 0.0000 0.0000 14.3714 0.0000 59.3764
#
#
#
# Elastic Compliance Matrix: (Units=1/GPa)
#
#
# Indices 1 2 3 4 5 6 
#
# 1 0.007572 -0.001845 -0.004248 0.000000 0.002276 0.000000
# 2 -0.001845 0.006155 -0.000421 0.000000 0.001092 0.000000
# 3 -0.004248 -0.000421 0.011493 0.000000 -0.001593 0.000000
# 4 0.000000 0.000000 0.000000 0.024589 0.000000 -0.005952
# 5 0.002276 0.001092 -0.001593 0.000000 0.016983 0.000000
# 6 0.000000 0.000000 0.000000 -0.005952 0.000000 0.018282
#
#
# Mechanical properties :
#
#
# Convention : Reuss Voigt Hill
#
# Bulk Modulus (GPa) = 82.03789 92.94763 87.49276
# Shear Modulus (GPa) = 48.93957 55.31829 52.12893
#
# Velocity S-wave (km/s) = 4.17708 4.44096 4.31104
# Velocity P-wave (km/s) = 7.24653 7.70934 7.48151
#
# Compressibility (1/GPa) = 0.01218949
#
# Stress axis : x y z
#
# Youngs Moduli (GPa) = 132.06975 162.47412 87.00932
#
# Poissons Ratio (x) = 0.29985 0.36963
# Poissons Ratio (y) = 0.24373 0.03667
# Poissons Ratio (z) = 0.56105 0.06847
#
# Static dielectric constant tensor:
#      x y z
#    x 2.198310 0.000000 0.002160 
#    y 0.000000 2.229520 0.000000 
#    z 0.002160 0.000000 2.175370 
# 
# From -- ./inp_files/7944.got.cif
#   From: 2010.05.17/outbox.cif.g08.bks.cpg/sg14_4_cif.got.tgz:7944.got - 2010.06.03 17:49:19.
