data_PCOD9250747
_publ_section_title
;
Structure prediction by ZEFSAII (Michael W. Deem and Ramdas Pophale) SiO2 
 PCOD9250747
Probable space group: P 21/C
;
_chemical_formula_sum "Si O2"
_cell_formula_units_Z 16
_cell_length_a 17.358227
_cell_length_b 9.515633
_cell_length_c 13.594832
_cell_angle_alpha 90.000000
_cell_angle_beta 17.696406
_cell_angle_gamma 90.000000
_cell_volume 682.578075
_symmetry_space_group_name_H-M "P 21/C"
_symmetry_group_IT_number 14
_symmetry_cell_setting 'monoclinic'
loop_
_space_group_symop_operation_xyz
x,y,z
-x,1/2+y,1/2-z
-x,-y,-z
x,1/2-y,1/2+z
loop_
_atom_site_type_symbol
_atom_site_label
_atom_site_fract_x
_atom_site_fract_y
_atom_site_fract_z
Si Si1 0.898695 0.418577 0.381688
Si Si2 0.186050 0.621427 0.311464
Si Si3 0.848328 0.605491 0.253804
Si Si4 0.296924 0.865614 0.459698
O O1 0.716976 0.422095 0.698353
O O2 0.824543 0.523561 0.385292
O O3 0.884666 0.262628 0.353174
O O4 0.164932 0.485196 0.095164
O O5 0.000000 0.500000 0.500000
O O6 0.015505 0.755455 0.548124
O O7 0.339603 0.654684 0.025275
O O8 0.558619 0.642604 0.581566
O O9 0.000000 0.500000 0.000000
#
# Coordination Sequence:
#
# PCOD9250747 Si02
#       4
#     4   4   4   4
#     4  11  24  47  71 110 142 199 238 297 377 419
#     4  10  24  46  67 108 145 187 244 296 359 436
#     4  12  26  47  74 110 147 192 245 305 365 436
#     4  11  26  47  74 104 151 188 250 303 359 444
#
# _framework density 23.440539999999999
#
# number of rings (size 3 to 8) (size 9 to 14) (size 15 to 20)
#    0.000    1.000    5.000    0.000    7.000    2.000 
#    9.000    0.000    0.000    0.000    0.000    0.000 
#    0.000    0.000    0.000    0.000    0.000    0.000 
#
# Total GULP energy -89269.075698 kJ/mol
# GULP energy per Si atom -5579.317231 kJ/mol
# Density = 2.338719 g / cm^3
# Si number density = 23.440540 Si / 1000 Ang^3
#
#
#
# Elastic Constant Matrix: (Units=GPa)
#
#
# Indices 1 2 3 4 5 6 
#
# 1 103.4422 37.2172 33.8666 0.0000 45.2376 0.0000
# 2 37.2172 142.3833 52.5816 0.0000 21.8227 0.0000
# 3 33.8666 52.5816 134.0724 0.0000 16.6568 0.0000
# 4 0.0000 0.0000 0.0000 23.8757 0.0000 10.6357
# 5 45.2376 21.8227 16.6568 0.0000 28.3540 0.0000
# 6 0.0000 0.0000 0.0000 10.6357 0.0000 49.4683
#
#
#
# Elastic Compliance Matrix: (Units=1/GPa)
#
#
# Indices 1 2 3 4 5 6 
#
# 1 0.032426 -0.000019 -0.001896 0.000000 -0.050605 0.000000
# 2 -0.000019 0.008860 -0.002833 0.000000 -0.005124 0.000000
# 3 -0.001896 -0.002833 0.009064 0.000000 -0.000119 0.000000
# 4 0.000000 0.000000 0.000000 0.046320 0.000000 -0.009959
# 5 -0.050605 -0.005124 -0.000119 0.000000 0.120020 0.000000
# 6 0.000000 0.000000 0.000000 -0.009959 0.000000 0.022356
#
#
# Mechanical properties :
#
#
# Convention : Reuss Voigt Hill
#
# Bulk Modulus (GPa) = 24.47871 69.69206 47.08539
# Shear Modulus (GPa) = 19.07229 37.42174 28.24701
#
# Velocity S-wave (km/s) = 2.85554 3.99990 3.47515
# Velocity P-wave (km/s) = 4.61928 7.15040 6.01938
#
# Compressibility (1/GPa) = 0.04085182
#
# Stress axis : x y z
#
# Youngs Moduli (GPa) = 30.83966 112.86681 110.33204
#
# Poissons Ratio (x) = 0.00218 0.20920
# Poissons Ratio (y) = 0.00060 0.31261
# Poissons Ratio (z) = 0.05848 0.31979
#
# Static dielectric constant tensor:
#      x y z
#    x 2.055750 0.000000 0.054990 
#    y 0.000000 1.920030 0.000000 
#    z 0.054990 0.000000 1.912410 
# 
# From -- ./inp_files/49913.got.cif
#   From: 2010.05.17/outbox.cif.g08.bks.cpg/sg14_25_cif.got.tgz:49913.got - 2010.06.03 17:49:19.
