data_PCOD9250318
_publ_section_title
;
Structure prediction by ZEFSAII (Michael W. Deem and Ramdas Pophale) SiO2 
 PCOD9250318
Probable space group: P 21/C
;
_chemical_formula_sum "Si O2"
_cell_formula_units_Z 28
_cell_length_a 16.478099
_cell_length_b 10.573913
_cell_length_c 8.999779
_cell_angle_alpha 90.000000
_cell_angle_beta 53.212909
_cell_angle_gamma 90.000000
_cell_volume 1255.841157
_symmetry_space_group_name_H-M "P 21/C"
_symmetry_group_IT_number 14
_symmetry_cell_setting 'monoclinic'
loop_
_space_group_symop_operation_xyz
x,y,z
-x,1/2+y,1/2-z
-x,-y,-z
x,1/2-y,1/2+z
loop_
_atom_site_type_symbol
_atom_site_label
_atom_site_fract_x
_atom_site_fract_y
_atom_site_fract_z
Si Si1 0.387001 0.599399 0.868434
Si Si2 0.305013 0.668463 0.284111
Si Si3 0.267398 0.244890 0.708691
Si Si4 0.066527 0.659135 0.555536
Si Si5 0.624377 0.910365 0.161106
Si Si6 0.788856 0.576281 0.985917
Si Si7 0.023438 0.594936 0.263446
O O1 0.365910 0.711457 0.776653
O O2 0.505235 0.579116 0.763603
O O3 0.325426 0.477485 0.879563
O O4 0.336990 0.636255 0.081140
O O5 0.185313 0.690556 0.424467
O O6 0.331514 0.548734 0.357710
O O7 0.321768 0.337834 0.533087
O O8 0.348660 0.170533 0.720900
O O9 0.205394 0.144019 0.679885
O O10 0.198561 0.323949 0.896662
O O11 0.032843 0.634907 0.424361
O O12 0.006405 0.777958 0.689581
O O13 0.050184 0.526802 0.661853
O O14 0.868975 0.464726 0.903810
#
# Coordination Sequence:
#
# PCOD9250318 Si02
#       7
#     4   4   4   4   4   4   4
#     4  12  25  40  66  93 134 174 224 274 328 393
#     4  12  24  43  67  94 135 176 225 274 333 393
#     4  10  24  41  64  93 137 170 224 271 337 391
#     4  11  24  46  69 104 133 182 218 286 334 406
#     4  11  24  41  63  96 130 180 222 275 329 395
#     4  11  23  44  64  96 131 173 215 279 331 402
#     4  11  25  45  73  99 141 171 229 273 345 401
#
# _framework density 22.295812999999999
#
# number of rings (size 3 to 8) (size 9 to 14) (size 15 to 20)
#    0.000    0.857    4.286    1.286    6.000    6.857 
#    0.000    0.000    0.000    0.000    0.000    0.000 
#    0.000    0.000    0.000    0.000    0.000    0.000 
#
# Total GULP energy -156832.055249 kJ/mol
# GULP energy per Si atom -5601.144830 kJ/mol
# Density = 2.224507 g / cm^3
# Si number density = 22.295813 Si / 1000 Ang^3
#
#
#
# Elastic Constant Matrix: (Units=GPa)
#
#
# Indices 1 2 3 4 5 6 
#
# 1 40.2797 7.0799 5.0229 0.0000 -0.0176 0.0000
# 2 7.0799 101.5956 8.4189 0.0000 17.2613 0.0000
# 3 5.0229 8.4189 29.3328 0.0000 -3.4414 0.0000
# 4 0.0000 0.0000 0.0000 32.5942 0.0000 9.3260
# 5 -0.0176 17.2613 -3.4414 0.0000 28.1440 0.0000
# 6 0.0000 0.0000 0.0000 9.3260 0.0000 30.5217
#
#
#
# Elastic Compliance Matrix: (Units=1/GPa)
#
#
# Indices 1 2 3 4 5 6 
#
# 1 0.025582 -0.001544 -0.003880 0.000000 0.000489 0.000000
# 2 -0.001544 0.011565 -0.003944 0.000000 -0.007576 0.000000
# 3 -0.003880 -0.003944 0.036698 0.000000 0.006904 0.000000
# 4 0.000000 0.000000 0.000000 0.033620 0.000000 -0.010273
# 5 0.000489 -0.007576 0.006904 0.000000 0.041022 0.000000
# 6 0.000000 0.000000 0.000000 -0.010273 0.000000 0.035902
#
#
# Mechanical properties :
#
#
# Convention : Reuss Voigt Hill
#
# Bulk Modulus (GPa) = 18.14604 23.58350 20.86477
# Shear Modulus (GPa) = 22.57401 28.29772 25.43587
#
# Velocity S-wave (km/s) = 3.18540 3.56644 3.38129
# Velocity P-wave (km/s) = 4.65676 5.24975 4.96212
#
# Compressibility (1/GPa) = 0.05510845
#
# Stress axis : x y z
#
# Youngs Moduli (GPa) = 39.09015 86.47141 27.24967
#
# Poissons Ratio (x) = 0.13353 0.10573
# Poissons Ratio (y) = 0.06036 0.10746
# Poissons Ratio (z) = 0.15167 0.34101
#
# Static dielectric constant tensor:
#      x y z
#    x 1.788530 0.000000 -0.007220 
#    y 0.000000 1.818020 0.000000 
#    z -0.007220 0.000000 1.797110 
# 
# From -- ./inp_files/15461.got.cif
#   From: 2010.05.17/outbox.cif.g08.bks.cpg/sg14_8_cif.got.tgz:15461.got - 2010.06.03 17:49:19.
