data_PCOD9250041
_publ_section_title
;
Structure prediction by ZEFSAII (Michael W. Deem and Ramdas Pophale) SiO2 
 PCOD9250041
Probable space group: P 21/C
;
_chemical_formula_sum "Si O2"
_cell_formula_units_Z 20
_cell_length_a 5.364519
_cell_length_b 17.879378
_cell_length_c 9.201411
_cell_angle_alpha 90.000000
_cell_angle_beta 120.999032
_cell_angle_gamma 90.000000
_cell_volume 756.497727
_symmetry_space_group_name_H-M "P 21/C"
_symmetry_group_IT_number 14
_symmetry_cell_setting 'monoclinic'
loop_
_space_group_symop_operation_xyz
x,y,z
-x,1/2+y,1/2-z
-x,-y,-z
x,1/2-y,1/2+z
loop_
_atom_site_type_symbol
_atom_site_label
_atom_site_fract_x
_atom_site_fract_y
_atom_site_fract_z
Si Si1 0.090949 0.487558 0.361598
Si Si2 0.674222 0.743171 0.333211
Si Si3 0.681730 0.530334 0.856504
Si Si4 0.713975 0.896619 0.644591
Si Si5 0.943515 0.180851 0.786518
O O1 0.354287 0.464220 0.328740
O O2 0.000000 0.500000 0.500000
O O3 0.031234 0.571335 0.279505
O O4 0.915476 0.409134 0.280871
O O5 0.632459 0.677267 0.201765
O O6 0.356479 0.775746 0.273586
O O7 0.830303 0.705791 0.519231
O O8 0.907572 0.795787 0.320328
O O9 0.471295 0.465553 0.848691
O O10 0.670986 0.601734 0.959711
O O11 0.000000 0.500000 0.000000
#
# Coordination Sequence:
#
# PCOD9250041 Si02
#       5
#     4   4   4   4   4
#     4  11  24  46  75 108 148 199 268 315 387 456
#     4  12  29  51  76 113 159 209 259 322 401 466
#     4   9  22  39  71 105 141 190 253 320 377 455
#     4  10  23  45  74 104 147 201 260 317 387 468
#     4  12  30  50  78 114 160 209 258 327 391 476
#
# _framework density 26.437622999999999
#
# number of rings (size 3 to 8) (size 9 to 14) (size 15 to 20)
#    0.000    1.200    2.000    1.200   11.200    8.800 
#    0.000    0.000    0.000    0.000    0.000    0.000 
#    0.000    0.000    0.000    0.000    0.000    0.000 
#
# Total GULP energy -111600.640526 kJ/mol
# GULP energy per Si atom -5580.032026 kJ/mol
# Density = 2.637745 g / cm^3
# Si number density = 26.437623 Si / 1000 Ang^3
#
#
#
# Elastic Constant Matrix: (Units=GPa)
#
#
# Indices 1 2 3 4 5 6 
#
# 1 133.1805 54.9085 41.3208 0.0000 -26.1700 0.0000
# 2 54.9085 138.5414 21.2755 0.0000 -17.7823 0.0000
# 3 41.3208 21.2755 139.6153 0.0000 -60.0883 0.0000
# 4 0.0000 0.0000 0.0000 59.1737 0.0000 -11.8601
# 5 -26.1700 -17.7823 -60.0883 0.0000 47.8799 0.0000
# 6 0.0000 0.0000 0.0000 -11.8601 0.0000 40.1945
#
#
#
# Elastic Compliance Matrix: (Units=1/GPa)
#
#
# Indices 1 2 3 4 5 6 
#
# 1 0.009786 -0.003362 -0.001347 0.000000 0.002410 0.000000
# 2 -0.003362 0.008736 0.000586 0.000000 0.002141 0.000000
# 3 -0.001347 0.000586 0.015762 0.000000 0.019263 0.000000
# 4 0.000000 0.000000 0.000000 0.017962 0.000000 0.005300
# 5 0.002410 0.002141 0.019263 0.000000 0.047173 0.000000
# 6 0.000000 0.000000 0.000000 0.005300 0.000000 0.026443
#
#
# Mechanical properties :
#
#
# Convention : Reuss Voigt Hill
#
# Bulk Modulus (GPa) = 38.40681 71.81632 55.11156
# Shear Modulus (GPa) = 35.01704 49.03844 42.02774
#
# Velocity S-wave (km/s) = 3.64334 4.31150 3.99142
# Velocity P-wave (km/s) = 5.67956 7.21171 6.49100
#
# Compressibility (1/GPa) = 0.02603705
#
# Stress axis : x y z
#
# Youngs Moduli (GPa) = 102.18331 114.47342 63.44248
#
# Poissons Ratio (x) = 0.38492 0.08544
# Poissons Ratio (y) = 0.34359 -0.03715
# Poissons Ratio (z) = 0.13762 -0.06704
#
# Static dielectric constant tensor:
#      x y z
#    x 2.301810 0.000000 0.131770 
#    y 0.000000 2.087090 0.000000 
#    z 0.131770 0.000000 2.284190 
# 
# From -- ./inp_files/5541.got.cif
#   From: 2010.05.17/outbox.cif.g08.bks.cpg/sg14_3_cif.got.tgz:5541.got - 2010.06.03 17:49:19.
