data_PCOD9250090
_publ_section_title
;
Structure prediction by ZEFSAII (Michael W. Deem and Ramdas Pophale) SiO2 
 PCOD9250090
Probable space group: P 21/C
;
_chemical_formula_sum "Si O2"
_cell_formula_units_Z 20
_cell_length_a 6.932263
_cell_length_b 13.470305
_cell_length_c 8.825084
_cell_angle_alpha 90.000000
_cell_angle_beta 108.534080
_cell_angle_gamma 90.000000
_cell_volume 781.342366
_symmetry_space_group_name_H-M "P 21/C"
_symmetry_group_IT_number 14
_symmetry_cell_setting 'monoclinic'
loop_
_space_group_symop_operation_xyz
x,y,z
-x,1/2+y,1/2-z
-x,-y,-z
x,1/2-y,1/2+z
loop_
_atom_site_type_symbol
_atom_site_label
_atom_site_fract_x
_atom_site_fract_y
_atom_site_fract_z
Si Si1 0.294688 0.253498 0.441380
Si Si2 0.702343 0.551167 0.356594
Si Si3 0.924119 0.630414 0.862881
Si Si4 0.646826 0.364853 0.882163
Si Si5 0.848989 0.432622 0.662209
O O1 0.332217 0.349890 0.553307
O O2 0.199861 0.166735 0.521120
O O3 0.129306 0.288944 0.277671
O O4 0.499391 0.220112 0.408656
O O5 0.518705 0.547883 0.192386
O O6 0.723499 0.460276 0.479169
O O7 0.919144 0.570628 0.333751
O O8 0.848877 0.527319 0.774860
O O9 0.162498 0.620988 0.959607
O O10 0.754428 0.348639 0.744862
#
# Coordination Sequence:
#
# PCOD9250090 Si02
#       5
#     4   4   4   4   4
#     4  11  25  45  66 104 144 178 236 290 354 418
#     4  10  23  46  71 103 142 184 231 288 351 427
#     4  11  26  44  69 103 145 183 236 297 347 421
#     4  12  24  42  75 101 138 189 229 292 350 422
#     4  10  24  46  72 103 144 184 235 293 353 415
#
# _framework density 25.596972999999998
#
# number of rings (size 3 to 8) (size 9 to 14) (size 15 to 20)
#    0.000    1.200    2.000    2.400    2.800    3.200 
#    0.000    8.000    0.000    0.000    0.000    0.000 
#    0.000    0.000    0.000    0.000    0.000    0.000 
#
# Total GULP energy -111977.092173 kJ/mol
# GULP energy per Si atom -5598.854609 kJ/mol
# Density = 2.553871 g / cm^3
# Si number density = 25.596973 Si / 1000 Ang^3
#
#
#
# Elastic Constant Matrix: (Units=GPa)
#
#
# Indices 1 2 3 4 5 6 
#
# 1 168.5673 44.5858 40.0558 0.0000 -21.1338 0.0000
# 2 44.5858 59.8438 31.8730 0.0000 -20.1699 0.0000
# 3 40.0558 31.8730 119.1009 0.0000 -1.2540 0.0000
# 4 0.0000 0.0000 0.0000 31.0696 0.0000 -8.3375
# 5 -21.1338 -20.1699 -1.2540 0.0000 53.2455 0.0000
# 6 0.0000 0.0000 0.0000 -8.3375 0.0000 41.4240
#
#
#
# Elastic Compliance Matrix: (Units=1/GPa)
#
#
# Indices 1 2 3 4 5 6 
#
# 1 0.007606 -0.004528 -0.001333 0.000000 0.001272 0.000000
# 2 -0.004528 0.025462 -0.005210 0.000000 0.007725 0.000000
# 3 -0.001333 -0.005210 0.010215 0.000000 -0.002262 0.000000
# 4 0.000000 0.000000 0.000000 0.034023 0.000000 0.006848
# 5 0.001272 0.007725 -0.002262 0.000000 0.022159 0.000000
# 6 0.000000 0.000000 0.000000 0.006848 0.000000 0.025519
#
#
# Mechanical properties :
#
#
# Convention : Reuss Voigt Hill
#
# Bulk Modulus (GPa) = 47.29987 64.50455 55.90221
# Shear Modulus (GPa) = 32.43083 40.54766 36.48925
#
# Velocity S-wave (km/s) = 3.56333 3.98437 3.77971
# Velocity P-wave (km/s) = 5.95387 6.81335 6.39806
#
# Compressibility (1/GPa) = 0.02114171
#
# Stress axis : x y z
#
# Youngs Moduli (GPa) = 131.46978 39.27357 97.89594
#
# Poissons Ratio (x) = 0.17784 0.13049
# Poissons Ratio (y) = 0.59533 0.51002
# Poissons Ratio (z) = 0.17524 0.20461
#
# Static dielectric constant tensor:
#      x y z
#    x 2.025080 0.000000 0.024410 
#    y 0.000000 2.075110 0.000000 
#    z 0.024410 0.000000 2.059690 
# 
# From -- ./inp_files/5542.got.cif
#   From: 2010.05.17/outbox.cif.g08.bks.cpg/sg14_3_cif.got.tgz:5542.got - 2010.06.03 17:49:19.
