data_PCOD9250632
_publ_section_title
;
Structure prediction by ZEFSAII (Michael W. Deem and Ramdas Pophale) SiO2 
 PCOD9250632
Probable space group: P 21/C
;
_chemical_formula_sum "Si O2"
_cell_formula_units_Z 24
_cell_length_a 8.261618
_cell_length_b 10.098563
_cell_length_c 17.778866
_cell_angle_alpha 90.000000
_cell_angle_beta 141.278799
_cell_angle_gamma 90.000000
_cell_volume 927.850181
_symmetry_space_group_name_H-M "P 21/C"
_symmetry_group_IT_number 14
_symmetry_cell_setting 'monoclinic'
loop_
_space_group_symop_operation_xyz
x,y,z
-x,1/2+y,1/2-z
-x,-y,-z
x,1/2-y,1/2+z
loop_
_atom_site_type_symbol
_atom_site_label
_atom_site_fract_x
_atom_site_fract_y
_atom_site_fract_z
Si Si1 0.955263 0.334626 0.280487
Si Si2 0.621805 0.656011 0.874322
Si Si3 0.708751 0.884285 0.561136
Si Si4 0.777723 0.557008 0.473436
Si Si5 0.839150 0.819625 0.304057
Si Si6 0.605102 0.282682 0.451173
O O1 0.666029 0.364846 0.200600
O O2 0.033298 0.177767 0.306975
O O3 0.104949 0.399053 0.404377
O O4 0.036266 0.383055 0.226514
O O5 0.699149 0.604061 0.821233
O O6 0.789039 0.599394 0.003655
O O7 0.661630 0.814539 0.891210
O O8 0.516505 0.760960 0.513978
O O9 0.500000 0.000000 0.500000
O O10 0.591398 0.436513 0.426497
O O11 0.000000 0.500000 0.500000
O O12 0.604253 0.726122 0.185622
O O13 0.094899 0.757123 0.436619
#
# Coordination Sequence:
#
# PCOD9250632 Si02
#       6
#     4   4   4   4   4   4
#     4  10  24  44  72 105 148 193 245 311 386 440
#     4  11  23  44  74 105 143 196 250 310 387 444
#     4  10  24  46  68  98 151 195 247 308 372 450
#     4  11  23  45  79 107 147 196 265 314 365 469
#     4  11  24  45  70 105 154 185 258 310 369 464
#     4  11  24  47  71 108 145 201 245 317 378 439
#
# _framework density 25.866243999999998
#
# number of rings (size 3 to 8) (size 9 to 14) (size 15 to 20)
#    0.000    1.333    3.333    1.000    2.333   10.000 
#    6.000    0.833    0.000    0.000    0.000    0.000 
#    0.000    0.000    0.000    0.000    0.000    0.000 
#
# Total GULP energy -133735.425755 kJ/mol
# GULP energy per Si atom -5572.309406 kJ/mol
# Density = 2.580737 g / cm^3
# Si number density = 25.866244 Si / 1000 Ang^3
#
#
#
# Elastic Constant Matrix: (Units=GPa)
#
#
# Indices 1 2 3 4 5 6 
#
# 1 203.0938 23.4361 41.9541 0.0000 -19.1446 0.0000
# 2 23.4361 75.4646 -6.5839 0.0000 0.7035 0.0000
# 3 41.9541 -6.5839 104.7789 0.0000 10.5706 0.0000
# 4 0.0000 0.0000 0.0000 22.0090 0.0000 6.6667
# 5 -19.1446 0.7035 10.5706 0.0000 51.0013 0.0000
# 6 0.0000 0.0000 0.0000 6.6667 0.0000 30.7065
#
#
#
# Elastic Compliance Matrix: (Units=1/GPa)
#
#
# Indices 1 2 3 4 5 6 
#
# 1 0.006030 -0.002147 -0.002840 0.000000 0.002882 0.000000
# 2 -0.002147 0.014096 0.001886 0.000000 -0.001391 0.000000
# 3 -0.002840 0.001886 0.011143 0.000000 -0.003402 0.000000
# 4 0.000000 0.000000 0.000000 0.048634 0.000000 -0.010559
# 5 0.002882 -0.001391 -0.003402 0.000000 0.021413 0.000000
# 6 0.000000 0.000000 0.000000 -0.010559 0.000000 0.034859
#
#
# Mechanical properties :
#
#
# Convention : Reuss Voigt Hill
#
# Bulk Modulus (GPa) = 39.89577 55.66110 47.77844
# Shear Modulus (GPa) = 33.17123 42.37875 37.77499
#
# Velocity S-wave (km/s) = 3.58497 4.05208 3.82566
# Velocity P-wave (km/s) = 5.70906 6.59227 6.16650
#
# Compressibility (1/GPa) = 0.02506531
#
# Stress axis : x y z
#
# Youngs Moduli (GPa) = 165.83852 70.94407 89.74431
#
# Poissons Ratio (x) = 0.15234 0.25488
# Poissons Ratio (y) = 0.35611 -0.16925
# Poissons Ratio (z) = 0.47100 -0.13379
#
# Static dielectric constant tensor:
#      x y z
#    x 1.977680 0.000000 0.020710 
#    y 0.000000 2.209820 0.000000 
#    z 0.020710 0.000000 2.334890 
# 
# From -- ./inp_files/65475.got.cif
#   From: 2010.05.17/outbox.cif.g08.bks.cpg/sg14_33_cif.got.tgz:65475.got - 2010.06.03 17:49:19.
