data_PCOD9250428
_publ_section_title
;
Structure prediction by ZEFSAII (Michael W. Deem and Ramdas Pophale) SiO2 
 PCOD9250428
Probable space group: P 21/C
;
_chemical_formula_sum "Si O2"
_cell_formula_units_Z 22
_cell_length_a 11.889815
_cell_length_b 9.451483
_cell_length_c 8.322322
_cell_angle_alpha 90.000000
_cell_angle_beta 122.489854
_cell_angle_gamma 90.000000
_cell_volume 788.856024
_symmetry_space_group_name_H-M "P 21/C"
_symmetry_group_IT_number 14
_symmetry_cell_setting 'monoclinic'
loop_
_space_group_symop_operation_xyz
x,y,z
-x,1/2+y,1/2-z
-x,-y,-z
x,1/2-y,1/2+z
loop_
_atom_site_type_symbol
_atom_site_label
_atom_site_fract_x
_atom_site_fract_y
_atom_site_fract_z
Si Si1 0.735368 0.139471 0.862005
Si Si2 0.000000 0.000000 0.000000
Si Si3 0.819455 0.854404 0.376595
Si Si4 0.362883 0.165064 0.032189
Si Si5 0.935325 0.128728 0.616747
Si Si6 0.443926 0.812870 0.560272
O O1 0.851234 0.024692 0.974011
O O2 0.667054 0.115766 0.636726
O O3 0.812757 0.287286 0.947189
O O4 0.621226 0.173626 0.907456
O O5 0.953130 0.108534 0.818870
O O6 0.735636 0.756606 0.430394
O O7 0.935464 0.786554 0.353558
O O8 0.905083 0.968667 0.538496
O O9 0.719518 0.919190 0.166540
O O10 0.444408 0.271212 0.981676
O O11 0.477254 0.105185 0.238708
#
# Coordination Sequence:
#
# PCOD9250428 Si02
#       6
#     4   2   4   4   4   4
#     4  11  23  46  72 106 147 196 255 317 387 466
#     4  12  28  44  76 110 152 206 250 318 402 452
#     4  10  24  42  70 109 151 189 262 306 387 446
#     4   9  20  43  74 102 144 207 249 308 367 470
#     4  11  27  43  70 113 151 202 249 330 383 457
#     4   9  20  42  76 100 149 195 250 317 376 449
#
# _framework density 27.888483999999998
#
# number of rings (size 3 to 8) (size 9 to 14) (size 15 to 20)
#    0.000    1.818    1.818    0.000   10.182    1.455 
#    0.000    9.091    0.000    0.000    0.000    0.000 
#    0.000    0.000    0.000    0.000    0.000    0.000 
#
# Total GULP energy -122488.467005 kJ/mol
# GULP energy per Si atom -5567.657591 kJ/mol
# Density = 2.782501 g / cm^3
# Si number density = 27.888484 Si / 1000 Ang^3
#
#
#
# Elastic Constant Matrix: (Units=GPa)
#
#
# Indices 1 2 3 4 5 6 
#
# 1 164.4380 41.1309 25.2974 0.0000 -8.5440 0.0000
# 2 41.1309 46.3432 32.7248 0.0000 -0.3922 0.0000
# 3 25.2974 32.7248 177.7274 0.0000 9.2914 0.0000
# 4 0.0000 0.0000 0.0000 42.8156 0.0000 -3.2237
# 5 -8.5440 -0.3922 9.2914 0.0000 41.2207 0.0000
# 6 0.0000 0.0000 0.0000 -3.2237 0.0000 23.4962
#
#
#
# Elastic Compliance Matrix: (Units=1/GPa)
#
#
# Indices 1 2 3 4 5 6 
#
# 1 0.007919 -0.007083 0.000096 0.000000 0.001552 0.000000
# 2 -0.007083 0.031205 -0.004732 0.000000 -0.000105 0.000000
# 3 0.000096 -0.004732 0.006563 0.000000 -0.001504 0.000000
# 4 0.000000 0.000000 0.000000 0.023600 0.000000 0.003238
# 5 0.001552 -0.000105 -0.001504 0.000000 0.024920 0.000000
# 6 0.000000 0.000000 0.000000 0.003238 0.000000 0.043004
#
#
# Mechanical properties :
#
#
# Convention : Reuss Voigt Hill
#
# Bulk Modulus (GPa) = 44.94662 65.20167 55.07414
# Shear Modulus (GPa) = 29.75046 40.79687 35.27367
#
# Velocity S-wave (km/s) = 3.26968 3.82888 3.56028
# Velocity P-wave (km/s) = 5.51416 6.55571 6.05736
#
# Compressibility (1/GPa) = 0.02224862
#
# Stress axis : x y z
#
# Youngs Moduli (GPa) = 126.28109 32.04624 152.37097
#
# Poissons Ratio (x) = 0.22697 -0.01460
# Poissons Ratio (y) = 0.89441 0.72104
# Poissons Ratio (z) = -0.01210 0.15165
#
# Static dielectric constant tensor:
#      x y z
#    x 2.300160 0.000000 -0.011790 
#    y 0.000000 2.229720 0.000000 
#    z -0.011790 0.000000 2.150940 
# 
# From -- ./inp_files/12267.got.cif
#   From: 2010.05.17/outbox.cif.g08.bks.cpg/sg14_7_cif.got.tgz:12267.got - 2010.06.03 17:49:19.
