data_PCOD9250180
_publ_section_title
;
Structure prediction by ZEFSAII (Michael W. Deem and Ramdas Pophale) SiO2 
 PCOD9250180
Probable space group: P 21/C
;
_chemical_formula_sum "Si O2"
_cell_formula_units_Z 32
_cell_length_a 9.510337
_cell_length_b 11.761703
_cell_length_c 32.999111
_cell_angle_alpha 90.000000
_cell_angle_beta 24.481310
_cell_angle_gamma 90.000000
_cell_volume 1529.622693
_symmetry_space_group_name_H-M "P 21/C"
_symmetry_group_IT_number 14
_symmetry_cell_setting 'monoclinic'
loop_
_space_group_symop_operation_xyz
x,y,z
-x,1/2+y,1/2-z
-x,-y,-z
x,1/2-y,1/2+z
loop_
_atom_site_type_symbol
_atom_site_label
_atom_site_fract_x
_atom_site_fract_y
_atom_site_fract_z
Si Si1 0.949288 0.164225 0.575913
Si Si2 0.906333 0.001995 0.389217
Si Si3 0.013615 0.678213 0.793793
Si Si4 0.388655 0.348308 0.881462
Si Si5 0.145020 0.224231 0.362833
Si Si6 0.273192 0.402854 0.214775
Si Si7 0.920833 0.318495 0.650379
Si Si8 0.135973 0.558053 0.602263
O O1 0.571197 0.169398 0.657531
O O2 0.068170 0.274496 0.569770
O O3 0.959693 0.065629 0.606722
O O4 0.195348 0.142619 0.474176
O O5 0.034352 0.936065 0.315682
O O6 0.500000 0.000000 0.500000
O O7 0.022860 0.130757 0.362914
O O8 0.351224 0.742015 0.689089
O O9 0.880121 0.769208 0.862742
O O10 0.801235 0.645840 0.810056
O O11 0.126320 0.325785 0.913285
O O12 0.589798 0.466914 0.823237
O O13 0.549099 0.237609 0.250866
O O14 0.949971 0.340073 0.405402
O O15 0.949280 0.402074 0.329729
O O16 0.883221 0.452423 0.661037
O O17 0.500000 0.500000 0.500000
#
# Coordination Sequence:
#
# PCOD9250180 Si02
#       8
#     4   4   4   4   4   4   4   4
#     4  11  23  43  72 100 132 182 236 284 345 422
#     4  11  24  41  72 104 132 179 245 288 346 423
#     4  10  25  41  68 101 144 172 229 298 353 401
#     4  11  24  42  70 101 142 176 231 291 347 410
#     4  11  24  45  71  96 137 189 230 290 353 420
#     4  12  23  44  68 103 140 182 227 296 344 422
#     4  10  23  48  67  94 141 184 233 279 351 432
#     4  12  27  44  69 101 144 188 231 285 369 424
#
# _framework density 20.920190999999999
#
# number of rings (size 3 to 8) (size 9 to 14) (size 15 to 20)
#    0.000    1.000    5.000    1.125   10.500    1.000 
#    0.000    0.625    0.000    0.000    0.000    0.000 
#    0.000    0.000    0.000    0.000    0.000    0.000 
#
# Total GULP energy -178678.241646 kJ/mol
# GULP energy per Si atom -5583.695051 kJ/mol
# Density = 2.087258 g / cm^3
# Si number density = 20.920191 Si / 1000 Ang^3
#
#
#
# Elastic Constant Matrix: (Units=GPa)
#
#
# Indices 1 2 3 4 5 6 
#
# 1 147.6593 53.9991 33.8024 0.0000 13.3807 0.0000
# 2 53.9991 108.1945 0.6317 0.0000 -5.7679 0.0000
# 3 33.8024 0.6317 81.5770 0.0000 7.9062 0.0000
# 4 0.0000 0.0000 0.0000 22.4368 0.0000 -4.1109
# 5 13.3807 -5.7679 7.9062 0.0000 31.3291 0.0000
# 6 0.0000 0.0000 0.0000 -4.1109 0.0000 34.7535
#
#
#
# Elastic Compliance Matrix: (Units=1/GPa)
#
#
# Indices 1 2 3 4 5 6 
#
# 1 0.009864 -0.005128 -0.003637 0.000000 -0.004239 0.000000
# 2 -0.005128 0.012005 0.001646 0.000000 0.003985 0.000000
# 3 -0.003637 0.001646 0.013913 0.000000 -0.001655 0.000000
# 4 0.000000 0.000000 0.000000 0.045557 0.000000 0.005389
# 5 -0.004239 0.003985 -0.001655 0.000000 0.034881 0.000000
# 6 0.000000 0.000000 0.000000 0.005389 0.000000 0.029411
#
#
# Mechanical properties :
#
#
# Convention : Reuss Voigt Hill
#
# Bulk Modulus (GPa) = 46.41713 57.14416 51.78065
# Shear Modulus (GPa) = 29.93092 34.30373 32.11733
#
# Velocity S-wave (km/s) = 3.78659 4.05377 3.92245
# Velocity P-wave (km/s) = 6.43067 7.02035 6.73197
#
# Compressibility (1/GPa) = 0.02154377
#
# Stress axis : x y z
#
# Youngs Moduli (GPa) = 101.37471 83.29996 71.87543
#
# Poissons Ratio (x) = 0.42716 0.26140
# Poissons Ratio (y) = 0.51985 -0.11828
# Poissons Ratio (z) = 0.36869 -0.13709
#
# Static dielectric constant tensor:
#      x y z
#    x 1.774230 0.000000 -0.012230 
#    y 0.000000 1.778580 0.000000 
#    z -0.012230 0.000000 1.806120 
# 
# From -- ./inp_files/79636.got.cif
#   From: 2010.05.17/outbox.cif.g08.bks.cpg/sg14_40_cif.got.tgz:79636.got - 2010.06.03 17:49:19.
