data_PCOD9250715
_publ_section_title
;
Structure prediction by ZEFSAII (Michael W. Deem and Ramdas Pophale) SiO2 
 PCOD9250715
Probable space group: P 21/C
;
_chemical_formula_sum "Si O2"
_cell_formula_units_Z 18
_cell_length_a 5.385589
_cell_length_b 7.533431
_cell_length_c 19.076864
_cell_angle_alpha 90.000000
_cell_angle_beta 68.112556
_cell_angle_gamma 90.000000
_cell_volume 718.195353
_symmetry_space_group_name_H-M "P 21/C"
_symmetry_group_IT_number 14
_symmetry_cell_setting 'monoclinic'
loop_
_space_group_symop_operation_xyz
x,y,z
-x,1/2+y,1/2-z
-x,-y,-z
x,1/2-y,1/2+z
loop_
_atom_site_type_symbol
_atom_site_label
_atom_site_fract_x
_atom_site_fract_y
_atom_site_fract_z
Si Si1 0.906879 0.569779 0.825705
Si Si2 0.891154 0.349899 0.348708
Si Si3 0.500000 0.000000 0.000000
Si Si4 0.304212 0.627484 0.909304
Si Si5 0.878650 0.728956 0.540961
O O1 0.857131 0.362842 0.847262
O O2 0.613602 0.655695 0.861586
O O3 0.023930 0.582725 0.735703
O O4 0.118812 0.644128 0.859992
O O5 0.631698 0.438465 0.408793
O O6 0.122170 0.362169 0.383566
O O7 0.246635 0.126707 0.009392
O O8 0.245473 0.425582 0.941068
O O9 0.196772 0.750747 0.984372
#
# Coordination Sequence:
#
# PCOD9250715 Si02
#       5
#     4   4   2   4   4
#     4  11  26  47  72 108 150 198 253 315 389 450
#     4  11  27  45  72 107 152 196 252 319 384 462
#     4  12  24  46  70 110 142 196 254 316 370 470
#     4  10  24  46  76 102 146 199 252 306 387 461
#     4  10  24  45  73 104 145 195 252 314 379 455
#
# _framework density 25.062816999999999
#
# number of rings (size 3 to 8) (size 9 to 14) (size 15 to 20)
#    0.000    1.333    2.222    0.667    9.333    2.667 
#    0.000    0.000    0.000    0.000    0.000    0.000 
#    0.000    0.000    0.000    0.000    0.000    0.000 
#
# Total GULP energy -100472.353864 kJ/mol
# GULP energy per Si atom -5581.797437 kJ/mol
# Density = 2.500577 g / cm^3
# Si number density = 25.062817 Si / 1000 Ang^3
#
#
#
# Elastic Constant Matrix: (Units=GPa)
#
#
# Indices 1 2 3 4 5 6 
#
# 1 141.3473 30.5864 71.1375 0.0000 6.6010 0.0000
# 2 30.5864 33.0550 56.8103 0.0000 11.2226 0.0000
# 3 71.1375 56.8103 192.9824 0.0000 12.6987 0.0000
# 4 0.0000 0.0000 0.0000 49.2622 0.0000 7.8173
# 5 6.6010 11.2226 12.6987 0.0000 45.4188 0.0000
# 6 0.0000 0.0000 0.0000 7.8173 0.0000 17.8704
#
#
#
# Elastic Compliance Matrix: (Units=1/GPa)
#
#
# Indices 1 2 3 4 5 6 
#
# 1 0.009151 -0.005659 -0.001744 0.000000 0.000556 0.000000
# 2 -0.005659 0.069836 -0.017717 0.000000 -0.011480 0.000000
# 3 -0.001744 -0.017717 0.010937 0.000000 0.001573 0.000000
# 4 0.000000 0.000000 0.000000 0.021814 0.000000 -0.009542
# 5 0.000556 -0.011480 0.001573 0.000000 0.024333 0.000000
# 6 0.000000 0.000000 0.000000 -0.009542 0.000000 0.060133
#
#
# Mechanical properties :
#
#
# Convention : Reuss Voigt Hill
#
# Bulk Modulus (GPa) = 25.19922 76.05033 50.62478
# Shear Modulus (GPa) = 19.25509 36.43365 27.84437
#
# Velocity S-wave (km/s) = 2.77478 3.81687 3.33676
# Velocity P-wave (km/s) = 4.51023 7.05935 5.92354
#
# Compressibility (1/GPa) = 0.03968377
#
# Stress axis : x y z
#
# Youngs Moduli (GPa) = 109.27652 14.31925 91.43589
#
# Poissons Ratio (x) = 0.08104 0.15945
# Poissons Ratio (y) = 0.61843 1.61996
# Poissons Ratio (z) = 0.19057 0.25369
#
# Static dielectric constant tensor:
#      x y z
#    x 0.516940 0.000000 0.045760 
#    y 0.000000 1.232260 0.000000 
#    z 0.045760 0.000000 1.878080 
# 
# From -- ./inp_files/36709.got.cif
#   From: 2010.05.17/outbox.cif.g08.bks.cpg/sg14_19_cif.got.tgz:36709.got - 2010.06.03 17:49:19.
