data_PCOD9250921
_publ_section_title
;
Structure prediction by ZEFSAII (Michael W. Deem and Ramdas Pophale) SiO2 
 PCOD9250921
Probable space group: P 21/C
;
_chemical_formula_sum "Si O2"
_cell_formula_units_Z 20
_cell_length_a 9.086546
_cell_length_b 12.716324
_cell_length_c 7.795803
_cell_angle_alpha 90.000000
_cell_angle_beta 126.754963
_cell_angle_gamma 90.000000
_cell_volume 721.710935
_symmetry_space_group_name_H-M "P 21/C"
_symmetry_group_IT_number 14
_symmetry_cell_setting 'monoclinic'
loop_
_space_group_symop_operation_xyz
x,y,z
-x,1/2+y,1/2-z
-x,-y,-z
x,1/2-y,1/2+z
loop_
_atom_site_type_symbol
_atom_site_label
_atom_site_fract_x
_atom_site_fract_y
_atom_site_fract_z
Si Si1 0.093340 0.383482 0.550111
Si Si2 0.851101 0.171776 0.330523
Si Si3 0.593551 0.190548 0.441447
Si Si4 0.348842 0.155066 0.552164
Si Si5 0.718001 0.533316 0.652335
O O1 0.972654 0.277148 0.430100
O O2 0.223633 0.403499 0.475714
O O3 0.000000 0.500000 0.500000
O O4 0.192746 0.348362 0.797088
O O5 0.758071 0.142978 0.447630
O O6 0.873355 0.057362 0.267526
O O7 0.684952 0.210355 0.095116
O O8 0.516836 0.119860 0.542751
O O9 0.444756 0.244853 0.213050
O O10 0.272032 0.096184 0.663346
O O11 0.500000 0.500000 0.500000
#
# Coordination Sequence:
#
# PCOD9250921 Si02
#       5
#     4   4   4   4   4
#     4  12  31  54  83 134 181 236 297 378 470 541
#     4  11  25  52  83 123 180 224 292 379 461 523
#     4  10  24  51  85 117 165 237 289 360 447 547
#     4  11  27  52  84 126 167 232 305 362 447 562
#     4  12  27  56  90 131 175 237 312 375 455 558
#
# _framework density 27.711925999999998
#
# number of rings (size 3 to 8) (size 9 to 14) (size 15 to 20)
#    0.000    0.800    2.000    2.400    8.400    5.600 
#    7.200    0.000    0.000    0.000    0.000    0.000 
#    0.000    0.000    0.000    0.000    0.000    0.000 
#
# Total GULP energy -111513.995084 kJ/mol
# GULP energy per Si atom -5575.699754 kJ/mol
# Density = 2.764885 g / cm^3
# Si number density = 27.711926 Si / 1000 Ang^3
#
#
#
# Elastic Constant Matrix: (Units=GPa)
#
#
# Indices 1 2 3 4 5 6 
#
# 1 148.1002 60.2606 82.5018 0.0000 -26.8665 0.0000
# 2 60.2606 116.6116 58.7832 0.0000 1.9836 0.0000
# 3 82.5018 58.7832 222.3882 0.0000 -13.4711 0.0000
# 4 0.0000 0.0000 0.0000 28.8979 0.0000 3.5834
# 5 -26.8665 1.9836 -13.4711 0.0000 65.3688 0.0000
# 6 0.0000 0.0000 0.0000 3.5834 0.0000 26.1824
#
#
#
# Elastic Compliance Matrix: (Units=1/GPa)
#
#
# Indices 1 2 3 4 5 6 
#
# 1 0.010648 -0.004269 -0.002581 0.000000 0.003974 0.000000
# 2 -0.004269 0.011652 -0.001644 0.000000 -0.002447 0.000000
# 3 -0.002581 -0.001644 0.005901 0.000000 0.000205 0.000000
# 4 0.000000 0.000000 0.000000 0.035202 0.000000 -0.004818
# 5 0.003974 -0.002447 0.000205 0.000000 0.017048 0.000000
# 6 0.000000 0.000000 0.000000 -0.004818 0.000000 0.038853
#
#
# Mechanical properties :
#
#
# Convention : Reuss Voigt Hill
#
# Bulk Modulus (GPa) = 89.18774 98.91012 94.04893
# Shear Modulus (GPa) = 35.70654 43.12677 39.41666
#
# Velocity S-wave (km/s) = 3.59345 3.94922 3.77553
# Velocity P-wave (km/s) = 7.03356 7.52096 7.28134
#
# Compressibility (1/GPa) = 0.01121230
#
# Stress axis : x y z
#
# Youngs Moduli (GPa) = 93.91521 85.82128 169.45487
#
# Poissons Ratio (x) = 0.36637 0.43737
# Poissons Ratio (y) = 0.40092 0.27867
# Poissons Ratio (z) = 0.24240 0.14113
#
# Static dielectric constant tensor:
#      x y z
#    x 2.434330 0.000000 0.028150 
#    y 0.000000 2.744520 0.000000 
#    z 0.028150 0.000000 2.216580 
# 
# From -- ./inp_files/8244.got.cif
#   From: 2010.05.17/outbox.cif.g08.bks.cpg/sg14_5_cif.got.tgz:8244.got - 2010.06.03 17:49:19.
