data_PCOD9250509
_publ_section_title
;
Structure prediction by ZEFSAII (Michael W. Deem and Ramdas Pophale) SiO2 
 PCOD9250509
Probable space group: P 21/C
;
_chemical_formula_sum "Si O2"
_cell_formula_units_Z 20
_cell_length_a 5.794255
_cell_length_b 11.799309
_cell_length_c 14.366430
_cell_angle_alpha 90.000000
_cell_angle_beta 120.837754
_cell_angle_gamma 90.000000
_cell_volume 843.344872
_symmetry_space_group_name_H-M "P 21/C"
_symmetry_group_IT_number 14
_symmetry_cell_setting 'monoclinic'
loop_
_space_group_symop_operation_xyz
x,y,z
-x,1/2+y,1/2-z
-x,-y,-z
x,1/2-y,1/2+z
loop_
_atom_site_type_symbol
_atom_site_label
_atom_site_fract_x
_atom_site_fract_y
_atom_site_fract_z
Si Si1 0.223125 0.472543 0.894988
Si Si2 0.066365 0.758090 0.124264
Si Si3 0.567104 0.889959 0.952637
Si Si4 0.594101 0.862065 0.750700
Si Si5 0.901432 0.214087 0.648808
O O1 0.089313 0.361442 0.908255
O O2 0.292682 0.448622 0.801541
O O3 0.060554 0.586832 0.877260
O O4 0.500000 0.500000 0.000000
O O5 0.366739 0.719305 0.158019
O O6 0.095644 0.791526 0.238453
O O7 0.874384 0.849584 0.035358
O O8 0.505797 0.915439 0.830732
O O9 0.366187 0.784369 0.933858
O O10 0.500000 0.000000 0.000000
O O11 0.843375 0.784256 0.829466
#
# Coordination Sequence:
#
# PCOD9250509 Si02
#       5
#     4   4   4   4   4
#     4  11  23  46  71 101 143 182 240 298 344 416
#     4  10  24  43  69 101 140 187 235 289 346 417
#     4  11  25  47  69 104 147 187 234 285 355 426
#     4  10  26  45  72 108 138 192 233 292 359 411
#     4  10  24  46  66 102 142 182 238 293 340 423
#
# _framework density 23.715094000000001
#
# number of rings (size 3 to 8) (size 9 to 14) (size 15 to 20)
#    0.000    1.600    2.000    0.000   11.200    4.800 
#    7.200    0.000    0.000    0.000    0.000    0.000 
#    0.000    0.000    0.000    0.000    0.000    0.000 
#
# Total GULP energy -111839.729167 kJ/mol
# GULP energy per Si atom -5591.986458 kJ/mol
# Density = 2.366112 g / cm^3
# Si number density = 23.715094 Si / 1000 Ang^3
#
#
#
# Elastic Constant Matrix: (Units=GPa)
#
#
# Indices 1 2 3 4 5 6 
#
# 1 61.3108 9.3487 22.2455 0.0000 0.3241 0.0000
# 2 9.3487 107.5181 32.2828 0.0000 -10.1577 0.0000
# 3 22.2455 32.2828 95.6394 0.0000 2.9619 0.0000
# 4 0.0000 0.0000 0.0000 37.0202 0.0000 17.9449
# 5 0.3241 -10.1577 2.9619 0.0000 43.4429 0.0000
# 6 0.0000 0.0000 0.0000 17.9449 0.0000 -48.6569
#
#
#
# Elastic Compliance Matrix: (Units=1/GPa)
#
#
# Indices 1 2 3 4 5 6 
#
# 1 0.017825 -0.000332 -0.004036 0.000000 0.000065 0.000000
# 2 -0.000332 0.010673 -0.003610 0.000000 0.002744 0.000000
# 3 -0.004036 -0.003610 0.012665 0.000000 -0.001678 0.000000
# 4 0.000000 0.000000 0.000000 0.022916 0.000000 0.008451
# 5 0.000065 0.002744 -0.001678 0.000000 0.023774 0.000000
# 6 0.000000 0.000000 0.000000 0.008451 0.000000 -0.017435
#
#
# Mechanical properties :
#
#
# Convention : Reuss Voigt Hill
#
# Bulk Modulus (GPa) = 39.67221 43.58025 41.62623
# Shear Modulus (GPa) = 52.75552 19.73398 36.24475
#
# Velocity S-wave (km/s) = 4.72164 2.88779 3.91364
# Velocity P-wave (km/s) = 6.81837 5.43467 6.16546
#
# Compressibility (1/GPa) = 0.02520656
#
# Stress axis : x y z
#
# Youngs Moduli (GPa) = 56.10099 93.69520 78.95573
#
# Poissons Ratio (x) = 0.03110 0.31866
# Poissons Ratio (y) = 0.01862 0.28506
# Poissons Ratio (z) = 0.22642 0.33827
#
# Static dielectric constant tensor:
#      x y z
#    x 1.906630 0.000000 -0.008850 
#    y 0.000000 2.103420 0.000000 
#    z -0.008850 0.000000 1.945450 
# 
# From -- ./inp_files/36925.got.cif
#   From: 2010.05.17/outbox.cif.g08.bks.cpg/sg14_19_cif.got.tgz:36925.got - 2010.06.03 17:49:19.
