data_PCOD9250391
_publ_section_title
;
Structure prediction by ZEFSAII (Michael W. Deem and Ramdas Pophale) SiO2 
 PCOD9250391
Probable space group: P 21/C
;
_chemical_formula_sum "Si O2"
_cell_formula_units_Z 32
_cell_length_a 14.824642
_cell_length_b 11.078261
_cell_length_c 17.860588
_cell_angle_alpha 90.000000
_cell_angle_beta 31.046971
_cell_angle_gamma 90.000000
_cell_volume 1512.804773
_symmetry_space_group_name_H-M "P 21/C"
_symmetry_group_IT_number 14
_symmetry_cell_setting 'monoclinic'
loop_
_space_group_symop_operation_xyz
x,y,z
-x,1/2+y,1/2-z
-x,-y,-z
x,1/2-y,1/2+z
loop_
_atom_site_type_symbol
_atom_site_label
_atom_site_fract_x
_atom_site_fract_y
_atom_site_fract_z
Si Si1 0.703862 0.796500 0.103426
Si Si2 0.549838 0.428772 0.322425
Si Si3 0.697314 0.250021 0.836846
Si Si4 0.054359 0.369379 0.138740
Si Si5 0.076032 0.577393 0.018490
Si Si6 0.044748 0.685572 0.626759
Si Si7 0.951972 0.055936 0.112454
Si Si8 0.563199 0.200222 0.089509
O O1 0.611630 0.884393 0.111377
O O2 0.578572 0.771713 0.261645
O O3 0.759120 0.670703 0.027026
O O4 0.892023 0.850287 0.986616
O O5 0.581217 0.334408 0.366859
O O6 0.513239 0.566257 0.372410
O O7 0.721848 0.417017 0.148580
O O8 0.874875 0.175605 0.727585
O O9 0.768985 0.373505 0.749519
O O10 0.605767 0.266354 0.981675
O O11 0.049630 0.509078 0.116889
O O12 0.041049 0.307377 0.229647
O O13 0.009820 0.712610 0.087478
O O14 0.000000 0.500000 0.000000
O O15 0.975524 0.555103 0.651414
O O16 0.254305 0.687234 0.494212
O O17 0.000000 0.000000 0.000000
#
# Coordination Sequence:
#
# PCOD9250391 Si02
#       8
#     4   4   4   4   4   4   4   4
#     4  11  24  43  67  97 132 178 220 283 349 414
#     4  12  22  41  70 101 137 177 231 287 352 410
#     4  10  24  43  66  98 138 176 224 285 338 416
#     4  10  24  42  66  97 136 175 232 275 347 413
#     4  12  24  42  72 104 136 183 238 288 352 427
#     4  11  25  42  70 100 134 183 229 291 343 423
#     4  11  25  46  69  94 139 183 228 276 351 422
#     4  11  23  42  67 103 137 174 228 288 349 406
#
# _framework density 21.152761999999999
#
# number of rings (size 3 to 8) (size 9 to 14) (size 15 to 20)
#    0.000    1.000    5.000    1.125    7.000    0.000 
#    4.500    0.625    0.000    0.000    0.000    0.000 
#    0.000    0.000    0.000    0.000    0.000    0.000 
#
# Total GULP energy -178395.641846 kJ/mol
# GULP energy per Si atom -5574.863808 kJ/mol
# Density = 2.110462 g / cm^3
# Si number density = 21.152762 Si / 1000 Ang^3
#
#
#
# Elastic Constant Matrix: (Units=GPa)
#
#
# Indices 1 2 3 4 5 6 
#
# 1 60.0698 16.8685 18.6911 0.0000 14.6197 0.0000
# 2 16.8685 78.0567 12.2370 0.0000 19.3016 0.0000
# 3 18.6911 12.2370 69.5709 0.0000 16.6589 0.0000
# 4 0.0000 0.0000 0.0000 38.8581 0.0000 -9.7740
# 5 14.6197 19.3016 16.6589 0.0000 16.7411 0.0000
# 6 0.0000 0.0000 0.0000 -9.7740 0.0000 87.9281
#
#
#
# Elastic Compliance Matrix: (Units=1/GPa)
#
#
# Indices 1 2 3 4 5 6 
#
# 1 0.021289 -0.000216 -0.001693 0.000000 -0.016657 0.000000
# 2 -0.000216 0.018222 0.002413 0.000000 -0.023221 0.000000
# 3 -0.001693 0.002413 0.019320 0.000000 -0.020529 0.000000
# 4 0.000000 0.000000 0.000000 0.026475 0.000000 0.002943
# 5 -0.016657 -0.023221 -0.020529 0.000000 0.121481 0.000000
# 6 0.000000 0.000000 0.000000 0.002943 0.000000 0.011700
#
#
# Mechanical properties :
#
#
# Convention : Reuss Voigt Hill
#
# Bulk Modulus (GPa) = 16.71156 33.69897 25.20526
# Shear Modulus (GPa) = 21.05938 39.36552 30.21245
#
# Velocity S-wave (km/s) = 3.15871 4.31862 3.78338
# Velocity P-wave (km/s) = 4.60661 6.39008 5.57019
#
# Compressibility (1/GPa) = 0.05983883
#
# Stress axis : x y z
#
# Youngs Moduli (GPa) = 46.97311 54.87963 51.76009
#
# Poissons Ratio (x) = 0.01187 0.08762
# Poissons Ratio (y) = 0.01016 -0.12492
# Poissons Ratio (z) = 0.07952 -0.13245
#
# Static dielectric constant tensor:
#      x y z
#    x 1.945870 0.000000 0.136530 
#    y 0.000000 1.131400 0.000000 
#    z 0.136530 0.000000 1.816680 
# 
# From -- ./inp_files/59473.got.cif
#   From: 2010.05.17/outbox.cif.g08.bks.cpg/sg14_30_cif.got.tgz:59473.got - 2010.06.03 17:49:19.
