data_PCOD9250293
_publ_section_title
;
Structure prediction by ZEFSAII (Michael W. Deem and Ramdas Pophale) SiO2 
 PCOD9250293
Probable space group: P 21/C
;
_chemical_formula_sum "Si O2"
_cell_formula_units_Z 32
_cell_length_a 15.527645
_cell_length_b 9.509399
_cell_length_c 15.496798
_cell_angle_alpha 90.000000
_cell_angle_beta 146.297734
_cell_angle_gamma 90.000000
_cell_volume 1269.689761
_symmetry_space_group_name_H-M "P 21/C"
_symmetry_group_IT_number 14
_symmetry_cell_setting 'monoclinic'
loop_
_space_group_symop_operation_xyz
x,y,z
-x,1/2+y,1/2-z
-x,-y,-z
x,1/2-y,1/2+z
loop_
_atom_site_type_symbol
_atom_site_label
_atom_site_fract_x
_atom_site_fract_y
_atom_site_fract_z
Si Si1 0.784466 0.080398 0.580438
Si Si2 0.092425 0.441333 0.414596
Si Si3 0.212617 0.644187 0.297920
Si Si4 0.823997 0.830892 0.183332
Si Si5 0.382920 0.094940 0.692959
Si Si6 0.688932 0.199416 0.881149
Si Si7 0.469082 0.657215 0.387768
Si Si8 0.088340 0.224057 0.551558
O O1 0.763571 0.210221 0.630391
O O2 0.666904 0.966587 0.442596
O O3 0.801264 0.176152 0.507885
O O4 0.928638 0.000529 0.743406
O O5 0.122550 0.311876 0.371536
O O6 0.227177 0.554317 0.532052
O O7 0.081336 0.375324 0.500106
O O8 0.164831 0.502476 0.306972
O O9 0.379610 0.610487 0.397720
O O10 0.074351 0.656447 0.113385
O O11 0.896820 0.777876 0.333269
O O12 0.643318 0.795613 0.042711
O O13 0.456188 0.965799 0.806788
O O14 0.523851 0.203674 0.794870
O O15 0.237299 0.149345 0.628704
O O16 0.640161 0.220536 0.742339
#
# Coordination Sequence:
#
# PCOD9250293 Si02
#       8
#     4   4   4   4   4   4   4   4
#     4  10  24  40  69  94 132 177 219 272 338 400
#     4  11  24  45  65  99 133 178 221 274 338 397
#     4  11  22  42  64 102 132 172 228 283 329 394
#     4  12  22  41  69  98 132 175 226 282 330 394
#     4  11  22  40  64  98 131 171 220 276 333 392
#     4  11  24  44  65  96 138 172 222 278 329 403
#     4  11  24  39  64  98 129 172 220 282 333 388
#     4  11  26  39  68 103 135 172 230 281 333 400
#
# _framework density 25.203005999999998
#
# number of rings (size 3 to 8) (size 9 to 14) (size 15 to 20)
#    0.000    1.000    3.750    2.250    8.750    0.000 
#    0.000    6.250    0.000    0.000    0.000    0.000 
#    0.000    0.000    0.000    0.000    0.000    0.000 
#
# Total GULP energy -178799.310502 kJ/mol
# GULP energy per Si atom -5587.478453 kJ/mol
# Density = 2.514564 g / cm^3
# Si number density = 25.203006 Si / 1000 Ang^3
#
#
#
# Elastic Constant Matrix: (Units=GPa)
#
#
# Indices 1 2 3 4 5 6 
#
# 1 76.8064 21.0467 28.6993 0.0000 -4.3895 0.0000
# 2 21.0467 56.2871 30.3308 0.0000 -10.5036 0.0000
# 3 28.6993 30.3308 158.2996 0.0000 -19.3767 0.0000
# 4 0.0000 0.0000 0.0000 35.7168 0.0000 -7.7855
# 5 -4.3895 -10.5036 -19.3767 0.0000 41.5339 0.0000
# 6 0.0000 0.0000 0.0000 -7.7855 0.0000 29.6723
#
#
#
# Elastic Compliance Matrix: (Units=1/GPa)
#
#
# Indices 1 2 3 4 5 6 
#
# 1 0.014976 -0.004677 -0.001877 0.000000 -0.000476 0.000000
# 2 -0.004677 0.021745 -0.002870 0.000000 0.003666 0.000000
# 3 -0.001877 -0.002870 0.007524 0.000000 0.002586 0.000000
# 4 0.000000 0.000000 0.000000 0.029696 0.000000 0.007792
# 5 -0.000476 0.003666 0.002586 0.000000 0.026160 0.000000
# 6 0.000000 0.000000 0.000000 0.007792 0.000000 0.035746
#
#
# Mechanical properties :
#
#
# Convention : Reuss Voigt Hill
#
# Bulk Modulus (GPa) = 39.37467 50.17186 44.77327
# Shear Modulus (GPa) = 30.64466 35.47236 33.05851
#
# Velocity S-wave (km/s) = 3.49078 3.75569 3.62565
# Velocity P-wave (km/s) = 5.64839 6.22553 5.94397
#
# Compressibility (1/GPa) = 0.02539704
#
# Stress axis : x y z
#
# Youngs Moduli (GPa) = 66.77554 45.98675 132.91039
#
# Poissons Ratio (x) = 0.21507 0.24949
# Poissons Ratio (y) = 0.31230 0.38143
# Poissons Ratio (z) = 0.12535 0.13197
#
# Static dielectric constant tensor:
#      x y z
#    x 1.988480 0.000000 -0.002870 
#    y 0.000000 2.054510 0.000000 
#    z -0.002870 0.000000 1.994810 
# 
# From -- ./inp_files/60543.got.cif
#   From: 2010.05.17/outbox.cif.g08.bks.cpg/sg14_31_cif.got.tgz:60543.got - 2010.06.03 17:49:19.
