data_PCOD9250648
_publ_section_title
;
Structure prediction by ZEFSAII (Michael W. Deem and Ramdas Pophale) SiO2 
 PCOD9250648
Probable space group: P 21/C
;
_chemical_formula_sum "Si O2"
_cell_formula_units_Z 20
_cell_length_a 10.046778
_cell_length_b 10.164477
_cell_length_c 7.975819
_cell_angle_alpha 90.000000
_cell_angle_beta 112.033627
_cell_angle_gamma 90.000000
_cell_volume 755.005169
_symmetry_space_group_name_H-M "P 21/C"
_symmetry_group_IT_number 14
_symmetry_cell_setting 'monoclinic'
loop_
_space_group_symop_operation_xyz
x,y,z
-x,1/2+y,1/2-z
-x,-y,-z
x,1/2-y,1/2+z
loop_
_atom_site_type_symbol
_atom_site_label
_atom_site_fract_x
_atom_site_fract_y
_atom_site_fract_z
Si Si1 0.925403 0.170952 0.413885
Si Si2 0.769725 0.573795 0.928131
Si Si3 0.645667 0.579735 0.225824
Si Si4 0.805639 0.411332 0.516891
Si Si5 0.511431 0.338052 0.304642
O O1 0.869915 0.317607 0.403360
O O2 0.908872 0.108331 0.221784
O O3 0.087073 0.152034 0.550208
O O4 0.819578 0.076502 0.468586
O O5 0.708974 0.619673 0.077990
O O6 0.643127 0.595447 0.734394
O O7 0.771649 0.552120 0.420616
O O8 0.572166 0.434461 0.186391
O O9 0.533792 0.687673 0.239065
O O10 0.647288 0.353207 0.490721
#
# Coordination Sequence:
#
# PCOD9250648 Si02
#       5
#     4   4   4   4   4
#     4  11  25  47  67 111 143 197 231 307 355 441
#     4  11  25  44  74 101 151 187 247 290 368 428
#     4  10  24  46  77 103 146 187 245 299 359 425
#     4  10  25  44  74  96 152 180 247 290 370 410
#     4  10  24  44  75 106 138 192 242 299 353 440
#
# _framework density 26.489885999999998
#
# number of rings (size 3 to 8) (size 9 to 14) (size 15 to 20)
#    1.200    0.400    0.000    3.000    5.600    3.200 
#    3.600    0.000    0.000    0.000    0.000    0.000 
#    0.000    0.000    0.000    0.000    0.000    0.000 
#
# Total GULP energy -111743.324420 kJ/mol
# GULP energy per Si atom -5587.166221 kJ/mol
# Density = 2.642959 g / cm^3
# Si number density = 26.489886 Si / 1000 Ang^3
#
#
#
# Elastic Constant Matrix: (Units=GPa)
#
#
# Indices 1 2 3 4 5 6 
#
# 1 79.2765 11.0150 -13.8994 0.0000 13.3819 0.0000
# 2 11.0150 110.1562 2.7788 0.0000 -19.8952 0.0000
# 3 -13.8994 2.7788 34.8306 0.0000 -12.7394 0.0000
# 4 0.0000 0.0000 0.0000 28.8632 0.0000 8.2070
# 5 13.3819 -19.8952 -12.7394 0.0000 37.2295 0.0000
# 6 0.0000 0.0000 0.0000 8.2070 0.0000 38.5005
#
#
#
# Elastic Compliance Matrix: (Units=1/GPa)
#
#
# Indices 1 2 3 4 5 6 
#
# 1 0.014552 -0.002489 0.004122 0.000000 -0.005150 0.000000
# 2 -0.002489 0.010528 0.000631 0.000000 0.006736 0.000000
# 3 0.004122 0.000631 0.034162 0.000000 0.010545 0.000000
# 4 0.000000 0.000000 0.000000 0.036882 0.000000 -0.007862
# 5 -0.005150 0.006736 0.010545 0.000000 0.035920 0.000000
# 6 0.000000 0.000000 0.000000 -0.007862 0.000000 0.027650
#
#
# Mechanical properties :
#
#
# Convention : Reuss Voigt Hill
#
# Bulk Modulus (GPa) = 15.68183 24.89466 20.28824
# Shear Modulus (GPa) = 28.34108 35.87658 32.10883
#
# Velocity S-wave (km/s) = 3.27445 3.68414 3.48532
# Velocity P-wave (km/s) = 4.49765 5.24551 4.88591
#
# Compressibility (1/GPa) = 0.06376807
#
# Stress axis : x y z
#
# Youngs Moduli (GPa) = 68.71883 94.98746 29.27238
#
# Poissons Ratio (x) = 0.23645 -0.12066
# Poissons Ratio (y) = 0.17106 -0.01846
# Poissons Ratio (z) = -0.28325 -0.05990
#
# Static dielectric constant tensor:
#      x y z
#    x 2.076290 0.000000 0.039380 
#    y 0.000000 2.064350 0.000000 
#    z 0.039380 0.000000 2.133740 
# 
# From -- ./inp_files/7976.got.cif
#   From: 2010.05.17/outbox.cif.g08.bks.cpg/sg14_4_cif.got.tgz:7976.got - 2010.06.03 17:49:19.
