data_PCOD9250759
_publ_section_title
;
Structure prediction by ZEFSAII (Michael W. Deem and Ramdas Pophale) SiO2 
 PCOD9250759
Probable space group: P 21/C
;
_chemical_formula_sum "Si O2"
_cell_formula_units_Z 30
_cell_length_a 14.772899
_cell_length_b 12.543627
_cell_length_c 9.143139
_cell_angle_alpha 90.000000
_cell_angle_beta 123.590182
_cell_angle_gamma 90.000000
_cell_volume 1411.359186
_symmetry_space_group_name_H-M "P 21/C"
_symmetry_group_IT_number 14
_symmetry_cell_setting 'monoclinic'
loop_
_space_group_symop_operation_xyz
x,y,z
-x,1/2+y,1/2-z
-x,-y,-z
x,1/2-y,1/2+z
loop_
_atom_site_type_symbol
_atom_site_label
_atom_site_fract_x
_atom_site_fract_y
_atom_site_fract_z
Si Si1 0.366613 0.557973 0.022003
Si Si2 0.133098 0.708019 0.084658
Si Si3 0.000000 0.500000 0.500000
Si Si4 0.603822 0.006954 0.794882
Si Si5 0.104525 0.203381 0.596446
Si Si6 0.181352 0.117198 0.976791
Si Si7 0.284125 0.798501 0.989644
Si Si8 0.860410 0.991992 0.583866
O O1 0.482811 0.537736 0.199532
O O2 0.375603 0.526967 0.859676
O O3 0.332087 0.681504 0.003520
O O4 0.269919 0.492524 0.012375
O O5 0.201960 0.672958 0.285829
O O6 0.208054 0.789460 0.064199
O O7 0.111637 0.605784 0.964440
O O8 0.015889 0.757863 0.015025
O O9 0.095548 0.468187 0.461485
O O10 0.087970 0.484911 0.711198
O O11 0.700109 0.931770 0.937239
O O12 0.622460 0.117068 0.897462
O O13 0.137126 0.167825 0.786776
O O14 0.185154 0.288309 0.599048
O O15 0.100025 0.101438 0.486623
#
# Coordination Sequence:
#
# PCOD9250759 Si02
#       8
#     4   4   2   4   4   4   4   4
#     4  10  24  46  69 102 134 185 228 293 342 409
#     4  11  23  39  67 101 138 179 224 283 342 414
#     4  12  24  42  66  96 142 178 224 284 352 408
#     4  11  24  46  73  98 140 183 231 284 351 409
#     4  12  26  44  65 106 142 184 230 285 359 416
#     4  12  27  43  68 104 138 190 224 288 350 420
#     4  11  23  43  69 103 132 177 237 279 342 416
#     4  11  24  44  67  99 140 176 234 287 346 419
#
# _framework density 21.256105000000002
#
# number of rings (size 3 to 8) (size 9 to 14) (size 15 to 20)
#    0.000    0.800    4.000    2.800    5.600    1.067 
#    2.400    6.000    0.000    0.000    0.000    0.000 
#    0.000    0.000    0.000    0.000    0.000    0.000 
#
# Total GULP energy -167462.162583 kJ/mol
# GULP energy per Si atom -5582.072086 kJ/mol
# Density = 2.120772 g / cm^3
# Si number density = 21.256105 Si / 1000 Ang^3
#
#
#
# Elastic Constant Matrix: (Units=GPa)
#
#
# Indices 1 2 3 4 5 6 
#
# 1 94.3548 9.8843 41.7197 0.0000 21.2501 0.0000
# 2 9.8843 36.8279 9.4003 0.0000 9.9124 0.0000
# 3 41.7197 9.4003 117.9564 0.0000 10.0460 0.0000
# 4 0.0000 0.0000 0.0000 29.0943 0.0000 3.0933
# 5 21.2501 9.9124 10.0460 0.0000 38.7105 0.0000
# 6 0.0000 0.0000 0.0000 3.0933 0.0000 17.7678
#
#
#
# Elastic Compliance Matrix: (Units=1/GPa)
#
#
# Indices 1 2 3 4 5 6 
#
# 1 0.014051 -0.000954 -0.004354 0.000000 -0.006339 0.000000
# 2 -0.000954 0.029576 -0.001451 0.000000 -0.006673 0.000000
# 3 -0.004354 -0.001451 0.010122 0.000000 0.000135 0.000000
# 4 0.000000 0.000000 0.000000 0.035019 0.000000 -0.006097
# 5 -0.006339 -0.006673 0.000135 0.000000 0.030986 0.000000
# 6 0.000000 0.000000 0.000000 -0.006097 0.000000 0.057343
#
#
# Mechanical properties :
#
#
# Convention : Reuss Voigt Hill
#
# Bulk Modulus (GPa) = 24.85644 41.23862 33.04753
# Shear Modulus (GPa) = 24.50680 29.65684 27.08182
#
# Velocity S-wave (km/s) = 3.39917 3.73931 3.57329
# Velocity P-wave (km/s) = 5.20816 6.17140 5.71013
#
# Compressibility (1/GPa) = 0.04023103
#
# Stress axis : x y z
#
# Youngs Moduli (GPa) = 71.16971 33.81140 98.79719
#
# Poissons Ratio (x) = 0.03224 0.43014
# Poissons Ratio (y) = 0.06787 0.14339
# Poissons Ratio (z) = 0.30985 0.04907
#
# Static dielectric constant tensor:
#      x y z
#    x 1.757480 0.000000 -0.008220 
#    y 0.000000 1.839800 0.000000 
#    z -0.008220 0.000000 1.730850 
# 
# From -- ./inp_files/15937.got.cif
#   From: 2010.05.17/outbox.cif.g08.bks.cpg/sg14_8_cif.got.tgz:15937.got - 2010.06.03 17:49:19.
