data_PCOD9250410
_publ_section_title
;
Structure prediction by ZEFSAII (Michael W. Deem and Ramdas Pophale) SiO2 
 PCOD9250410
Probable space group: P 21/C
;
_chemical_formula_sum "Si O2"
_cell_formula_units_Z 28
_cell_length_a 15.593056
_cell_length_b 8.408624
_cell_length_c 16.048916
_cell_angle_alpha 90.000000
_cell_angle_beta 142.030733
_cell_angle_gamma 90.000000
_cell_volume 1294.629576
_symmetry_space_group_name_H-M "P 21/C"
_symmetry_group_IT_number 14
_symmetry_cell_setting 'monoclinic'
loop_
_space_group_symop_operation_xyz
x,y,z
-x,1/2+y,1/2-z
-x,-y,-z
x,1/2-y,1/2+z
loop_
_atom_site_type_symbol
_atom_site_label
_atom_site_fract_x
_atom_site_fract_y
_atom_site_fract_z
Si Si1 0.295834 0.470357 0.691926
Si Si2 0.744516 0.448970 0.157530
Si Si3 0.815197 0.778487 0.496459
Si Si4 0.112689 0.614229 0.182976
Si Si5 0.165727 0.782738 0.537917
Si Si6 0.884768 0.704931 0.728112
Si Si7 0.600934 0.039890 0.375308
O O1 0.330660 0.511706 0.813126
O O2 0.215065 0.308186 0.613199
O O3 0.186839 0.601201 0.578846
O O4 0.435668 0.466441 0.744426
O O5 0.825987 0.282082 0.234783
O O6 0.829263 0.614638 0.204145
O O7 0.644518 0.421225 0.003092
O O8 0.851851 0.673693 0.605737
O O9 0.951791 0.883486 0.588247
O O10 0.676679 0.874645 0.412591
O O11 0.127318 0.628345 0.094541
O O12 0.173577 0.447450 0.264718
O O13 0.315709 0.841040 0.620469
O O14 0.047688 0.790861 0.377134
#
# Coordination Sequence:
#
# PCOD9250410 Si02
#       7
#     4   4   4   4   4   4   4
#     4  11  24  42  64  90 130 169 216 258 309 389
#     4  10  24  42  68  95 123 171 214 261 327 370
#     4  11  24  38  64  97 123 165 215 254 327 379
#     4  11  23  41  65  99 129 158 213 268 323 377
#     4  11  23  39  65  92 127 168 208 262 328 368
#     4  11  23  40  66  97 130 158 208 274 322 369
#     4  11  23  42  63  91 129 173 210 259 314 379
#
# _framework density 21.627808000000002
#
# number of rings (size 3 to 8) (size 9 to 14) (size 15 to 20)
#    0.000    1.143    1.429    4.286    8.000    2.286 
#    0.000    0.000    0.000    5.143    0.000    0.000 
#    0.000    0.000    0.000    0.000    0.000    0.000 
#
# Total GULP energy -156252.676254 kJ/mol
# GULP energy per Si atom -5580.452723 kJ/mol
# Density = 2.157858 g / cm^3
# Si number density = 21.627808 Si / 1000 Ang^3
#
#
#
# Elastic Constant Matrix: (Units=GPa)
#
#
# Indices 1 2 3 4 5 6 
#
# 1 45.8785 4.5581 -14.5959 0.0000 -1.0967 0.0000
# 2 4.5581 95.8223 18.7382 0.0000 -2.6143 0.0000
# 3 -14.5959 18.7382 22.4452 0.0000 -5.0010 0.0000
# 4 0.0000 0.0000 0.0000 17.3968 0.0000 -6.3078
# 5 -1.0967 -2.6143 -5.0010 0.0000 29.8109 0.0000
# 6 0.0000 0.0000 0.0000 -6.3078 0.0000 24.8648
#
#
#
# Elastic Compliance Matrix: (Units=1/GPa)
#
#
# Indices 1 2 3 4 5 6 
#
# 1 0.031125 -0.006599 0.026880 0.000000 0.005076 0.000000
# 2 -0.006599 0.013884 -0.016273 0.000000 -0.001755 0.000000
# 3 0.026880 -0.016273 0.078453 0.000000 0.012723 0.000000
# 4 0.000000 0.000000 0.000000 0.063305 0.000000 0.016060
# 5 0.005076 -0.001755 0.012723 0.000000 0.035712 0.000000
# 6 0.000000 0.000000 0.000000 0.016060 0.000000 0.044292
#
#
# Mechanical properties :
#
#
# Convention : Reuss Voigt Hill
#
# Bulk Modulus (GPa) = 7.60574 20.17186 13.88880
# Shear Modulus (GPa) = 16.52452 24.77753 20.65102
#
# Velocity S-wave (km/s) = 2.76713 3.38839 3.09340
# Velocity P-wave (km/s) = 3.70589 4.96541 4.38115
#
# Compressibility (1/GPa) = 0.13147965
#
# Stress axis : x y z
#
# Youngs Moduli (GPa) = 32.12814 72.02418 12.74647
#
# Poissons Ratio (x) = 0.47526 -0.34263
# Poissons Ratio (y) = 0.21200 0.20743
# Poissons Ratio (z) = -0.86361 1.17206
#
# Static dielectric constant tensor:
#      x y z
#    x 1.783580 0.000000 -0.021310 
#    y 0.000000 1.850880 0.000000 
#    z -0.021310 0.000000 1.754420 
# 
# From -- ./inp_files/43805.got.cif
#   From: 2010.05.17/outbox.cif.g08.bks.cpg/sg14_22_cif.got.tgz:43805.got - 2010.06.03 17:49:19.
