data_PCOD9250079
_publ_section_title
;
Structure prediction by ZEFSAII (Michael W. Deem and Ramdas Pophale) SiO2 
 PCOD9250079
Probable space group: P 21/C
;
_chemical_formula_sum "Si O2"
_cell_formula_units_Z 28
_cell_length_a 8.289661
_cell_length_b 12.453621
_cell_length_c 12.252414
_cell_angle_alpha 90.000000
_cell_angle_beta 119.556746
_cell_angle_gamma 90.000000
_cell_volume 1100.290134
_symmetry_space_group_name_H-M "P 21/C"
_symmetry_group_IT_number 14
_symmetry_cell_setting 'monoclinic'
loop_
_space_group_symop_operation_xyz
x,y,z
-x,1/2+y,1/2-z
-x,-y,-z
x,1/2-y,1/2+z
loop_
_atom_site_type_symbol
_atom_site_label
_atom_site_fract_x
_atom_site_fract_y
_atom_site_fract_z
Si Si1 0.019890 0.237222 0.511027
Si Si2 0.398224 0.497672 0.622846
Si Si3 0.857112 0.885881 0.130914
Si Si4 0.341529 0.120277 0.509046
Si Si5 0.469091 0.221660 0.896695
Si Si6 0.661350 0.092516 0.360830
Si Si7 0.883980 0.920201 0.786994
O O1 0.011261 0.310160 0.398065
O O2 0.214380 0.175963 0.557920
O O3 0.027252 0.322105 0.613282
O O4 0.858685 0.147116 0.453321
O O5 0.313059 0.422457 0.502953
O O6 0.404233 0.618816 0.582232
O O7 0.604002 0.461453 0.727615
O O8 0.258613 0.479829 0.677590
O O9 0.741922 0.820026 0.180236
O O10 0.964945 0.991790 0.196177
O O11 0.491865 0.207127 0.515728
O O12 0.218001 0.107048 0.359148
O O13 0.385841 0.002646 0.569145
O O14 0.520907 0.307929 0.823135
#
# Coordination Sequence:
#
# PCOD9250079 Si02
#       7
#     4   4   4   4   4   4   4
#     4  10  24  45  69  99 145 188 231 284 354 418
#     4  11  24  42  74 100 143 185 236 294 354 416
#     4  10  23  46  70 100 140 189 242 282 348 437
#     4  11  26  44  70 105 140 188 240 289 347 433
#     4  11  24  43  67 103 140 182 233 298 348 411
#     4  12  25  45  70 108 142 181 237 297 360 407
#     4  11  23  47  71 103 145 191 236 286 350 431
#
# _framework density 25.447832999999999
#
# number of rings (size 3 to 8) (size 9 to 14) (size 15 to 20)
#    0.000    1.143    1.429    4.714    4.000    3.429 
#    2.571    0.000    0.000    0.000    0.000    0.000 
#    0.000    0.000    0.000    0.000    0.000    0.000 
#
# Total GULP energy -156563.121606 kJ/mol
# GULP energy per Si atom -5591.540057 kJ/mol
# Density = 2.538991 g / cm^3
# Si number density = 25.447833 Si / 1000 Ang^3
#
#
#
# Elastic Constant Matrix: (Units=GPa)
#
#
# Indices 1 2 3 4 5 6 
#
# 1 76.7863 56.7577 31.1753 0.0000 -0.6006 0.0000
# 2 56.7577 184.2810 39.2495 0.0000 4.8472 0.0000
# 3 31.1753 39.2495 87.3104 0.0000 -6.4459 0.0000
# 4 0.0000 0.0000 0.0000 28.4258 0.0000 6.4189
# 5 -0.6006 4.8472 -6.4459 0.0000 21.1504 0.0000
# 6 0.0000 0.0000 0.0000 6.4189 0.0000 62.6274
#
#
#
# Elastic Compliance Matrix: (Units=1/GPa)
#
#
# Indices 1 2 3 4 5 6 
#
# 1 0.018286 -0.004702 -0.004396 0.000000 0.000257 0.000000
# 2 -0.004702 0.007317 -0.001784 0.000000 -0.002354 0.000000
# 3 -0.004396 -0.001784 0.014165 0.000000 0.004601 0.000000
# 4 0.000000 0.000000 0.000000 0.036013 0.000000 -0.003691
# 5 0.000257 -0.002354 0.004601 0.000000 0.049229 0.000000
# 6 0.000000 0.000000 0.000000 -0.003691 0.000000 0.016346
#
#
# Mechanical properties :
#
#
# Convention : Reuss Voigt Hill
#
# Bulk Modulus (GPa) = 55.54890 66.97142 61.26016
# Shear Modulus (GPa) = 29.56459 37.18706 33.37582
#
# Velocity S-wave (km/s) = 3.41218 3.82685 3.62545
# Velocity P-wave (km/s) = 6.11554 6.77500 6.45370
#
# Compressibility (1/GPa) = 0.01800216
#
# Stress axis : x y z
#
# Youngs Moduli (GPa) = 54.68690 136.67415 70.59779
#
# Poissons Ratio (x) = 0.64269 0.31037
# Poissons Ratio (y) = 0.25716 0.12594
# Poissons Ratio (z) = 0.24042 0.24381
#
# Static dielectric constant tensor:
#      x y z
#    x 2.115150 0.000000 -0.018760 
#    y 0.000000 2.077060 0.000000 
#    z -0.018760 0.000000 1.997880 
# 
# From -- ./inp_files/40159.got.cif
#   From: 2010.05.17/outbox.cif.g08.bks.cpg/sg14_21_cif.got.tgz:40159.got - 2010.06.03 17:49:19.
