data_PCOD9250640
_publ_section_title
;
Structure prediction by ZEFSAII (Michael W. Deem and Ramdas Pophale) SiO2 
 PCOD9250640
Probable space group: P 21/C
;
_chemical_formula_sum "Si O2"
_cell_formula_units_Z 20
_cell_length_a 8.883260
_cell_length_b 8.845301
_cell_length_c 8.866275
_cell_angle_alpha 90.000000
_cell_angle_beta 98.575840
_cell_angle_gamma 90.000000
_cell_volume 688.879312
_symmetry_space_group_name_H-M "P 21/C"
_symmetry_group_IT_number 14
_symmetry_cell_setting 'monoclinic'
loop_
_space_group_symop_operation_xyz
x,y,z
-x,1/2+y,1/2-z
-x,-y,-z
x,1/2-y,1/2+z
loop_
_atom_site_type_symbol
_atom_site_label
_atom_site_fract_x
_atom_site_fract_y
_atom_site_fract_z
Si Si1 0.140620 0.741538 0.011638
Si Si2 0.372426 0.220616 0.279677
Si Si3 0.378130 0.940918 0.855348
Si Si4 0.836039 0.900348 0.515958
Si Si5 0.113510 0.013542 0.157972
O O1 0.245613 0.850198 0.922615
O O2 0.201056 0.571934 0.031307
O O3 0.959585 0.703990 0.947447
O O4 0.149262 0.835369 0.169312
O O5 0.536886 0.172645 0.247581
O O6 0.334071 0.398402 0.268831
O O7 0.317727 0.172732 0.439451
O O8 0.265766 0.109997 0.164395
O O9 0.500000 0.000000 0.000000
O O10 0.936908 0.929231 0.686657
O O11 0.000000 0.000000 0.000000
#
# Coordination Sequence:
#
# PCOD9250640 Si02
#       5
#     4   4   4   4   4
#     4  11  23  45  77 106 159 203 268 334 411 477
#     4  10  25  48  74 114 161 206 277 330 417 488
#     4  12  24  49  79 112 161 219 262 337 413 503
#     4   9  24  46  71 119 148 212 269 337 404 488
#     4  10  24  44  73 109 154 201 268 335 399 479
#
# _framework density 29.032661999999998
#
# number of rings (size 3 to 8) (size 9 to 14) (size 15 to 20)
#    1.200    0.400    2.000    1.200    5.600    0.000 
#    0.000    8.000    0.000    0.000    0.000    0.000 
#    0.000    0.000    0.000    0.000    0.000    0.000 
#
# Total GULP energy -111625.704900 kJ/mol
# GULP energy per Si atom -5581.285245 kJ/mol
# Density = 2.896658 g / cm^3
# Si number density = 29.032662 Si / 1000 Ang^3
#
#
#
# Elastic Constant Matrix: (Units=GPa)
#
#
# Indices 1 2 3 4 5 6 
#
# 1 189.2901 94.4642 37.4503 0.0000 -48.4729 0.0000
# 2 94.4642 222.1172 47.1799 0.0000 -25.6225 0.0000
# 3 37.4503 47.1799 62.0671 0.0000 -8.4919 0.0000
# 4 0.0000 0.0000 0.0000 85.3289 0.0000 -2.1823
# 5 -48.4729 -25.6225 -8.4919 0.0000 72.9668 0.0000
# 6 0.0000 0.0000 0.0000 -2.1823 0.0000 73.8276
#
#
#
# Elastic Compliance Matrix: (Units=1/GPa)
#
#
# Indices 1 2 3 4 5 6 
#
# 1 0.008053 -0.002420 -0.002443 0.000000 0.004216 0.000000
# 2 -0.002420 0.006248 -0.003261 0.000000 0.000207 0.000000
# 3 -0.002443 -0.003261 0.020004 0.000000 -0.000440 0.000000
# 4 0.000000 0.000000 0.000000 0.011728 0.000000 0.000347
# 5 0.004216 0.000207 -0.000440 0.000000 0.016527 0.000000
# 6 0.000000 0.000000 0.000000 0.000347 0.000000 0.013555
#
#
# Mechanical properties :
#
#
# Convention : Reuss Voigt Hill
#
# Bulk Modulus (GPa) = 55.37711 92.40703 73.89207
# Shear Modulus (GPa) = 50.82188 66.04997 58.43593
#
# Velocity S-wave (km/s) = 4.18845 4.77489 4.49125
# Velocity P-wave (km/s) = 6.51968 7.89286 7.23890
#
# Compressibility (1/GPa) = 0.01805800
#
# Stress axis : x y z
#
# Youngs Moduli (GPa) = 124.17026 160.05810 49.98940
#
# Poissons Ratio (x) = 0.38730 0.12213
# Poissons Ratio (y) = 0.30046 0.16301
# Poissons Ratio (z) = 0.30336 0.52192
#
# Static dielectric constant tensor:
#      x y z
#    x 2.281330 0.000000 0.106190 
#    y 0.000000 2.491770 0.000000 
#    z 0.106190 0.000000 2.718220 
# 
# From -- ./inp_files/11882.got.cif
#   From: 2010.05.17/outbox.cif.g08.bks.cpg/sg14_6_cif.got.tgz:11882.got - 2010.06.03 17:49:19.
