data_PCOD9250282
_publ_section_title
;
Structure prediction by ZEFSAII (Michael W. Deem and Ramdas Pophale) SiO2 
 PCOD9250282
Probable space group: P 21/C
;
_chemical_formula_sum "Si O2"
_cell_formula_units_Z 32
_cell_length_a 10.973156
_cell_length_b 15.775248
_cell_length_c 15.669235
_cell_angle_alpha 90.000000
_cell_angle_beta 32.499736
_cell_angle_gamma 90.000000
_cell_volume 1457.366981
_symmetry_space_group_name_H-M "P 21/C"
_symmetry_group_IT_number 14
_symmetry_cell_setting 'monoclinic'
loop_
_space_group_symop_operation_xyz
x,y,z
-x,1/2+y,1/2-z
-x,-y,-z
x,1/2-y,1/2+z
loop_
_atom_site_type_symbol
_atom_site_label
_atom_site_fract_x
_atom_site_fract_y
_atom_site_fract_z
Si Si1 0.537596 0.582630 0.317869
Si Si2 0.730555 0.876304 0.528267
Si Si3 0.356016 0.411942 0.476444
Si Si4 0.359470 0.850378 0.599238
Si Si5 0.092892 0.007408 0.708734
Si Si6 0.675156 0.717428 0.361339
Si Si7 0.072593 0.303473 0.530684
Si Si8 0.028992 0.845706 0.105623
O O1 0.613183 0.577250 0.176137
O O2 0.528149 0.488629 0.362337
O O3 0.693743 0.647217 0.277574
O O4 0.288282 0.626964 0.469036
O O5 0.545648 0.860288 0.563766
O O6 0.832341 0.789546 0.505065
O O7 0.908338 0.935412 0.374560
O O8 0.410398 0.333516 0.505181
O O9 0.266609 0.371505 0.441346
O O10 0.138434 0.455967 0.647651
O O11 0.291288 0.938544 0.595950
O O12 0.478013 0.786623 0.462873
O O13 0.136026 0.818297 0.780964
O O14 0.104044 0.070305 0.783779
O O15 0.911594 0.768771 0.227711
O O16 0.001696 0.320759 0.475172
#
# Coordination Sequence:
#
# PCOD9250282 Si02
#       8
#     4   4   4   4   4   4   4   4
#     4  11  26  41  66  92 133 174 214 268 321 389
#     4  12  22  44  63 101 127 171 220 263 325 381
#     4  10  24  43  63  93 129 172 210 268 324 385
#     4  11  24  39  68  93 131 171 218 266 321 384
#     4  10  24  40  66  96 130 168 215 273 316 387
#     4  12  24  43  66  94 130 174 219 257 328 389
#     4  11  23  41  65  99 131 165 215 274 317 382
#     4  11  23  41  65  97 131 166 217 267 321 382
#
# _framework density 21.957408000000001
#
# number of rings (size 3 to 8) (size 9 to 14) (size 15 to 20)
#    0.000    1.000    5.000    0.750    8.750    1.500 
#    0.000    1.875    0.000    0.000    0.000    0.000 
#    0.000    0.000    0.000    0.000    0.000    0.000 
#
# Total GULP energy -178790.004114 kJ/mol
# GULP energy per Si atom -5587.187629 kJ/mol
# Density = 2.190743 g / cm^3
# Si number density = 21.957408 Si / 1000 Ang^3
#
#
#
# Elastic Constant Matrix: (Units=GPa)
#
#
# Indices 1 2 3 4 5 6 
#
# 1 38.2147 12.9321 -9.7293 0.0000 9.4053 0.0000
# 2 12.9321 118.6547 23.7142 0.0000 1.0474 0.0000
# 3 -9.7293 23.7142 48.4036 0.0000 12.1070 0.0000
# 4 0.0000 0.0000 0.0000 26.9568 0.0000 -6.5967
# 5 9.4053 1.0474 12.1070 0.0000 25.6558 0.0000
# 6 0.0000 0.0000 0.0000 -6.5967 0.0000 14.6510
#
#
#
# Elastic Compliance Matrix: (Units=1/GPa)
#
#
# Indices 1 2 3 4 5 6 
#
# 1 0.038176 -0.007296 0.016638 0.000000 -0.021549 0.000000
# 2 -0.007296 0.010830 -0.008312 0.000000 0.006155 0.000000
# 3 0.016638 -0.008312 0.033467 0.000000 -0.021553 0.000000
# 4 0.000000 0.000000 0.000000 0.041690 0.000000 0.018771
# 5 -0.021549 0.006155 -0.021553 0.000000 0.056797 0.000000
# 6 0.000000 0.000000 0.000000 0.018771 0.000000 0.076707
#
#
# Mechanical properties :
#
#
# Convention : Reuss Voigt Hill
#
# Bulk Modulus (GPa) = 11.82954 28.78968 20.30961
# Shear Modulus (GPa) = 17.61899 25.34310 21.48105
#
# Velocity S-wave (km/s) = 2.83577 3.40103 3.13118
# Velocity P-wave (km/s) = 4.01513 5.34441 4.72673
#
# Compressibility (1/GPa) = 0.08453413
#
# Stress axis : x y z
#
# Youngs Moduli (GPa) = 26.19414 92.33732 29.88003
#
# Poissons Ratio (x) = 0.67368 -0.49714
# Poissons Ratio (y) = 0.19111 0.24836
# Poissons Ratio (z) = -0.43582 0.76749
#
# Static dielectric constant tensor:
#      x y z
#    x 1.811330 0.000000 -0.018830 
#    y 0.000000 1.812700 0.000000 
#    z -0.018830 0.000000 1.801820 
# 
# From -- ./inp_files/57984.got.cif
#   From: 2010.05.17/outbox.cif.g08.bks.cpg/sg14_29_cif.got.tgz:57984.got - 2010.06.03 17:49:19.
