data_PCOD9250729
_publ_section_title
;
Structure prediction by ZEFSAII (Michael W. Deem and Ramdas Pophale) SiO2 
 PCOD9250729
Probable space group: P 21/C
;
_chemical_formula_sum "Si O2"
_cell_formula_units_Z 24
_cell_length_a 10.671208
_cell_length_b 5.537344
_cell_length_c 17.893431
_cell_angle_alpha 90.000000
_cell_angle_beta 70.778664
_cell_angle_gamma 90.000000
_cell_volume 998.383677
_symmetry_space_group_name_H-M "P 21/C"
_symmetry_group_IT_number 14
_symmetry_cell_setting 'monoclinic'
loop_
_space_group_symop_operation_xyz
x,y,z
-x,1/2+y,1/2-z
-x,-y,-z
x,1/2-y,1/2+z
loop_
_atom_site_type_symbol
_atom_site_label
_atom_site_fract_x
_atom_site_fract_y
_atom_site_fract_z
Si Si1 0.113873 0.933572 0.261694
Si Si2 0.154895 0.059116 0.978239
Si Si3 0.386772 0.800536 0.012397
Si Si4 0.248891 0.068211 0.792801
Si Si5 0.418856 0.450367 0.131256
Si Si6 0.150171 0.245883 0.125715
O O1 0.182280 0.176208 0.281465
O O2 0.110088 0.992507 0.173850
O O3 0.182400 0.683876 0.275842
O O4 0.963200 0.919230 0.320064
O O5 0.245699 0.882775 0.010042
O O6 0.230231 0.073346 0.885206
O O7 0.151625 0.281070 0.036561
O O8 0.000000 0.000000 0.000000
O O9 0.446047 0.626766 0.935486
O O10 0.381405 0.696002 0.096836
O O11 0.500000 0.000000 0.000000
O O12 0.394562 0.057416 0.724650
O O13 0.298834 0.287409 0.123611
#
# Coordination Sequence:
#
# PCOD9250729 Si02
#       6
#     4   4   4   4   4   4
#     4  11  24  43  71 107 149 194 249 297 367 453
#     4  12  26  45  72 113 151 192 236 322 374 440
#     4  11  24  49  74 103 141 195 258 295 368 451
#     4  11  26  46  69 113 149 194 243 312 381 434
#     4  10  24  45  76 101 139 205 252 303 355 466
#     4  11  22  42  74 104 145 197 248 298 364 451
#
# _framework density 24.038855999999999
#
# number of rings (size 3 to 8) (size 9 to 14) (size 15 to 20)
#    0.000    1.000    3.333    3.000    4.667    2.000 
#    3.000    0.000    0.000    0.000    0.000    0.000 
#    0.000    0.000    0.000    0.000    0.000    0.000 
#
# Total GULP energy -133768.256237 kJ/mol
# GULP energy per Si atom -5573.677343 kJ/mol
# Density = 2.398414 g / cm^3
# Si number density = 24.038856 Si / 1000 Ang^3
#
#
#
# Elastic Constant Matrix: (Units=GPa)
#
#
# Indices 1 2 3 4 5 6 
#
# 1 62.5548 13.3871 11.9658 0.0000 -14.1149 0.0000
# 2 13.3871 103.5053 24.2299 0.0000 -0.8088 0.0000
# 3 11.9658 24.2299 229.5230 0.0000 -8.0701 0.0000
# 4 0.0000 0.0000 0.0000 41.2722 0.0000 -15.5860
# 5 -14.1149 -0.8088 -8.0701 0.0000 35.2796 0.0000
# 6 0.0000 0.0000 0.0000 -15.5860 0.0000 24.1510
#
#
#
# Elastic Compliance Matrix: (Units=1/GPa)
#
#
# Indices 1 2 3 4 5 6 
#
# 1 0.018145 -0.002182 -0.000466 0.000000 0.007103 0.000000
# 2 -0.002182 0.010169 -0.000990 0.000000 -0.000866 0.000000
# 3 -0.000466 -0.000990 0.004515 0.000000 0.000824 0.000000
# 4 0.000000 0.000000 0.000000 0.032037 0.000000 0.020676
# 5 0.007103 -0.000866 0.000824 0.000000 0.031355 0.000000
# 6 0.000000 0.000000 0.000000 0.020676 0.000000 0.054749
#
#
# Mechanical properties :
#
#
# Convention : Reuss Voigt Hill
#
# Bulk Modulus (GPa) = 39.13654 54.97206 47.05430
# Shear Modulus (GPa) = 29.98256 43.20725 36.59490
#
# Velocity S-wave (km/s) = 3.53548 4.24417 3.90593
# Velocity P-wave (km/s) = 5.74300 6.85090 6.32127
#
# Compressibility (1/GPa) = 0.02555157
#
# Stress axis : x y z
#
# Youngs Moduli (GPa) = 55.11220 98.34196 221.50190
#
# Poissons Ratio (x) = 0.21461 0.10318
# Poissons Ratio (y) = 0.12027 0.21932
# Poissons Ratio (z) = 0.02567 0.09737
#
# Static dielectric constant tensor:
#      x y z
#    x 2.107910 0.000000 -0.189880 
#    y 0.000000 2.126290 0.000000 
#    z -0.189880 0.000000 2.320890 
# 
# From -- ./inp_files/56556.got.cif
#   From: 2010.05.17/outbox.cif.g08.bks.cpg/sg14_29_cif.got.tgz:56556.got - 2010.06.03 17:49:19.
