data_PCOD9250259
_publ_section_title
;
Structure prediction by ZEFSAII (Michael W. Deem and Ramdas Pophale) SiO2 
 PCOD9250259
Probable space group: P 21/C
;
_chemical_formula_sum "Si O2"
_cell_formula_units_Z 32
_cell_length_a 8.329604
_cell_length_b 25.411635
_cell_length_c 13.031134
_cell_angle_alpha 90.000000
_cell_angle_beta 147.770605
_cell_angle_gamma 90.000000
_cell_volume 1471.022026
_symmetry_space_group_name_H-M "P 21/C"
_symmetry_group_IT_number 14
_symmetry_cell_setting 'monoclinic'
loop_
_space_group_symop_operation_xyz
x,y,z
-x,1/2+y,1/2-z
-x,-y,-z
x,1/2-y,1/2+z
loop_
_atom_site_type_symbol
_atom_site_label
_atom_site_fract_x
_atom_site_fract_y
_atom_site_fract_z
Si Si1 0.023386 0.596444 0.071792
Si Si2 0.572939 0.560066 0.662283
Si Si3 0.545628 0.953782 0.773270
Si Si4 0.088524 0.422158 0.690417
Si Si5 0.699317 0.693880 0.196010
Si Si6 0.735921 0.244985 0.887332
Si Si7 0.819621 0.702388 0.031896
Si Si8 0.093892 0.506432 0.861074
O O1 0.918706 0.641936 0.088566
O O2 0.374610 0.594939 0.233964
O O3 0.981015 0.540227 0.100562
O O4 0.796340 0.594884 0.852667
O O5 0.475517 0.507270 0.672998
O O6 0.788523 0.540600 0.686528
O O7 0.260226 0.587975 0.469376
O O8 0.870017 0.938382 0.906497
O O9 0.342022 0.962227 0.559882
O O10 0.285899 0.369396 0.807733
O O11 0.170760 0.473934 0.801784
O O12 0.421583 0.715167 0.115409
O O13 0.725181 0.718550 0.095602
O O14 0.005904 0.711402 0.418229
O O15 0.466360 0.210513 0.695989
O O16 0.904148 0.270959 0.880270
#
# Coordination Sequence:
#
# PCOD9250259 Si02
#       8
#     4   4   4   4   4   4   4   4
#     4   9  17  35  53  72  97 147 184 209 266 334
#     4   9  19  32  51  73 109 145 178 216 269 319
#     4   9  19  32  51  73 109 145 178 216 269 319
#     4  12  19  31  52  83 105 133 182 232 261 320
#     4  11  23  39  62  90 111 145 197 230 285 353
#     4  10  24  40  60  86 114 146 182 240 298 342
#     4  11  20  40  62  81 116 148 182 239 292 336
#     4   9  18  33  49  73 105 145 176 209 265 320
#
# _framework density 21.753584
#
# number of rings (size 3 to 8) (size 9 to 14) (size 15 to 20)
#    0.000    2.000    1.250    4.875    0.000    0.000 
#    0.000    0.000    0.000    0.000    0.000    0.000 
#    0.000    0.000    0.000    0.000    0.000    0.000 
#
# Total GULP energy -178326.380705 kJ/mol
# GULP energy per Si atom -5572.699397 kJ/mol
# Density = 2.170407 g / cm^3
# Si number density = 21.753584 Si / 1000 Ang^3
#
#
#
# Elastic Constant Matrix: (Units=GPa)
#
#
# Indices 1 2 3 4 5 6 
#
# 1 106.1316 16.4165 1.1466 0.0000 5.7651 0.0000
# 2 16.4165 43.1714 -1.2624 0.0000 3.4605 0.0000
# 3 1.1466 -1.2624 47.6545 0.0000 5.1508 0.0000
# 4 0.0000 0.0000 0.0000 15.6592 0.0000 -0.4928
# 5 5.7651 3.4605 5.1508 0.0000 29.4486 0.0000
# 6 0.0000 0.0000 0.0000 -0.4928 0.0000 19.5723
#
#
#
# Elastic Compliance Matrix: (Units=1/GPa)
#
#
# Indices 1 2 3 4 5 6 
#
# 1 0.010081 -0.003718 -0.000178 0.000000 -0.001505 0.000000
# 2 -0.003718 0.024796 0.001002 0.000000 -0.002361 0.000000
# 3 -0.000178 0.001002 0.021429 0.000000 -0.003831 0.000000
# 4 0.000000 0.000000 0.000000 0.063911 0.000000 0.001609
# 5 -0.001505 -0.002361 -0.003831 0.000000 0.035200 0.000000
# 6 0.000000 0.000000 0.000000 0.001609 0.000000 0.051133
#
#
# Mechanical properties :
#
#
# Convention : Reuss Voigt Hill
#
# Bulk Modulus (GPa) = 19.79547 25.50653 22.65100
# Shear Modulus (GPa) = 21.81708 24.97981 23.39845
#
# Velocity S-wave (km/s) = 3.17033 3.39235 3.28321
# Velocity P-wave (km/s) = 4.74562 5.20525 4.98074
#
# Compressibility (1/GPa) = 0.05051661
#
# Stress axis : x y z
#
# Youngs Moduli (GPa) = 99.19589 40.32933 46.66513
#
# Poissons Ratio (x) = 0.14994 0.00832
# Poissons Ratio (y) = 0.36881 -0.04674
# Poissons Ratio (z) = 0.01769 -0.04039
#
# Static dielectric constant tensor:
#      x y z
#    x 1.875980 0.000000 0.012490 
#    y 0.000000 1.848920 0.000000 
#    z 0.012490 0.000000 1.818460 
# 
# From -- ./inp_files/42197.got.cif
#   From: 2010.05.17/outbox.cif.g08.bks.cpg/sg14_22_cif.got.tgz:42197.got - 2010.06.03 17:49:19.
