data_PCOD9250479
_publ_section_title
;
Structure prediction by ZEFSAII (Michael W. Deem and Ramdas Pophale) SiO2 
 PCOD9250479
Probable space group: P 21/C
;
_chemical_formula_sum "Si O2"
_cell_formula_units_Z 28
_cell_length_a 9.095417
_cell_length_b 19.228429
_cell_length_c 14.712175
_cell_angle_alpha 90.000000
_cell_angle_beta 30.147880
_cell_angle_gamma 90.000000
_cell_volume 1292.257348
_symmetry_space_group_name_H-M "P 21/C"
_symmetry_group_IT_number 14
_symmetry_cell_setting 'monoclinic'
loop_
_space_group_symop_operation_xyz
x,y,z
-x,1/2+y,1/2-z
-x,-y,-z
x,1/2-y,1/2+z
loop_
_atom_site_type_symbol
_atom_site_label
_atom_site_fract_x
_atom_site_fract_y
_atom_site_fract_z
Si Si1 0.172293 0.157811 0.758647
Si Si2 0.171880 0.072032 0.931435
Si Si3 0.283024 0.340929 0.768959
Si Si4 0.960732 0.450197 0.227927
Si Si5 0.729019 0.224607 0.517195
Si Si6 0.307053 0.094612 0.060893
Si Si7 0.694071 0.525617 0.127462
O O1 0.110152 0.133823 0.894953
O O2 0.515771 0.177486 0.569285
O O3 0.072849 0.092973 0.753053
O O4 0.962506 0.222598 0.846776
O O5 0.490569 0.040898 0.741105
O O6 0.159729 0.101037 0.040535
O O7 0.000000 0.000000 0.000000
O O8 0.488671 0.276983 0.688166
O O9 0.300039 0.352914 0.650321
O O10 0.391673 0.410078 0.761898
O O11 0.941703 0.321582 0.966726
O O12 0.857017 0.526998 0.310695
O O13 0.653283 0.417795 0.358053
O O14 0.228124 0.449782 0.014773
O O15 0.000000 0.500000 0.000000
#
# Coordination Sequence:
#
# PCOD9250479 Si02
#       7
#     4   4   4   4   4   4   4
#     4  11  23  44  64  94 131 169 222 262 322 389
#     4  12  24  39  65 103 135 164 212 276 335 390
#     4  11  22  44  66  93 132 176 219 264 328 392
#     4  11  22  39  67 100 130 167 211 271 338 389
#     4  10  24  43  66  87 131 186 212 263 316 389
#     4  11  21  39  67  98 132 167 207 274 342 381
#     4  12  22  38  67 101 131 166 215 272 338 391
#
# _framework density 21.667511999999999
#
# number of rings (size 3 to 8) (size 9 to 14) (size 15 to 20)
#    0.000    0.857    5.714    2.571    0.000    1.714 
#    0.000    8.571    0.000    0.000    0.000    0.000 
#    0.000    0.000    0.000    0.000    0.000    0.000 
#
# Total GULP energy -156123.930273 kJ/mol
# GULP energy per Si atom -5575.854653 kJ/mol
# Density = 2.161820 g / cm^3
# Si number density = 21.667512 Si / 1000 Ang^3
#
#
#
# Elastic Constant Matrix: (Units=GPa)
#
#
# Indices 1 2 3 4 5 6 
#
# 1 87.6991 12.9211 30.4370 0.0000 15.5347 0.0000
# 2 12.9211 67.3365 14.5680 0.0000 0.8315 0.0000
# 3 30.4370 14.5680 70.0681 0.0000 -12.2781 0.0000
# 4 0.0000 0.0000 0.0000 29.6694 0.0000 -16.5300
# 5 15.5347 0.8315 -12.2781 0.0000 47.4274 0.0000
# 6 0.0000 0.0000 0.0000 -16.5300 0.0000 21.9568
#
#
#
# Elastic Compliance Matrix: (Units=1/GPa)
#
#
# Indices 1 2 3 4 5 6 
#
# 1 0.015513 -0.001219 -0.007722 0.000000 -0.007059 0.000000
# 2 -0.001219 0.015707 -0.002844 0.000000 -0.000612 0.000000
# 3 -0.007722 -0.002844 0.019557 0.000000 0.007642 0.000000
# 4 0.000000 0.000000 0.000000 0.058056 0.000000 0.043707
# 5 -0.007059 -0.000612 0.007642 0.000000 0.025386 0.000000
# 6 0.000000 0.000000 0.000000 0.043707 0.000000 0.078448
#
#
# Mechanical properties :
#
#
# Convention : Reuss Voigt Hill
#
# Bulk Modulus (GPa) = 36.75451 37.88401 37.31926
# Shear Modulus (GPa) = 20.38279 30.95589 25.66934
#
# Velocity S-wave (km/s) = 3.07042 3.78389 3.44567
# Velocity P-wave (km/s) = 5.43781 6.05083 5.75249
#
# Compressibility (1/GPa) = 0.02720755
#
# Stress axis : x y z
#
# Youngs Moduli (GPa) = 64.46369 63.66417 51.13380
#
# Poissons Ratio (x) = 0.07760 0.39486
# Poissons Ratio (y) = 0.07858 0.14540
# Poissons Ratio (z) = 0.49779 0.18103
#
# Static dielectric constant tensor:
#      x y z
#    x 2.056790 0.000000 -0.055780 
#    y 0.000000 1.790850 0.000000 
#    z -0.055780 0.000000 1.732040 
# 
# From -- ./inp_files/42026.got.cif
#   From: 2010.05.17/outbox.cif.g08.bks.cpg/sg14_22_cif.got.tgz:42026.got - 2010.06.03 17:49:19.
