data_PCOD9250623
_publ_section_title
;
Structure prediction by ZEFSAII (Michael W. Deem and Ramdas Pophale) SiO2 
 PCOD9250623
Probable space group: P 21/C
;
_chemical_formula_sum "Si O2"
_cell_formula_units_Z 20
_cell_length_a 8.499113
_cell_length_b 9.862881
_cell_length_c 8.987654
_cell_angle_alpha 90.000000
_cell_angle_beta 88.918611
_cell_angle_gamma 90.000000
_cell_volume 753.262565
_symmetry_space_group_name_H-M "P 21/C"
_symmetry_group_IT_number 14
_symmetry_cell_setting 'monoclinic'
loop_
_space_group_symop_operation_xyz
x,y,z
-x,1/2+y,1/2-z
-x,-y,-z
x,1/2-y,1/2+z
loop_
_atom_site_type_symbol
_atom_site_label
_atom_site_fract_x
_atom_site_fract_y
_atom_site_fract_z
Si Si1 0.941604 0.084304 0.145210
Si Si2 0.311333 0.672478 0.880001
Si Si3 0.528180 0.823833 0.108465
Si Si4 0.725857 0.836366 0.851765
Si Si5 0.837959 0.549104 0.932879
O O1 0.840171 0.995286 0.260273
O O2 0.113584 0.103704 0.216897
O O3 0.841215 0.225616 0.130472
O O4 0.000000 0.000000 0.000000
O O5 0.435204 0.751101 0.978456
O O6 0.284403 0.540110 0.976952
O O7 0.391118 0.626243 0.723823
O O8 0.620053 0.721570 0.219124
O O9 0.643922 0.910142 0.996720
O O10 0.797615 0.704775 0.934976
O O11 0.000000 0.500000 0.000000
#
# Coordination Sequence:
#
# PCOD9250623 Si02
#       5
#     4   4   4   4   4
#     4  12  27  45  75 103 137 184 238 293 341 415
#     4  11  24  48  67 104 138 182 236 277 355 409
#     4  10  24  44  70  97 145 178 223 294 335 425
#     4  11  24  48  68 104 138 180 239 278 356 407
#     4  12  25  43  78 100 138 187 231 295 340 416
#
# _framework density 26.551165999999998
#
# number of rings (size 3 to 8) (size 9 to 14) (size 15 to 20)
#    0.000    0.800    4.000    2.400    5.600    3.200 
#    7.200    3.000    0.000    0.000    0.000    0.000 
#    0.000    0.000    0.000    0.000    0.000    0.000 
#
# Total GULP energy -111745.053002 kJ/mol
# GULP energy per Si atom -5587.252650 kJ/mol
# Density = 2.649073 g / cm^3
# Si number density = 26.551166 Si / 1000 Ang^3
#
#
#
# Elastic Constant Matrix: (Units=GPa)
#
#
# Indices 1 2 3 4 5 6 
#
# 1 112.4196 -3.7386 48.2459 0.0000 -6.5180 0.0000
# 2 -3.7386 53.7370 33.3741 0.0000 -31.4351 0.0000
# 3 48.2459 33.3741 232.7866 0.0000 -53.2728 0.0000
# 4 0.0000 0.0000 0.0000 51.8994 0.0000 -4.5382
# 5 -6.5180 -31.4351 -53.2728 0.0000 57.6410 0.0000
# 6 0.0000 0.0000 0.0000 -4.5382 0.0000 27.8536
#
#
#
# Elastic Compliance Matrix: (Units=1/GPa)
#
#
# Indices 1 2 3 4 5 6 
#
# 1 0.009991 0.002269 -0.002352 0.000000 0.000194 0.000000
# 2 0.002269 0.027919 -0.001179 0.000000 0.014392 0.000000
# 3 -0.002352 -0.001179 0.006017 0.000000 0.004652 0.000000
# 4 0.000000 0.000000 0.000000 0.019547 0.000000 0.003185
# 5 0.000194 0.014392 0.004652 0.000000 0.029519 0.000000
# 6 0.000000 0.000000 0.000000 0.003185 0.000000 0.036421
#
#
# Mechanical properties :
#
#
# Convention : Reuss Voigt Hill
#
# Bulk Modulus (GPa) = 24.15292 61.63401 42.89347
# Shear Modulus (GPa) = 34.30818 48.88292 41.59555
#
# Velocity S-wave (km/s) = 3.59855 4.29544 3.96235
# Velocity P-wave (km/s) = 5.13640 6.91844 6.09292
#
# Compressibility (1/GPa) = 0.04140285
#
# Stress axis : x y z
#
# Youngs Moduli (GPa) = 100.08835 35.81832 166.20156
#
# Poissons Ratio (x) = -0.08127 0.39085
# Poissons Ratio (y) = -0.22710 0.19598
# Poissons Ratio (z) = 0.23537 0.04224
#
# Static dielectric constant tensor:
#      x y z
#    x 2.363420 0.000000 -0.108910 
#    y 0.000000 2.091960 0.000000 
#    z -0.108910 0.000000 2.074970 
# 
# From -- ./inp_files/7836.got.cif
#   From: 2010.05.17/outbox.cif.g08.bks.cpg/sg14_4_cif.got.tgz:7836.got - 2010.06.03 17:49:19.
