data_PCOD9250624
_publ_section_title
;
Structure prediction by ZEFSAII (Michael W. Deem and Ramdas Pophale) SiO2 
 PCOD9250624
Probable space group: P 21/C
;
_chemical_formula_sum "Si O2"
_cell_formula_units_Z 20
_cell_length_a 8.615931
_cell_length_b 9.032907
_cell_length_c 11.299013
_cell_angle_alpha 90.000000
_cell_angle_beta 107.540127
_cell_angle_gamma 90.000000
_cell_volume 838.481999
_symmetry_space_group_name_H-M "P 21/C"
_symmetry_group_IT_number 14
_symmetry_cell_setting 'monoclinic'
loop_
_space_group_symop_operation_xyz
x,y,z
-x,1/2+y,1/2-z
-x,-y,-z
x,1/2-y,1/2+z
loop_
_atom_site_type_symbol
_atom_site_label
_atom_site_fract_x
_atom_site_fract_y
_atom_site_fract_z
Si Si1 0.471099 0.585672 0.615053
Si Si2 0.197305 0.968892 0.229824
Si Si3 0.001492 0.266665 0.760202
Si Si4 0.809647 0.535206 0.821472
Si Si5 0.347766 0.602534 0.995165
O O1 0.500000 0.500000 0.500000
O O2 0.327849 0.510044 0.658358
O O3 0.637621 0.586230 0.727408
O O4 0.408723 0.750018 0.572742
O O5 0.041234 0.867219 0.157180
O O6 0.269992 0.864895 0.350011
O O7 0.154814 0.120482 0.286744
O O8 0.869988 0.393961 0.759479
O O9 0.055082 0.163596 0.660383
O O10 0.773681 0.482513 0.945213
O O11 0.500000 0.500000 0.000000
#
# Coordination Sequence:
#
# PCOD9250624 Si02
#       5
#     4   4   4   4   4
#     4  12  27  45  74 102 138 184 236 292 342 416
#     4  11  24  49  68 104 141 179 240 278 359 411
#     4  10  24  44  70  99 146 180 222 295 338 425
#     4  11  24  47  69 105 139 183 238 279 353 410
#     4  12  25  43  77 100 136 186 233 294 340 416
#
# _framework density 23.852629
#
# number of rings (size 3 to 8) (size 9 to 14) (size 15 to 20)
#    0.000    0.800    4.000    2.400    2.800    3.200 
#    7.200    3.000    0.000    0.000    0.000    0.000 
#    0.000    0.000    0.000    0.000    0.000    0.000 
#
# Total GULP energy -111516.729214 kJ/mol
# GULP energy per Si atom -5575.836461 kJ/mol
# Density = 2.379834 g / cm^3
# Si number density = 23.852629 Si / 1000 Ang^3
#
#
#
# Elastic Constant Matrix: (Units=GPa)
#
#
# Indices 1 2 3 4 5 6 
#
# 1 143.4653 31.1837 38.5282 0.0000 -53.1022 0.0000
# 2 31.1837 84.6648 25.9021 0.0000 -16.1569 0.0000
# 3 38.5282 25.9021 89.8825 0.0000 -24.5609 0.0000
# 4 0.0000 0.0000 0.0000 27.3825 0.0000 -9.5713
# 5 -53.1022 -16.1569 -24.5609 0.0000 29.1124 0.0000
# 6 0.0000 0.0000 0.0000 -9.5713 0.0000 43.1404
#
#
#
# Elastic Compliance Matrix: (Units=1/GPa)
#
#
# Indices 1 2 3 4 5 6 
#
# 1 0.021773 -0.000837 0.002123 0.000000 0.041042 0.000000
# 2 -0.000837 0.013634 -0.002495 0.000000 0.003935 0.000000
# 3 0.002123 -0.002495 0.015094 0.000000 0.015222 0.000000
# 4 0.000000 0.000000 0.000000 0.039590 0.000000 0.008784
# 5 0.041042 0.003935 0.015222 0.000000 0.124239 0.000000
# 6 0.000000 0.000000 0.000000 0.008784 0.000000 0.025129
#
#
# Mechanical properties :
#
#
# Convention : Reuss Voigt Hill
#
# Bulk Modulus (GPa) = 20.79701 56.58228 38.68965
# Shear Modulus (GPa) = 19.38706 34.75364 27.07035
#
# Velocity S-wave (km/s) = 2.85403 3.82123 3.37248
# Velocity P-wave (km/s) = 4.42702 6.57588 5.60539
#
# Compressibility (1/GPa) = 0.04808383
#
# Stress axis : x y z
#
# Youngs Moduli (GPa) = 45.92753 73.34726 66.25107
#
# Poissons Ratio (x) = 0.06138 -0.14065
# Poissons Ratio (y) = 0.03843 0.16529
# Poissons Ratio (z) = -0.09750 0.18299
#
# Static dielectric constant tensor:
#      x y z
#    x 2.152290 0.000000 0.214520 
#    y 0.000000 2.009240 0.000000 
#    z 0.214520 0.000000 2.056940 
# 
# From -- ./inp_files/23013.got.cif
#   From: 2010.05.17/outbox.cif.g08.bks.cpg/sg14_12_cif.got.tgz:23013.got - 2010.06.03 17:49:19.
