data_PCOD9250630
_publ_section_title
;
Structure prediction by ZEFSAII (Michael W. Deem and Ramdas Pophale) SiO2 
 PCOD9250630
Probable space group: P 21/C
;
_chemical_formula_sum "Si O2"
_cell_formula_units_Z 20
_cell_length_a 13.672045
_cell_length_b 5.019666
_cell_length_c 20.960152
_cell_angle_alpha 90.000000
_cell_angle_beta 149.099015
_cell_angle_gamma 90.000000
_cell_volume 738.738168
_symmetry_space_group_name_H-M "P 21/C"
_symmetry_group_IT_number 14
_symmetry_cell_setting 'monoclinic'
loop_
_space_group_symop_operation_xyz
x,y,z
-x,1/2+y,1/2-z
-x,-y,-z
x,1/2-y,1/2+z
loop_
_atom_site_type_symbol
_atom_site_label
_atom_site_fract_x
_atom_site_fract_y
_atom_site_fract_z
Si Si1 0.158089 0.279758 0.575720
Si Si2 0.670798 0.686004 0.618698
Si Si3 0.016194 0.960240 0.391383
Si Si4 0.517926 0.233825 0.235313
Si Si5 0.386611 0.486224 0.038592
O O1 0.095627 0.131153 0.608207
O O2 0.351852 0.489471 0.677293
O O3 0.000000 0.500000 0.500000
O O4 0.095999 0.232961 0.464742
O O5 0.500000 0.500000 0.500000
O O6 0.859913 0.544185 0.748772
O O7 0.572040 0.852282 0.620237
O O8 0.706675 0.869687 0.577333
O O9 0.219144 0.843210 0.479042
O O10 0.648875 0.963647 0.323945
O O11 0.473234 0.266800 0.135844
#
# Coordination Sequence:
#
# PCOD9250630 Si02
#       5
#     4   4   4   4   4
#     4  10  24  44  72 104 143 183 239 302 372 436
#     4  11  26  45  72 100 144 186 246 295 362 448
#     4  10  24  45  69 106 139 188 238 301 368 435
#     4  11  26  44  76 106 147 191 245 309 370 441
#     4  10  26  46  66 108 139 193 241 301 370 434
#
# _framework density 27.073191999999999
#
# number of rings (size 3 to 8) (size 9 to 14) (size 15 to 20)
#    0.000    1.600    0.000    1.200   16.800    4.800 
#    0.000    0.000    0.000    0.000    0.000    0.000 
#    0.000    0.000    0.000    0.000    0.000    0.000 
#
# Total GULP energy -111368.833571 kJ/mol
# GULP energy per Si atom -5568.441679 kJ/mol
# Density = 2.701157 g / cm^3
# Si number density = 27.073192 Si / 1000 Ang^3
#
#
#
# Elastic Constant Matrix: (Units=GPa)
#
#
# Indices 1 2 3 4 5 6 
#
# 1 177.7092 52.4363 67.2791 0.0000 21.0553 0.0000
# 2 52.4363 162.5733 61.5129 0.0000 3.1730 0.0000
# 3 67.2791 61.5129 187.6362 0.0000 6.3058 0.0000
# 4 0.0000 0.0000 0.0000 42.5741 0.0000 5.8538
# 5 21.0553 3.1730 6.3058 0.0000 40.7006 0.0000
# 6 0.0000 0.0000 0.0000 5.8538 0.0000 39.0075
#
#
#
# Elastic Compliance Matrix: (Units=1/GPa)
#
#
# Indices 1 2 3 4 5 6 
#
# 1 0.007215 -0.001514 -0.001980 0.000000 -0.003308 0.000000
# 2 -0.001514 0.007341 -0.001881 0.000000 0.000502 0.000000
# 3 -0.001980 -0.001881 0.006651 0.000000 0.000140 0.000000
# 4 0.000000 0.000000 0.000000 0.023983 0.000000 -0.003599
# 5 -0.003308 0.000502 0.000140 0.000000 0.026220 0.000000
# 6 0.000000 0.000000 0.000000 -0.003599 0.000000 0.026176
#
#
# Mechanical properties :
#
#
# Convention : Reuss Voigt Hill
#
# Bulk Modulus (GPa) = 95.60875 98.93056 97.26966
# Shear Modulus (GPa) = 44.71405 47.56914 46.14159
#
# Velocity S-wave (km/s) = 4.06840 4.19627 4.13283
# Velocity P-wave (km/s) = 7.58028 7.75239 7.66682
#
# Compressibility (1/GPa) = 0.01045929
#
# Stress axis : x y z
#
# Youngs Moduli (GPa) = 138.59621 136.21946 150.34904
#
# Poissons Ratio (x) = 0.20618 0.29765
# Poissons Ratio (y) = 0.20977 0.28278
# Poissons Ratio (z) = 0.27438 0.25620
#
# Static dielectric constant tensor:
#      x y z
#    x 2.248970 0.000000 -0.064230 
#    y 0.000000 2.257920 0.000000 
#    z -0.064230 0.000000 1.952370 
# 
# From -- ./inp_files/66376.got.cif
#   From: 2010.05.17/outbox.cif.g08.bks.cpg/sg14_34_cif.got.tgz:66376.got - 2010.06.03 17:49:19.
