data_PCOD9250095
_publ_section_title
;
Structure prediction by ZEFSAII (Michael W. Deem and Ramdas Pophale) SiO2 
 PCOD9250095
Probable space group: P 21/C
;
_chemical_formula_sum "Si O2"
_cell_formula_units_Z 28
_cell_length_a 7.413088
_cell_length_b 17.601994
_cell_length_c 9.356095
_cell_angle_alpha 90.000000
_cell_angle_beta 121.375430
_cell_angle_gamma 90.000000
_cell_volume 1042.314176
_symmetry_space_group_name_H-M "P 21/C"
_symmetry_group_IT_number 14
_symmetry_cell_setting 'monoclinic'
loop_
_space_group_symop_operation_xyz
x,y,z
-x,1/2+y,1/2-z
-x,-y,-z
x,1/2-y,1/2+z
loop_
_atom_site_type_symbol
_atom_site_label
_atom_site_fract_x
_atom_site_fract_y
_atom_site_fract_z
Si Si1 0.795280 0.546947 0.968745
Si Si2 0.144726 0.345568 0.770577
Si Si3 0.026678 0.641464 0.856820
Si Si4 0.070648 0.613047 0.607686
Si Si5 0.374078 0.304299 0.446833
Si Si6 0.441709 0.548071 0.615856
Si Si7 0.751553 0.219730 0.300679
O O1 0.589500 0.517531 0.804386
O O2 0.854838 0.624471 0.905081
O O3 0.778004 0.579881 0.117299
O O4 0.000000 0.500000 0.000000
O O5 0.094808 0.361772 0.586827
O O6 0.925940 0.316897 0.761587
O O7 0.315359 0.278362 0.862445
O O8 0.117922 0.577325 0.792477
O O9 0.867468 0.661962 0.655118
O O10 0.192462 0.689362 0.016556
O O11 0.202595 0.551056 0.565536
O O12 0.215192 0.690320 0.687805
O O13 0.498955 0.365881 0.405396
O O14 0.519692 0.297931 0.645965
O O15 0.500000 0.500000 0.500000
#
# Coordination Sequence:
#
# PCOD9250095 Si02
#       7
#     4   4   4   4   4   4   4
#     4  10  23  46  71  94 135 190 235 283 353 436
#     4  11  22  41  69 102 137 181 232 287 354 420
#     4  10  24  41  66 103 137 173 234 290 342 417
#     4  12  21  42  66 102 138 172 227 298 344 417
#     4  11  22  43  68 100 136 188 231 282 352 423
#     4  11  25  43  69  99 135 190 237 287 361 425
#     4  11  21  40  69  97 142 177 218 289 350 413
#
# _framework density 26.863302000000001
#
# number of rings (size 3 to 8) (size 9 to 14) (size 15 to 20)
#    0.000    1.143    4.286    1.714    2.000    1.143 
#    2.571    7.143    0.000    0.000    0.000    0.000 
#    0.000    0.000    0.000    0.000    0.000    0.000 
#
# Total GULP energy -155951.050225 kJ/mol
# GULP energy per Si atom -5569.680365 kJ/mol
# Density = 2.680216 g / cm^3
# Si number density = 26.863302 Si / 1000 Ang^3
#
#
#
# Elastic Constant Matrix: (Units=GPa)
#
#
# Indices 1 2 3 4 5 6 
#
# 1 81.5709 19.5373 37.2457 0.0000 4.3633 0.0000
# 2 19.5373 58.1762 17.9959 0.0000 -0.9487 0.0000
# 3 37.2457 17.9959 192.5954 0.0000 10.5663 0.0000
# 4 0.0000 0.0000 0.0000 25.3446 0.0000 -5.4110
# 5 4.3633 -0.9487 10.5663 0.0000 46.9779 0.0000
# 6 0.0000 0.0000 0.0000 -5.4110 0.0000 23.4506
#
#
#
# Elastic Compliance Matrix: (Units=1/GPa)
#
#
# Indices 1 2 3 4 5 6 
#
# 1 0.014362 -0.004113 -0.002344 0.000000 -0.000890 0.000000
# 2 -0.004113 0.018904 -0.001026 0.000000 0.000994 0.000000
# 3 -0.002344 -0.001026 0.005802 0.000000 -0.001108 0.000000
# 4 0.000000 0.000000 0.000000 0.041501 0.000000 0.009576
# 5 -0.000890 0.000994 -0.001108 0.000000 0.021639 0.000000
# 6 0.000000 0.000000 0.000000 0.009576 0.000000 0.044852
#
#
# Mechanical properties :
#
#
# Convention : Reuss Voigt Hill
#
# Bulk Modulus (GPa) = 41.48835 53.54447 47.51641
# Shear Modulus (GPa) = 29.40148 36.32553 32.86351
#
# Velocity S-wave (km/s) = 3.31189 3.68127 3.50145
# Velocity P-wave (km/s) = 5.48658 6.16802 5.83725
#
# Compressibility (1/GPa) = 0.02410315
#
# Stress axis : x y z
#
# Youngs Moduli (GPa) = 69.62640 52.89952 172.34755
#
# Poissons Ratio (x) = 0.21756 0.40406
# Poissons Ratio (y) = 0.28635 0.17675
# Poissons Ratio (z) = 0.16323 0.05425
#
# Static dielectric constant tensor:
#      x y z
#    x 1.715190 0.000000 0.011960 
#    y 0.000000 2.629080 0.000000 
#    z 0.011960 0.000000 2.270430 
# 
# From -- ./inp_files/10414.got.cif
#   From: 2010.05.17/outbox.cif.g08.bks.cpg/sg14_6_cif.got.tgz:10414.got - 2010.06.03 17:49:19.
