data_PCOD9250459
_publ_section_title
;
Structure prediction by ZEFSAII (Michael W. Deem and Ramdas Pophale) SiO2 
 PCOD9250459
Probable space group: P 21/C
;
_chemical_formula_sum "Si O2"
_cell_formula_units_Z 32
_cell_length_a 15.083636
_cell_length_b 10.668779
_cell_length_c 9.058235
_cell_angle_alpha 90.000000
_cell_angle_beta 81.488532
_cell_angle_gamma 90.000000
_cell_volume 1441.632629
_symmetry_space_group_name_H-M "P 21/C"
_symmetry_group_IT_number 14
_symmetry_cell_setting 'monoclinic'
loop_
_space_group_symop_operation_xyz
x,y,z
-x,1/2+y,1/2-z
-x,-y,-z
x,1/2-y,1/2+z
loop_
_atom_site_type_symbol
_atom_site_label
_atom_site_fract_x
_atom_site_fract_y
_atom_site_fract_z
Si Si1 0.137469 0.083124 0.007338
Si Si2 0.598356 0.267827 0.105162
Si Si3 0.928533 0.796810 0.286420
Si Si4 0.495253 0.129518 0.905949
Si Si5 0.320137 0.487783 0.360310
Si Si6 0.758560 0.137981 0.375336
Si Si7 0.132510 0.631311 0.698961
Si Si8 0.106690 0.002810 0.482460
O O1 0.103279 0.146481 0.863166
O O2 0.245454 0.075322 0.982571
O O3 0.092222 0.158095 0.152773
O O4 0.118382 0.935041 0.043170
O O5 0.568277 0.336487 0.262164
O O6 0.641518 0.128135 0.113940
O O7 0.512435 0.239550 0.021072
O O8 0.673864 0.345506 0.001871
O O9 0.035841 0.812937 0.264854
O O10 0.877079 0.873603 0.427753
O O11 0.402572 0.107928 0.841768
O O12 0.500000 0.000000 0.000000
O O13 0.265910 0.524834 0.226816
O O14 0.785322 0.273017 0.303626
O O15 0.851713 0.107904 0.432171
O O16 0.150293 0.523098 0.815073
O O17 0.000000 0.000000 0.500000
#
# Coordination Sequence:
#
# PCOD9250459 Si02
#       8
#     4   4   4   4   4   4   4   4
#     4  12  25  46  68 103 141 196 246 300 362 443
#     4  11  22  47  74 109 144 184 239 295 374 445
#     4  11  26  42  68  97 153 193 241 303 367 427
#     4  10  25  45  74 107 147 179 230 311 372 445
#     4  11  24  45  70 107 140 185 243 299 368 437
#     4  12  23  42  78 106 139 195 249 304 354 446
#     4  11  26  40  72 102 143 188 250 303 361 425
#     4  10  24  43  62 105 147 193 244 304 368 422
#
# _framework density 22.197057999999998
#
# number of rings (size 3 to 8) (size 9 to 14) (size 15 to 20)
#    0.000    1.000    3.750    1.875    7.000    1.500 
#    0.000    0.000    0.000    0.000    0.000    0.000 
#    0.000    0.000    0.000    0.000    0.000    0.000 
#
# Total GULP energy -178190.579531 kJ/mol
# GULP energy per Si atom -5568.455610 kJ/mol
# Density = 2.214654 g / cm^3
# Si number density = 22.197058 Si / 1000 Ang^3
#
#
#
# Elastic Constant Matrix: (Units=GPa)
#
#
# Indices 1 2 3 4 5 6 
#
# 1 101.0440 26.6412 36.1772 0.0000 -3.7155 0.0000
# 2 26.6412 27.8524 19.4451 0.0000 2.6297 0.0000
# 3 36.1772 19.4451 84.5380 0.0000 -0.6998 0.0000
# 4 0.0000 0.0000 0.0000 43.8147 0.0000 -5.8711
# 5 -3.7155 2.6297 -0.6998 0.0000 36.2027 0.0000
# 6 0.0000 0.0000 0.0000 -5.8711 0.0000 33.6572
#
#
#
# Elastic Compliance Matrix: (Units=1/GPa)
#
#
# Indices 1 2 3 4 5 6 
#
# 1 0.014218 -0.011406 -0.003443 0.000000 0.002221 0.000000
# 2 -0.011406 0.052320 -0.007195 0.000000 -0.005110 0.000000
# 3 -0.003443 -0.007195 0.014961 0.000000 0.000459 0.000000
# 4 0.000000 0.000000 0.000000 0.023370 0.000000 0.004077
# 5 0.002221 -0.005110 0.000459 0.000000 0.028230 0.000000
# 6 0.000000 0.000000 0.000000 0.004077 0.000000 0.030422
#
#
# Mechanical properties :
#
#
# Convention : Reuss Voigt Hill
#
# Bulk Modulus (GPa) = 26.73047 41.99570 34.36308
# Shear Modulus (GPa) = 22.71899 31.47965 27.09932
#
# Velocity S-wave (km/s) = 3.20271 3.76997 3.49786
# Velocity P-wave (km/s) = 5.07395 6.15718 5.64162
#
# Compressibility (1/GPa) = 0.03741050
#
# Stress axis : x y z
#
# Youngs Moduli (GPa) = 70.33205 19.11326 66.84007
#
# Poissons Ratio (x) = 0.21801 0.23010
# Poissons Ratio (y) = 0.80222 0.48095
# Poissons Ratio (z) = 0.24212 0.13753
#
# Static dielectric constant tensor:
#      x y z
#    x 1.887080 0.000000 0.115980 
#    y 0.000000 1.915160 0.000000 
#    z 0.115980 0.000000 1.939850 
# 
# From -- ./inp_files/15758.got.cif
#   From: 2010.05.17/outbox.cif.g08.bks.cpg/sg14_8_cif.got.tgz:15758.got - 2010.06.03 17:49:19.
