data_PCOD9250468
_publ_section_title
;
Structure prediction by ZEFSAII (Michael W. Deem and Ramdas Pophale) SiO2 
 PCOD9250468
Probable space group: P 21/C
;
_chemical_formula_sum "Si O2"
_cell_formula_units_Z 28
_cell_length_a 7.430942
_cell_length_b 28.275622
_cell_length_c 5.024559
_cell_angle_alpha 90.000000
_cell_angle_beta 89.910262
_cell_angle_gamma 90.000000
_cell_volume 1055.731443
_symmetry_space_group_name_H-M "P 21/C"
_symmetry_group_IT_number 14
_symmetry_cell_setting 'monoclinic'
loop_
_space_group_symop_operation_xyz
x,y,z
-x,1/2+y,1/2-z
-x,-y,-z
x,1/2-y,1/2+z
loop_
_atom_site_type_symbol
_atom_site_label
_atom_site_fract_x
_atom_site_fract_y
_atom_site_fract_z
Si Si1 0.232906 0.229488 0.925137
Si Si2 0.931189 0.052481 0.562643
Si Si3 0.212023 0.868601 0.835287
Si Si4 0.536563 0.042488 0.708611
Si Si5 0.580824 0.592481 0.295426
Si Si6 0.175000 0.767635 0.837180
Si Si7 0.127072 0.127791 0.857004
O O1 0.318811 0.234245 0.216398
O O2 0.218396 0.177721 0.790898
O O3 0.027497 0.241378 0.037885
O O4 0.854468 0.084947 0.323198
O O5 0.752132 0.045992 0.743385
O O6 0.099256 0.081195 0.681542
O O7 0.000000 0.000000 0.500000
O O8 0.419822 0.874339 0.896552
O O9 0.178311 0.818605 0.694859
O O10 0.081910 0.862565 0.085497
O O11 0.443638 0.048104 0.996998
O O12 0.500000 0.000000 0.500000
O O13 0.464541 0.084292 0.512604
O O14 0.772408 0.613266 0.370737
O O15 0.267227 0.766821 0.125731
#
# Coordination Sequence:
#
# PCOD9250468 Si02
#       7
#     4   4   4   4   4   4   4
#     4   9  20  36  61  96 128 166 215 265 322 385
#     4  11  25  42  67  98 132 176 227 270 328 399
#     4  10  24  43  64  96 135 169 220 273 325 390
#     4  11  24  45  64  93 133 170 221 282 323 386
#     4  11  25  43  65  95 130 174 215 269 335 381
#     4   9  19  34  64  93 123 168 212 261 324 386
#     4  11  24  41  71  93 133 179 217 273 329 390
#
# _framework density 26.521892999999999
#
# number of rings (size 3 to 8) (size 9 to 14) (size 15 to 20)
#    0.000    1.714    1.429    1.286   14.000    1.714 
#    0.000    1.429    0.000    0.000    0.000    0.000 
#    0.000    0.000    0.000    0.000    0.000    0.000 
#
# Total GULP energy -156051.313497 kJ/mol
# GULP energy per Si atom -5573.261196 kJ/mol
# Density = 2.646153 g / cm^3
# Si number density = 26.521893 Si / 1000 Ang^3
#
#
#
# Elastic Constant Matrix: (Units=GPa)
#
#
# Indices 1 2 3 4 5 6 
#
# 1 106.0034 4.4010 6.7741 0.0000 10.6462 0.0000
# 2 4.4010 149.4907 32.5581 0.0000 4.4423 0.0000
# 3 6.7741 32.5581 134.6715 0.0000 2.6431 0.0000
# 4 0.0000 0.0000 0.0000 28.8523 0.0000 1.7300
# 5 10.6462 4.4423 2.6431 0.0000 30.8173 0.0000
# 6 0.0000 0.0000 0.0000 1.7300 0.0000 19.8480
#
#
#
# Elastic Compliance Matrix: (Units=1/GPa)
#
#
# Indices 1 2 3 4 5 6 
#
# 1 0.009799 -0.000102 -0.000403 0.000000 -0.003336 0.000000
# 2 -0.000102 0.007086 -0.001691 0.000000 -0.000841 0.000000
# 3 -0.000403 -0.001691 0.007860 0.000000 -0.000291 0.000000
# 4 0.000000 0.000000 0.000000 0.034841 0.000000 -0.003037
# 5 -0.003336 -0.000841 -0.000291 0.000000 0.033748 0.000000
# 6 0.000000 0.000000 0.000000 -0.003037 0.000000 0.050648
#
#
# Mechanical properties :
#
#
# Convention : Reuss Voigt Hill
#
# Bulk Modulus (GPa) = 49.13276 53.07024 51.10150
# Shear Modulus (GPa) = 32.22523 38.99899 35.61211
#
# Velocity S-wave (km/s) = 3.48953 3.83880 3.66832
# Velocity P-wave (km/s) = 5.89926 6.30095 6.10341
#
# Compressibility (1/GPa) = 0.02035302
#
# Stress axis : x y z
#
# Youngs Moduli (GPa) = 102.05483 141.12830 127.22042
#
# Poissons Ratio (x) = 0.01434 0.05125
# Poissons Ratio (y) = 0.01037 0.21518
# Poissons Ratio (z) = 0.04111 0.23871
#
# Static dielectric constant tensor:
#      x y z
#    x 2.298110 0.000000 0.254320 
#    y 0.000000 2.267900 0.000000 
#    z 0.254320 0.000000 2.457680 
# 
# From -- ./inp_files/1937.got.cif
#   From: 2010.05.17/outbox.cif.g08.bks.cpg/sg14_1_cif.got.tgz:1937.got - 2010.06.03 17:49:19.
