data_PCOD9250587
_publ_section_title
;
Structure prediction by ZEFSAII (Michael W. Deem and Ramdas Pophale) SiO2 
 PCOD9250587
Probable space group: P 21/C
;
_chemical_formula_sum "Si O2"
_cell_formula_units_Z 20
_cell_length_a 14.798363
_cell_length_b 8.651108
_cell_length_c 9.709362
_cell_angle_alpha 90.000000
_cell_angle_beta 41.344131
_cell_angle_gamma 90.000000
_cell_volume 821.110494
_symmetry_space_group_name_H-M "P 21/C"
_symmetry_group_IT_number 14
_symmetry_cell_setting 'monoclinic'
loop_
_space_group_symop_operation_xyz
x,y,z
-x,1/2+y,1/2-z
-x,-y,-z
x,1/2-y,1/2+z
loop_
_atom_site_type_symbol
_atom_site_label
_atom_site_fract_x
_atom_site_fract_y
_atom_site_fract_z
Si Si1 0.090729 0.558499 0.687951
Si Si2 0.819335 0.001782 0.615210
Si Si3 0.714160 0.800075 0.157997
Si Si4 0.422309 0.415734 0.922110
Si Si5 0.320883 0.716088 0.889589
O O1 0.116743 0.569428 0.821468
O O2 0.172448 0.417866 0.526245
O O3 0.167304 0.713657 0.552776
O O4 0.929431 0.524169 0.865112
O O5 0.777916 0.826623 0.687512
O O6 0.685107 0.103086 0.735745
O O7 0.610524 0.881835 0.381164
O O8 0.652687 0.701351 0.101374
O O9 0.369097 0.588469 0.946440
O O10 0.579058 0.362035 0.718954
#
# Coordination Sequence:
#
# PCOD9250587 Si02
#       5
#     4   4   4   4   4
#     4  11  23  43  69  97 139 182 233 282 340 407
#     4  10  24  44  67  99 136 185 230 285 339 402
#     4  11  23  46  66 103 137 185 226 288 337 418
#     4  11  26  42  72 101 141 178 231 278 355 400
#     4  11  26  44  70 103 135 182 228 288 338 415
#
# _framework density 24.357257000000001
#
# number of rings (size 3 to 8) (size 9 to 14) (size 15 to 20)
#    0.000    1.200    2.000    2.400    5.600    3.200 
#    0.000    3.000    0.000    0.000    0.000    0.000 
#    0.000    0.000    0.000    0.000    0.000    0.000 
#
# Total GULP energy -111465.755950 kJ/mol
# GULP energy per Si atom -5573.287797 kJ/mol
# Density = 2.430182 g / cm^3
# Si number density = 24.357257 Si / 1000 Ang^3
#
#
#
# Elastic Constant Matrix: (Units=GPa)
#
#
# Indices 1 2 3 4 5 6 
#
# 1 45.7445 -2.0478 -9.1245 0.0000 2.9286 0.0000
# 2 -2.0478 114.0774 0.7303 0.0000 -4.4891 0.0000
# 3 -9.1245 0.7303 35.1074 0.0000 8.7962 0.0000
# 4 0.0000 0.0000 0.0000 25.4004 0.0000 -12.3032
# 5 2.9286 -4.4891 8.7962 0.0000 30.7661 0.0000
# 6 0.0000 0.0000 0.0000 -12.3032 0.0000 26.0552
#
#
#
# Elastic Compliance Matrix: (Units=1/GPa)
#
#
# Indices 1 2 3 4 5 6 
#
# 1 0.023578 0.000209 0.007194 0.000000 -0.004271 0.000000
# 2 0.000209 0.008828 -0.000482 0.000000 0.001406 0.000000
# 3 0.007194 -0.000482 0.032910 0.000000 -0.010164 0.000000
# 4 0.000000 0.000000 0.000000 0.051044 0.000000 0.024103
# 5 -0.004271 0.001406 -0.010164 0.000000 0.036021 0.000000
# 6 0.000000 0.000000 0.000000 0.024103 0.000000 0.049762
#
#
# Mechanical properties :
#
#
# Convention : Reuss Voigt Hill
#
# Bulk Modulus (GPa) = 12.63277 19.33838 15.98557
# Shear Modulus (GPa) = 23.28969 30.13576 26.71272
#
# Velocity S-wave (km/s) = 3.09555 3.52126 3.31525
# Velocity P-wave (km/s) = 4.23961 4.94864 4.60779
#
# Compressibility (1/GPa) = 0.07915923
#
# Stress axis : x y z
#
# Youngs Moduli (GPa) = 42.41206 113.27419 30.38560
#
# Poissons Ratio (x) = -0.02369 -0.21858
# Poissons Ratio (y) = -0.00887 0.01463
# Poissons Ratio (z) = -0.30510 0.05454
#
# Static dielectric constant tensor:
#      x y z
#    x 2.002840 0.000000 -0.105540 
#    y 0.000000 1.988000 0.000000 
#    z -0.105540 0.000000 2.071540 
# 
# From -- ./inp_files/11861.got.cif
#   From: 2010.05.17/outbox.cif.g08.bks.cpg/sg14_6_cif.got.tgz:11861.got - 2010.06.03 17:49:19.
