data_PCOD9250779
_publ_section_title
;
Structure prediction by ZEFSAII (Michael W. Deem and Ramdas Pophale) SiO2 
 PCOD9250779
Probable space group: P 21/C
;
_chemical_formula_sum "Si O2"
_cell_formula_units_Z 16
_cell_length_a 5.377498
_cell_length_b 5.645960
_cell_length_c 19.401894
_cell_angle_alpha 90.000000
_cell_angle_beta 100.269498
_cell_angle_gamma 90.000000
_cell_volume 579.626845
_symmetry_space_group_name_H-M "P 21/C"
_symmetry_group_IT_number 14
_symmetry_cell_setting 'monoclinic'
loop_
_space_group_symop_operation_xyz
x,y,z
-x,1/2+y,1/2-z
-x,-y,-z
x,1/2-y,1/2+z
loop_
_atom_site_type_symbol
_atom_site_label
_atom_site_fract_x
_atom_site_fract_y
_atom_site_fract_z
Si Si1 0.382175 0.887365 0.655155
Si Si2 0.135257 0.924226 0.775106
Si Si3 0.267738 0.878919 0.026562
Si Si4 0.154469 0.628518 0.897559
O O1 0.378947 0.893666 0.737604
O O2 0.323110 0.649711 0.609778
O O3 0.638789 0.979868 0.634525
O O4 0.130732 0.038083 0.623993
O O5 0.168931 0.878349 0.857496
O O6 0.976992 0.686741 0.743514
O O7 0.235743 0.638363 0.980618
O O8 0.500000 0.000000 0.000000
O O9 0.000000 0.000000 0.000000
#
# Coordination Sequence:
#
# PCOD9250779 Si02
#       4
#     4   4   4   4
#     4  11  24  43  67  96 136 182 230 283 344 411
#     4  10  24  46  72 104 140 184 232 286 346 412
#     4  12  24  40  66  98 136 180 231 286 345 410
#     4  11  24  43  67  96 136 182 230 283 344 411
#
# _framework density 27.603964000000001
#
# number of rings (size 3 to 8) (size 9 to 14) (size 15 to 20)
#    0.000    1.000    0.000    6.000    0.000   14.000 
#    0.000    0.000    0.000    0.000    0.000    0.000 
#    0.000    0.000    0.000    0.000    0.000    0.000 
#
# Total GULP energy -89540.869385 kJ/mol
# GULP energy per Si atom -5596.304337 kJ/mol
# Density = 2.754114 g / cm^3
# Si number density = 27.603964 Si / 1000 Ang^3
#
#
#
# Elastic Constant Matrix: (Units=GPa)
#
#
# Indices 1 2 3 4 5 6 
#
# 1 155.3555 61.9602 33.2384 0.0000 -9.9158 0.0000
# 2 61.9602 96.4937 14.3591 0.0000 -4.5522 0.0000
# 3 33.2384 14.3591 129.3275 0.0000 -24.7659 0.0000
# 4 0.0000 0.0000 0.0000 57.6000 0.0000 1.7929
# 5 -9.9158 -4.5522 -24.7659 0.0000 39.8374 0.0000
# 6 0.0000 0.0000 0.0000 1.7929 0.0000 75.5834
#
#
#
# Elastic Compliance Matrix: (Units=1/GPa)
#
#
# Indices 1 2 3 4 5 6 
#
# 1 0.009020 -0.005527 -0.001584 0.000000 0.000629 0.000000
# 2 -0.005527 0.013934 -0.000097 0.000000 0.000157 0.000000
# 3 -0.001584 -0.000097 0.009163 0.000000 0.005291 0.000000
# 4 0.000000 0.000000 0.000000 0.017374 0.000000 -0.000412
# 5 0.000629 0.000157 0.005291 0.000000 0.028566 0.000000
# 6 0.000000 0.000000 0.000000 -0.000412 0.000000 0.013240
#
#
# Mechanical properties :
#
#
# Convention : Reuss Voigt Hill
#
# Bulk Modulus (GPa) = 56.48947 66.69913 61.59430
# Shear Modulus (GPa) = 44.79762 52.71212 48.75487
#
# Velocity S-wave (km/s) = 4.03286 4.37462 4.20721
# Velocity P-wave (km/s) = 6.49568 7.05207 6.77959
#
# Compressibility (1/GPa) = 0.01770241
#
# Stress axis : x y z
#
# Youngs Moduli (GPa) = 110.86404 71.76789 109.12888
#
# Poissons Ratio (x) = 0.39663 0.17288
# Poissons Ratio (y) = 0.61269 0.01056
# Poissons Ratio (z) = 0.17563 0.00694
#
# Static dielectric constant tensor:
#      x y z
#    x 2.122090 0.000000 0.063240 
#    y 0.000000 2.259270 0.000000 
#    z 0.063240 0.000000 2.182440 
# 
# From -- ./inp_files/62798.got.cif
#   From: 2010.05.17/outbox.cif.g08.bks.cpg/sg14_32_cif.got.tgz:62798.got - 2010.06.03 17:49:19.
