data_PCOD9250024
_publ_section_title
;
Structure prediction by ZEFSAII (Michael W. Deem and Ramdas Pophale) SiO2 
 PCOD9250024
Probable space group: P 21/C
;
_chemical_formula_sum "Si O2"
_cell_formula_units_Z 16
_cell_length_a 4.919464
_cell_length_b 10.281971
_cell_length_c 12.173136
_cell_angle_alpha 90.000000
_cell_angle_beta 81.792062
_cell_angle_gamma 90.000000
_cell_volume 609.431616
_symmetry_space_group_name_H-M "P 21/C"
_symmetry_group_IT_number 14
_symmetry_cell_setting 'monoclinic'
loop_
_space_group_symop_operation_xyz
x,y,z
-x,1/2+y,1/2-z
-x,-y,-z
x,1/2-y,1/2+z
loop_
_atom_site_type_symbol
_atom_site_label
_atom_site_fract_x
_atom_site_fract_y
_atom_site_fract_z
Si Si1 0.175063 0.079041 0.821719
Si Si2 0.431636 0.699770 0.129611
Si Si3 0.305012 0.882824 0.973523
Si Si4 0.931983 0.969631 0.629533
O O1 0.431124 0.178476 0.813809
O O2 0.963225 0.113084 0.933286
O O3 0.019951 0.075648 0.714448
O O4 0.246180 0.929234 0.854521
O O5 0.452841 0.749722 0.000065
O O6 0.119908 0.653015 0.153294
O O7 0.619569 0.576302 0.145524
O O8 0.500000 0.000000 0.000000
O O9 0.000000 0.000000 0.500000
#
# Coordination Sequence:
#
# PCOD9250024 Si02
#       4
#     4   4   4   4
#     4  10  23  45  71  99 131 182 229 274 325 409
#     4  11  24  46  67  99 135 181 219 274 341 387
#     4   9  20  43  71  97 129 170 240 271 317 396
#     4  12  28  44  66 103 142 170 219 279 342 399
#
# _framework density 26.253971
#
# number of rings (size 3 to 8) (size 9 to 14) (size 15 to 20)
#    0.000    1.500    2.500    0.750    7.000    4.000 
#    0.000    0.000    0.000    0.000    0.000    0.000 
#    0.000    0.000    0.000    0.000    0.000    0.000 
#
# Total GULP energy -89286.982831 kJ/mol
# GULP energy per Si atom -5580.436427 kJ/mol
# Density = 2.619422 g / cm^3
# Si number density = 26.253971 Si / 1000 Ang^3
#
#
#
# Elastic Constant Matrix: (Units=GPa)
#
#
# Indices 1 2 3 4 5 6 
#
# 1 107.4931 1.6801 10.4736 0.0000 0.2521 0.0000
# 2 1.6801 55.8702 15.8252 0.0000 7.7296 0.0000
# 3 10.4736 15.8252 161.8536 0.0000 26.1250 0.0000
# 4 0.0000 0.0000 0.0000 38.8913 0.0000 15.5285
# 5 0.2521 7.7296 26.1250 0.0000 38.7670 0.0000
# 6 0.0000 0.0000 0.0000 15.5285 0.0000 44.9684
#
#
#
# Elastic Compliance Matrix: (Units=1/GPa)
#
#
# Indices 1 2 3 4 5 6 
#
# 1 0.009368 -0.000152 -0.000658 0.000000 0.000413 0.000000
# 2 -0.000152 0.018677 -0.001364 0.000000 -0.002804 0.000000
# 3 -0.000658 -0.001364 0.007080 0.000000 -0.004495 0.000000
# 4 0.000000 0.000000 0.000000 0.029825 0.000000 -0.010299
# 5 0.000413 -0.002804 -0.004495 0.000000 0.029381 0.000000
# 6 0.000000 0.000000 0.000000 -0.010299 0.000000 0.025794
#
#
# Mechanical properties :
#
#
# Convention : Reuss Voigt Hill
#
# Bulk Modulus (GPa) = 32.49134 42.35273 37.42204
# Shear Modulus (GPa) = 37.11040 44.34120 40.72580
#
# Velocity S-wave (km/s) = 3.76375 4.11412 3.94283
# Velocity P-wave (km/s) = 5.59379 6.22374 5.91715
#
# Compressibility (1/GPa) = 0.03077743
#
# Stress axis : x y z
#
# Youngs Moduli (GPa) = 106.74128 53.54059 141.24562
#
# Poissons Ratio (x) = 0.00816 0.09294
# Poissons Ratio (y) = 0.01628 0.19262
# Poissons Ratio (z) = 0.07023 0.07301
#
# Static dielectric constant tensor:
#      x y z
#    x 2.107420 0.000000 0.012780 
#    y 0.000000 2.212190 0.000000 
#    z 0.012780 0.000000 2.098280 
# 
# From -- ./inp_files/20435.got.cif
#   From: 2010.05.17/outbox.cif.g08.bks.cpg/sg14_11_cif.got.tgz:20435.got - 2010.06.03 17:49:19.
