data_PCOD9250051
_publ_section_title
;
Structure prediction by ZEFSAII (Michael W. Deem and Ramdas Pophale) SiO2 
 PCOD9250051
Probable space group: P 21/C
;
_chemical_formula_sum "Si O2"
_cell_formula_units_Z 26
_cell_length_a 20.038388
_cell_length_b 5.191205
_cell_length_c 15.783029
_cell_angle_alpha 90.000000
_cell_angle_beta 39.896389
_cell_angle_gamma 90.000000
_cell_volume 1053.055203
_symmetry_space_group_name_H-M "P 21/C"
_symmetry_group_IT_number 14
_symmetry_cell_setting 'monoclinic'
loop_
_space_group_symop_operation_xyz
x,y,z
-x,1/2+y,1/2-z
-x,-y,-z
x,1/2-y,1/2+z
loop_
_atom_site_type_symbol
_atom_site_label
_atom_site_fract_x
_atom_site_fract_y
_atom_site_fract_z
Si Si1 0.266337 0.900206 0.427130
Si Si2 0.683375 0.171178 0.935407
Si Si3 0.477970 0.167372 0.215786
Si Si4 0.063494 0.503649 0.196672
Si Si5 0.188878 0.608825 0.348407
Si Si6 0.000000 0.000000 0.500000
Si Si7 0.844129 0.769238 0.744405
O O1 0.290057 0.790444 0.498113
O O2 0.246257 0.674385 0.379277
O O3 0.362259 0.077200 0.306276
O O4 0.158796 0.054840 0.540914
O O5 0.732973 0.311600 0.805256
O O6 0.737269 0.890449 0.879242
O O7 0.558637 0.167195 0.059355
O O8 0.481202 0.443568 0.259220
O O9 0.114064 0.456914 0.239231
O O10 0.025510 0.791579 0.222170
O O11 0.158402 0.317154 0.351933
O O12 0.082708 0.770248 0.449773
O O13 0.065308 0.022339 0.347327
#
# Coordination Sequence:
#
# PCOD9250051 Si02
#       7
#     4   4   4   4   4   2   4
#     4  11  24  47  72 106 139 189 242 292 358 436
#     4  10  23  47  70 101 145 184 235 301 366 416
#     4  10  23  45  76 105 142 189 237 296 362 423
#     4  12  26  43  72 102 140 192 241 288 356 428
#     4  11  24  43  70 100 143 186 246 291 360 427
#     4  10  24  42  62 100 142 188 236 294 352 414
#     4  11  23  45  67  97 147 189 236 305 354 424
#
# _framework density 24.690061
#
# number of rings (size 3 to 8) (size 9 to 14) (size 15 to 20)
#    0.000    1.231    1.538    3.231    6.462    1.846 
#   22.154    0.769    0.000    0.000    0.000    0.000 
#    0.000    0.000    0.000    0.000    0.000    0.000 
#
# Total GULP energy -144943.990779 kJ/mol
# GULP energy per Si atom -5574.768876 kJ/mol
# Density = 2.463387 g / cm^3
# Si number density = 24.690061 Si / 1000 Ang^3
#
#
#
# Elastic Constant Matrix: (Units=GPa)
#
#
# Indices 1 2 3 4 5 6 
#
# 1 57.7015 -3.0089 25.0948 0.0000 13.3089 0.0000
# 2 -3.0089 52.5188 -0.4333 0.0000 7.0560 0.0000
# 3 25.0948 -0.4333 139.4208 0.0000 -16.4076 0.0000
# 4 0.0000 0.0000 0.0000 18.8477 0.0000 5.0931
# 5 13.3089 7.0560 -16.4076 0.0000 38.4205 0.0000
# 6 0.0000 0.0000 0.0000 5.0931 0.0000 26.8300
#
#
#
# Elastic Compliance Matrix: (Units=1/GPa)
#
#
# Indices 1 2 3 4 5 6 
#
# 1 0.022114 0.002616 -0.005191 0.000000 -0.010357 0.000000
# 2 0.002616 0.019851 -0.000995 0.000000 -0.004977 0.000000
# 3 -0.005191 -0.000995 0.008778 0.000000 0.005730 0.000000
# 4 0.000000 0.000000 0.000000 0.055926 0.000000 -0.010616
# 5 -0.010357 -0.004977 0.005730 0.000000 0.032976 0.000000
# 6 0.000000 0.000000 0.000000 -0.010616 0.000000 0.039287
#
#
# Mechanical properties :
#
#
# Convention : Reuss Voigt Hill
#
# Bulk Modulus (GPa) = 22.93455 32.54958 27.74207
# Shear Modulus (GPa) = 24.92444 32.01888 28.47166
#
# Velocity S-wave (km/s) = 3.18070 3.60506 3.39951
# Velocity P-wave (km/s) = 4.77475 5.52635 5.16424
#
# Compressibility (1/GPa) = 0.04360234
#
# Stress axis : x y z
#
# Youngs Moduli (GPa) = 45.22113 50.37513 113.92017
#
# Poissons Ratio (x) = -0.13176 0.59137
# Poissons Ratio (y) = -0.11828 0.11333
# Poissons Ratio (z) = 0.23475 0.05011
#
# Static dielectric constant tensor:
#      x y z
#    x 1.724020 0.000000 0.102980 
#    y 0.000000 1.601290 0.000000 
#    z 0.102980 0.000000 1.924490 
# 
# From -- ./inp_files/56598.got.cif
#   From: 2010.05.17/outbox.cif.g08.bks.cpg/sg14_29_cif.got.tgz:56598.got - 2010.06.03 17:49:19.
