data_PCOD9250847
_publ_section_title
;
Structure prediction by ZEFSAII (Michael W. Deem and Ramdas Pophale) SiO2 
 PCOD9250847
Probable space group: P 21/C
;
_chemical_formula_sum "Si O2"
_cell_formula_units_Z 20
_cell_length_a 4.755022
_cell_length_b 7.713338
_cell_length_c 19.281475
_cell_angle_alpha 90.000000
_cell_angle_beta 81.195510
_cell_angle_gamma 90.000000
_cell_volume 698.855197
_symmetry_space_group_name_H-M "P 21/C"
_symmetry_group_IT_number 14
_symmetry_cell_setting 'monoclinic'
loop_
_space_group_symop_operation_xyz
x,y,z
-x,1/2+y,1/2-z
-x,-y,-z
x,1/2-y,1/2+z
loop_
_atom_site_type_symbol
_atom_site_label
_atom_site_fract_x
_atom_site_fract_y
_atom_site_fract_z
Si Si1 0.244371 0.824219 0.618663
Si Si2 0.000716 0.695529 0.823920
Si Si3 0.312813 0.137418 0.288790
Si Si4 0.720672 0.590064 0.972326
Si Si5 0.866305 0.958492 0.930808
O O1 0.378202 0.848558 0.690585
O O2 0.146710 0.059337 0.615642
O O3 0.295185 0.620561 0.594213
O O4 0.898811 0.791001 0.643583
O O5 0.232539 0.565766 0.784424
O O6 0.776872 0.765657 0.777255
O O7 0.673606 0.791599 0.955787
O O8 0.081589 0.861144 0.868024
O O9 0.530015 0.413059 0.952996
O O10 0.000000 0.500000 0.000000
O O11 0.000000 0.000000 0.000000
#
# Coordination Sequence:
#
# PCOD9250847 Si02
#       5
#     4   4   4   4   4
#     4  11  26  47  78 114 151 208 250 339 386 473
#     4   9  23  46  77 113 150 211 253 341 384 480
#     4  11  24  48  76 113 155 191 274 322 404 457
#     4   9  23  46  70 111 154 203 253 319 385 464
#     4  10  24  47  74 113 155 211 261 316 398 473
#
# _framework density 28.618228999999999
#
# number of rings (size 3 to 8) (size 9 to 14) (size 15 to 20)
#    1.200    0.800    0.000    1.200    2.800    9.600 
#    7.200    0.000    0.000    0.000    0.000    0.000 
#    0.000    0.000    0.000    0.000    0.000    0.000 
#
# Total GULP energy -111615.540239 kJ/mol
# GULP energy per Si atom -5580.777012 kJ/mol
# Density = 2.855309 g / cm^3
# Si number density = 28.618229 Si / 1000 Ang^3
#
#
#
# Elastic Constant Matrix: (Units=GPa)
#
#
# Indices 1 2 3 4 5 6 
#
# 1 103.1664 41.6035 25.8895 0.0000 25.6609 0.0000
# 2 41.6035 217.1161 79.3874 0.0000 21.1633 0.0000
# 3 25.8895 79.3874 166.4168 0.0000 47.1670 0.0000
# 4 0.0000 0.0000 0.0000 91.5228 0.0000 -6.6955
# 5 25.6609 21.1633 47.1670 0.0000 63.5180 0.0000
# 6 0.0000 0.0000 0.0000 -6.6955 0.0000 29.6729
#
#
#
# Elastic Compliance Matrix: (Units=1/GPa)
#
#
# Indices 1 2 3 4 5 6 
#
# 1 0.011428 -0.001897 0.000325 0.000000 -0.004226 0.000000
# 2 -0.001897 0.005895 -0.002758 0.000000 0.000850 0.000000
# 3 0.000325 -0.002758 0.008930 0.000000 -0.005844 0.000000
# 4 0.000000 0.000000 0.000000 0.011110 0.000000 0.002507
# 5 -0.004226 0.000850 -0.005844 0.000000 0.021507 0.000000
# 6 0.000000 0.000000 0.000000 0.002507 0.000000 0.034266
#
#
# Mechanical properties :
#
#
# Convention : Reuss Voigt Hill
#
# Bulk Modulus (GPa) = 56.84045 86.71779 71.77912
# Shear Modulus (GPa) = 46.44258 59.59734 53.01996
#
# Velocity S-wave (km/s) = 4.03281 4.56839 4.30893
# Velocity P-wave (km/s) = 6.44899 7.62852 7.06342
#
# Compressibility (1/GPa) = 0.01759311
#
# Stress axis : x y z
#
# Youngs Moduli (GPa) = 87.50810 169.64074 111.97655
#
# Poissons Ratio (x) = 0.32173 -0.03635
# Poissons Ratio (y) = 0.16596 0.30883
# Poissons Ratio (z) = -0.02841 0.46786
#
# Static dielectric constant tensor:
#      x y z
#    x 2.270070 0.000000 -0.163760 
#    y 0.000000 2.391380 0.000000 
#    z -0.163760 0.000000 2.306720 
# 
# From -- ./inp_files/62936.got.cif
#   From: 2010.05.17/outbox.cif.g08.bks.cpg/sg14_32_cif.got.tgz:62936.got - 2010.06.03 17:49:19.
