data_PCOD9250964
_publ_section_title
;
Structure prediction by ZEFSAII (Michael W. Deem and Ramdas Pophale) SiO2 
 PCOD9250964
Probable space group: P 21/C
;
_chemical_formula_sum "Si O2"
_cell_formula_units_Z 28
_cell_length_a 14.140091
_cell_length_b 9.917464
_cell_length_c 9.637016
_cell_angle_alpha 90.000000
_cell_angle_beta 77.502629
_cell_angle_gamma 90.000000
_cell_volume 1319.414789
_symmetry_space_group_name_H-M "P 21/C"
_symmetry_group_IT_number 14
_symmetry_cell_setting 'monoclinic'
loop_
_space_group_symop_operation_xyz
x,y,z
-x,1/2+y,1/2-z
-x,-y,-z
x,1/2-y,1/2+z
loop_
_atom_site_type_symbol
_atom_site_label
_atom_site_fract_x
_atom_site_fract_y
_atom_site_fract_z
Si Si1 0.911932 0.754573 0.735994
Si Si2 0.776884 0.779110 0.515569
Si Si3 0.449639 0.645526 0.010224
Si Si4 0.654068 0.017379 0.682888
Si Si5 0.722509 0.022824 0.965073
Si Si6 0.062767 0.539276 0.613487
Si Si7 0.535415 0.368463 0.682071
O O1 0.861988 0.763890 0.602006
O O2 0.007770 0.663928 0.701889
O O3 0.928399 0.904755 0.793138
O O4 0.831891 0.680999 0.857613
O O5 0.700861 0.884940 0.599087
O O6 0.727625 0.636485 0.497223
O O7 0.356831 0.622894 0.939709
O O8 0.509255 0.754888 0.904469
O O9 0.500000 0.500000 0.000000
O O10 0.436936 0.685729 0.173587
O O11 0.711287 0.050083 0.804166
O O12 0.546107 0.980979 0.770225
O O13 0.828830 0.076555 0.968889
O O14 0.630678 0.078600 0.075816
O O15 0.000000 0.500000 0.500000
#
# Coordination Sequence:
#
# PCOD9250964 Si02
#       7
#     4   4   4   4   4   4   4
#     4  11  23  46  72  99 137 177 233 289 356 408
#     4  11  23  41  71 102 128 181 234 277 338 421
#     4  10  25  43  65  98 133 183 230 268 338 395
#     4  11  24  41  69  98 137 175 233 267 335 411
#     4  11  24  43  69  97 140 178 224 283 346 399
#     4  11  23  48  69 103 139 177 229 292 349 415
#     4  11  25  43  67  96 142 176 223 280 336 397
#
# _framework density 21.221529
#
# number of rings (size 3 to 8) (size 9 to 14) (size 15 to 20)
#    0.000    1.143    5.714    1.286   10.000    0.571 
#    7.714    0.000    0.000    0.000    0.000    0.000 
#    0.000    0.000    0.000    0.000    0.000    0.000 
#
# Total GULP energy -156369.994613 kJ/mol
# GULP energy per Si atom -5584.642665 kJ/mol
# Density = 2.117323 g / cm^3
# Si number density = 21.221529 Si / 1000 Ang^3
#
#
#
# Elastic Constant Matrix: (Units=GPa)
#
#
# Indices 1 2 3 4 5 6 
#
# 1 77.3572 16.4107 -9.7645 0.0000 -4.8225 0.0000
# 2 16.4107 43.1713 2.8036 0.0000 -15.1631 0.0000
# 3 -9.7645 2.8036 46.2132 0.0000 7.6020 0.0000
# 4 0.0000 0.0000 0.0000 37.5747 0.0000 -3.5358
# 5 -4.8225 -15.1631 7.6020 0.0000 56.9971 0.0000
# 6 0.0000 0.0000 0.0000 -3.5358 0.0000 38.6005
#
#
#
# Elastic Compliance Matrix: (Units=1/GPa)
#
#
# Indices 1 2 3 4 5 6 
#
# 1 0.014621 -0.006095 0.003601 0.000000 -0.000865 0.000000
# 2 -0.006095 0.028433 -0.004266 0.000000 0.007617 0.000000
# 3 0.003601 -0.004266 0.023306 0.000000 -0.003939 0.000000
# 4 0.000000 0.000000 0.000000 0.026845 0.000000 0.002459
# 5 -0.000865 0.007617 -0.003939 0.000000 0.020023 0.000000
# 6 0.000000 0.000000 0.000000 0.002459 0.000000 0.026132
#
#
# Mechanical properties :
#
#
# Convention : Reuss Voigt Hill
#
# Bulk Modulus (GPa) = 18.92495 20.62682 19.77589
# Shear Modulus (GPa) = 29.32657 37.12060 33.22358
#
# Velocity S-wave (km/s) = 3.72146 4.18688 3.96101
# Velocity P-wave (km/s) = 5.23477 5.75448 5.50077
#
# Compressibility (1/GPa) = 0.05284029
#
# Stress axis : x y z
#
# Youngs Moduli (GPa) = 68.39570 35.17033 42.90655
#
# Poissons Ratio (x) = 0.21438 -0.15452
# Poissons Ratio (y) = 0.41690 0.18303
# Poissons Ratio (z) = -0.24631 0.15003
#
# Static dielectric constant tensor:
#      x y z
#    x 1.785280 0.000000 0.022870 
#    y 0.000000 1.823140 0.000000 
#    z 0.022870 0.000000 1.776140 
# 
# From -- ./inp_files/15516.got.cif
#   From: 2010.05.17/outbox.cif.g08.bks.cpg/sg14_8_cif.got.tgz:15516.got - 2010.06.03 17:49:19.
