data_PCOD9250558
_publ_section_title
;
Structure prediction by ZEFSAII (Michael W. Deem and Ramdas Pophale) SiO2 
 PCOD9250558
Probable space group: P 21/C
;
_chemical_formula_sum "Si O2"
_cell_formula_units_Z 32
_cell_length_a 18.396020
_cell_length_b 11.938727
_cell_length_c 15.259936
_cell_angle_alpha 90.000000
_cell_angle_beta 29.391008
_cell_angle_gamma 90.000000
_cell_volume 1644.788179
_symmetry_space_group_name_H-M "P 21/C"
_symmetry_group_IT_number 14
_symmetry_cell_setting 'monoclinic'
loop_
_space_group_symop_operation_xyz
x,y,z
-x,1/2+y,1/2-z
-x,-y,-z
x,1/2-y,1/2+z
loop_
_atom_site_type_symbol
_atom_site_label
_atom_site_fract_x
_atom_site_fract_y
_atom_site_fract_z
Si Si1 0.515617 0.888064 0.541797
Si Si2 0.401114 0.852884 0.155104
Si Si3 0.022256 0.487598 0.625503
Si Si4 0.133892 0.347316 0.341737
Si Si5 0.180153 0.845664 0.532110
Si Si6 0.328279 0.000535 0.079983
Si Si7 0.964737 0.890381 0.595993
Si Si8 0.297448 0.598692 0.432537
O O1 0.426967 0.776625 0.604013
O O2 0.689780 0.857202 0.360602
O O3 0.431576 0.906590 0.722014
O O4 0.500000 0.000000 0.500000
O O5 0.332872 0.877670 0.322593
O O6 0.303555 0.909430 0.182135
O O7 0.557995 0.913620 0.996181
O O8 0.088167 0.413547 0.477207
O O9 0.161550 0.523574 0.538785
O O10 0.948376 0.594152 0.654318
O O11 0.896762 0.421370 0.812950
O O12 0.075349 0.221143 0.415197
O O13 0.219293 0.720675 0.522598
O O14 0.072879 0.854207 0.560275
O O15 0.187602 0.071492 0.200209
O O16 0.368446 0.936125 0.949944
O O17 0.000000 0.000000 0.500000
#
# Coordination Sequence:
#
# PCOD9250558 Si02
#       8
#     4   4   4   4   4   4   4   4
#     4  11  23  44  68  94 137 175 221 277 334 401
#     4  10  24  44  65  98 133 174 220 270 336 407
#     4  11  24  41  67  95 135 169 221 276 334 396
#     4  11  25  44  64  99 131 177 225 273 338 404
#     4  11  24  41  65  99 134 169 221 278 331 398
#     4  11  23  43  66  94 132 172 220 271 331 400
#     4  12  23  41  70  93 129 177 223 279 335 395
#     4  11  24  42  64 101 132 173 222 279 332 402
#
# _framework density 19.455392
#
# number of rings (size 3 to 8) (size 9 to 14) (size 15 to 20)
#    0.000    1.000    6.250    0.000    3.500    1.000 
#    2.250    1.250    0.000    0.000    0.000    0.000 
#    0.000    0.000    0.000    0.000    0.000    0.000 
#
# Total GULP energy -178249.601627 kJ/mol
# GULP energy per Si atom -5570.300051 kJ/mol
# Density = 1.941111 g / cm^3
# Si number density = 19.455392 Si / 1000 Ang^3
#
#
#
# Elastic Constant Matrix: (Units=GPa)
#
#
# Indices 1 2 3 4 5 6 
#
# 1 52.4541 27.4172 -6.8460 0.0000 9.5899 0.0000
# 2 27.4172 115.6534 30.9092 0.0000 14.7834 0.0000
# 3 -6.8460 30.9092 68.3242 0.0000 9.0604 0.0000
# 4 0.0000 0.0000 0.0000 27.3483 0.0000 5.7006
# 5 9.5899 14.7834 9.0604 0.0000 30.5557 0.0000
# 6 0.0000 0.0000 0.0000 5.7006 0.0000 17.9126
#
#
#
# Elastic Compliance Matrix: (Units=1/GPa)
#
#
# Indices 1 2 3 4 5 6 
#
# 1 0.024554 -0.006703 0.006333 0.000000 -0.006341 0.000000
# 2 -0.006703 0.012057 -0.005862 0.000000 -0.001991 0.000000
# 3 0.006333 -0.005862 0.018539 0.000000 -0.004649 0.000000
# 4 0.000000 0.000000 0.000000 0.039163 0.000000 -0.012464
# 5 -0.006341 -0.001991 -0.004649 0.000000 0.037059 0.000000
# 6 0.000000 0.000000 0.000000 -0.012464 0.000000 0.059793
#
#
# Mechanical properties :
#
#
# Convention : Reuss Voigt Hill
#
# Bulk Modulus (GPa) = 23.42638 37.71029 30.56833
# Shear Modulus (GPa) = 22.95085 27.49339 25.22212
#
# Velocity S-wave (km/s) = 3.43835 3.76327 3.60447
# Velocity P-wave (km/s) = 5.27544 6.18934 5.75057
#
# Compressibility (1/GPa) = 0.04268692
#
# Stress axis : x y z
#
# Youngs Moduli (GPa) = 40.72695 82.94129 53.94012
#
# Poissons Ratio (x) = 0.55595 -0.34163
# Poissons Ratio (y) = 0.27299 0.31619
# Poissons Ratio (z) = -0.25794 0.48619
#
# Static dielectric constant tensor:
#      x y z
#    x 1.695120 0.000000 -0.004950 
#    y 0.000000 1.701630 0.000000 
#    z -0.004950 0.000000 1.709990 
# 
# From -- ./inp_files/48994.got.cif
#   From: 2010.05.17/outbox.cif.g08.bks.cpg/sg14_25_cif.got.tgz:48994.got - 2010.06.03 17:49:19.
