data_PCOD9250497
_publ_section_title
;
Structure prediction by ZEFSAII (Michael W. Deem and Ramdas Pophale) SiO2 
 PCOD9250497
Probable space group: P 21/C
;
_chemical_formula_sum "Si O2"
_cell_formula_units_Z 32
_cell_length_a 20.343101
_cell_length_b 11.834523
_cell_length_c 12.633701
_cell_angle_alpha 90.000000
_cell_angle_beta 148.041740
_cell_angle_gamma 90.000000
_cell_volume 1609.909581
_symmetry_space_group_name_H-M "P 21/C"
_symmetry_group_IT_number 14
_symmetry_cell_setting 'monoclinic'
loop_
_space_group_symop_operation_xyz
x,y,z
-x,1/2+y,1/2-z
-x,-y,-z
x,1/2-y,1/2+z
loop_
_atom_site_type_symbol
_atom_site_label
_atom_site_fract_x
_atom_site_fract_y
_atom_site_fract_z
Si Si1 0.784427 0.836443 0.004742
Si Si2 0.749757 0.582602 0.888756
Si Si3 0.116872 0.918559 0.686684
Si Si4 0.069720 0.885687 0.414201
Si Si5 0.237834 0.780529 0.015902
Si Si6 0.633940 0.425847 0.916361
Si Si7 0.345373 0.421766 0.470701
Si Si8 0.355634 0.527096 0.821438
O O1 0.786219 0.707701 0.971654
O O2 0.713846 0.920719 0.828186
O O3 0.720782 0.839330 0.034455
O O4 0.924194 0.882682 0.199495
O O5 0.690345 0.512628 0.905506
O O6 0.661591 0.599207 0.664771
O O7 0.868121 0.509559 0.011213
O O8 0.097511 0.830536 0.566627
O O9 0.253284 0.972039 0.858102
O O10 0.134727 0.860254 0.821053
O O11 0.000000 0.000000 0.500000
O O12 0.151948 0.812554 0.450534
O O13 0.324135 0.702985 0.056729
O O14 0.315802 0.859911 0.201960
O O15 0.485440 0.435787 0.699609
O O16 0.667574 0.456152 0.084162
O O17 0.500000 0.500000 0.000000
#
# Coordination Sequence:
#
# PCOD9250497 Si02
#       8
#     4   4   4   4   4   4   4   4
#     4  12  25  41  71 101 138 183 222 290 341 406
#     4  10  27  44  68 103 136 180 231 280 344 405
#     4  11  20  41  64  92 128 170 228 265 325 406
#     4  10  24  43  67  98 132 178 230 279 335 415
#     4  11  24  43  68  98 134 183 218 285 347 399
#     4  11  25  47  68 100 141 174 232 282 343 411
#     4  11  23  42  70  97 129 185 222 280 334 409
#     4  12  25  46  66 105 140 177 230 284 345 407
#
# _framework density 19.876892000000002
#
# number of rings (size 3 to 8) (size 9 to 14) (size 15 to 20)
#    0.000    1.000    3.750    1.125    8.750    1.000 
#    0.000    1.250    0.000    0.000    0.000    0.000 
#    0.000    0.000    0.000    0.000    0.000    0.000 
#
# Total GULP energy -178222.852894 kJ/mol
# GULP energy per Si atom -5569.464153 kJ/mol
# Density = 1.983165 g / cm^3
# Si number density = 19.876892 Si / 1000 Ang^3
#
#
#
# Elastic Constant Matrix: (Units=GPa)
#
#
# Indices 1 2 3 4 5 6 
#
# 1 105.3177 42.3117 49.1372 0.0000 -12.3941 0.0000
# 2 42.3117 117.0090 63.3973 0.0000 -7.4059 0.0000
# 3 49.1372 63.3973 144.2207 0.0000 -2.1007 0.0000
# 4 0.0000 0.0000 0.0000 8.9662 0.0000 -7.1944
# 5 -12.3941 -7.4059 -2.1007 0.0000 46.4434 0.0000
# 6 0.0000 0.0000 0.0000 -7.1944 0.0000 -62.3150
#
#
#
# Elastic Compliance Matrix: (Units=1/GPa)
#
#
# Indices 1 2 3 4 5 6 
#
# 1 0.012268 -0.002653 -0.002974 0.000000 0.002716 0.000000
# 2 -0.002653 0.011907 -0.004316 0.000000 0.000996 0.000000
# 3 -0.002974 -0.004316 0.009829 0.000000 -0.001037 0.000000
# 4 0.000000 0.000000 0.000000 0.102074 0.000000 -0.011785
# 5 0.002716 0.000996 -0.001037 0.000000 0.022368 0.000000
# 6 0.000000 0.000000 0.000000 -0.011785 0.000000 -0.014687
#
#
# Mechanical properties :
#
#
# Convention : Reuss Voigt Hill
#
# Bulk Modulus (GPa) = 70.82798 75.13776 72.98287
# Shear Modulus (GPa) = 29.69971 12.73233 21.21602
#
# Velocity S-wave (km/s) = 3.86966 2.53367 3.27061
# Velocity P-wave (km/s) = 7.46166 6.81491 7.14560
#
# Compressibility (1/GPa) = 0.01411871
#
# Stress axis : x y z
#
# Youngs Moduli (GPa) = 81.51163 83.98384 101.73798
#
# Poissons Ratio (x) = 0.22281 0.30258
# Poissons Ratio (y) = 0.21625 0.43908
# Poissons Ratio (z) = 0.24242 0.36246
#
# Static dielectric constant tensor:
#      x y z
#    x 1.760730 0.000000 -0.027730 
#    y 0.000000 1.719320 0.000000 
#    z -0.027730 0.000000 1.694880 
# 
# From -- ./inp_files/35292.got.cif
#   From: 2010.05.17/outbox.cif.g08.bks.cpg/sg14_18_cif.got.tgz:35292.got - 2010.06.03 17:49:19.
