data_PCOD9250737
_publ_section_title
;
Structure prediction by ZEFSAII (Michael W. Deem and Ramdas Pophale) SiO2 
 PCOD9250737
Probable space group: P 21/C
;
_chemical_formula_sum "Si O2"
_cell_formula_units_Z 26
_cell_length_a 23.066819
_cell_length_b 9.067158
_cell_length_c 10.907286
_cell_angle_alpha 90.000000
_cell_angle_beta 28.628953
_cell_angle_gamma 90.000000
_cell_volume 1093.034599
_symmetry_space_group_name_H-M "P 21/C"
_symmetry_group_IT_number 14
_symmetry_cell_setting 'monoclinic'
loop_
_space_group_symop_operation_xyz
x,y,z
-x,1/2+y,1/2-z
-x,-y,-z
x,1/2-y,1/2+z
loop_
_atom_site_type_symbol
_atom_site_label
_atom_site_fract_x
_atom_site_fract_y
_atom_site_fract_z
Si Si1 0.764609 0.305124 0.341294
Si Si2 0.884964 0.522162 0.935406
Si Si3 0.500000 0.500000 0.500000
Si Si4 0.906287 0.042885 0.781572
Si Si5 0.224459 0.492084 0.104641
Si Si6 0.505767 0.148697 0.406079
Si Si7 0.246617 0.186937 0.785346
O O1 0.843493 0.384245 0.092593
O O2 0.816817 0.344549 0.379760
O O3 0.769547 0.131406 0.316473
O O4 0.626488 0.359485 0.599252
O O5 0.781864 0.643899 0.144060
O O6 0.879315 0.489087 0.803154
O O7 0.007744 0.585754 0.764569
O O8 0.508382 0.309821 0.467622
O O9 0.356926 0.487546 0.798281
O O10 0.000000 0.000000 0.500000
O O11 0.828587 0.905338 0.974815
O O12 0.204157 0.352974 0.228031
O O13 0.386624 0.149533 0.542939
O O14 0.500000 0.000000 0.500000
#
# Coordination Sequence:
#
# PCOD9250737 Si02
#       7
#     4   4   2   4   4   4   4
#     4  10  25  46  72 106 143 197 243 309 377 437
#     4  11  27  47  75 102 154 192 245 318 361 459
#     4  10  24  46  64 114 150 190 250 304 366 456
#     4  10  25  47  73 102 143 190 254 305 374 443
#     4  11  27  45  72 108 148 191 250 299 377 456
#     4  11  23  45  79 104 155 194 251 314 378 450
#     4  12  27  45  75 113 140 200 249 306 382 445
#
# _framework density 23.786987
#
# number of rings (size 3 to 8) (size 9 to 14) (size 15 to 20)
#    0.000    1.231    3.077    0.000   12.923    1.846 
#    0.000    0.000    0.000    0.000    0.000    0.000 
#    0.000    0.000    0.000    0.000    0.000    0.000 
#
# Total GULP energy -144914.097450 kJ/mol
# GULP energy per Si atom -5573.619133 kJ/mol
# Density = 2.373285 g / cm^3
# Si number density = 23.786987 Si / 1000 Ang^3
#
#
#
# Elastic Constant Matrix: (Units=GPa)
#
#
# Indices 1 2 3 4 5 6 
#
# 1 75.6680 19.4664 40.7364 0.0000 -5.9714 0.0000
# 2 19.4664 104.1791 9.6384 0.0000 10.6230 0.0000
# 3 40.7364 9.6384 119.0410 0.0000 -12.4897 0.0000
# 4 0.0000 0.0000 0.0000 16.2671 0.0000 9.5741
# 5 -5.9714 10.6230 -12.4897 0.0000 24.7465 0.0000
# 6 0.0000 0.0000 0.0000 9.5741 0.0000 27.4659
#
#
#
# Elastic Compliance Matrix: (Units=1/GPa)
#
#
# Indices 1 2 3 4 5 6 
#
# 1 0.017053 -0.002971 -0.005311 0.000000 0.002710 0.000000
# 2 -0.002971 0.010761 -0.000438 0.000000 -0.005557 0.000000
# 3 -0.005311 -0.000438 0.010705 0.000000 0.004309 0.000000
# 4 0.000000 0.000000 0.000000 0.077341 0.000000 -0.026960
# 5 0.002710 -0.005557 0.004309 0.000000 0.045624 0.000000
# 6 0.000000 0.000000 0.000000 -0.026960 0.000000 0.045806
#
#
# Mechanical properties :
#
#
# Convention : Reuss Voigt Hill
#
# Bulk Modulus (GPa) = 47.43771 48.73004 48.08388
# Shear Modulus (GPa) = 21.57429 28.96570 25.26999
#
# Velocity S-wave (km/s) = 3.01488 3.49336 3.26290
# Velocity P-wave (km/s) = 5.66615 6.06646 5.86972
#
# Compressibility (1/GPa) = 0.02108027
#
# Stress axis : x y z
#
# Youngs Moduli (GPa) = 58.64077 92.92610 93.41101
#
# Poissons Ratio (x) = 0.27613 0.49608
# Poissons Ratio (y) = 0.17425 0.04087
# Poissons Ratio (z) = 0.31142 0.04066
#
# Static dielectric constant tensor:
#      x y z
#    x 1.974660 0.000000 0.042700 
#    y 0.000000 1.942080 0.000000 
#    z 0.042700 0.000000 1.878480 
# 
# From -- ./inp_files/35696.got.cif
#   From: 2010.05.17/outbox.cif.g08.bks.cpg/sg14_18_cif.got.tgz:35696.got - 2010.06.03 17:49:19.
