data_PCOD9250154
_publ_section_title
;
Structure prediction by ZEFSAII (Michael W. Deem and Ramdas Pophale) SiO2 
 PCOD9250154
Probable space group: P 21/C
;
_chemical_formula_sum "Si O2"
_cell_formula_units_Z 20
_cell_length_a 17.103282
_cell_length_b 7.226170
_cell_length_c 10.028669
_cell_angle_alpha 90.000000
_cell_angle_beta 38.205243
_cell_angle_gamma 90.000000
_cell_volume 766.578796
_symmetry_space_group_name_H-M "P 21/C"
_symmetry_group_IT_number 14
_symmetry_cell_setting 'monoclinic'
loop_
_space_group_symop_operation_xyz
x,y,z
-x,1/2+y,1/2-z
-x,-y,-z
x,1/2-y,1/2+z
loop_
_atom_site_type_symbol
_atom_site_label
_atom_site_fract_x
_atom_site_fract_y
_atom_site_fract_z
Si Si1 0.962314 0.353001 0.439529
Si Si2 0.814048 0.813670 0.035812
Si Si3 0.782851 0.467514 0.220224
Si Si4 0.416286 0.625497 0.709606
Si Si5 0.585104 0.517834 0.714897
O O1 0.860941 0.476171 0.492722
O O2 0.897929 0.170262 0.585599
O O3 0.000000 0.500000 0.500000
O O4 0.079771 0.287314 0.194235
O O5 0.673370 0.827513 0.163609
O O6 0.808692 0.686172 0.174727
O O7 0.723984 0.415649 0.154006
O O8 0.680740 0.439740 0.472175
O O9 0.500000 0.500000 0.500000
O O10 0.462065 0.581133 0.798092
O O11 0.442579 0.843139 0.654911
#
# Coordination Sequence:
#
# PCOD9250154 Si02
#       5
#     4   4   4   4   4
#     4  12  27  43  72 107 147 193 239 292 354 423
#     4  12  25  46  71 107 146 189 240 296 355 423
#     4  11  25  46  71 107 145 188 242 293 356 427
#     4  10  23  47  71 106 139 184 238 299 360 428
#     4  11  24  46  74 101 143 187 238 299 361 429
#
# _framework density 26.089948
#
# number of rings (size 3 to 8) (size 9 to 14) (size 15 to 20)
#    0.000    0.800    4.000    2.400    5.600    1.600 
#    7.200    6.000    0.000    0.000    0.000    0.000 
#    0.000    0.000    0.000    0.000    0.000    0.000 
#
# Total GULP energy -112066.213891 kJ/mol
# GULP energy per Si atom -5603.310695 kJ/mol
# Density = 2.603057 g / cm^3
# Si number density = 26.089948 Si / 1000 Ang^3
#
#
#
# Elastic Constant Matrix: (Units=GPa)
#
#
# Indices 1 2 3 4 5 6 
#
# 1 112.1623 29.1972 1.4799 0.0000 -10.1022 0.0000
# 2 29.1972 167.0073 31.9655 0.0000 -4.6547 0.0000
# 3 1.4799 31.9655 89.0128 0.0000 -7.3616 0.0000
# 4 0.0000 0.0000 0.0000 56.0623 0.0000 -9.9355
# 5 -10.1022 -4.6547 -7.3616 0.0000 19.8874 0.0000
# 6 0.0000 0.0000 0.0000 -9.9355 0.0000 57.0791
#
#
#
# Elastic Compliance Matrix: (Units=1/GPa)
#
#
# Indices 1 2 3 4 5 6 
#
# 1 0.009798 -0.001743 0.000867 0.000000 0.004890 0.000000
# 2 -0.001743 0.006748 -0.002411 0.000000 -0.000198 0.000000
# 3 0.000867 -0.002411 0.012457 0.000000 0.004487 0.000000
# 4 0.000000 0.000000 0.000000 0.018405 0.000000 0.003204
# 5 0.004890 -0.000198 0.004487 0.000000 0.054382 0.000000
# 6 0.000000 0.000000 0.000000 0.003204 0.000000 0.018077
#
#
# Mechanical properties :
#
#
# Convention : Reuss Voigt Hill
#
# Bulk Modulus (GPa) = 44.58090 54.82973 49.70532
# Shear Modulus (GPa) = 37.33658 46.97509 42.15584
#
# Velocity S-wave (km/s) = 3.78705 4.24784 4.02405
# Velocity P-wave (km/s) = 6.02054 6.71715 6.37836
#
# Compressibility (1/GPa) = 0.02243113
#
# Stress axis : x y z
#
# Youngs Moduli (GPa) = 102.05831 148.18444 80.27754
#
# Poissons Ratio (x) = 0.25824 -0.06963
# Poissons Ratio (y) = 0.17786 0.19353
# Poissons Ratio (z) = -0.08852 0.35725
#
# Static dielectric constant tensor:
#      x y z
#    x 2.163910 0.000000 0.016230 
#    y 0.000000 2.060280 0.000000 
#    z 0.016230 0.000000 1.988890 
# 
# From -- ./inp_files/34533.got.cif
#   From: 2010.05.17/outbox.cif.g08.bks.cpg/sg14_18_cif.got.tgz:34533.got - 2010.06.03 17:49:19.
