data_PCOD9250749
_publ_section_title
;
Structure prediction by ZEFSAII (Michael W. Deem and Ramdas Pophale) SiO2 
 PCOD9250749
Probable space group: P 21/C
;
_chemical_formula_sum "Si O2"
_cell_formula_units_Z 20
_cell_length_a 16.256067
_cell_length_b 7.955259
_cell_length_c 8.705763
_cell_angle_alpha 90.000000
_cell_angle_beta 52.300747
_cell_angle_gamma 90.000000
_cell_volume 890.800016
_symmetry_space_group_name_H-M "P 21/C"
_symmetry_group_IT_number 14
_symmetry_cell_setting 'monoclinic'
loop_
_space_group_symop_operation_xyz
x,y,z
-x,1/2+y,1/2-z
-x,-y,-z
x,1/2-y,1/2+z
loop_
_atom_site_type_symbol
_atom_site_label
_atom_site_fract_x
_atom_site_fract_y
_atom_site_fract_z
Si Si1 0.923461 0.395123 0.197517
Si Si2 0.780414 0.916999 0.434751
Si Si3 0.283275 0.785273 0.988440
Si Si4 0.101329 0.145603 0.004589
Si Si5 0.385773 0.548551 0.080186
O O1 0.802585 0.365828 0.300585
O O2 0.909252 0.485570 0.376242
O O3 0.988703 0.228030 0.139381
O O4 0.000000 0.500000 0.000000
O O5 0.814816 0.779061 0.519581
O O6 0.771236 0.109412 0.502122
O O7 0.672460 0.908094 0.458748
O O8 0.865649 0.896075 0.204313
O O9 0.319468 0.902763 0.808063
O O10 0.378998 0.715155 0.980478
O O11 0.500000 0.500000 0.000000
#
# Coordination Sequence:
#
# PCOD9250749 Si02
#       5
#     4   4   4   4   4
#     4  12  25  37  67 101 144 188 221 277 351 413
#     4  10  25  42  67  97 141 178 234 288 341 411
#     4  10  24  46  68 101 139 174 236 286 344 416
#     4  12  24  41  64 103 143 186 235 273 346 423
#     4  10  24  47  72  98 131 179 232 294 353 393
#
# _framework density 22.451729
#
# number of rings (size 3 to 8) (size 9 to 14) (size 15 to 20)
#    1.200    0.000    4.000    1.200    8.400    3.200 
#    0.000    1.000    0.000    0.000    0.000    0.000 
#    0.000    0.000    0.000    0.000    0.000    0.000 
#
# Total GULP energy -111509.841157 kJ/mol
# GULP energy per Si atom -5575.492058 kJ/mol
# Density = 2.240063 g / cm^3
# Si number density = 22.451729 Si / 1000 Ang^3
#
#
#
# Elastic Constant Matrix: (Units=GPa)
#
#
# Indices 1 2 3 4 5 6 
#
# 1 94.8373 28.4851 38.8857 0.0000 -6.7859 0.0000
# 2 28.4851 49.9893 38.7811 0.0000 -4.9315 0.0000
# 3 38.8857 38.7811 90.4856 0.0000 1.2946 0.0000
# 4 0.0000 0.0000 0.0000 35.4515 0.0000 -1.7898
# 5 -6.7859 -4.9315 1.2946 0.0000 33.2589 0.0000
# 6 0.0000 0.0000 0.0000 -1.7898 0.0000 41.4773
#
#
#
# Elastic Compliance Matrix: (Units=1/GPa)
#
#
# Indices 1 2 3 4 5 6 
#
# 1 0.013691 -0.004474 -0.003999 0.000000 0.002286 0.000000
# 2 -0.004474 0.032267 -0.011969 0.000000 0.004337 0.000000
# 3 -0.003999 -0.011969 0.017947 0.000000 -0.003289 0.000000
# 4 0.000000 0.000000 0.000000 0.028269 0.000000 0.001220
# 5 0.002286 0.004337 -0.003289 0.000000 0.031305 0.000000
# 6 0.000000 0.000000 0.000000 0.001220 0.000000 0.024162
#
#
# Mechanical properties :
#
#
# Convention : Reuss Voigt Hill
#
# Bulk Modulus (GPa) = 43.43703 49.73510 46.58606
# Shear Modulus (GPa) = 25.48453 30.64822 28.06637
#
# Velocity S-wave (km/s) = 3.37275 3.69870 3.53948
# Velocity P-wave (km/s) = 5.87845 6.35929 6.12359
#
# Compressibility (1/GPa) = 0.02302183
#
# Stress axis : x y z
#
# Youngs Moduli (GPa) = 73.03864 30.99187 55.72042
#
# Poissons Ratio (x) = 0.13865 0.22283
# Poissons Ratio (y) = 0.32675 0.66689
# Poissons Ratio (z) = 0.29209 0.37093
#
# Static dielectric constant tensor:
#      x y z
#    x 1.782480 0.000000 -0.039930 
#    y 0.000000 1.615400 0.000000 
#    z -0.039930 0.000000 1.759300 
# 
# From -- ./inp_files/11899.got.cif
#   From: 2010.05.17/outbox.cif.g08.bks.cpg/sg14_6_cif.got.tgz:11899.got - 2010.06.03 17:49:19.
