data_PCOD9250299
_publ_section_title
;
Structure prediction by ZEFSAII (Michael W. Deem and Ramdas Pophale) SiO2 
 PCOD9250299
Probable space group: P 21/C
;
_chemical_formula_sum "Si O2"
_cell_formula_units_Z 30
_cell_length_a 20.426872
_cell_length_b 8.338064
_cell_length_c 25.007718
_cell_angle_alpha 90.000000
_cell_angle_beta 15.596271
_cell_angle_gamma 90.000000
_cell_volume 1145.150904
_symmetry_space_group_name_H-M "P 21/C"
_symmetry_group_IT_number 14
_symmetry_cell_setting 'monoclinic'
loop_
_space_group_symop_operation_xyz
x,y,z
-x,1/2+y,1/2-z
-x,-y,-z
x,1/2-y,1/2+z
loop_
_atom_site_type_symbol
_atom_site_label
_atom_site_fract_x
_atom_site_fract_y
_atom_site_fract_z
Si Si1 0.067258 0.830763 0.010832
Si Si2 0.822351 0.584418 0.414678
Si Si3 0.717693 0.009267 0.682670
Si Si4 0.501998 0.419215 0.185385
Si Si5 0.794722 0.835290 0.521954
Si Si6 0.500000 0.000000 0.500000
Si Si7 0.452554 0.222716 0.615147
Si Si8 0.128629 0.192487 0.720578
O O1 0.164992 0.682621 0.899279
O O2 0.260747 0.972733 0.863887
O O3 0.795662 0.882719 0.205037
O O4 0.015849 0.769619 0.111301
O O5 0.535828 0.548252 0.647628
O O6 0.915213 0.710078 0.386354
O O7 0.825060 0.656161 0.353082
O O8 0.967815 0.424399 0.310899
O O9 0.881074 0.912498 0.510239
O O10 0.646254 0.896657 0.789241
O O11 0.426531 0.272606 0.281524
O O12 0.697942 0.528391 0.058964
O O13 0.575090 0.344000 0.071709
O O14 0.592568 0.178283 0.451640
O O15 0.361548 0.094509 0.558853
#
# Coordination Sequence:
#
# PCOD9250299 Si02
#       8
#     4   4   4   4   4   2   4   4
#     4  11  21  44  64 100 137 175 230 287 343 424
#     4  12  25  44  68 103 136 184 228 290 344 420
#     4  11  24  41  70 102 134 170 233 291 343 408
#     4  11  19  37  63  98 126 172 221 283 337 407
#     4  11  20  37  64  98 128 168 217 285 344 390
#     4  10  24  50  66  96 146 196 228 284 346 432
#     4  10  24  40  70  95 135 186 228 282 348 415
#     4  11  27  45  70  98 143 186 237 279 360 416
#
# _framework density 26.197420999999999
#
# number of rings (size 3 to 8) (size 9 to 14) (size 15 to 20)
#    0.000    1.067    4.000    1.600    3.733    0.000 
#    0.000    4.000    0.000    0.000    0.000    0.000 
#    0.000    0.000    0.000    0.000    0.000    0.000 
#
# Total GULP energy -167287.894083 kJ/mol
# GULP energy per Si atom -5576.263136 kJ/mol
# Density = 2.613779 g / cm^3
# Si number density = 26.197421 Si / 1000 Ang^3
#
#
#
# Elastic Constant Matrix: (Units=GPa)
#
#
# Indices 1 2 3 4 5 6 
#
# 1 127.3210 26.7295 30.9591 0.0000 5.4594 0.0000
# 2 26.7295 84.9639 14.2076 0.0000 4.4173 0.0000
# 3 30.9591 14.2076 40.2898 0.0000 -0.5579 0.0000
# 4 0.0000 0.0000 0.0000 32.7535 0.0000 7.2551
# 5 5.4594 4.4173 -0.5579 0.0000 50.4765 0.0000
# 6 0.0000 0.0000 0.0000 7.2551 0.0000 40.5064
#
#
#
# Elastic Compliance Matrix: (Units=1/GPa)
#
#
# Indices 1 2 3 4 5 6 
#
# 1 0.010009 -0.001922 -0.007027 0.000000 -0.000992 0.000000
# 2 -0.001922 0.012943 -0.003100 0.000000 -0.000959 0.000000
# 3 -0.007027 -0.003100 0.031332 0.000000 0.001378 0.000000
# 4 0.000000 0.000000 0.000000 0.031792 0.000000 -0.005694
# 5 -0.000992 -0.000959 0.001378 0.000000 0.020018 0.000000
# 6 0.000000 0.000000 0.000000 -0.005694 0.000000 0.025707
#
#
# Mechanical properties :
#
#
# Convention : Reuss Voigt Hill
#
# Bulk Modulus (GPa) = 33.12911 44.04080 38.58495
# Shear Modulus (GPa) = 30.12749 36.79251 33.46000
#
# Velocity S-wave (km/s) = 3.39487 3.75164 3.57771
# Velocity P-wave (km/s) = 5.29530 5.96775 5.64155
#
# Compressibility (1/GPa) = 0.03018494
#
# Stress axis : x y z
#
# Youngs Moduli (GPa) = 99.91138 77.26353 31.91622
#
# Poissons Ratio (x) = 0.14851 0.22427
# Poissons Ratio (y) = 0.19205 0.09895
# Poissons Ratio (z) = 0.70206 0.23954
#
# Static dielectric constant tensor:
#      x y z
#    x 1.630810 0.000000 -0.573990 
#    y 0.000000 2.047210 0.000000 
#    z -0.573990 0.000000 1.229770 
# 
# From -- ./inp_files/74637.got.cif
#   From: 2010.05.17/outbox.cif.g08.bks.cpg/sg14_38_cif.got.tgz:74637.got - 2010.06.03 17:49:19.
