data_PCOD9250305
_publ_section_title
;
Structure prediction by ZEFSAII (Michael W. Deem and Ramdas Pophale) SiO2 
 PCOD9250305
Probable space group: P 21/C
;
_chemical_formula_sum "Si O2"
_cell_formula_units_Z 32
_cell_length_a 5.924379
_cell_length_b 22.245905
_cell_length_c 11.398577
_cell_angle_alpha 90.000000
_cell_angle_beta 122.693793
_cell_angle_gamma 90.000000
_cell_volume 1264.251376
_symmetry_space_group_name_H-M "P 21/C"
_symmetry_group_IT_number 14
_symmetry_cell_setting 'monoclinic'
loop_
_space_group_symop_operation_xyz
x,y,z
-x,1/2+y,1/2-z
-x,-y,-z
x,1/2-y,1/2+z
loop_
_atom_site_type_symbol
_atom_site_label
_atom_site_fract_x
_atom_site_fract_y
_atom_site_fract_z
Si Si1 0.567639 0.089233 0.932298
Si Si2 0.382586 0.157835 0.342083
Si Si3 0.945117 0.349537 0.081046
Si Si4 0.012490 0.213015 0.069069
Si Si5 0.806858 0.019007 0.200703
Si Si6 0.367116 0.291784 0.437027
Si Si7 0.777940 0.937457 0.508260
Si Si8 0.239761 0.571328 0.756077
O O1 0.340149 0.140299 0.880146
O O2 0.711896 0.075696 0.096980
O O3 0.446824 0.024557 0.860654
O O4 0.734442 0.103436 0.862165
O O5 0.701311 0.153168 0.417137
O O6 0.197169 0.161685 0.178048
O O7 0.341967 0.224226 0.382895
O O8 0.286796 0.106238 0.400983
O O9 0.813867 0.377735 0.160182
O O10 0.059978 0.282577 0.124767
O O11 0.149011 0.395273 0.080756
O O12 0.141698 0.212292 0.975770
O O13 0.702799 0.204298 0.024476
O O14 0.963641 0.027910 0.368028
O O15 0.012670 0.978786 0.183661
O O16 0.497076 0.964144 0.384696
#
# Coordination Sequence:
#
# PCOD9250305 Si02
#       8
#     4   4   4   4   4   4   4   4
#     4  11  27  46  72 109 146 203 256 319 383 459
#     4  10  24  40  72 102 146 192 241 310 381 458
#     4  10  24  44  70 109 145 189 252 310 382 459
#     4  11  25  44  72 108 152 195 247 310 388 455
#     4  11  26  47  72 105 148 200 262 317 382 454
#     4  11  26  45  71 110 146 196 247 311 381 459
#     4  11  23  47  71 107 145 194 253 317 380 458
#     4  11  25  45  74 105 146 198 252 319 384 448
#
# _framework density 25.311422
#
# number of rings (size 3 to 8) (size 9 to 14) (size 15 to 20)
#    0.000    1.250    1.250    2.250    8.750    4.000 
#    2.250    0.000    0.000    0.000    0.000    0.000 
#    0.000    0.000    0.000    0.000    0.000    0.000 
#
# Total GULP energy -178443.654784 kJ/mol
# GULP energy per Si atom -5576.364212 kJ/mol
# Density = 2.525381 g / cm^3
# Si number density = 25.311422 Si / 1000 Ang^3
#
#
#
# Elastic Constant Matrix: (Units=GPa)
#
#
# Indices 1 2 3 4 5 6 
#
# 1 75.9393 4.2273 1.2901 0.0000 8.9551 0.0000
# 2 4.2273 81.2286 -16.2810 0.0000 -5.1888 0.0000
# 3 1.2901 -16.2810 39.2119 0.0000 18.6016 0.0000
# 4 0.0000 0.0000 0.0000 21.3056 0.0000 24.8076
# 5 8.9551 -5.1888 18.6016 0.0000 31.5118 0.0000
# 6 0.0000 0.0000 0.0000 24.8076 0.0000 29.4596
#
#
#
# Elastic Compliance Matrix: (Units=1/GPa)
#
#
# Indices 1 2 3 4 5 6 
#
# 1 0.013768 -0.000711 0.001616 0.000000 -0.004984 0.000000
# 2 -0.000711 0.013516 0.006228 0.000000 -0.001249 0.000000
# 3 0.001616 0.006228 0.038566 0.000000 -0.022200 0.000000
# 4 0.000000 0.000000 0.000000 2.407621 0.000000 -2.027431
# 5 -0.004984 -0.001249 -0.022200 0.000000 0.046050 0.000000
# 6 0.000000 0.000000 0.000000 -2.027431 0.000000 1.741221
#
#
# Mechanical properties :
#
#
# Convention : Reuss Voigt Hill
#
# Bulk Modulus (GPa) = 12.48177 19.42807 15.95492
# Shear Modulus (GPa) = 1.17009 30.26496 15.71752
#
# Velocity S-wave (km/s) = 0.68065 3.46165 2.49462
# Velocity P-wave (km/s) = 2.35790 4.86514 3.82291
#
# Compressibility (1/GPa) = 0.08011683
#
# Stress axis : x y z
#
# Youngs Moduli (GPa) = 72.63097 73.98396 25.92931
#
# Poissons Ratio (x) = 0.05260 -0.04190
# Poissons Ratio (y) = 0.05164 -0.16148
# Poissons Ratio (z) = -0.11737 -0.46076
#
# Static dielectric constant tensor:
#      x y z
#    x 2.057760 0.000000 0.037990 
#    y 0.000000 2.028750 0.000000 
#    z 0.037990 0.000000 2.127760 
# 
# From -- ./inp_files/22131.got.cif
#   From: 2010.05.17/outbox.cif.g08.bks.cpg/sg14_12_cif.got.tgz:22131.got - 2010.06.03 17:49:19.
