data_PCOD9250236
_publ_section_title
;
Structure prediction by ZEFSAII (Michael W. Deem and Ramdas Pophale) SiO2 
 PCOD9250236
Probable space group: P 21/C
;
_chemical_formula_sum "Si O2"
_cell_formula_units_Z 28
_cell_length_a 12.789688
_cell_length_b 12.775257
_cell_length_c 9.029643
_cell_angle_alpha 90.000000
_cell_angle_beta 51.437354
_cell_angle_gamma 90.000000
_cell_volume 1153.629652
_symmetry_space_group_name_H-M "P 21/C"
_symmetry_group_IT_number 14
_symmetry_cell_setting 'monoclinic'
loop_
_space_group_symop_operation_xyz
x,y,z
-x,1/2+y,1/2-z
-x,-y,-z
x,1/2-y,1/2+z
loop_
_atom_site_type_symbol
_atom_site_label
_atom_site_fract_x
_atom_site_fract_y
_atom_site_fract_z
Si Si1 0.989002 0.243109 0.795743
Si Si2 0.416896 0.808661 0.963559
Si Si3 0.985865 0.380157 0.052262
Si Si4 0.626771 0.389427 0.165139
Si Si5 0.663367 0.522708 0.590507
Si Si6 0.092307 0.399619 0.449237
Si Si7 0.711107 0.895716 0.713929
O O1 0.918705 0.313108 0.982388
O O2 0.916589 0.153595 0.764478
O O3 0.035749 0.331087 0.637240
O O4 0.091081 0.173708 0.804869
O O5 0.348258 0.700664 0.976097
O O6 0.580924 0.822165 0.803496
O O7 0.362643 0.900250 0.905827
O O8 0.385828 0.838467 0.160317
O O9 0.142376 0.348289 0.936342
O O10 0.000000 0.500000 0.000000
O O11 0.478617 0.426646 0.253057
O O12 0.703999 0.498987 0.119866
O O13 0.766786 0.556959 0.622393
O O14 0.705199 0.565791 0.390312
O O15 0.000000 0.500000 0.500000
#
# Coordination Sequence:
#
# PCOD9250236 Si02
#       7
#     4   4   4   4   4   4   4
#     4  10  24  38  62  88 106 166 198 228 306 340
#     4   9  19  36  57  83 113 150 191 231 288 347
#     4  11  22  41  60  87 120 149 197 248 285 353
#     4   9  19  36  57  83 113 150 191 231 288 347
#     4   9  19  37  60  81 114 154 185 238 290 337
#     4  11  22  41  60  87 120 149 197 248 285 353
#     4   9  19  37  60  81 114 154 185 238 290 337
#
# _framework density 24.271221000000001
#
# number of rings (size 3 to 8) (size 9 to 14) (size 15 to 20)
#    0.000    2.286    1.429    2.571    4.000    0.000 
#    7.714    1.429    0.000    0.000    0.000    0.000 
#    0.000    0.000    0.000    0.000    0.000    0.000 
#
# Total GULP energy -156420.157943 kJ/mol
# GULP energy per Si atom -5586.434212 kJ/mol
# Density = 2.421598 g / cm^3
# Si number density = 24.271221 Si / 1000 Ang^3
#
#
#
# Elastic Constant Matrix: (Units=GPa)
#
#
# Indices 1 2 3 4 5 6 
#
# 1 105.2341 56.5960 38.4434 0.0000 14.2982 0.0000
# 2 56.5960 125.4532 23.3047 0.0000 22.9727 0.0000
# 3 38.4434 23.3047 42.6538 0.0000 13.3553 0.0000
# 4 0.0000 0.0000 0.0000 40.6711 0.0000 18.7658
# 5 14.2982 22.9727 13.3553 0.0000 38.0604 0.0000
# 6 0.0000 0.0000 0.0000 18.7658 0.0000 44.7215
#
#
#
# Elastic Compliance Matrix: (Units=1/GPa)
#
#
# Indices 1 2 3 4 5 6 
#
# 1 0.016915 -0.005540 -0.012667 0.000000 0.001435 0.000000
# 2 -0.005540 0.011296 0.000342 0.000000 -0.004857 0.000000
# 3 -0.012667 0.000342 0.037353 0.000000 -0.008555 0.000000
# 4 0.000000 0.000000 0.000000 0.030491 0.000000 -0.012794
# 5 0.001435 -0.004857 -0.008555 0.000000 0.031669 0.000000
# 6 0.000000 0.000000 0.000000 -0.012794 0.000000 0.027729
#
#
# Mechanical properties :
#
#
# Convention : Reuss Voigt Hill
#
# Bulk Modulus (GPa) = 33.51925 56.66992 45.09458
# Shear Modulus (GPa) = 24.85970 35.02375 29.94173
#
# Velocity S-wave (km/s) = 3.20386 3.80283 3.51612
# Velocity P-wave (km/s) = 5.24657 6.53309 5.92485
#
# Compressibility (1/GPa) = 0.02983361
#
# Stress axis : x y z
#
# Youngs Moduli (GPa) = 59.11927 88.52381 26.77150
#
# Poissons Ratio (x) = 0.49046 0.33912
# Poissons Ratio (y) = 0.32755 -0.00917
# Poissons Ratio (z) = 0.74888 -0.03031
#
# Static dielectric constant tensor:
#      x y z
#    x 1.987380 0.000000 -0.027000 
#    y 0.000000 1.977560 0.000000 
#    z -0.027000 0.000000 1.973830 
# 
# From -- ./inp_files/15520.got.cif
#   From: 2010.05.17/outbox.cif.g08.bks.cpg/sg14_8_cif.got.tgz:15520.got - 2010.06.03 17:49:19.
