data_PCOD9250011
_publ_section_title
;
Structure prediction by ZEFSAII (Michael W. Deem and Ramdas Pophale) SiO2 
 PCOD9250011
Probable space group: P 21/C
;
_chemical_formula_sum "Si O2"
_cell_formula_units_Z 28
_cell_length_a 9.144442
_cell_length_b 12.723448
_cell_length_c 14.506874
_cell_angle_alpha 90.000000
_cell_angle_beta 137.775230
_cell_angle_gamma 90.000000
_cell_volume 1134.309322
_symmetry_space_group_name_H-M "P 21/C"
_symmetry_group_IT_number 14
_symmetry_cell_setting 'monoclinic'
loop_
_space_group_symop_operation_xyz
x,y,z
-x,1/2+y,1/2-z
-x,-y,-z
x,1/2-y,1/2+z
loop_
_atom_site_type_symbol
_atom_site_label
_atom_site_fract_x
_atom_site_fract_y
_atom_site_fract_z
Si Si1 0.778119 0.104313 0.571356
Si Si2 0.210911 0.381792 0.980260
Si Si3 0.290487 0.406723 0.656140
Si Si4 0.719715 0.155845 0.260249
Si Si5 0.105875 0.889363 0.162450
Si Si6 0.799079 0.681937 0.820988
Si Si7 0.553747 0.718033 0.536733
O O1 0.883939 0.102625 0.722721
O O2 0.596573 0.192738 0.488528
O O3 0.960779 0.139202 0.584220
O O4 0.687960 0.989411 0.507497
O O5 0.271700 0.285328 0.941737
O O6 0.951219 0.400345 0.861011
O O7 0.280492 0.353842 0.116197
O O8 0.541097 0.388417 0.746779
O O9 0.242110 0.515989 0.682219
O O10 0.206314 0.308799 0.678072
O O11 0.134473 0.400402 0.493012
O O12 0.788470 0.276751 0.313596
O O13 0.598253 0.156781 0.105365
O O14 0.655440 0.650818 0.666180
#
# Coordination Sequence:
#
# PCOD9250011 Si02
#       7
#     4   4   4   4   4   4   4
#     4  11  26  46  73 104 146 190 236 302 362 422
#     4  12  25  47  72 108 148 185 248 299 353 436
#     4  11  23  43  72 105 145 193 240 294 362 429
#     4  11  22  45  72 104 145 188 240 302 354 424
#     4  10  23  45  70 102 147 189 240 297 361 427
#     4  12  25  44  71 105 142 187 243 294 354 430
#     4  11  24  46  73 100 147 194 238 293 370 423
#
# _framework density 24.684625
#
# number of rings (size 3 to 8) (size 9 to 14) (size 15 to 20)
#    0.000    0.857    2.857    4.286    2.000    2.286 
#    0.000    4.286    0.000    0.000    0.000    0.000 
#    0.000    0.000    0.000    0.000    0.000    0.000 
#
# Total GULP energy -157094.888361 kJ/mol
# GULP energy per Si atom -5610.531727 kJ/mol
# Density = 2.462844 g / cm^3
# Si number density = 24.684625 Si / 1000 Ang^3
#
#
#
# Elastic Constant Matrix: (Units=GPa)
#
#
# Indices 1 2 3 4 5 6 
#
# 1 82.8254 11.7380 32.5206 0.0000 2.8466 0.0000
# 2 11.7380 69.9976 -7.4316 0.0000 0.4857 0.0000
# 3 32.5206 -7.4316 132.7015 0.0000 -2.2867 0.0000
# 4 0.0000 0.0000 0.0000 18.8573 0.0000 -1.5637
# 5 2.8466 0.4857 -2.2867 0.0000 41.7803 0.0000
# 6 0.0000 0.0000 0.0000 -1.5637 0.0000 27.3364
#
#
#
# Elastic Compliance Matrix: (Units=1/GPa)
#
#
# Indices 1 2 3 4 5 6 
#
# 1 0.013899 -0.002703 -0.003577 0.000000 -0.001111 0.000000
# 2 -0.002703 0.014898 0.001498 0.000000 0.000093 0.000000
# 3 -0.003577 0.001498 0.008508 0.000000 0.000692 0.000000
# 4 0.000000 0.000000 0.000000 0.053283 0.000000 0.003048
# 5 -0.001111 0.000093 0.000692 0.000000 0.024047 0.000000
# 6 0.000000 0.000000 0.000000 0.003048 0.000000 0.036756
#
#
# Mechanical properties :
#
#
# Convention : Reuss Voigt Hill
#
# Bulk Modulus (GPa) = 36.04563 39.90875 37.97719
# Shear Modulus (GPa) = 29.37709 34.17463 31.77586
#
# Velocity S-wave (km/s) = 3.45352 3.72486 3.59175
# Velocity P-wave (km/s) = 5.52599 5.89084 5.71133
#
# Compressibility (1/GPa) = 0.02774261
#
# Stress axis : x y z
#
# Youngs Moduli (GPa) = 71.94658 67.12373 117.53543
#
# Poissons Ratio (x) = 0.18142 0.42039
# Poissons Ratio (y) = 0.19446 -0.17610
# Poissons Ratio (z) = 0.25733 -0.10057
#
# Static dielectric constant tensor:
#      x y z
#    x 1.942110 0.000000 -0.022900 
#    y 0.000000 1.909480 0.000000 
#    z -0.022900 0.000000 2.012960 
# 
# From -- ./inp_files/41440.got.cif
#   From: 2010.05.17/outbox.cif.g08.bks.cpg/sg14_21_cif.got.tgz:41440.got - 2010.06.03 17:49:19.
