data_PCOD9250730
_publ_section_title
;
Structure prediction by ZEFSAII (Michael W. Deem and Ramdas Pophale) SiO2 
 PCOD9250730
Probable space group: P 21/C
;
_chemical_formula_sum "Si O2"
_cell_formula_units_Z 20
_cell_length_a 9.589574
_cell_length_b 5.045652
_cell_length_c 19.744561
_cell_angle_alpha 90.000000
_cell_angle_beta 127.468717
_cell_angle_gamma 90.000000
_cell_volume 758.250302
_symmetry_space_group_name_H-M "P 21/C"
_symmetry_group_IT_number 14
_symmetry_cell_setting 'monoclinic'
loop_
_space_group_symop_operation_xyz
x,y,z
-x,1/2+y,1/2-z
-x,-y,-z
x,1/2-y,1/2+z
loop_
_atom_site_type_symbol
_atom_site_label
_atom_site_fract_x
_atom_site_fract_y
_atom_site_fract_z
Si Si1 0.891947 0.084502 0.693604
Si Si2 0.073057 0.767087 0.087833
Si Si3 0.480934 0.398220 0.859479
Si Si4 0.799385 0.158709 0.023054
Si Si5 0.694907 0.713455 0.821932
O O1 0.701926 0.001393 0.666127
O O2 0.012932 0.823547 0.737755
O O3 0.167655 0.978753 0.649316
O O4 0.852936 0.201840 0.607972
O O5 0.196490 0.017286 0.142617
O O6 0.876319 0.858539 0.048397
O O7 0.098694 0.736947 0.014248
O O8 0.594151 0.638410 0.860994
O O9 0.436927 0.225855 0.779807
O O10 0.598285 0.227913 0.946039
#
# Coordination Sequence:
#
# PCOD9250730 Si02
#       5
#     4   4   4   4   4
#     4  12  30  51  73 103 153 207 247 300 373 444
#     4  10  24  45  76 114 151 191 239 304 377 442
#     4  11  25  47  77 112 146 194 251 310 365 437
#     4  10  24  47  77 112 148 192 249 307 364 439
#     4  11  24  44  74 112 151 189 242 307 376 441
#
# _framework density 26.376512000000002
#
# number of rings (size 3 to 8) (size 9 to 14) (size 15 to 20)
#    0.000    1.200    0.000    4.200    0.000   24.800 
#    0.000    3.000    0.000    0.000    0.000    0.000 
#    0.000    0.000    0.000    0.000    0.000    0.000 
#
# Total GULP energy -112227.189895 kJ/mol
# GULP energy per Si atom -5611.359495 kJ/mol
# Density = 2.631648 g / cm^3
# Si number density = 26.376512 Si / 1000 Ang^3
#
#
#
# Elastic Constant Matrix: (Units=GPa)
#
#
# Indices 1 2 3 4 5 6 
#
# 1 189.8549 66.8826 61.9379 0.0000 17.6930 0.0000
# 2 66.8826 156.0849 58.7447 0.0000 22.1331 0.0000
# 3 61.9379 58.7447 171.0253 0.0000 35.5596 0.0000
# 4 0.0000 0.0000 0.0000 40.0106 0.0000 12.0407
# 5 17.6930 22.1331 35.5596 0.0000 45.3260 0.0000
# 6 0.0000 0.0000 0.0000 12.0407 0.0000 41.7503
#
#
#
# Elastic Compliance Matrix: (Units=1/GPa)
#
#
# Indices 1 2 3 4 5 6 
#
# 1 0.006576 -0.002188 -0.001576 0.000000 -0.000263 0.000000
# 2 -0.002188 0.008229 -0.001645 0.000000 -0.001874 0.000000
# 3 -0.001576 -0.001645 0.007991 0.000000 -0.004851 0.000000
# 4 0.000000 0.000000 0.000000 0.027369 0.000000 -0.007893
# 5 -0.000263 -0.001874 -0.004851 0.000000 0.026886 0.000000
# 6 0.000000 0.000000 0.000000 -0.007893 0.000000 0.026228
#
#
# Mechanical properties :
#
#
# Convention : Reuss Voigt Hill
#
# Bulk Modulus (GPa) = 83.46703 99.12172 91.29438
# Shear Modulus (GPa) = 42.34096 47.37738 44.85917
#
# Velocity S-wave (km/s) = 4.01091 4.24275 4.12846
# Velocity P-wave (km/s) = 7.29129 7.85254 7.57712
#
# Compressibility (1/GPa) = 0.01198078
#
# Stress axis : x y z
#
# Youngs Moduli (GPa) = 152.05922 121.52268 125.13661
#
# Poissons Ratio (x) = 0.26586 0.19717
# Poissons Ratio (y) = 0.33267 0.20579
# Poissons Ratio (z) = 0.23958 0.19985
#
# Static dielectric constant tensor:
#      x y z
#    x 2.107770 0.000000 -0.008770 
#    y 0.000000 2.139940 0.000000 
#    z -0.008770 0.000000 2.103540 
# 
# From -- ./inp_files/54030.got.cif
#   From: 2010.05.17/outbox.cif.g08.bks.cpg/sg14_28_cif.got.tgz:54030.got - 2010.06.03 17:49:19.
