data_PCOD9250112
_publ_section_title
;
Structure prediction by ZEFSAII (Michael W. Deem and Ramdas Pophale) SiO2 
 PCOD9250112
Probable space group: P 21/C
;
_chemical_formula_sum "Si O2"
_cell_formula_units_Z 12
_cell_length_a 8.551796
_cell_length_b 5.024946
_cell_length_c 10.474338
_cell_angle_alpha 90.000000
_cell_angle_beta 101.331563
_cell_angle_gamma 90.000000
_cell_volume 441.332411
_symmetry_space_group_name_H-M "P 21/C"
_symmetry_group_IT_number 14
_symmetry_cell_setting 'monoclinic'
loop_
_space_group_symop_operation_xyz
x,y,z
-x,1/2+y,1/2-z
-x,-y,-z
x,1/2-y,1/2+z
loop_
_atom_site_type_symbol
_atom_site_label
_atom_site_fract_x
_atom_site_fract_y
_atom_site_fract_z
Si Si1 0.293428 0.474654 0.822706
Si Si2 0.104787 0.752683 0.977987
Si Si3 0.342518 0.399264 0.108462
O O1 0.469505 0.598077 0.837113
O O2 0.260841 0.274037 0.703802
O O3 0.162915 0.694910 0.842515
O O4 0.311382 0.302176 0.958247
O O5 0.268354 0.696916 0.084482
O O6 0.000000 0.500000 0.000000
O O7 0.000000 0.000000 0.000000
#
# Coordination Sequence:
#
# PCOD9250112 Si02
#       3
#     4   4   4
#     4   9  21  43  74 116 156 211 276 337 396 474
#     4  10  23  46  75 108 156 216 259 316 406 494
#     4   9  21  43  74 116 156 211 276 337 396 474
#
# _framework density 27.190389
#
# number of rings (size 3 to 8) (size 9 to 14) (size 15 to 20)
#    2.000    0.667    0.000    0.000    0.000    6.667 
#    0.000    6.667    0.000    2.000    0.000    0.000 
#    0.000    0.000    0.000    0.000    0.000    0.000 
#
# Total GULP energy -67105.640277 kJ/mol
# GULP energy per Si atom -5592.136690 kJ/mol
# Density = 2.712850 g / cm^3
# Si number density = 27.190389 Si / 1000 Ang^3
#
#
#
# Elastic Constant Matrix: (Units=GPa)
#
#
# Indices 1 2 3 4 5 6 
#
# 1 143.6799 55.0453 36.4111 0.0000 -34.2666 0.0000
# 2 55.0453 170.9179 86.4315 0.0000 -36.3335 0.0000
# 3 36.4111 86.4315 180.5503 0.0000 -17.4612 0.0000
# 4 0.0000 0.0000 0.0000 53.6444 0.0000 -11.1450
# 5 -34.2666 -36.3335 -17.4612 0.0000 47.6098 0.0000
# 6 0.0000 0.0000 0.0000 -11.1450 0.0000 49.3395
#
#
#
# Elastic Compliance Matrix: (Units=1/GPa)
#
#
# Indices 1 2 3 4 5 6 
#
# 1 0.008882 -0.001491 -0.000590 0.000000 0.005039 0.000000
# 2 -0.001491 0.009139 -0.003632 0.000000 0.004569 0.000000
# 3 -0.000590 -0.003632 0.007348 0.000000 -0.000502 0.000000
# 4 0.000000 0.000000 0.000000 0.019559 0.000000 0.004418
# 5 0.005039 0.004569 -0.000502 0.000000 0.027933 0.000000
# 6 0.000000 0.000000 0.000000 0.004418 0.000000 0.021266
#
#
# Mechanical properties :
#
#
# Convention : Reuss Voigt Hill
#
# Bulk Modulus (GPa) = 71.72505 94.54711 83.13608
# Shear Modulus (GPa) = 45.37095 51.26941 48.32018
#
# Velocity S-wave (km/s) = 4.08933 4.34703 4.22015
# Velocity P-wave (km/s) = 6.98090 7.74876 7.37483
#
# Compressibility (1/GPa) = 0.01394213
#
# Stress axis : x y z
#
# Youngs Moduli (GPa) = 112.58207 109.41916 136.09163
#
# Poissons Ratio (x) = 0.16315 0.08032
# Poissons Ratio (y) = 0.16787 0.49434
# Poissons Ratio (z) = 0.06645 0.39746
#
# Static dielectric constant tensor:
#      x y z
#    x 2.181690 0.000000 0.061890 
#    y 0.000000 2.203320 0.000000 
#    z 0.061890 0.000000 2.299800 
# 
# From -- ./inp_files/22442.got.cif
#   From: 2010.05.17/outbox.cif.g08.bks.cpg/sg14_12_cif.got.tgz:22442.got - 2010.06.03 17:49:19.
