data_PCOD9250885
_publ_section_title
;
Structure prediction by ZEFSAII (Michael W. Deem and Ramdas Pophale) SiO2 
 PCOD9250885
Probable space group: P 21/C
;
_chemical_formula_sum "Si O2"
_cell_formula_units_Z 26
_cell_length_a 13.545049
_cell_length_b 10.106781
_cell_length_c 9.189354
_cell_angle_alpha 90.000000
_cell_angle_beta 129.546089
_cell_angle_gamma 90.000000
_cell_volume 970.054772
_symmetry_space_group_name_H-M "P 21/C"
_symmetry_group_IT_number 14
_symmetry_cell_setting 'monoclinic'
loop_
_space_group_symop_operation_xyz
x,y,z
-x,1/2+y,1/2-z
-x,-y,-z
x,1/2-y,1/2+z
loop_
_atom_site_type_symbol
_atom_site_label
_atom_site_fract_x
_atom_site_fract_y
_atom_site_fract_z
Si Si1 0.629244 0.138687 0.382127
Si Si2 0.500000 0.500000 0.500000
Si Si3 0.238332 0.167183 0.119621
Si Si4 0.092847 0.533133 0.914266
Si Si5 0.755942 0.907812 0.203262
Si Si6 0.694601 0.380436 0.248833
Si Si7 0.984160 0.174069 0.080767
O O1 0.525568 0.068902 0.184609
O O2 0.656712 0.281858 0.340959
O O3 0.605562 0.154446 0.529782
O O4 0.760937 0.052469 0.505440
O O5 0.348422 0.521820 0.399105
O O6 0.304797 0.298953 0.243625
O O7 0.101587 0.170545 0.076731
O O8 0.961153 0.181044 0.626217
O O9 0.311877 0.035442 0.229674
O O10 0.015794 0.432895 0.737204
O O11 0.122962 0.468336 0.100598
O O12 0.776035 0.839021 0.067336
O O13 0.848814 0.356736 0.376753
#
# Coordination Sequence:
#
# PCOD9250885 Si02
#       7
#     4   2   4   4   4   4   4
#     4  10  24  48  78 108 149 198 263 325 384 458
#     4  10  26  56  82 100 152 200 260 336 402 448
#     4  12  27  48  78 115 161 200 264 321 391 479
#     4  10  24  48  77 110 159 210 263 319 388 474
#     4  11  28  51  78 112 155 204 266 334 389 470
#     4  11  26  45  77 116 159 206 258 318 383 488
#     4  11  25  47  78 117 165 217 253 317 396 474
#
# _framework density 26.802612
#
# number of rings (size 3 to 8) (size 9 to 14) (size 15 to 20)
#    0.000    1.231    1.538    1.385   12.923    4.308 
#    2.769    1.538    0.000    0.000    0.000    0.000 
#    0.000    0.000    0.000    0.000    0.000    0.000 
#
# Total GULP energy -145305.972305 kJ/mol
# GULP energy per Si atom -5588.691243 kJ/mol
# Density = 2.674161 g / cm^3
# Si number density = 26.802612 Si / 1000 Ang^3
#
#
#
# Elastic Constant Matrix: (Units=GPa)
#
#
# Indices 1 2 3 4 5 6 
#
# 1 82.3516 22.1809 48.7169 0.0000 -18.3580 0.0000
# 2 22.1809 160.4283 54.9376 0.0000 -28.0445 0.0000
# 3 48.7169 54.9376 165.4174 0.0000 -31.4564 0.0000
# 4 0.0000 0.0000 0.0000 40.4069 0.0000 -19.3045
# 5 -18.3580 -28.0445 -31.4564 0.0000 57.5061 0.0000
# 6 0.0000 0.0000 0.0000 -19.3045 0.0000 28.7052
#
#
#
# Elastic Compliance Matrix: (Units=1/GPa)
#
#
# Indices 1 2 3 4 5 6 
#
# 1 0.015074 -0.000321 -0.003848 0.000000 0.002551 0.000000
# 2 -0.000321 0.007350 -0.001880 0.000000 0.002454 0.000000
# 3 -0.003848 -0.001880 0.008254 0.000000 0.002369 0.000000
# 4 0.000000 0.000000 0.000000 0.036464 0.000000 0.024522
# 5 0.002551 0.002454 0.002369 0.000000 0.020697 0.000000
# 6 0.000000 0.000000 0.000000 0.024522 0.000000 0.051328
#
#
# Mechanical properties :
#
#
# Convention : Reuss Voigt Hill
#
# Bulk Modulus (GPa) = 53.81802 73.31868 63.56835
# Shear Modulus (GPa) = 31.75442 44.14777 37.95109
#
# Velocity S-wave (km/s) = 3.44576 4.06291 3.76699
# Velocity P-wave (km/s) = 5.99616 7.03022 6.53368
#
# Compressibility (1/GPa) = 0.01858114
#
# Stress axis : x y z
#
# Youngs Moduli (GPa) = 66.33750 136.04633 121.15940
#
# Poissons Ratio (x) = 0.04361 0.46622
# Poissons Ratio (y) = 0.02126 0.22780
# Poissons Ratio (z) = 0.25527 0.25579
#
# Static dielectric constant tensor:
#      x y z
#    x 2.210780 0.000000 -0.014460 
#    y 0.000000 2.092300 0.000000 
#    z -0.014460 0.000000 2.120620 
# 
# From -- ./inp_files/35120.got.cif
#   From: 2010.05.17/outbox.cif.g08.bks.cpg/sg14_18_cif.got.tgz:35120.got - 2010.06.03 17:49:19.
