data_PCOD9250949
_publ_section_title
;
Structure prediction by ZEFSAII (Michael W. Deem and Ramdas Pophale) SiO2 
 PCOD9250949
Probable space group: P 21/C
;
_chemical_formula_sum "Si O2"
_cell_formula_units_Z 20
_cell_length_a 18.576111
_cell_length_b 5.142633
_cell_length_c 8.817820
_cell_angle_alpha 90.000000
_cell_angle_beta 79.413164
_cell_angle_gamma 90.000000
_cell_volume 828.028289
_symmetry_space_group_name_H-M "P 21/C"
_symmetry_group_IT_number 14
_symmetry_cell_setting 'monoclinic'
loop_
_space_group_symop_operation_xyz
x,y,z
-x,1/2+y,1/2-z
-x,-y,-z
x,1/2-y,1/2+z
loop_
_atom_site_type_symbol
_atom_site_label
_atom_site_fract_x
_atom_site_fract_y
_atom_site_fract_z
Si Si1 0.919116 0.563489 0.095665
Si Si2 0.296710 0.584012 0.160272
Si Si3 0.654023 0.716835 0.120294
Si Si4 0.867180 0.089766 0.289325
Si Si5 0.577967 0.467386 0.392893
O O1 0.911797 0.348346 0.231320
O O2 0.896408 0.846310 0.174167
O O3 0.871526 0.500408 0.962751
O O4 0.000000 0.500000 0.000000
O O5 0.295311 0.338512 0.272979
O O6 0.215978 0.690376 0.210650
O O7 0.376605 0.709006 0.165955
O O8 0.306481 0.514892 0.980554
O O9 0.580989 0.624963 0.235079
O O10 0.632225 0.910953 0.996764
O O11 0.500000 0.500000 0.500000
#
# Coordination Sequence:
#
# PCOD9250949 Si02
#       5
#     4   4   4   4   4
#     4  12  26  49  75 114 153 197 246 301 372 451
#     4  11  25  44  68 101 137 179 239 293 355 433
#     4  10  25  42  67  96 136 170 236 286 362 423
#     4  12  27  44  80 106 153 197 248 304 371 435
#     4  11  26  42  70  95 137 181 233 296 365 429
#
# _framework density 24.153766000000001
#
# number of rings (size 3 to 8) (size 9 to 14) (size 15 to 20)
#    0.000    0.800    0.000    5.400   16.800    1.600 
#    0.000    0.000    0.000    0.000    0.000    0.000 
#    0.000    0.000    0.000    0.000    0.000    0.000 
#
# Total GULP energy -111497.410043 kJ/mol
# GULP energy per Si atom -5574.870502 kJ/mol
# Density = 2.409879 g / cm^3
# Si number density = 24.153766 Si / 1000 Ang^3
#
#
#
# Elastic Constant Matrix: (Units=GPa)
#
#
# Indices 1 2 3 4 5 6 
#
# 1 78.8278 -2.2135 -17.0442 0.0000 -20.6195 0.0000
# 2 -2.2135 79.3606 11.0684 0.0000 -11.1875 0.0000
# 3 -17.0442 11.0684 88.2663 0.0000 -0.8238 0.0000
# 4 0.0000 0.0000 0.0000 35.9152 0.0000 -6.3967
# 5 -20.6195 -11.1875 -0.8238 0.0000 39.7416 0.0000
# 6 0.0000 0.0000 0.0000 -6.3967 0.0000 22.6693
#
#
#
# Elastic Compliance Matrix: (Units=1/GPa)
#
#
# Indices 1 2 3 4 5 6 
#
# 1 0.015574 0.001221 0.002933 0.000000 0.008485 0.000000
# 2 0.001221 0.013450 -0.001410 0.000000 0.004391 0.000000
# 3 0.002933 -0.001410 0.012085 0.000000 0.001376 0.000000
# 4 0.000000 0.000000 0.000000 0.029317 0.000000 0.008272
# 5 0.008485 0.004391 0.001376 0.000000 0.030829 0.000000
# 6 0.000000 0.000000 0.000000 0.008272 0.000000 0.046447
#
#
# Mechanical properties :
#
#
# Convention : Reuss Voigt Hill
#
# Bulk Modulus (GPa) = 21.45943 25.56401 23.51172
# Shear Modulus (GPa) = 31.69651 36.64149 34.16900
#
# Velocity S-wave (km/s) = 3.62647 3.89911 3.76526
# Velocity P-wave (km/s) = 5.14187 5.55676 5.35334
#
# Compressibility (1/GPa) = 0.04659955
#
# Stress axis : x y z
#
# Youngs Moduli (GPa) = 64.21000 74.34729 82.74450
#
# Poissons Ratio (x) = -0.09081 -0.24272
# Poissons Ratio (y) = -0.07843 0.11665
# Poissons Ratio (z) = -0.18835 0.10482
#
# Static dielectric constant tensor:
#      x y z
#    x 2.057320 0.000000 -0.023550 
#    y 0.000000 2.123420 0.000000 
#    z -0.023550 0.000000 1.887260 
# 
# From -- ./inp_files/17161.got.cif
#   From: 2010.05.17/outbox.cif.g08.bks.cpg/sg14_9_cif.got.tgz:17161.got - 2010.06.03 17:49:19.
