data_PCOD9250336
_publ_section_title
;
Structure prediction by ZEFSAII (Michael W. Deem and Ramdas Pophale) SiO2 
 PCOD9250336
Probable space group: P 21/C
;
_chemical_formula_sum "Si O2"
_cell_formula_units_Z 20
_cell_length_a 17.777091
_cell_length_b 13.916409
_cell_length_c 12.213864
_cell_angle_alpha 90.000000
_cell_angle_beta 161.720341
_cell_angle_gamma 90.000000
_cell_volume 947.749779
_symmetry_space_group_name_H-M "P 21/C"
_symmetry_group_IT_number 14
_symmetry_cell_setting 'monoclinic'
loop_
_space_group_symop_operation_xyz
x,y,z
-x,1/2+y,1/2-z
-x,-y,-z
x,1/2-y,1/2+z
loop_
_atom_site_type_symbol
_atom_site_label
_atom_site_fract_x
_atom_site_fract_y
_atom_site_fract_z
Si Si1 0.170124 0.425439 0.927287
Si Si2 0.485292 0.638111 0.758930
Si Si3 0.772968 0.716473 0.563516
Si Si4 0.268665 0.431410 0.693001
Si Si5 0.043166 0.092823 0.486318
O O1 0.967327 0.503028 0.619456
O O2 0.210961 0.425115 0.113953
O O3 0.097140 0.315159 0.795299
O O4 0.409321 0.437649 0.184554
O O5 0.217078 0.618327 0.422449
O O6 0.512820 0.740154 0.736286
O O7 0.666065 0.631022 0.110312
O O8 0.764575 0.637645 0.457297
O O9 0.877626 0.672646 0.818472
O O10 0.500000 0.500000 0.000000
O O11 0.000000 0.000000 0.500000
#
# Coordination Sequence:
#
# PCOD9250336 Si02
#       5
#     4   4   4   4   4
#     4  10  24  41  68  95 132 174 225 268 328 397
#     4  10  25  40  68  96 129 177 221 270 333 389
#     4  10  25  41  66  99 133 170 225 272 322 401
#     4  12  21  45  69  96 134 180 216 272 338 392
#     4  12  22  46  64  96 133 169 223 277 326 384
#
# _framework density 21.102616000000001
#
# number of rings (size 3 to 8) (size 9 to 14) (size 15 to 20)
#    1.200    0.000    4.000    1.800    2.800    0.800 
#    0.000    0.000    0.000    0.000    0.000    0.000 
#    0.000    0.000    0.000    0.000    0.000    0.000 
#
# Total GULP energy -111512.579517 kJ/mol
# GULP energy per Si atom -5575.628976 kJ/mol
# Density = 2.105459 g / cm^3
# Si number density = 21.102616 Si / 1000 Ang^3
#
#
#
# Elastic Constant Matrix: (Units=GPa)
#
#
# Indices 1 2 3 4 5 6 
#
# 1 95.6101 -14.9876 10.3967 0.0000 -18.4979 0.0000
# 2 -14.9876 57.6043 1.7082 0.0000 -2.1301 0.0000
# 3 10.3967 1.7082 40.1305 0.0000 -12.1012 0.0000
# 4 0.0000 0.0000 0.0000 19.3610 0.0000 -13.8237
# 5 -18.4979 -2.1301 -12.1012 0.0000 35.7865 0.0000
# 6 0.0000 0.0000 0.0000 -13.8237 0.0000 40.8715
#
#
#
# Elastic Compliance Matrix: (Units=1/GPa)
#
#
# Indices 1 2 3 4 5 6 
#
# 1 0.012345 0.003482 -0.001514 0.000000 0.006076 0.000000
# 2 0.003482 0.018388 -0.000904 0.000000 0.002588 0.000000
# 3 -0.001514 -0.000904 0.027947 0.000000 0.008614 0.000000
# 4 0.000000 0.000000 0.000000 0.068095 0.000000 0.023031
# 5 0.006076 0.002588 0.008614 0.000000 0.034151 0.000000
# 6 0.000000 0.000000 0.000000 0.023031 0.000000 0.032257
#
#
# Mechanical properties :
#
#
# Convention : Reuss Voigt Hill
#
# Bulk Modulus (GPa) = 16.44555 20.84216 18.64385
# Shear Modulus (GPa) = 23.66024 32.28564 27.97294
#
# Velocity S-wave (km/s) = 3.35206 3.91568 3.64478
# Velocity P-wave (km/s) = 4.77408 5.50831 5.15428
#
# Compressibility (1/GPa) = 0.06080673
#
# Stress axis : x y z
#
# Youngs Moduli (GPa) = 81.00324 54.38271 35.78218
#
# Poissons Ratio (x) = -0.18934 0.05418
# Poissons Ratio (y) = -0.28202 0.03235
# Poissons Ratio (z) = 0.12265 0.04917
#
# Static dielectric constant tensor:
#      x y z
#    x 1.782660 0.000000 0.002650 
#    y 0.000000 1.819790 0.000000 
#    z 0.002650 0.000000 1.745790 
# 
# From -- ./inp_files/24418.got.cif
#   From: 2010.05.17/outbox.cif.g08.bks.cpg/sg14_13_cif.got.tgz:24418.got - 2010.06.03 17:49:19.
