data_PCOD9250629
_publ_section_title
;
Structure prediction by ZEFSAII (Michael W. Deem and Ramdas Pophale) SiO2 
 PCOD9250629
Probable space group: P 21/C
;
_chemical_formula_sum "Si O2"
_cell_formula_units_Z 20
_cell_length_a 11.231543
_cell_length_b 7.756497
_cell_length_c 9.858938
_cell_angle_alpha 90.000000
_cell_angle_beta 108.773943
_cell_angle_gamma 90.000000
_cell_volume 813.188963
_symmetry_space_group_name_H-M "P 21/C"
_symmetry_group_IT_number 14
_symmetry_cell_setting 'monoclinic'
loop_
_space_group_symop_operation_xyz
x,y,z
-x,1/2+y,1/2-z
-x,-y,-z
x,1/2-y,1/2+z
loop_
_atom_site_type_symbol
_atom_site_label
_atom_site_fract_x
_atom_site_fract_y
_atom_site_fract_z
Si Si1 0.474269 0.298525 0.467286
Si Si2 0.324122 0.225152 0.159527
Si Si3 0.861155 0.269874 0.201237
Si Si4 0.911671 0.892680 0.570648
Si Si5 0.286274 0.825110 0.098407
O O1 0.500000 0.500000 0.500000
O O2 0.358326 0.282858 0.322069
O O3 0.434978 0.217623 0.595710
O O4 0.598282 0.232426 0.435632
O O5 0.321605 0.018345 0.151987
O O6 0.194642 0.298104 0.054209
O O7 0.853208 0.467670 0.151621
O O8 0.763614 0.231080 0.286326
O O9 0.998380 0.231151 0.309864
O O10 0.824588 0.165053 0.053746
O O11 0.000000 0.000000 0.500000
#
# Coordination Sequence:
#
# PCOD9250629 Si02
#       5
#     4   4   4   4   4
#     4  10  24  44  72 102 140 177 230 284 352 416
#     4  11  25  45  72 103 141 186 232 290 351 414
#     4  12  26  45  70 102 141 185 237 289 351 414
#     4  12  28  44  72 102 144 186 238 292 347 415
#     4  11  25  45  73 103 142 182 236 288 353 418
#
# _framework density 24.594529999999999
#
# number of rings (size 3 to 8) (size 9 to 14) (size 15 to 20)
#    0.000    0.800    2.000    3.600   11.200    4.800 
#    0.000    7.000    0.000    0.000    0.000    0.000 
#    0.000    0.000    0.000    0.000    0.000    0.000 
#
# Total GULP energy -112112.406874 kJ/mol
# GULP energy per Si atom -5605.620344 kJ/mol
# Density = 2.453855 g / cm^3
# Si number density = 24.594530 Si / 1000 Ang^3
#
#
#
# Elastic Constant Matrix: (Units=GPa)
#
#
# Indices 1 2 3 4 5 6 
#
# 1 57.3887 -3.6867 -1.3611 0.0000 -6.0947 0.0000
# 2 -3.6867 60.0716 12.7451 0.0000 16.2234 0.0000
# 3 -1.3611 12.7451 116.2220 0.0000 8.9984 0.0000
# 4 0.0000 0.0000 0.0000 19.5656 0.0000 8.5831
# 5 -6.0947 16.2234 8.9984 0.0000 63.6492 0.0000
# 6 0.0000 0.0000 0.0000 8.5831 0.0000 33.8004
#
#
#
# Elastic Compliance Matrix: (Units=1/GPa)
#
#
# Indices 1 2 3 4 5 6 
#
# 1 0.017629 0.000669 0.000016 0.000000 0.001515 0.000000
# 2 0.000669 0.018212 -0.001653 0.000000 -0.004344 0.000000
# 3 0.000016 -0.001653 0.008850 0.000000 -0.000828 0.000000
# 4 0.000000 0.000000 0.000000 0.057518 0.000000 -0.014606
# 5 0.001515 -0.004344 -0.000828 0.000000 0.017081 0.000000
# 6 0.000000 0.000000 0.000000 -0.014606 0.000000 0.033294
#
#
# Mechanical properties :
#
#
# Convention : Reuss Voigt Hill
#
# Bulk Modulus (GPa) = 23.38891 27.67519 25.53205
# Shear Modulus (GPa) = 29.62596 38.46870 34.04733
#
# Velocity S-wave (km/s) = 3.47446 3.95918 3.72472
# Velocity P-wave (km/s) = 5.06224 5.67249 5.37603
#
# Compressibility (1/GPa) = 0.04275531
#
# Stress axis : x y z
#
# Youngs Moduli (GPa) = 56.72366 54.90940 112.99686
#
# Poissons Ratio (x) = -0.03676 -0.00178
# Poissons Ratio (y) = -0.03797 0.18678
# Poissons Ratio (z) = -0.00089 0.09076
#
# Static dielectric constant tensor:
#      x y z
#    x 2.028640 0.000000 -0.052720 
#    y 0.000000 1.908200 0.000000 
#    z -0.052720 0.000000 1.949710 
# 
# From -- ./inp_files/11774.got.cif
#   From: 2010.05.17/outbox.cif.g08.bks.cpg/sg14_6_cif.got.tgz:11774.got - 2010.06.03 17:49:19.
