data_PCOD9250573
_publ_section_title
;
Structure prediction by ZEFSAII (Michael W. Deem and Ramdas Pophale) SiO2 
 PCOD9250573
Probable space group: P 21/C
;
_chemical_formula_sum "Si O2"
_cell_formula_units_Z 28
_cell_length_a 6.896754
_cell_length_b 27.756761
_cell_length_c 8.874522
_cell_angle_alpha 90.000000
_cell_angle_beta 122.209145
_cell_angle_gamma 90.000000
_cell_volume 1437.422193
_symmetry_space_group_name_H-M "P 21/C"
_symmetry_group_IT_number 14
_symmetry_cell_setting 'monoclinic'
loop_
_space_group_symop_operation_xyz
x,y,z
-x,1/2+y,1/2-z
-x,-y,-z
x,1/2-y,1/2+z
loop_
_atom_site_type_symbol
_atom_site_label
_atom_site_fract_x
_atom_site_fract_y
_atom_site_fract_z
Si Si1 0.471853 0.590441 0.860580
Si Si2 0.952833 0.550803 0.062673
Si Si3 0.226658 0.814134 0.171676
Si Si4 0.692288 0.812931 0.889451
Si Si5 0.556927 0.092245 0.291137
Si Si6 0.541208 0.242501 0.470180
Si Si7 0.216359 0.490370 0.692110
O O1 0.356725 0.634788 0.726955
O O2 0.335599 0.540546 0.783613
O O3 0.730961 0.580054 0.913484
O O4 0.461111 0.600843 0.035746
O O5 0.879447 0.536241 0.200126
O O6 0.181988 0.581943 0.144957
O O7 0.000000 0.500000 0.000000
O O8 0.324104 0.777632 0.086979
O O9 0.285835 0.789474 0.357438
O O10 0.959446 0.821438 0.028447
O O11 0.551904 0.862558 0.838284
O O12 0.628585 0.790022 0.700743
O O13 0.602329 0.775193 0.974908
O O14 0.405719 0.044629 0.198226
O O15 0.000000 0.500000 0.500000
#
# Coordination Sequence:
#
# PCOD9250573 Si02
#       7
#     4   4   4   4   4   4   4
#     4  11  22  40  65  93 128 169 212 261 324 371
#     4  11  21  42  65  86 127 172 214 253 309 388
#     4  11  23  44  68  96 132 166 214 269 321 382
#     4  11  23  43  68  95 129 166 215 264 324 378
#     4  11  22  41  64  93 127 171 209 261 320 378
#     4  10  24  44  66  98 125 169 215 264 327 380
#     4  11  23  39  62  93 129 164 209 268 317 377
#
# _framework density 19.479316000000001
#
# number of rings (size 3 to 8) (size 9 to 14) (size 15 to 20)
#    0.000    1.143    4.286    2.571    0.000    5.143 
#   12.857    0.000    0.000    0.000    0.000    0.000 
#    0.000    0.000    0.000    0.000    0.000    0.000 
#
# Total GULP energy -156479.231299 kJ/mol
# GULP energy per Si atom -5588.543975 kJ/mol
# Density = 1.943498 g / cm^3
# Si number density = 19.479316 Si / 1000 Ang^3
#
#
#
# Elastic Constant Matrix: (Units=GPa)
#
#
# Indices 1 2 3 4 5 6 
#
# 1 120.6500 58.1596 62.3542 0.0000 43.2284 0.0000
# 2 58.1596 134.8267 60.6812 0.0000 25.8571 0.0000
# 3 62.3542 60.6812 119.0509 0.0000 34.8786 0.0000
# 4 0.0000 0.0000 0.0000 -74.6615 0.0000 16.2680
# 5 43.2284 25.8571 34.8786 0.0000 40.5464 0.0000
# 6 0.0000 0.0000 0.0000 16.2680 0.0000 26.7954
#
#
#
# Elastic Compliance Matrix: (Units=1/GPa)
#
#
# Indices 1 2 3 4 5 6 
#
# 1 0.015717 -0.003048 -0.003127 0.000000 -0.012124 0.000000
# 2 -0.003048 0.010419 -0.003636 0.000000 -0.000268 0.000000
# 3 -0.003127 -0.003636 0.013683 0.000000 -0.006118 0.000000
# 4 0.000000 0.000000 0.000000 -0.011829 0.000000 0.007182
# 5 -0.012124 -0.000268 -0.006118 0.000000 0.043022 0.000000
# 6 0.000000 0.000000 0.000000 0.007182 0.000000 0.032960
#
#
# Mechanical properties :
#
#
# Convention : Reuss Voigt Hill
#
# Bulk Modulus (GPa) = 49.50793 81.87973 65.69383
# Shear Modulus (GPa) = 38.36482 11.42489 24.89486
#
# Velocity S-wave (km/s) = 4.44274 2.42443 3.57881
# Velocity P-wave (km/s) = 7.19639 7.06842 7.13269
#
# Compressibility (1/GPa) = 0.02019879
#
# Stress axis : x y z
#
# Youngs Moduli (GPa) = 63.62341 95.97461 73.08150
#
# Poissons Ratio (x) = 0.29249 0.22852
# Poissons Ratio (y) = 0.19390 0.26575
# Poissons Ratio (z) = 0.19894 0.34899
#
# Static dielectric constant tensor:
#      x y z
#    x 1.643040 0.000000 -0.004920 
#    y 0.000000 1.378990 0.000000 
#    z -0.004920 0.000000 1.686940 
# 
# From -- ./inp_files/6889.got.cif
#   From: 2010.05.17/outbox.cif.g08.bks.cpg/sg14_4_cif.got.tgz:6889.got - 2010.06.03 17:49:19.
