data_PCOD9250424
_publ_section_title
;
Structure prediction by ZEFSAII (Michael W. Deem and Ramdas Pophale) SiO2 
 PCOD9250424
Probable space group: P 21/C
;
_chemical_formula_sum "Si O2"
_cell_formula_units_Z 12
_cell_length_a 4.535107
_cell_length_b 20.980167
_cell_length_c 4.880015
_cell_angle_alpha 90.000000
_cell_angle_beta 64.951634
_cell_angle_gamma 90.000000
_cell_volume 420.651272
_symmetry_space_group_name_H-M "P 21/C"
_symmetry_group_IT_number 14
_symmetry_cell_setting 'monoclinic'
loop_
_space_group_symop_operation_xyz
x,y,z
-x,1/2+y,1/2-z
-x,-y,-z
x,1/2-y,1/2+z
loop_
_atom_site_type_symbol
_atom_site_label
_atom_site_fract_x
_atom_site_fract_y
_atom_site_fract_z
Si Si1 0.608725 0.293189 0.195439
Si Si2 0.239585 0.370656 0.943210
Si Si3 0.785765 0.455968 0.776479
O O1 0.556666 0.232568 0.018219
O O2 0.361085 0.349125 0.200908
O O3 0.978094 0.185612 0.493780
O O4 0.593397 0.397517 0.700554
O O5 0.004859 0.427157 0.931626
O O6 0.000000 0.500000 0.500000
O O7 0.500000 0.500000 0.000000
#
# Coordination Sequence:
#
# PCOD9250424 Si02
#       3
#     4   4   4
#     4  11  24  44  69 104 143 186 238 297 356 428
#     4  10  24  42  70 104 138 190 236 290 360 426
#     4  11  24  44  69 104 143 186 238 297 356 428
#
# _framework density 28.527193
#
# number of rings (size 3 to 8) (size 9 to 14) (size 15 to 20)
#    0.000    1.333    0.000    4.000    0.000   10.667 
#    0.000    0.000    0.000    0.000    0.000    0.000 
#    0.000    0.000    0.000    0.000    0.000    0.000 
#
# Total GULP energy -67052.368929 kJ/mol
# GULP energy per Si atom -5587.697411 kJ/mol
# Density = 2.846226 g / cm^3
# Si number density = 28.527193 Si / 1000 Ang^3
#
#
#
# Elastic Constant Matrix: (Units=GPa)
#
#
# Indices 1 2 3 4 5 6 
#
# 1 251.2846 66.3848 39.4218 0.0000 -27.6987 0.0000
# 2 66.3848 96.4963 28.2927 0.0000 0.5856 0.0000
# 3 39.4218 28.2927 105.8648 0.0000 -38.2354 0.0000
# 4 0.0000 0.0000 0.0000 22.7783 0.0000 10.3914
# 5 -27.6987 0.5856 -38.2354 0.0000 36.3692 0.0000
# 6 0.0000 0.0000 0.0000 10.3914 0.0000 109.5578
#
#
#
# Elastic Compliance Matrix: (Units=1/GPa)
#
#
# Indices 1 2 3 4 5 6 
#
# 1 0.005487 -0.004081 0.000936 0.000000 0.005229 0.000000
# 2 -0.004081 0.014974 -0.005952 0.000000 -0.009606 0.000000
# 3 0.000936 -0.005952 0.017702 0.000000 0.019418 0.000000
# 4 0.000000 0.000000 0.000000 0.045887 0.000000 -0.004352
# 5 0.005229 -0.009606 0.019418 0.000000 0.052047 0.000000
# 6 0.000000 0.000000 0.000000 -0.004352 0.000000 0.009540
#
#
# Mechanical properties :
#
#
# Convention : Reuss Voigt Hill
#
# Bulk Modulus (GPa) = 50.07807 80.20491 65.14149
# Shear Modulus (GPa) = 29.32762 55.04415 42.18589
#
# Velocity S-wave (km/s) = 3.20981 4.39741 3.84968
# Velocity P-wave (km/s) = 5.59730 7.34570 6.53028
#
# Compressibility (1/GPa) = 0.01996882
#
# Stress axis : x y z
#
# Youngs Moduli (GPa) = 182.24161 66.78249 56.49218
#
# Poissons Ratio (x) = 0.27254 -0.05286
# Poissons Ratio (y) = 0.74374 0.33622
# Poissons Ratio (z) = -0.17053 0.39747
#
# Static dielectric constant tensor:
#      x y z
#    x 2.153850 0.000000 0.002260 
#    y 0.000000 2.656500 0.000000 
#    z 0.002260 0.000000 2.250880 
# 
# From -- ./inp_files/222.got.cif
#   From: 2010.05.17/outbox.cif.g08.bks.cpg/sg14_1_cif.got.tgz:222.got - 2010.06.03 17:49:19.
