data_PCOD9250436
_publ_section_title
;
Structure prediction by ZEFSAII (Michael W. Deem and Ramdas Pophale) SiO2 
 PCOD9250436
Probable space group: P 21/C
;
_chemical_formula_sum "Si O2"
_cell_formula_units_Z 16
_cell_length_a 6.653661
_cell_length_b 7.278055
_cell_length_c 23.653830
_cell_angle_alpha 90.000000
_cell_angle_beta 35.581664
_cell_angle_gamma 90.000000
_cell_volume 666.496716
_symmetry_space_group_name_H-M "P 21/C"
_symmetry_group_IT_number 14
_symmetry_cell_setting 'monoclinic'
loop_
_space_group_symop_operation_xyz
x,y,z
-x,1/2+y,1/2-z
-x,-y,-z
x,1/2-y,1/2+z
loop_
_atom_site_type_symbol
_atom_site_label
_atom_site_fract_x
_atom_site_fract_y
_atom_site_fract_z
Si Si1 0.562978 0.981955 0.651272
Si Si2 0.499511 0.108843 0.781384
Si Si3 0.692610 0.598063 0.904105
Si Si4 0.726663 0.343481 0.574216
O O1 0.674424 0.784292 0.648757
O O2 0.353215 0.060581 0.753277
O O3 0.343139 0.971564 0.644354
O O4 0.838538 0.141796 0.571721
O O5 0.907002 0.140185 0.678474
O O6 0.481492 0.936080 0.827046
O O7 0.500370 0.784617 0.927705
O O8 0.500000 0.500000 0.000000
O O9 0.000000 0.500000 0.500000
#
# Coordination Sequence:
#
# PCOD9250436 Si02
#       4
#     4   4   4   4
#     4  10  24  42  71 100 141 186 240 303 363 436
#     4  12  22  46  73 100 144 195 243 299 375 436
#     4  10  25  45  71 106 145 188 245 305 368 444
#     4  10  25  44  69 106 144 189 243 302 373 436
#
# _framework density 24.006121
#
# number of rings (size 3 to 8) (size 9 to 14) (size 15 to 20)
#    1.500    0.000    2.500    1.500    3.500    4.000 
#    0.000    2.500    0.000    0.000    0.000    0.000 
#    0.000    0.000    0.000    0.000    0.000    0.000 
#
# Total GULP energy -89212.160564 kJ/mol
# GULP energy per Si atom -5575.760035 kJ/mol
# Density = 2.395148 g / cm^3
# Si number density = 24.006121 Si / 1000 Ang^3
#
#
#
# Elastic Constant Matrix: (Units=GPa)
#
#
# Indices 1 2 3 4 5 6 
#
# 1 99.6392 22.3065 64.1801 0.0000 38.4205 0.0000
# 2 22.3065 177.4244 60.5833 0.0000 17.9705 0.0000
# 3 64.1801 60.5833 115.6823 0.0000 13.9444 0.0000
# 4 0.0000 0.0000 0.0000 61.4389 0.0000 13.3115
# 5 38.4205 17.9705 13.9444 0.0000 41.8818 0.0000
# 6 0.0000 0.0000 0.0000 13.3115 0.0000 41.6324
#
#
#
# Elastic Compliance Matrix: (Units=1/GPa)
#
#
# Indices 1 2 3 4 5 6 
#
# 1 0.026340 0.003586 -0.013953 0.000000 -0.021056 0.000000
# 2 0.003586 0.007488 -0.005341 0.000000 -0.004724 0.000000
# 3 -0.013953 -0.005341 0.018090 0.000000 0.009069 0.000000
# 4 0.000000 0.000000 0.000000 0.017488 0.000000 -0.005592
# 5 -0.021056 -0.004724 0.009069 0.000000 0.042200 0.000000
# 6 0.000000 0.000000 0.000000 -0.005592 0.000000 0.025808
#
#
# Mechanical properties :
#
#
# Convention : Reuss Voigt Hill
#
# Bulk Modulus (GPa) = 48.78061 76.32063 62.55062
# Shear Modulus (GPa) = 28.46344 45.36902 36.91623
#
# Velocity S-wave (km/s) = 3.44710 4.35201 3.92571
# Velocity P-wave (km/s) = 6.01727 7.55741 6.83088
#
# Compressibility (1/GPa) = 0.02049995
#
# Stress axis : x y z
#
# Youngs Moduli (GPa) = 37.96462 133.55337 55.28058
#
# Poissons Ratio (x) = -0.47886 0.77134
# Poissons Ratio (y) = -0.13612 0.29526
# Poissons Ratio (z) = 0.52973 0.71333
#
# Static dielectric constant tensor:
#      x y z
#    x 1.967650 0.000000 0.007690 
#    y 0.000000 1.945330 0.000000 
#    z 0.007690 0.000000 2.005730 
# 
# From -- ./inp_files/76139.got.cif
#   From: 2010.05.17/outbox.cif.g08.bks.cpg/sg14_39_cif.got.tgz:76139.got - 2010.06.03 17:49:19.
