data_PCOD9250972
_publ_section_title
;
Structure prediction by ZEFSAII (Michael W. Deem and Ramdas Pophale) SiO2 
 PCOD9250972
Probable space group: P 21/C
;
_chemical_formula_sum "Si O2"
_cell_formula_units_Z 28
_cell_length_a 28.629777
_cell_length_b 7.447870
_cell_length_c 9.039853
_cell_angle_alpha 90.000000
_cell_angle_beta 37.908509
_cell_angle_gamma 90.000000
_cell_volume 1184.307039
_symmetry_space_group_name_H-M "P 21/C"
_symmetry_group_IT_number 14
_symmetry_cell_setting 'monoclinic'
loop_
_space_group_symop_operation_xyz
x,y,z
-x,1/2+y,1/2-z
-x,-y,-z
x,1/2-y,1/2+z
loop_
_atom_site_type_symbol
_atom_site_label
_atom_site_fract_x
_atom_site_fract_y
_atom_site_fract_z
Si Si1 0.563909 0.359963 0.186062
Si Si2 0.942367 0.640330 0.836134
Si Si3 0.255678 0.587560 0.027788
Si Si4 0.131110 0.079166 0.181829
Si Si5 0.286868 0.964812 0.796048
Si Si6 0.593016 0.487700 0.446732
Si Si7 0.900053 0.162535 0.223623
O O1 0.572341 0.397748 0.339012
O O2 0.476766 0.379325 0.354414
O O3 0.590243 0.160558 0.081163
O O4 0.622430 0.492186 0.951478
O O5 0.890237 0.798657 0.902099
O O6 0.915605 0.453163 0.830799
O O7 0.027570 0.661669 0.564852
O O8 0.928998 0.636220 0.042678
O O9 0.278570 0.789424 0.919436
O O10 0.319416 0.458703 0.794692
O O11 0.262690 0.573848 0.185851
O O12 0.171287 0.569057 0.178116
O O13 0.118756 0.867279 0.191034
O O14 0.219093 0.097830 0.014194
#
# Coordination Sequence:
#
# PCOD9250972 Si02
#       7
#     4   4   4   4   4   4   4
#     4   9  18  36  57  86 118 154 200 245 303 362
#     4  11  27  43  65  98 123 168 218 263 320 380
#     4   9  19  35  63  84 116 162 205 248 307 379
#     4  11  26  43  67  92 132 165 211 269 312 383
#     4   9  20  37  61  88 120 161 204 257 307 375
#     4   9  18  35  57  84 118 152 198 245 300 365
#     4  10  25  43  68  90 127 169 212 263 321 372
#
# _framework density 23.642517999999999
#
# number of rings (size 3 to 8) (size 9 to 14) (size 15 to 20)
#    0.000    2.286    0.000    0.429   14.000    0.571 
#    2.571    1.429    0.000    0.000    0.000    0.000 
#    0.000    0.000    0.000    0.000    0.000    0.000 
#
# Total GULP energy -156486.417441 kJ/mol
# GULP energy per Si atom -5588.800623 kJ/mol
# Density = 2.358871 g / cm^3
# Si number density = 23.642518 Si / 1000 Ang^3
#
#
#
# Elastic Constant Matrix: (Units=GPa)
#
#
# Indices 1 2 3 4 5 6 
#
# 1 44.5717 18.7179 14.3354 0.0000 -28.7304 0.0000
# 2 18.7179 57.8766 16.1273 0.0000 -8.1610 0.0000
# 3 14.3354 16.1273 89.1315 0.0000 -8.0951 0.0000
# 4 0.0000 0.0000 0.0000 22.2980 0.0000 -8.4922
# 5 -28.7304 -8.1610 -8.0951 0.0000 32.5252 0.0000
# 6 0.0000 0.0000 0.0000 -8.4922 0.0000 30.5981
#
#
#
# Elastic Compliance Matrix: (Units=1/GPa)
#
#
# Indices 1 2 3 4 5 6 
#
# 1 0.060235 -0.011639 -0.003085 0.000000 0.049519 0.000000
# 2 -0.011639 0.020924 -0.002426 0.000000 -0.005634 0.000000
# 3 -0.003085 -0.002426 0.012126 0.000000 -0.000315 0.000000
# 4 0.000000 0.000000 0.000000 0.050148 0.000000 0.013918
# 5 0.049519 -0.005634 -0.000315 0.000000 0.072995 0.000000
# 6 0.000000 0.000000 0.000000 0.013918 0.000000 0.036545
#
#
# Mechanical properties :
#
#
# Convention : Reuss Voigt Hill
#
# Bulk Modulus (GPa) = 16.95299 32.21568 24.58434
# Shear Modulus (GPa) = 16.29025 26.57754 21.43389
#
# Velocity S-wave (km/s) = 2.62777 3.35646 3.01422
# Velocity P-wave (km/s) = 4.04883 5.35508 4.74710
#
# Compressibility (1/GPa) = 0.05898666
#
# Stress axis : x y z
#
# Youngs Moduli (GPa) = 16.60161 47.79287 82.46917
#
# Poissons Ratio (x) = 0.55624 0.25438
# Poissons Ratio (y) = 0.19322 0.20005
# Poissons Ratio (z) = 0.05121 0.11593
#
# Static dielectric constant tensor:
#      x y z
#    x 1.891130 0.000000 -0.084160 
#    y 0.000000 1.902110 0.000000 
#    z -0.084160 0.000000 1.929040 
# 
# From -- ./inp_files/19942.got.cif
#   From: 2010.05.17/outbox.cif.g08.bks.cpg/sg14_10_cif.got.tgz:19942.got - 2010.06.03 17:49:19.
