data_PCOD9250849
_publ_section_title
;
Structure prediction by ZEFSAII (Michael W. Deem and Ramdas Pophale) SiO2 
 PCOD9250849
Probable space group: P 21/C
;
_chemical_formula_sum "Si O2"
_cell_formula_units_Z 16
_cell_length_a 23.877478
_cell_length_b 5.949817
_cell_length_c 13.210785
_cell_angle_alpha 90.000000
_cell_angle_beta 22.194387
_cell_angle_gamma 90.000000
_cell_volume 708.965748
_symmetry_space_group_name_H-M "P 21/C"
_symmetry_group_IT_number 14
_symmetry_cell_setting 'monoclinic'
loop_
_space_group_symop_operation_xyz
x,y,z
-x,1/2+y,1/2-z
-x,-y,-z
x,1/2-y,1/2+z
loop_
_atom_site_type_symbol
_atom_site_label
_atom_site_fract_x
_atom_site_fract_y
_atom_site_fract_z
Si Si1 0.681673 0.057573 0.802026
Si Si2 0.849803 0.606161 0.209503
Si Si3 0.397836 0.195481 0.712238
Si Si4 0.974647 0.170721 0.242241
O O1 0.795532 0.178095 0.533577
O O2 0.759705 0.048283 0.780118
O O3 0.664921 0.811648 0.783203
O O4 0.516898 0.153639 0.074351
O O5 0.738764 0.652082 0.485979
O O6 0.000000 0.500000 0.000000
O O7 0.915252 0.817649 0.037305
O O8 0.500000 0.000000 0.500000
O O9 0.003255 0.419032 0.246549
#
# Coordination Sequence:
#
# PCOD9250849 Si02
#       4
#     4   4   4   4
#     4  10  26  46  72 107 148 195 249 319 372 461
#     4  11  26  45  78 112 145 204 247 319 381 454
#     4  11  26  48  73 106 151 197 255 309 386 451
#     4  10  24  47  75 111 151 194 249 313 374 447
#
# _framework density 22.568086000000001
#
# number of rings (size 3 to 8) (size 9 to 14) (size 15 to 20)
#    0.000    1.500    0.000    1.500   24.500    1.000 
#   13.500    0.000    0.000    0.000    0.000    0.000 
#    0.000    0.000    0.000    0.000    0.000    0.000 
#
# Total GULP energy -89170.509171 kJ/mol
# GULP energy per Si atom -5573.156823 kJ/mol
# Density = 2.251672 g / cm^3
# Si number density = 22.568086 Si / 1000 Ang^3
#
#
#
# Elastic Constant Matrix: (Units=GPa)
#
#
# Indices 1 2 3 4 5 6 
#
# 1 114.0498 37.6433 49.9984 0.0000 -19.8675 0.0000
# 2 37.6433 102.4196 57.9966 0.0000 12.6459 0.0000
# 3 49.9984 57.9966 210.5698 0.0000 9.5784 0.0000
# 4 0.0000 0.0000 0.0000 49.6854 0.0000 -9.2834
# 5 -19.8675 12.6459 9.5784 0.0000 41.0044 0.0000
# 6 0.0000 0.0000 0.0000 -9.2834 0.0000 9.9244
#
#
#
# Elastic Compliance Matrix: (Units=1/GPa)
#
#
# Indices 1 2 3 4 5 6 
#
# 1 0.012524 -0.004375 -0.002129 0.000000 0.007915 0.000000
# 2 -0.004375 0.013436 -0.002403 0.000000 -0.005702 0.000000
# 3 -0.002129 -0.002403 0.005993 0.000000 -0.001690 0.000000
# 4 0.000000 0.000000 0.000000 0.024389 0.000000 0.022814
# 5 0.007915 -0.005702 -0.001690 0.000000 0.030376 0.000000
# 6 0.000000 0.000000 0.000000 0.022814 0.000000 0.122103
#
#
# Mechanical properties :
#
#
# Convention : Reuss Voigt Hill
#
# Bulk Modulus (GPa) = 70.71647 79.81287 75.26467
# Shear Modulus (GPa) = 21.61251 38.88289 30.24770
#
# Velocity S-wave (km/s) = 3.09796 4.15530 3.66496
# Velocity P-wave (km/s) = 6.64825 7.64619 7.16462
#
# Compressibility (1/GPa) = 0.01414098
#
# Stress axis : x y z
#
# Youngs Moduli (GPa) = 79.84624 74.42571 166.85814
#
# Poissons Ratio (x) = 0.32560 0.35521
# Poissons Ratio (y) = 0.34932 0.40088
# Poissons Ratio (z) = 0.16998 0.17881
#
# Static dielectric constant tensor:
#      x y z
#    x 1.914990 0.000000 0.012080 
#    y 0.000000 1.936000 0.000000 
#    z 0.012080 0.000000 1.869770 
# 
# From -- ./inp_files/51615.got.cif
#   From: 2010.05.17/outbox.cif.g08.bks.cpg/sg14_26_cif.got.tgz:51615.got - 2010.06.03 17:49:19.
