data_PCOD9250582
_publ_section_title
;
Structure prediction by ZEFSAII (Michael W. Deem and Ramdas Pophale) SiO2 
 PCOD9250582
Probable space group: P 21/C
;
_chemical_formula_sum "Si O2"
_cell_formula_units_Z 32
_cell_length_a 14.259182
_cell_length_b 8.890684
_cell_length_c 22.955578
_cell_angle_alpha 90.000000
_cell_angle_beta 148.822277
_cell_angle_gamma 90.000000
_cell_volume 1506.577527
_symmetry_space_group_name_H-M "P 21/C"
_symmetry_group_IT_number 14
_symmetry_cell_setting 'monoclinic'
loop_
_space_group_symop_operation_xyz
x,y,z
-x,1/2+y,1/2-z
-x,-y,-z
x,1/2-y,1/2+z
loop_
_atom_site_type_symbol
_atom_site_label
_atom_site_fract_x
_atom_site_fract_y
_atom_site_fract_z
Si Si1 0.793570 0.140095 0.989504
Si Si2 0.929130 0.269487 0.791505
Si Si3 0.617054 0.648223 0.074637
Si Si4 0.968847 0.447206 0.702004
Si Si5 0.580797 0.854667 0.165257
Si Si6 0.074445 0.352477 0.072969
Si Si7 0.224148 0.285947 0.538963
Si Si8 0.532357 0.301990 0.616368
O O1 0.860390 0.135948 0.092632
O O2 0.913864 0.250846 0.014472
O O3 0.581289 0.180394 0.875742
O O4 0.813972 0.965004 0.982895
O O5 0.896250 0.400665 0.726832
O O6 0.735699 0.238417 0.719008
O O7 0.008668 0.123801 0.799928
O O8 0.078228 0.298834 0.920054
O O9 0.570146 0.731201 0.109402
O O10 0.826196 0.609427 0.189370
O O11 0.500000 0.500000 0.000000
O O12 0.577599 0.750797 0.998261
O O13 0.778950 0.875470 0.298126
O O14 0.534987 0.018585 0.116388
O O15 0.189347 0.265987 0.085157
O O16 0.000000 0.500000 0.000000
O O17 0.420489 0.257922 0.614689
#
# Coordination Sequence:
#
# PCOD9250582 Si02
#       8
#     4   4   4   4   4   4   4   4
#     4  10  24  46  67  95 132 179 225 273 349 402
#     4  11  23  39  66 100 136 175 222 273 341 404
#     4  12  23  42  66 103 137 173 226 276 339 409
#     4  11  23  40  66 101 136 177 220 280 339 409
#     4  11  26  45  69  98 138 180 221 284 343 408
#     4  12  26  46  70 101 131 173 234 288 338 398
#     4  10  24  44  67  91 129 178 224 271 335 406
#     4  11  23  43  67  98 137 176 220 274 345 408
#
# _framework density 21.240195
#
# number of rings (size 3 to 8) (size 9 to 14) (size 15 to 20)
#    0.000    1.000    3.750    2.250    1.750    5.000 
#    0.000    1.250    0.000    0.000    0.000    0.000 
#    0.000    0.000    0.000    0.000    0.000    0.000 
#
# Total GULP energy -178893.900211 kJ/mol
# GULP energy per Si atom -5590.434382 kJ/mol
# Density = 2.119185 g / cm^3
# Si number density = 21.240195 Si / 1000 Ang^3
#
#
#
# Elastic Constant Matrix: (Units=GPa)
#
#
# Indices 1 2 3 4 5 6 
#
# 1 93.8590 48.1684 21.0424 0.0000 16.8803 0.0000
# 2 48.1684 66.5168 21.3865 0.0000 -2.3131 0.0000
# 3 21.0424 21.3865 -9.1724 0.0000 33.4987 0.0000
# 4 0.0000 0.0000 0.0000 28.4964 0.0000 -3.7296
# 5 16.8803 -2.3131 33.4987 0.0000 36.1769 0.0000
# 6 0.0000 0.0000 0.0000 -3.7296 0.0000 33.5640
#
#
#
# Elastic Compliance Matrix: (Units=1/GPa)
#
#
# Indices 1 2 3 4 5 6 
#
# 1 0.019073 -0.012474 -0.004734 0.000000 -0.005313 0.000000
# 2 -0.012474 0.020636 0.010401 0.000000 -0.002491 0.000000
# 3 -0.004734 0.010401 -0.019430 0.000000 0.020865 0.000000
# 4 0.000000 0.000000 0.000000 0.035610 0.000000 0.003957
# 5 -0.005313 -0.002491 0.020865 0.000000 0.010641 0.000000
# 6 0.000000 0.000000 0.000000 0.003957 0.000000 0.030233
#
#
# Mechanical properties :
#
#
# Convention : Reuss Voigt Hill
#
# Bulk Modulus (GPa) = 150.05368 36.93311 93.49340
# Shear Modulus (GPa) = 44.40424 23.68786 34.04605
#
# Velocity S-wave (km/s) = 4.57724 3.34314 4.00798
# Velocity P-wave (km/s) = 9.93651 5.68579 8.09514
#
# Compressibility (1/GPa) = 0.00666428
#
# Stress axis : x y z
#
# Youngs Moduli (GPa) = 52.42956 48.45787 -51.46764
#
# Poissons Ratio (x) = 0.60449 -0.24367
# Poissons Ratio (y) = 0.65403 0.53532
# Poissons Ratio (z) = 0.24823 -0.50402
#
# Static dielectric constant tensor:
#      x y z
#    x 1.789700 0.000000 -0.002310 
#    y 0.000000 0.969730 0.000000 
#    z -0.002310 0.000000 1.791140 
# 
# From -- ./inp_files/73882.got.cif
#   From: 2010.05.17/outbox.cif.g08.bks.cpg/sg14_37_cif.got.tgz:73882.got - 2010.06.03 17:49:19.
