data_PCOD9250469
_publ_section_title
;
Structure prediction by ZEFSAII (Michael W. Deem and Ramdas Pophale) SiO2 
 PCOD9250469
Probable space group: P 21/C
;
_chemical_formula_sum "Si O2"
_cell_formula_units_Z 26
_cell_length_a 20.522065
_cell_length_b 12.427984
_cell_length_c 14.091643
_cell_angle_alpha 90.000000
_cell_angle_beta 159.711579
_cell_angle_gamma 90.000000
_cell_volume 1246.220720
_symmetry_space_group_name_H-M "P 21/C"
_symmetry_group_IT_number 14
_symmetry_cell_setting 'monoclinic'
loop_
_space_group_symop_operation_xyz
x,y,z
-x,1/2+y,1/2-z
-x,-y,-z
x,1/2-y,1/2+z
loop_
_atom_site_type_symbol
_atom_site_label
_atom_site_fract_x
_atom_site_fract_y
_atom_site_fract_z
Si Si1 0.720048 0.768470 0.936520
Si Si2 0.373863 0.375134 0.500193
Si Si3 0.626125 0.375127 0.499790
Si Si4 0.863606 0.301400 0.431946
Si Si5 0.863616 0.698605 0.431959
Si Si6 0.279968 0.768466 0.063501
Si Si7 0.000000 0.500000 0.500000
O O1 0.575549 0.668941 0.741594
O O2 0.743858 0.815882 0.864352
O O3 0.646104 0.850859 0.914940
O O4 0.924185 0.726347 0.246782
O O5 0.348698 0.500004 0.445254
O O6 0.222687 0.299795 0.241560
O O7 0.575540 0.331065 0.741585
O O8 0.777305 0.299785 0.758423
O O9 0.646079 0.350856 0.414905
O O10 0.743841 0.315877 0.364330
O O11 0.874919 0.405241 0.381880
O O12 0.874927 0.594772 0.381880
O O13 0.075828 0.726348 0.753233
#
# Coordination Sequence:
#
# PCOD9250469 Si02
#       7
#     4   4   4   4   4   4   2
#     4  10  24  43  65 100 130 176 222 267 339 390
#     4  11  24  45  69 100 136 171 226 278 326 401
#     4  11  24  45  69 100 136 171 226 278 326 401
#     4  11  24  44  66  97 134 177 220 272 335 390
#     4  11  24  44  66  97 134 177 220 272 335 390
#     4  10  24  43  65 100 130 176 222 267 339 390
#     4  12  24  44  68  92 140 178 216 282 322 406
#
# _framework density 20.863077000000001
#
# number of rings (size 3 to 8) (size 9 to 14) (size 15 to 20)
#    0.000    1.231    3.077    0.923    4.308    4.923 
#    5.538    1.538    0.000    0.000    0.000    0.000 
#    0.000    0.000    0.000    0.000    0.000    0.000 
#
# Total GULP energy -144861.461444 kJ/mol
# GULP energy per Si atom -5571.594671 kJ/mol
# Density = 2.081559 g / cm^3
# Si number density = 20.863077 Si / 1000 Ang^3
#
#
#
# Elastic Constant Matrix: (Units=GPa)
#
#
# Indices 1 2 3 4 5 6 
#
# 1 180.7661 63.0434 49.2370 0.0000 16.6478 0.0000
# 2 63.0434 205.4161 87.6711 0.0000 0.4340 0.0000
# 3 49.2370 87.6711 89.6213 0.0000 10.3698 0.0000
# 4 0.0000 0.0000 0.0000 20.2513 0.0000 15.4828
# 5 16.6478 0.4340 10.3698 0.0000 30.6851 0.0000
# 6 0.0000 0.0000 0.0000 15.4828 0.0000 9.7536
#
#
#
# Elastic Compliance Matrix: (Units=1/GPa)
#
#
# Indices 1 2 3 4 5 6 
#
# 1 0.006816 -0.001082 -0.002352 0.000000 -0.002888 0.000000
# 2 -0.001082 0.008759 -0.008354 0.000000 0.003286 0.000000
# 3 -0.002352 -0.008354 0.021294 0.000000 -0.005802 0.000000
# 4 0.000000 0.000000 0.000000 -0.231157 0.000000 0.366938
# 5 -0.002888 0.003286 -0.005802 0.000000 0.036070 0.000000
# 6 0.000000 0.000000 0.000000 0.366938 0.000000 -0.479949
#
#
# Mechanical properties :
#
#
# Convention : Reuss Voigt Hill
#
# Bulk Modulus (GPa) = 75.23069 97.30071 86.26570
# Shear Modulus (GPa) = -8.19456 30.52814 11.16679
#
# Velocity S-wave (km/s) = -1.98401 3.82941 2.31604
# Velocity P-wave (km/s) = 5.55780 8.14196 6.97068
#
# Compressibility (1/GPa) = 0.01329245
#
# Stress axis : x y z
#
# Youngs Moduli (GPa) = 146.71491 114.17198 46.96197
#
# Poissons Ratio (x) = 0.12352 0.11046
# Poissons Ratio (y) = 0.15872 0.39232
# Poissons Ratio (z) = 0.34510 0.95379
#
# Static dielectric constant tensor:
#      x y z
#    x 1.792840 0.000000 -0.018420 
#    y 0.000000 1.670730 0.000000 
#    z -0.018420 0.000000 1.776090 
# 
# From -- ./inp_files/50509.got.cif
#   From: 2010.05.17/outbox.cif.g08.bks.cpg/sg14_26_cif.got.tgz:50509.got - 2010.06.03 17:49:19.
