data_PCOD9250604
_publ_section_title
;
Structure prediction by ZEFSAII (Michael W. Deem and Ramdas Pophale) SiO2 
 PCOD9250604
Probable space group: P 21/C
;
_chemical_formula_sum "Si O2"
_cell_formula_units_Z 28
_cell_length_a 7.767349
_cell_length_b 9.680000
_cell_length_c 18.278952
_cell_angle_alpha 90.000000
_cell_angle_beta 59.630873
_cell_angle_gamma 90.000000
_cell_volume 1185.776026
_symmetry_space_group_name_H-M "P 21/C"
_symmetry_group_IT_number 14
_symmetry_cell_setting 'monoclinic'
loop_
_space_group_symop_operation_xyz
x,y,z
-x,1/2+y,1/2-z
-x,-y,-z
x,1/2-y,1/2+z
loop_
_atom_site_type_symbol
_atom_site_label
_atom_site_fract_x
_atom_site_fract_y
_atom_site_fract_z
Si Si1 0.340824 0.384881 0.620223
Si Si2 0.691006 0.321886 0.372467
Si Si3 0.562179 0.036818 0.222099
Si Si4 0.406854 0.643415 0.993107
Si Si5 0.681534 0.747520 0.141124
Si Si6 0.927089 0.231692 0.191233
Si Si7 0.049520 0.842744 0.474216
O O1 0.310059 0.532017 0.587105
O O2 0.485075 0.423167 0.657218
O O3 0.430532 0.262297 0.553338
O O4 0.119900 0.334253 0.687603
O O5 0.748532 0.196095 0.412006
O O6 0.474717 0.276364 0.390118
O O7 0.826892 0.332783 0.271592
O O8 0.384955 0.100537 0.310150
O O9 0.757706 0.120061 0.206108
O O10 0.625898 0.875160 0.207671
O O11 0.500000 0.500000 0.000000
O O12 0.281503 0.657170 0.945957
O O13 0.900230 0.745336 0.058440
O O14 0.982143 0.301830 0.102792
O O15 0.000000 0.000000 0.500000
#
# Coordination Sequence:
#
# PCOD9250604 Si02
#       7
#     4   4   4   4   4   4   4
#     4  11  24  44  72 100 149 181 242 291 361 424
#     4  10  25  46  70 105 143 190 239 296 360 432
#     4  10  24  44  69 106 142 192 236 298 353 429
#     4  12  26  47  71 107 143 192 240 299 359 430
#     4  10  24  44  72 100 148 184 241 295 362 420
#     4  11  25  45  72 107 144 186 245 299 360 429
#     4  12  27  44  74 105 147 186 244 296 367 426
#
# _framework density 23.613230000000001
#
# number of rings (size 3 to 8) (size 9 to 14) (size 15 to 20)
#    0.000    1.143    1.429    3.000   10.000    5.143 
#    0.000    0.000    0.000    0.000    0.000    0.000 
#    0.000    0.000    0.000    0.000    0.000    0.000 
#
# Total GULP energy -156342.696733 kJ/mol
# GULP energy per Si atom -5583.667740 kJ/mol
# Density = 2.355949 g / cm^3
# Si number density = 23.613230 Si / 1000 Ang^3
#
#
#
# Elastic Constant Matrix: (Units=GPa)
#
#
# Indices 1 2 3 4 5 6 
#
# 1 64.5689 18.0191 16.2752 0.0000 -7.2017 0.0000
# 2 18.0191 142.8684 59.8400 0.0000 -2.8460 0.0000
# 3 16.2752 59.8400 108.1157 0.0000 -8.0435 0.0000
# 4 0.0000 0.0000 0.0000 34.3433 0.0000 5.5382
# 5 -7.2017 -2.8460 -8.0435 0.0000 20.6225 0.0000
# 6 0.0000 0.0000 0.0000 5.5382 0.0000 24.1358
#
#
#
# Elastic Compliance Matrix: (Units=1/GPa)
#
#
# Indices 1 2 3 4 5 6 
#
# 1 0.016805 -0.001455 -0.001342 0.000000 0.005145 0.000000
# 2 -0.001455 0.009248 -0.004987 0.000000 -0.001177 0.000000
# 3 -0.001342 -0.004987 0.012488 0.000000 0.003714 0.000000
# 4 0.000000 0.000000 0.000000 0.030237 0.000000 -0.006938
# 5 0.005145 -0.001177 0.003714 0.000000 0.051574 0.000000
# 6 0.000000 0.000000 0.000000 -0.006938 0.000000 0.043024
#
#
# Mechanical properties :
#
#
# Convention : Reuss Voigt Hill
#
# Bulk Modulus (GPa) = 43.52830 55.98018 49.75424
# Shear Modulus (GPa) = 26.79493 30.58156 28.68825
#
# Velocity S-wave (km/s) = 3.37225 3.60266 3.48936
# Velocity P-wave (km/s) = 5.79971 6.40813 6.11149
#
# Compressibility (1/GPa) = 0.02297356
#
# Stress axis : x y z
#
# Youngs Moduli (GPa) = 59.50469 108.12592 80.07656
#
# Poissons Ratio (x) = 0.15734 0.10744
# Poissons Ratio (y) = 0.08659 0.39937
# Poissons Ratio (z) = 0.07984 0.53926
#
# Static dielectric constant tensor:
#      x y z
#    x 1.912150 0.000000 0.019520 
#    y 0.000000 1.877800 0.000000 
#    z 0.019520 0.000000 1.980920 
# 
# From -- ./inp_files/64968.got.cif
#   From: 2010.05.17/outbox.cif.g08.bks.cpg/sg14_33_cif.got.tgz:64968.got - 2010.06.03 17:49:19.
