data_PCOD9250692
_publ_section_title
;
Structure prediction by ZEFSAII (Michael W. Deem and Ramdas Pophale) SiO2 
 PCOD9250692
Probable space group: P 21/C
;
_chemical_formula_sum "Si O2"
_cell_formula_units_Z 28
_cell_length_a 7.733970
_cell_length_b 11.721260
_cell_length_c 23.119535
_cell_angle_alpha 90.000000
_cell_angle_beta 34.801226
_cell_angle_gamma 90.000000
_cell_volume 1196.154959
_symmetry_space_group_name_H-M "P 21/C"
_symmetry_group_IT_number 14
_symmetry_cell_setting 'monoclinic'
loop_
_space_group_symop_operation_xyz
x,y,z
-x,1/2+y,1/2-z
-x,-y,-z
x,1/2-y,1/2+z
loop_
_atom_site_type_symbol
_atom_site_label
_atom_site_fract_x
_atom_site_fract_y
_atom_site_fract_z
Si Si1 0.607381 0.196227 0.793842
Si Si2 0.564802 0.196722 0.019674
Si Si3 0.145294 0.185093 0.558676
Si Si4 0.275806 0.037699 0.196815
Si Si5 0.318911 0.860259 0.409213
Si Si6 0.192045 0.254816 0.804492
Si Si7 0.394866 0.925381 0.637224
O O1 0.350192 0.246325 0.823163
O O2 0.681472 0.300539 0.815929
O O3 0.887141 0.158851 0.675927
O O4 0.537088 0.077208 0.843442
O O5 0.300940 0.205629 0.044598
O O6 0.454810 0.106936 0.097907
O O7 0.631324 0.310720 0.040336
O O8 0.873381 0.191380 0.898998
O O9 0.427235 0.100659 0.471100
O O10 0.973122 0.189096 0.544444
O O11 0.218263 0.119269 0.268922
O O12 0.927061 0.011792 0.275611
O O13 0.599716 0.815667 0.295570
O O14 0.362711 0.996114 0.395814
#
# Coordination Sequence:
#
# PCOD9250692 Si02
#       7
#     4   4   4   4   4   4   4
#     4  11  26  44  66 103 140 183 231 292 351 414
#     4  11  22  46  71 102 137 186 231 288 347 417
#     4  11  23  43  72 101 133 186 227 279 358 405
#     4  11  25  43  70 102 140 183 239 289 346 421
#     4  10  25  42  67 107 139 177 239 287 339 418
#     4  10  24  45  70  98 141 185 232 287 356 407
#     4  12  24  43  70 102 143 176 237 295 336 420
#
# _framework density 23.408338000000001
#
# number of rings (size 3 to 8) (size 9 to 14) (size 15 to 20)
#    0.000    1.143    2.857    2.143    8.000    1.714 
#    2.571    1.429    0.000    0.000    0.000    0.000 
#    0.000    0.000    0.000    0.000    0.000    0.000 
#
# Total GULP energy -156237.359371 kJ/mol
# GULP energy per Si atom -5579.905692 kJ/mol
# Density = 2.335506 g / cm^3
# Si number density = 23.408338 Si / 1000 Ang^3
#
#
#
# Elastic Constant Matrix: (Units=GPa)
#
#
# Indices 1 2 3 4 5 6 
#
# 1 109.5187 43.3332 22.3122 0.0000 -0.6908 0.0000
# 2 43.3332 60.2291 -9.8669 0.0000 1.5228 0.0000
# 3 22.3122 -9.8669 82.1383 0.0000 -1.5185 0.0000
# 4 0.0000 0.0000 0.0000 11.0844 0.0000 -5.4443
# 5 -0.6908 1.5228 -1.5185 0.0000 21.6639 0.0000
# 6 0.0000 0.0000 0.0000 -5.4443 0.0000 23.9726
#
#
#
# Elastic Compliance Matrix: (Units=1/GPa)
#
#
# Indices 1 2 3 4 5 6 
#
# 1 0.014811 -0.011563 -0.005395 0.000000 0.000907 0.000000
# 2 -0.011563 0.025988 0.006230 0.000000 -0.001759 0.000000
# 3 -0.005395 0.006230 0.014396 0.000000 0.000399 0.000000
# 4 0.000000 0.000000 0.000000 0.101544 0.000000 0.023061
# 5 0.000907 -0.001759 0.000399 0.000000 0.046340 0.000000
# 6 0.000000 0.000000 0.000000 0.023061 0.000000 0.046952
#
#
# Mechanical properties :
#
#
# Convention : Reuss Voigt Hill
#
# Bulk Modulus (GPa) = 29.63999 40.38254 35.01127
# Shear Modulus (GPa) = 17.68457 24.41801 21.05129
#
# Velocity S-wave (km/s) = 2.75158 3.23326 3.00210
# Velocity P-wave (km/s) = 4.77332 5.58815 5.19673
#
# Compressibility (1/GPa) = 0.03373820
#
# Stress axis : x y z
#
# Youngs Moduli (GPa) = 67.51798 38.47994 69.46370
#
# Poissons Ratio (x) = 0.44494 0.37479
# Poissons Ratio (y) = 0.78070 -0.43277
# Poissons Ratio (z) = 0.36429 -0.23974
#
# Static dielectric constant tensor:
#      x y z
#    x 1.969690 0.000000 -0.013290 
#    y 0.000000 1.900700 0.000000 
#    z -0.013290 0.000000 1.864610 
# 
# From -- ./inp_files/76646.got.cif
#   From: 2010.05.17/outbox.cif.g08.bks.cpg/sg14_39_cif.got.tgz:76646.got - 2010.06.03 17:49:19.
