data_PCOD9250466
_publ_section_title
;
Structure prediction by ZEFSAII (Michael W. Deem and Ramdas Pophale) SiO2 
 PCOD9250466
Probable space group: P 21/C
;
_chemical_formula_sum "Si O2"
_cell_formula_units_Z 28
_cell_length_a 15.161264
_cell_length_b 11.374597
_cell_length_c 7.850607
_cell_angle_alpha 90.000000
_cell_angle_beta 72.038418
_cell_angle_gamma 90.000000
_cell_volume 1287.880303
_symmetry_space_group_name_H-M "P 21/C"
_symmetry_group_IT_number 14
_symmetry_cell_setting 'monoclinic'
loop_
_space_group_symop_operation_xyz
x,y,z
-x,1/2+y,1/2-z
-x,-y,-z
x,1/2-y,1/2+z
loop_
_atom_site_type_symbol
_atom_site_label
_atom_site_fract_x
_atom_site_fract_y
_atom_site_fract_z
Si Si1 0.043077 0.394072 0.586182
Si Si2 0.483082 0.118054 0.402637
Si Si3 0.806177 0.180179 0.812988
Si Si4 0.260272 0.119218 0.896078
Si Si5 0.367311 0.183866 0.160124
Si Si6 0.690879 0.379907 0.690598
Si Si7 0.945324 0.324111 0.968265
O O1 0.153782 0.396094 0.510411
O O2 0.000000 0.500000 0.500000
O O3 0.002292 0.401461 0.801341
O O4 0.010207 0.267394 0.531484
O O5 0.413967 0.108203 0.282083
O O6 0.441611 0.219671 0.548346
O O7 0.583849 0.150951 0.268742
O O8 0.500000 0.000000 0.500000
O O9 0.750145 0.283978 0.754724
O O10 0.880350 0.240032 0.892949
O O11 0.870549 0.114212 0.637392
O O12 0.732494 0.116419 0.975361
O O13 0.329380 0.119718 0.016372
O O14 0.282218 0.241493 0.789488
O O15 0.289082 0.011499 0.756387
#
# Coordination Sequence:
#
# PCOD9250466 Si02
#       7
#     4   4   4   4   4   4   4
#     4  11  21  38  65  90 127 168 209 260 315 372
#     4  11  22  44  65  95 123 168 209 257 321 375
#     4   9  19  37  58  89 123 159 204 259 312 360
#     4  11  22  41  61  91 123 169 208 257 316 373
#     4  10  24  43  64  89 131 162 213 258 309 384
#     4  11  21  39  63  90 125 160 208 260 315 374
#     4   9  19  37  57  87 124 160 207 258 304 370
#
# _framework density 21.741150999999999
#
# number of rings (size 3 to 8) (size 9 to 14) (size 15 to 20)
#    0.000    1.714    1.429    4.286    0.000    0.571 
#    7.714    9.286    0.000    0.000    0.000    0.000 
#    0.000    0.000    0.000    0.000    0.000    0.000 
#
# Total GULP energy -156346.471040 kJ/mol
# GULP energy per Si atom -5583.802537 kJ/mol
# Density = 2.169167 g / cm^3
# Si number density = 21.741151 Si / 1000 Ang^3
#
#
#
# Elastic Constant Matrix: (Units=GPa)
#
#
# Indices 1 2 3 4 5 6 
#
# 1 92.4084 32.9721 38.3573 0.0000 -28.3525 0.0000
# 2 32.9721 74.0758 17.2738 0.0000 -2.0554 0.0000
# 3 38.3573 17.2738 117.3213 0.0000 -28.1861 0.0000
# 4 0.0000 0.0000 0.0000 27.7261 0.0000 -0.4938
# 5 -28.3525 -2.0554 -28.1861 0.0000 35.2828 0.0000
# 6 0.0000 0.0000 0.0000 -0.4938 0.0000 54.2976
#
#
#
# Elastic Compliance Matrix: (Units=1/GPa)
#
#
# Indices 1 2 3 4 5 6 
#
# 1 0.018032 -0.007258 -0.001791 0.000000 0.012636 0.000000
# 2 -0.007258 0.016931 -0.001589 0.000000 -0.006115 0.000000
# 3 -0.001791 -0.001589 0.011107 0.000000 0.007341 0.000000
# 4 0.000000 0.000000 0.000000 0.036073 0.000000 0.000328
# 5 0.012636 -0.006115 0.007341 0.000000 0.044005 0.000000
# 6 0.000000 0.000000 0.000000 0.000328 0.000000 0.018420
#
#
# Mechanical properties :
#
#
# Convention : Reuss Voigt Hill
#
# Bulk Modulus (GPa) = 40.33274 51.22354 45.77814
# Shear Modulus (GPa) = 28.71786 36.47478 32.59632
#
# Velocity S-wave (km/s) = 3.63836 4.10040 3.87627
# Velocity P-wave (km/s) = 6.02012 6.78450 6.41371
#
# Compressibility (1/GPa) = 0.02479376
#
# Stress axis : x y z
#
# Youngs Moduli (GPa) = 55.45824 59.06279 90.03527
#
# Poissons Ratio (x) = 0.42867 0.16124
# Poissons Ratio (y) = 0.40251 0.14308
# Poissons Ratio (z) = 0.09932 0.09386
#
# Static dielectric constant tensor:
#      x y z
#    x 1.742200 0.000000 0.002390 
#    y 0.000000 1.782490 0.000000 
#    z 0.002390 0.000000 1.845580 
# 
# From -- ./inp_files/15696.got.cif
#   From: 2010.05.17/outbox.cif.g08.bks.cpg/sg14_8_cif.got.tgz:15696.got - 2010.06.03 17:49:19.
