data_PCOD9250560
_publ_section_title
;
Structure prediction by ZEFSAII (Michael W. Deem and Ramdas Pophale) SiO2 
 PCOD9250560
Probable space group: P 21/C
;
_chemical_formula_sum "Si O2"
_cell_formula_units_Z 28
_cell_length_a 8.017146
_cell_length_b 24.118534
_cell_length_c 8.701462
_cell_angle_alpha 90.000000
_cell_angle_beta 135.299410
_cell_angle_gamma 90.000000
_cell_volume 1183.495305
_symmetry_space_group_name_H-M "P 21/C"
_symmetry_group_IT_number 14
_symmetry_cell_setting 'monoclinic'
loop_
_space_group_symop_operation_xyz
x,y,z
-x,1/2+y,1/2-z
-x,-y,-z
x,1/2-y,1/2+z
loop_
_atom_site_type_symbol
_atom_site_label
_atom_site_fract_x
_atom_site_fract_y
_atom_site_fract_z
Si Si1 0.195544 0.919343 0.590773
Si Si2 0.804537 0.731483 0.169638
Si Si3 0.786977 0.308993 0.047971
Si Si4 0.100071 0.849747 0.064118
Si Si5 0.728199 0.552143 0.334991
Si Si6 0.990285 0.484253 0.747406
Si Si7 0.508360 0.794148 0.199016
O O1 0.129289 0.855831 0.513546
O O2 0.473350 0.925940 0.724085
O O3 0.123361 0.939213 0.713276
O O4 0.052029 0.961472 0.387086
O O5 0.638299 0.780551 0.126386
O O6 0.029849 0.765010 0.263002
O O7 0.899442 0.693409 0.370590
O O8 0.691162 0.697955 0.957218
O O9 0.606653 0.267291 0.849099
O O10 0.742168 0.340832 0.178080
O O11 0.305840 0.840603 0.071041
O O12 0.940503 0.903052 0.990049
O O13 0.770212 0.534577 0.184940
O O14 0.801218 0.501513 0.493599
#
# Coordination Sequence:
#
# PCOD9250560 Si02
#       7
#     4   4   4   4   4   4   4
#     4  11  23  43  69  93 132 169 210 269 327 375
#     4  11  23  40  63  90 129 170 210 261 316 379
#     4  11  23  40  63  95 128 166 217 261 319 389
#     4  11  23  40  63  95 128 166 217 261 319 389
#     4  11  23  43  69  93 132 169 210 269 327 375
#     4  10  24  44  66 100 124 164 224 264 316 398
#     4  11  23  40  63  90 129 170 210 261 316 379
#
# _framework density 23.658735
#
# number of rings (size 3 to 8) (size 9 to 14) (size 15 to 20)
#    0.000    1.143    4.286    1.714    0.000    2.286 
#    0.000    1.429    0.000    0.000    0.000    0.000 
#    0.000    0.000    0.000    0.000    0.000    0.000 
#
# Total GULP energy -156076.591776 kJ/mol
# GULP energy per Si atom -5574.163992 kJ/mol
# Density = 2.360489 g / cm^3
# Si number density = 23.658735 Si / 1000 Ang^3
#
#
#
# Elastic Constant Matrix: (Units=GPa)
#
#
# Indices 1 2 3 4 5 6 
#
# 1 38.4879 -10.3396 28.6347 0.0000 -5.1445 0.0000
# 2 -10.3396 45.4782 17.9098 0.0000 -3.6476 0.0000
# 3 28.6347 17.9098 78.0976 0.0000 -8.1267 0.0000
# 4 0.0000 0.0000 0.0000 22.0573 0.0000 1.0724
# 5 -5.1445 -3.6476 -8.1267 0.0000 34.3815 0.0000
# 6 0.0000 0.0000 0.0000 1.0724 0.0000 20.9619
#
#
#
# Elastic Compliance Matrix: (Units=1/GPa)
#
#
# Indices 1 2 3 4 5 6 
#
# 1 0.048008 0.019798 -0.021710 0.000000 0.004152 0.000000
# 2 0.019798 0.032391 -0.014375 0.000000 0.003001 0.000000
# 3 -0.021710 -0.014375 0.024159 0.000000 0.000937 0.000000
# 4 0.000000 0.000000 0.000000 0.045450 0.000000 -0.002325
# 5 0.004152 0.003001 0.000937 0.000000 0.030247 0.000000
# 6 0.000000 0.000000 0.000000 -0.002325 0.000000 0.047825
#
#
# Mechanical properties :
#
#
# Convention : Reuss Voigt Hill
#
# Bulk Modulus (GPa) = 13.89214 26.05260 19.97237
# Shear Modulus (GPa) = 17.56554 23.87070 20.71812
#
# Velocity S-wave (km/s) = 2.72776 3.17986 2.96245
# Velocity P-wave (km/s) = 3.97562 4.95154 4.49017
#
# Compressibility (1/GPa) = 0.07198314
#
# Stress axis : x y z
#
# Youngs Moduli (GPa) = 20.82978 30.87249 41.39301
#
# Poissons Ratio (x) = -0.61120 0.89866
# Poissons Ratio (y) = -0.41238 0.59501
# Poissons Ratio (z) = 0.45222 0.44378
#
# Static dielectric constant tensor:
#      x y z
#    x 1.985100 0.000000 0.006710 
#    y 0.000000 2.001000 0.000000 
#    z 0.006710 0.000000 1.944220 
# 
# From -- ./inp_files/11120.got.cif
#   From: 2010.05.17/outbox.cif.g08.bks.cpg/sg14_6_cif.got.tgz:11120.got - 2010.06.03 17:49:19.
