data_PCOD9250886
_publ_section_title
;
Structure prediction by ZEFSAII (Michael W. Deem and Ramdas Pophale) SiO2 
 PCOD9250886
Probable space group: P 21/C
;
_chemical_formula_sum "Si O2"
_cell_formula_units_Z 26
_cell_length_a 4.983638
_cell_length_b 13.105001
_cell_length_c 17.448721
_cell_angle_alpha 90.000000
_cell_angle_beta 70.030211
_cell_angle_gamma 90.000000
_cell_volume 1071.066019
_symmetry_space_group_name_H-M "P 21/C"
_symmetry_group_IT_number 14
_symmetry_cell_setting 'monoclinic'
loop_
_space_group_symop_operation_xyz
x,y,z
-x,1/2+y,1/2-z
-x,-y,-z
x,1/2-y,1/2+z
loop_
_atom_site_type_symbol
_atom_site_label
_atom_site_fract_x
_atom_site_fract_y
_atom_site_fract_z
Si Si1 0.619420 0.165339 0.811673
Si Si2 0.000000 0.500000 0.000000
Si Si3 0.593500 0.384396 0.890308
Si Si4 0.914957 0.852513 0.949541
Si Si5 0.103306 0.418857 0.156081
Si Si6 0.406368 0.788436 0.447842
Si Si7 0.041307 0.434484 0.382073
O O1 0.570346 0.282692 0.841464
O O2 0.325928 0.110735 0.816125
O O3 0.862015 0.138334 0.726657
O O4 0.759536 0.113718 0.873385
O O5 0.705305 0.561051 0.063511
O O6 0.021446 0.433754 0.075877
O O7 0.809376 0.464993 0.830563
O O8 0.702353 0.356652 0.968060
O O9 0.158551 0.768476 0.928412
O O10 0.618287 0.798560 0.959984
O O11 0.998985 0.944650 0.885822
O O12 0.916491 0.898021 0.034877
O O13 0.392875 0.354276 0.125831
#
# Coordination Sequence:
#
# PCOD9250886 Si02
#       7
#     4   2   4   4   4   4   4
#     4  12  27  46  71 106 150 197 237 309 381 438
#     4  10  24  48  78 104 144 198 256 304 360 450
#     4  11  25  45  75 103 147 193 248 314 365 448
#     4  11  22  42  74 106 140 193 244 299 357 452
#     4  11  29  44  72 108 143 196 248 305 376 444
#     4  11  23  42  73 105 137 190 249 299 359 439
#     4  11  24  44  69 106 151 191 240 298 376 439
#
# _framework density 24.274881000000001
#
# number of rings (size 3 to 8) (size 9 to 14) (size 15 to 20)
#    0.000    0.923    3.077    2.769   12.923    4.923 
#    0.000    0.000    0.000    0.000    0.000    0.000 
#    0.000    0.000    0.000    0.000    0.000    0.000 
#
# Total GULP energy -145232.064418 kJ/mol
# GULP energy per Si atom -5585.848631 kJ/mol
# Density = 2.421963 g / cm^3
# Si number density = 24.274881 Si / 1000 Ang^3
#
#
#
# Elastic Constant Matrix: (Units=GPa)
#
#
# Indices 1 2 3 4 5 6 
#
# 1 105.4897 44.2541 15.2977 0.0000 -13.0498 0.0000
# 2 44.2541 172.6235 61.3607 0.0000 -22.2803 0.0000
# 3 15.2977 61.3607 101.8810 0.0000 -7.5868 0.0000
# 4 0.0000 0.0000 0.0000 31.7568 0.0000 -18.1762
# 5 -13.0498 -22.2803 -7.5868 0.0000 17.6630 0.0000
# 6 0.0000 0.0000 0.0000 -18.1762 0.0000 22.3853
#
#
#
# Elastic Compliance Matrix: (Units=1/GPa)
#
#
# Indices 1 2 3 4 5 6 
#
# 1 0.011049 -0.002138 0.000037 0.000000 0.005482 0.000000
# 2 -0.002138 0.008937 -0.004483 0.000000 0.007768 0.000000
# 3 0.000037 -0.004483 0.012490 0.000000 -0.000263 0.000000
# 4 0.000000 0.000000 0.000000 0.058829 0.000000 0.047768
# 5 0.005482 0.007768 -0.000263 0.000000 0.070352 0.000000
# 6 0.000000 0.000000 0.000000 0.047768 0.000000 0.083458
#
#
# Mechanical properties :
#
#
# Convention : Reuss Voigt Hill
#
# Bulk Modulus (GPa) = 51.79148 69.09102 60.44125
# Shear Modulus (GPa) = 18.88779 31.63314 25.26047
#
# Velocity S-wave (km/s) = 2.79243 3.61380 3.22933
# Velocity P-wave (km/s) = 5.63726 6.77764 6.23358
#
# Compressibility (1/GPa) = 0.01930820
#
# Stress axis : x y z
#
# Youngs Moduli (GPa) = 90.50239 111.88998 80.06146
#
# Poissons Ratio (x) = 0.23924 -0.00296
# Poissons Ratio (y) = 0.19351 0.35893
# Poissons Ratio (z) = -0.00334 0.50163
#
# Static dielectric constant tensor:
#      x y z
#    x 1.549080 0.000000 -0.214780 
#    y 0.000000 1.967360 0.000000 
#    z -0.214780 0.000000 1.751910 
# 
# From -- ./inp_files/63262.got.cif
#   From: 2010.05.17/outbox.cif.g08.bks.cpg/sg14_32_cif.got.tgz:63262.got - 2010.06.03 17:49:19.
