data_PCOD9250060
_publ_section_title
;
Structure prediction by ZEFSAII (Michael W. Deem and Ramdas Pophale) SiO2 
 PCOD9250060
Probable space group: P 21/C
;
_chemical_formula_sum "Si O2"
_cell_formula_units_Z 20
_cell_length_a 14.282959
_cell_length_b 4.772971
_cell_length_c 19.438623
_cell_angle_alpha 90.000000
_cell_angle_beta 146.446842
_cell_angle_gamma 90.000000
_cell_volume 732.436752
_symmetry_space_group_name_H-M "P 21/C"
_symmetry_group_IT_number 14
_symmetry_cell_setting 'monoclinic'
loop_
_space_group_symop_operation_xyz
x,y,z
-x,1/2+y,1/2-z
-x,-y,-z
x,1/2-y,1/2+z
loop_
_atom_site_type_symbol
_atom_site_label
_atom_site_fract_x
_atom_site_fract_y
_atom_site_fract_z
Si Si1 0.521182 0.631089 0.937787
Si Si2 0.169530 0.989387 0.199153
Si Si3 0.868481 0.816862 0.460581
Si Si4 0.119540 0.332692 0.305773
Si Si5 0.429068 0.681448 0.169104
O O1 0.326636 0.729011 0.804684
O O2 0.543290 0.393663 0.893110
O O3 0.500000 0.500000 0.000000
O O4 0.694180 0.812215 0.044075
O O5 0.202135 0.125304 0.144293
O O6 0.159601 0.214060 0.254172
O O7 0.982184 0.861448 0.081453
O O8 0.748291 0.039804 0.422173
O O9 0.000000 0.000000 0.500000
O O10 0.027403 0.630318 0.253061
O O11 0.453361 0.003309 0.204521
#
# Coordination Sequence:
#
# PCOD9250060 Si02
#       5
#     4   4   4   4   4
#     4  10  23  48  71 103 145 185 236 293 356 424
#     4  10  23  46  66 105 138 189 233 297 353 425
#     4  11  24  41  75 100 149 183 242 292 359 423
#     4  11  26  47  72 101 140 186 239 290 359 425
#     4  12  26  46  73 107 144 188 243 295 356 424
#
# _framework density 27.306111999999999
#
# number of rings (size 3 to 8) (size 9 to 14) (size 15 to 20)
#    0.000    1.200    2.000    2.400    8.400    1.600 
#    3.600    4.000    0.000    0.000    0.000    0.000 
#    0.000    0.000    0.000    0.000    0.000    0.000 
#
# Total GULP energy -112010.115753 kJ/mol
# GULP energy per Si atom -5600.505788 kJ/mol
# Density = 2.724396 g / cm^3
# Si number density = 27.306112 Si / 1000 Ang^3
#
#
#
# Elastic Constant Matrix: (Units=GPa)
#
#
# Indices 1 2 3 4 5 6 
#
# 1 138.2990 -1.4860 32.2172 0.0000 -1.2180 0.0000
# 2 -1.4860 75.8332 23.8291 0.0000 -5.8562 0.0000
# 3 32.2172 23.8291 180.0287 0.0000 10.1635 0.0000
# 4 0.0000 0.0000 0.0000 33.2580 0.0000 11.9430
# 5 -1.2180 -5.8562 10.1635 0.0000 54.4915 0.0000
# 6 0.0000 0.0000 0.0000 11.9430 0.0000 29.3849
#
#
#
# Elastic Compliance Matrix: (Units=1/GPa)
#
#
# Indices 1 2 3 4 5 6 
#
# 1 0.007585 0.000651 -0.001473 0.000000 0.000514 0.000000
# 2 0.000651 0.014000 -0.002077 0.000000 0.001907 0.000000
# 3 -0.001473 -0.002077 0.006173 0.000000 -0.001407 0.000000
# 4 0.000000 0.000000 0.000000 0.035206 0.000000 -0.014309
# 5 0.000514 0.001907 -0.001407 0.000000 0.018830 0.000000
# 6 0.000000 0.000000 0.000000 -0.014309 0.000000 0.039847
#
#
# Mechanical properties :
#
#
# Convention : Reuss Voigt Hill
#
# Bulk Modulus (GPa) = 45.53734 55.92017 50.72875
# Shear Modulus (GPa) = 37.10350 46.06694 41.58522
#
# Velocity S-wave (km/s) = 3.69019 4.11183 3.90670
# Velocity P-wave (km/s) = 5.90504 6.56250 6.24243
#
# Compressibility (1/GPa) = 0.02196000
#
# Stress axis : x y z
#
# Youngs Moduli (GPa) = 131.83415 71.43096 162.00615
#
# Poissons Ratio (x) = -0.04651 0.23858
# Poissons Ratio (y) = -0.08584 0.33651
# Poissons Ratio (z) = 0.19414 0.14837
#
# Static dielectric constant tensor:
#      x y z
#    x 2.097940 0.000000 0.012990 
#    y 0.000000 2.986720 0.000000 
#    z 0.012990 0.000000 2.550580 
# 
# From -- ./inp_files/66372.got.cif
#   From: 2010.05.17/outbox.cif.g08.bks.cpg/sg14_34_cif.got.tgz:66372.got - 2010.06.03 17:49:19.
