data_PCOD9250906
_publ_section_title
;
Structure prediction by ZEFSAII (Michael W. Deem and Ramdas Pophale) SiO2 
 PCOD9250906
Probable space group: P 21/C
;
_chemical_formula_sum "Si O2"
_cell_formula_units_Z 26
_cell_length_a 9.439797
_cell_length_b 19.861697
_cell_length_c 9.692048
_cell_angle_alpha 90.000000
_cell_angle_beta 44.735549
_cell_angle_gamma 90.000000
_cell_volume 1278.985973
_symmetry_space_group_name_H-M "P 21/C"
_symmetry_group_IT_number 14
_symmetry_cell_setting 'monoclinic'
loop_
_space_group_symop_operation_xyz
x,y,z
-x,1/2+y,1/2-z
-x,-y,-z
x,1/2-y,1/2+z
loop_
_atom_site_type_symbol
_atom_site_label
_atom_site_fract_x
_atom_site_fract_y
_atom_site_fract_z
Si Si1 0.085528 0.862854 0.884039
Si Si2 0.584791 0.718441 0.362898
Si Si3 0.228734 0.879499 0.078153
Si Si4 0.648245 0.352893 0.038726
Si Si5 0.659296 0.619924 0.539074
Si Si6 0.043290 0.794588 0.452734
Si Si7 0.500000 0.500000 0.500000
O O1 0.255549 0.887557 0.660443
O O2 0.108801 0.781716 0.875489
O O3 0.108222 0.890667 0.021400
O O4 0.868809 0.877101 0.970278
O O5 0.413960 0.671130 0.415025
O O6 0.504783 0.793984 0.402642
O O7 0.602677 0.808474 0.008361
O O8 0.806069 0.708257 0.147856
O O9 0.099416 0.841250 0.284273
O O10 0.325269 0.946778 0.070335
O O11 0.519532 0.398810 0.231394
O O12 0.831301 0.321256 0.001956
O O13 0.650674 0.564618 0.426734
#
# Coordination Sequence:
#
# PCOD9250906 Si02
#       7
#     4   4   4   4   4   4   2
#     4  12  23  37  66 104 128 160 215 280 334 380
#     4  11  22  36  64  98 132 170 204 262 339 389
#     4  11  25  43  65  95 135 173 218 269 316 398
#     4  12  21  38  64 100 137 161 213 271 330 391
#     4  11  24  42  66  94 136 176 213 269 322 390
#     4  12  21  38  66 102 133 167 207 266 347 386
#     4  10  24  50  66  82 134 194 220 250 326 388
#
# _framework density 20.328603999999999
#
# number of rings (size 3 to 8) (size 9 to 14) (size 15 to 20)
#    0.000    0.615    9.231    0.000    0.000    1.846 
#    0.000    7.692    0.000    0.000    0.000    0.000 
#    0.000    0.000    0.000    0.000    0.000    0.000 
#
# Total GULP energy -144775.664066 kJ/mol
# GULP energy per Si atom -5568.294772 kJ/mol
# Density = 2.028234 g / cm^3
# Si number density = 20.328604 Si / 1000 Ang^3
#
#
#
# Elastic Constant Matrix: (Units=GPa)
#
#
# Indices 1 2 3 4 5 6 
#
# 1 143.7100 11.1303 33.3093 0.0000 1.1089 0.0000
# 2 11.1303 22.5309 -14.9065 0.0000 6.4629 0.0000
# 3 33.3093 -14.9065 89.4526 0.0000 -2.6884 0.0000
# 4 0.0000 0.0000 0.0000 -5.3769 0.0000 -5.2709
# 5 1.1089 6.4629 -2.6884 0.0000 33.5902 0.0000
# 6 0.0000 0.0000 0.0000 -5.2709 0.0000 4.9263
#
#
#
# Elastic Compliance Matrix: (Units=1/GPa)
#
#
# Indices 1 2 3 4 5 6 
#
# 1 0.008535 -0.007336 -0.004377 0.000000 0.000779 0.000000
# 2 -0.007336 0.059028 0.012264 0.000000 -0.010133 0.000000
# 3 -0.004377 0.012264 0.014822 0.000000 -0.001029 0.000000
# 4 0.000000 0.000000 0.000000 -0.090774 0.000000 -0.097123
# 5 0.000779 -0.010133 -0.001029 0.000000 0.031612 0.000000
# 6 0.000000 0.000000 0.000000 -0.097123 0.000000 0.099076
#
#
# Mechanical properties :
#
#
# Convention : Reuss Voigt Hill
#
# Bulk Modulus (GPa) = 11.97810 34.97330 23.47570
# Shear Modulus (GPa) = 33.55113 21.70531 27.62822
#
# Velocity S-wave (km/s) = 4.06697 3.27115 3.69057
# Velocity P-wave (km/s) = 5.28759 5.61325 5.45285
#
# Compressibility (1/GPa) = 0.08348573
#
# Stress axis : x y z
#
# Youngs Moduli (GPa) = 117.16203 16.94111 67.46826
#
# Poissons Ratio (x) = 0.12428 0.29533
# Poissons Ratio (y) = 0.85950 -0.82741
# Poissons Ratio (z) = 0.51285 -0.20776
#
# Static dielectric constant tensor:
#      x y z
#    x 1.725500 0.000000 0.035260 
#    y 0.000000 1.685950 0.000000 
#    z 0.035260 0.000000 1.791570 
# 
# From -- ./inp_files/10158.got.cif
#   From: 2010.05.17/outbox.cif.g08.bks.cpg/sg14_6_cif.got.tgz:10158.got - 2010.06.03 17:49:19.
