data_PCOD9250965
_publ_section_title
;
Structure prediction by ZEFSAII (Michael W. Deem and Ramdas Pophale) SiO2 
 PCOD9250965
Probable space group: P 21/C
;
_chemical_formula_sum "Si O2"
_cell_formula_units_Z 20
_cell_length_a 4.948670
_cell_length_b 7.770905
_cell_length_c 21.144383
_cell_angle_alpha 90.000000
_cell_angle_beta 95.851322
_cell_angle_gamma 90.000000
_cell_volume 808.884344
_symmetry_space_group_name_H-M "P 21/C"
_symmetry_group_IT_number 14
_symmetry_cell_setting 'monoclinic'
loop_
_space_group_symop_operation_xyz
x,y,z
-x,1/2+y,1/2-z
-x,-y,-z
x,1/2-y,1/2+z
loop_
_atom_site_type_symbol
_atom_site_label
_atom_site_fract_x
_atom_site_fract_y
_atom_site_fract_z
Si Si1 0.064004 0.184853 0.763624
Si Si2 0.403443 0.991963 0.425831
Si Si3 0.726447 0.364241 0.527142
Si Si4 0.009648 0.812111 0.092609
Si Si5 0.556776 0.484994 0.211151
O O1 0.944994 0.168504 0.831909
O O2 0.250083 0.355747 0.764572
O O3 0.298442 0.048296 0.749328
O O4 0.791162 0.162435 0.716250
O O5 0.317705 0.790680 0.425649
O O6 0.500000 0.000000 0.500000
O O7 0.194524 0.150604 0.415795
O O8 0.560544 0.008474 0.362789
O O9 0.500000 0.500000 0.500000
O O10 0.927496 0.496018 0.566950
O O11 0.792954 0.274536 0.461298
#
# Coordination Sequence:
#
# PCOD9250965 Si02
#       5
#     4   4   4   4   4
#     4  11  26  47  71 104 146 185 245 294 367 434
#     4  11  24  45  70 103 143 185 242 296 364 429
#     4  11  23  41  71  99 134 183 237 287 359 414
#     4  10  25  43  66 101 137 185 228 300 347 433
#     4  11  27  46  75 106 143 197 236 306 364 434
#
# _framework density 24.725413
#
# number of rings (size 3 to 8) (size 9 to 14) (size 15 to 20)
#    0.000    1.200    2.000    1.800    8.400    4.800 
#    0.000    0.000    0.000    0.000    0.000    0.000 
#    0.000    0.000    0.000    0.000    0.000    0.000 
#
# Total GULP energy -111339.669391 kJ/mol
# GULP energy per Si atom -5566.983470 kJ/mol
# Density = 2.466914 g / cm^3
# Si number density = 24.725413 Si / 1000 Ang^3
#
#
#
# Elastic Constant Matrix: (Units=GPa)
#
#
# Indices 1 2 3 4 5 6 
#
# 1 58.7678 5.9672 12.5760 0.0000 -17.8620 0.0000
# 2 5.9672 109.7381 25.8648 0.0000 -15.6117 0.0000
# 3 12.5760 25.8648 139.1015 0.0000 -2.9414 0.0000
# 4 0.0000 0.0000 0.0000 34.7715 0.0000 -8.9530
# 5 -17.8620 -15.6117 -2.9414 0.0000 35.8295 0.0000
# 6 0.0000 0.0000 0.0000 -8.9530 0.0000 35.8815
#
#
#
# Elastic Compliance Matrix: (Units=1/GPa)
#
#
# Indices 1 2 3 4 5 6 
#
# 1 0.020480 0.000786 -0.001778 0.000000 0.010406 0.000000
# 2 0.000786 0.010174 -0.001864 0.000000 0.004672 0.000000
# 3 -0.001778 -0.001864 0.007674 0.000000 -0.001068 0.000000
# 4 0.000000 0.000000 0.000000 0.030734 0.000000 0.007669
# 5 0.010406 0.004672 -0.001068 0.000000 0.035045 0.000000
# 6 0.000000 0.000000 0.000000 0.007669 0.000000 0.029783
#
#
# Mechanical properties :
#
#
# Convention : Reuss Voigt Hill
#
# Bulk Modulus (GPa) = 30.66031 44.04703 37.35367
# Shear Modulus (GPa) = 33.22862 38.84312 36.03587
#
# Velocity S-wave (km/s) = 3.66991 3.96786 3.82179
# Velocity P-wave (km/s) = 5.51225 6.23258 5.88345
#
# Compressibility (1/GPa) = 0.03261545
#
# Stress axis : x y z
#
# Youngs Moduli (GPa) = 48.82914 98.29153 130.31505
#
# Poissons Ratio (x) = -0.07723 0.23165
# Poissons Ratio (y) = -0.03837 0.24291
# Poissons Ratio (z) = 0.08680 0.18322
#
# Static dielectric constant tensor:
#      x y z
#    x 2.044930 0.000000 -0.016380 
#    y 0.000000 1.979650 0.000000 
#    z -0.016380 0.000000 1.640600 
# 
# From -- ./inp_files/62947.got.cif
#   From: 2010.05.17/outbox.cif.g08.bks.cpg/sg14_32_cif.got.tgz:62947.got - 2010.06.03 17:49:19.
