data_PCOD9250529
_publ_section_title
;
Structure prediction by ZEFSAII (Michael W. Deem and Ramdas Pophale) SiO2 
 PCOD9250529
Probable space group: P 21/C
;
_chemical_formula_sum "Si O2"
_cell_formula_units_Z 32
_cell_length_a 10.423913
_cell_length_b 22.936084
_cell_length_c 8.609145
_cell_angle_alpha 90.000000
_cell_angle_beta 42.160528
_cell_angle_gamma 90.000000
_cell_volume 1381.556147
_symmetry_space_group_name_H-M "P 21/C"
_symmetry_group_IT_number 14
_symmetry_cell_setting 'monoclinic'
loop_
_space_group_symop_operation_xyz
x,y,z
-x,1/2+y,1/2-z
-x,-y,-z
x,1/2-y,1/2+z
loop_
_atom_site_type_symbol
_atom_site_label
_atom_site_fract_x
_atom_site_fract_y
_atom_site_fract_z
Si Si1 0.095789 0.244135 0.114523
Si Si2 0.232272 0.130383 0.478846
Si Si3 0.112111 0.116607 0.071537
Si Si4 0.581692 0.564085 0.900818
Si Si5 0.186128 0.767384 0.380005
Si Si6 0.745531 0.138106 0.202294
Si Si7 0.931543 0.065588 0.543939
Si Si8 0.380844 0.624404 0.535713
O O1 0.196692 0.181606 0.026719
O O2 0.025693 0.261704 0.005564
O O3 0.886620 0.230005 0.378118
O O4 0.199496 0.303661 0.071663
O O5 0.304585 0.088169 0.550529
O O6 0.042993 0.104792 0.570978
O O7 0.395281 0.129465 0.199234
O O8 0.996544 0.091970 0.321456
O O9 0.958475 0.125523 0.070359
O O10 0.275843 0.072686 0.870052
O O11 0.399649 0.606125 0.053802
O O12 0.500000 0.500000 0.000000
O O13 0.293221 0.706755 0.266022
O O14 0.300877 0.819241 0.199256
O O15 0.705304 0.118912 0.061726
O O16 0.707203 0.072281 0.783237
O O17 0.000000 0.000000 0.500000
#
# Coordination Sequence:
#
# PCOD9250529 Si02
#       8
#     4   4   4   4   4   4   4   4
#     4  11  20  41  70  96 135 173 223 276 342 405
#     4  11  25  46  71  98 138 182 225 289 345 413
#     4  11  25  44  70 103 134 175 227 288 333 412
#     4  11  27  46  69  98 135 183 240 275 331 414
#     4  11  19  39  65  97 137 170 223 269 342 409
#     4  10  24  43  70  99 131 182 227 277 338 403
#     4  12  27  45  70 100 139 184 225 282 354 405
#     4  11  23  44  67 100 133 182 224 275 352 400
#
# _framework density 23.162286999999999
#
# number of rings (size 3 to 8) (size 9 to 14) (size 15 to 20)
#    0.000    1.000    3.750    2.250    7.000    2.000 
#    2.250    0.000    0.000    0.000    0.000    0.000 
#    0.000    0.000    0.000    0.000    0.000    0.000 
#
# Total GULP energy -178819.167413 kJ/mol
# GULP energy per Si atom -5588.098982 kJ/mol
# Density = 2.310957 g / cm^3
# Si number density = 23.162287 Si / 1000 Ang^3
#
#
#
# Elastic Constant Matrix: (Units=GPa)
#
#
# Indices 1 2 3 4 5 6 
#
# 1 33.2621 -8.1816 9.3105 0.0000 -1.9523 0.0000
# 2 -8.1816 46.8180 -9.2252 0.0000 -1.1996 0.0000
# 3 9.3105 -9.2252 100.5751 0.0000 -8.3372 0.0000
# 4 0.0000 0.0000 0.0000 36.2861 0.0000 -1.1521
# 5 -1.9523 -1.1996 -8.3372 0.0000 24.5411 0.0000
# 6 0.0000 0.0000 0.0000 -1.1521 0.0000 18.0958
#
#
#
# Elastic Compliance Matrix: (Units=1/GPa)
#
#
# Indices 1 2 3 4 5 6 
#
# 1 0.032115 0.005205 -0.002328 0.000000 0.002018 0.000000
# 2 0.005205 0.022673 0.001774 0.000000 0.002125 0.000000
# 3 -0.002328 0.001774 0.010612 0.000000 0.003507 0.000000
# 4 0.000000 0.000000 0.000000 0.027615 0.000000 0.001758
# 5 0.002018 0.002125 0.003507 0.000000 0.042204 0.000000
# 6 0.000000 0.000000 0.000000 0.001758 0.000000 0.055373
#
#
# Mechanical properties :
#
#
# Convention : Reuss Voigt Hill
#
# Bulk Modulus (GPa) = 13.38669 18.27363 15.83016
# Shear Modulus (GPa) = 24.24954 28.36805 26.30879
#
# Velocity S-wave (km/s) = 3.23916 3.50344 3.37389
# Velocity P-wave (km/s) = 4.44765 4.92666 4.69327
#
# Compressibility (1/GPa) = 0.07470104
#
# Stress axis : x y z
#
# Youngs Moduli (GPa) = 31.13834 44.10555 94.23526
#
# Poissons Ratio (x) = -0.22957 0.21940
# Poissons Ratio (y) = -0.16208 -0.16717
# Poissons Ratio (z) = 0.07250 -0.07824
#
# Static dielectric constant tensor:
#      x y z
#    x 1.915810 0.000000 0.000880 
#    y 0.000000 1.865990 0.000000 
#    z 0.000880 0.000000 1.877120 
# 
# From -- ./inp_files/14534.got.cif
#   From: 2010.05.17/outbox.cif.g08.bks.cpg/sg14_8_cif.got.tgz:14534.got - 2010.06.03 17:49:19.
