data_PCOD9250083
_publ_section_title
;
Structure prediction by ZEFSAII (Michael W. Deem and Ramdas Pophale) SiO2 
 PCOD9250083
Probable space group: P 21/C
;
_chemical_formula_sum "Si O2"
_cell_formula_units_Z 20
_cell_length_a 14.747753
_cell_length_b 5.097879
_cell_length_c 20.400783
_cell_angle_alpha 90.000000
_cell_angle_beta 28.803938
_cell_angle_gamma 90.000000
_cell_volume 738.995071
_symmetry_space_group_name_H-M "P 21/C"
_symmetry_group_IT_number 14
_symmetry_cell_setting 'monoclinic'
loop_
_space_group_symop_operation_xyz
x,y,z
-x,1/2+y,1/2-z
-x,-y,-z
x,1/2-y,1/2+z
loop_
_atom_site_type_symbol
_atom_site_label
_atom_site_fract_x
_atom_site_fract_y
_atom_site_fract_z
Si Si1 0.989141 0.028910 0.160414
Si Si2 0.646941 0.798229 0.230193
Si Si3 0.690624 0.099753 0.816022
Si Si4 0.716333 0.770980 0.927054
Si Si5 0.754096 0.197305 0.583506
O O1 0.875080 0.229427 0.188298
O O2 0.171176 0.155948 0.079202
O O3 0.843913 0.940831 0.309129
O O4 0.065524 0.781994 0.071903
O O5 0.667926 0.663429 0.287676
O O6 0.427346 0.790352 0.349119
O O7 0.720584 0.079721 0.159993
O O8 0.752056 0.584541 0.117747
O O9 0.705738 0.010954 0.882205
O O10 0.504150 0.277128 0.921592
#
# Coordination Sequence:
#
# PCOD9250083 Si02
#       5
#     4   4   4   4   4
#     4  12  24  44  71 102 139 186 235 295 352 434
#     4  10  23  46  70 105 138 191 231 301 350 421
#     4  11  25  45  70  99 142 180 243 284 360 421
#     4  11  25  45  66 106 136 185 231 296 355 420
#     4  10  24  44  73 101 144 183 240 290 362 411
#
# _framework density 27.063777000000002
#
# number of rings (size 3 to 8) (size 9 to 14) (size 15 to 20)
#    0.000    1.200    4.000    0.600    5.600    1.600 
#    3.600    0.000    0.000    0.000    0.000    0.000 
#    0.000    0.000    0.000    0.000    0.000    0.000 
#
# Total GULP energy -112285.152110 kJ/mol
# GULP energy per Si atom -5614.257606 kJ/mol
# Density = 2.700218 g / cm^3
# Si number density = 27.063777 Si / 1000 Ang^3
#
#
#
# Elastic Constant Matrix: (Units=GPa)
#
#
# Indices 1 2 3 4 5 6 
#
# 1 145.7761 23.8075 50.4027 0.0000 -23.5200 0.0000
# 2 23.8075 66.9451 24.7037 0.0000 -16.0652 0.0000
# 3 50.4027 24.7037 111.1429 0.0000 -22.7646 0.0000
# 4 0.0000 0.0000 0.0000 47.4783 0.0000 6.0290
# 5 -23.5200 -16.0652 -22.7646 0.0000 40.7717 0.0000
# 6 0.0000 0.0000 0.0000 6.0290 0.0000 33.7680
#
#
#
# Elastic Compliance Matrix: (Units=1/GPa)
#
#
# Indices 1 2 3 4 5 6 
#
# 1 0.008560 -0.001264 -0.003039 0.000000 0.002743 0.000000
# 2 -0.001264 0.017398 -0.002302 0.000000 0.004841 0.000000
# 3 -0.003039 -0.002302 0.011678 0.000000 0.003860 0.000000
# 4 0.000000 0.000000 0.000000 0.021551 0.000000 -0.003848
# 5 0.002743 0.004841 0.003860 0.000000 0.030172 0.000000
# 6 0.000000 0.000000 0.000000 -0.003848 0.000000 0.030301
#
#
# Mechanical properties :
#
#
# Convention : Reuss Voigt Hill
#
# Bulk Modulus (GPa) = 40.94204 57.96577 49.45390
# Shear Modulus (GPa) = 35.45796 39.40028 37.42912
#
# Velocity S-wave (km/s) = 3.62354 3.81967 3.72290
# Velocity P-wave (km/s) = 5.71556 6.39671 6.06570
#
# Compressibility (1/GPa) = 0.02442477
#
# Stress axis : x y z
#
# Youngs Moduli (GPa) = 116.82825 57.47633 85.63178
#
# Poissons Ratio (x) = 0.07267 0.26023
# Poissons Ratio (y) = 0.14772 0.19715
# Poissons Ratio (z) = 0.35503 0.13233
#
# Static dielectric constant tensor:
#      x y z
#    x 2.075890 0.000000 0.019580 
#    y 0.000000 2.088320 0.000000 
#    z 0.019580 0.000000 2.090280 
# 
# From -- ./inp_files/42554.got.cif
#   From: 2010.05.17/outbox.cif.g08.bks.cpg/sg14_22_cif.got.tgz:42554.got - 2010.06.03 17:49:19.
