data_PCOD9250829
_publ_section_title
;
Structure prediction by ZEFSAII (Michael W. Deem and Ramdas Pophale) SiO2 
 PCOD9250829
Probable space group: P 21/C
;
_chemical_formula_sum "Si O2"
_cell_formula_units_Z 32
_cell_length_a 11.879677
_cell_length_b 8.956327
_cell_length_c 23.670581
_cell_angle_alpha 90.000000
_cell_angle_beta 35.545234
_cell_angle_gamma 90.000000
_cell_volume 1464.123834
_symmetry_space_group_name_H-M "P 21/C"
_symmetry_group_IT_number 14
_symmetry_cell_setting 'monoclinic'
loop_
_space_group_symop_operation_xyz
x,y,z
-x,1/2+y,1/2-z
-x,-y,-z
x,1/2-y,1/2+z
loop_
_atom_site_type_symbol
_atom_site_label
_atom_site_fract_x
_atom_site_fract_y
_atom_site_fract_z
Si Si1 0.280218 0.634704 0.002541
Si Si2 0.111081 0.888304 0.882248
Si Si3 0.249486 0.843365 0.645555
Si Si4 0.669599 0.915773 0.296573
Si Si5 0.535294 0.430778 0.399909
Si Si6 0.189624 0.314668 0.681500
Si Si7 0.176615 0.199838 0.567633
Si Si8 0.756060 0.099925 0.052591
O O1 0.451608 0.640836 0.885959
O O2 0.201386 0.466716 0.034024
O O3 0.170942 0.780077 0.024001
O O4 0.327531 0.665039 0.049412
O O5 0.227044 0.839448 0.890573
O O6 0.243896 0.000031 0.791755
O O7 0.022107 0.764698 0.876693
O O8 0.916604 0.970084 0.982464
O O9 0.292507 0.689010 0.661115
O O10 0.022966 0.884218 0.734346
O O11 0.344468 0.967250 0.645820
O O12 0.794982 0.777337 0.267105
O O13 0.631752 0.569263 0.395739
O O14 0.351275 0.319925 0.485842
O O15 0.448012 0.522443 0.381913
O O16 0.184918 0.199685 0.631732
#
# Coordination Sequence:
#
# PCOD9250829 Si02
#       8
#     4   4   4   4   4   4   4   4
#     4  12  24  42  67 102 135 176 223 288 341 400
#     4  10  24  47  70  95 132 184 230 278 339 412
#     4  12  24  38  63 101 142 171 218 279 343 407
#     4  12  22  42  63  98 138 172 217 282 339 401
#     4  11  24  39  64  97 132 184 218 275 344 402
#     4  12  23  38  64 100 134 179 220 272 345 410
#     4  11  23  40  66  97 137 174 226 280 342 407
#     4  10  24  48  69  93 135 180 233 276 337 411
#
# _framework density 21.856076000000002
#
# number of rings (size 3 to 8) (size 9 to 14) (size 15 to 20)
#    0.000    0.750    5.000    3.000    3.500    0.500 
#    2.250    0.000    0.000    0.000    0.000    0.000 
#    0.000    0.000    0.000    0.000    0.000    0.000 
#
# Total GULP energy -178136.389395 kJ/mol
# GULP energy per Si atom -5566.762169 kJ/mol
# Density = 2.180633 g / cm^3
# Si number density = 21.856076 Si / 1000 Ang^3
#
#
#
# Elastic Constant Matrix: (Units=GPa)
#
#
# Indices 1 2 3 4 5 6 
#
# 1 112.3488 36.3187 27.4218 0.0000 3.6468 0.0000
# 2 36.3187 80.6437 -10.1897 0.0000 1.3364 0.0000
# 3 27.4218 -10.1897 44.9190 0.0000 0.6337 0.0000
# 4 0.0000 0.0000 0.0000 23.2285 0.0000 5.9255
# 5 3.6468 1.3364 0.6337 0.0000 25.6110 0.0000
# 6 0.0000 0.0000 0.0000 5.9255 0.0000 18.3013
#
#
#
# Elastic Compliance Matrix: (Units=1/GPa)
#
#
# Indices 1 2 3 4 5 6 
#
# 1 0.013837 -0.007489 -0.010127 0.000000 -0.001329 0.000000
# 2 -0.007489 0.016834 0.008391 0.000000 -0.000020 0.000000
# 3 -0.010127 0.008391 0.030344 0.000000 0.000253 0.000000
# 4 0.000000 0.000000 0.000000 0.046926 0.000000 -0.015194
# 5 -0.001329 -0.000020 0.000253 0.000000 0.039230 0.000000
# 6 0.000000 0.000000 0.000000 -0.015194 0.000000 0.059560
#
#
# Mechanical properties :
#
#
# Convention : Reuss Voigt Hill
#
# Bulk Modulus (GPa) = 23.49406 38.33478 30.91442
# Shear Modulus (GPa) = 20.88818 25.71886 23.30352
#
# Velocity S-wave (km/s) = 3.09482 3.43408 3.26885
# Velocity P-wave (km/s) = 4.85214 5.77076 5.33127
#
# Compressibility (1/GPa) = 0.04256396
#
# Stress axis : x y z
#
# Youngs Moduli (GPa) = 72.27129 59.40515 32.95500
#
# Poissons Ratio (x) = 0.44489 0.33374
# Poissons Ratio (y) = 0.54125 -0.27652
# Poissons Ratio (z) = 0.73190 -0.49846
#
# Static dielectric constant tensor:
#      x y z
#    x 1.817310 0.000000 -0.029560 
#    y 0.000000 1.848040 0.000000 
#    z -0.029560 0.000000 1.839890 
# 
# From -- ./inp_files/73098.got.cif
#   From: 2010.05.17/outbox.cif.g08.bks.cpg/sg14_37_cif.got.tgz:73098.got - 2010.06.03 17:49:19.
