data_PCOD9250708
_publ_section_title
;
Structure prediction by ZEFSAII (Michael W. Deem and Ramdas Pophale) SiO2 
 PCOD9250708
Probable space group: P 21/C
;
_chemical_formula_sum "Si O2"
_cell_formula_units_Z 32
_cell_length_a 14.021081
_cell_length_b 7.886445
_cell_length_c 20.831639
_cell_angle_alpha 90.000000
_cell_angle_beta 34.776234
_cell_angle_gamma 90.000000
_cell_volume 1313.847952
_symmetry_space_group_name_H-M "P 21/C"
_symmetry_group_IT_number 14
_symmetry_cell_setting 'monoclinic'
loop_
_space_group_symop_operation_xyz
x,y,z
-x,1/2+y,1/2-z
-x,-y,-z
x,1/2-y,1/2+z
loop_
_atom_site_type_symbol
_atom_site_label
_atom_site_fract_x
_atom_site_fract_y
_atom_site_fract_z
Si Si1 0.651081 0.232399 0.650121
Si Si2 0.993531 0.864934 0.061047
Si Si3 0.816238 0.508993 0.162664
Si Si4 0.089458 0.079196 0.600078
Si Si5 0.995419 0.358349 0.754048
Si Si6 0.468440 0.444656 0.858927
Si Si7 0.269157 0.024459 0.686815
Si Si8 0.659785 0.593841 0.384489
O O1 0.544663 0.347207 0.756476
O O2 0.811258 0.328990 0.534006
O O3 0.727047 0.083583 0.653517
O O4 0.542205 0.142330 0.655776
O O5 0.896655 0.689052 0.099020
O O6 0.882989 0.939649 0.179729
O O7 0.000000 0.000000 0.000000
O O8 0.699470 0.532151 0.289919
O O9 0.967141 0.394758 0.108095
O O10 0.035633 0.192819 0.690249
O O11 0.280248 0.108823 0.478117
O O12 0.053346 0.885013 0.643996
O O13 0.181939 0.440275 0.655674
O O14 0.825273 0.424719 0.816163
O O15 0.589001 0.425929 0.852926
O O16 0.343618 0.201555 0.619936
O O17 0.500000 0.500000 0.500000
#
# Coordination Sequence:
#
# PCOD9250708 Si02
#       8
#     4   4   4   4   4   4   4   4
#     4  12  27  44  70 105 147 194 241 306 372 431
#     4  11  23  45  73  99 136 197 245 297 368 443
#     4  10  24  45  72 100 144 187 241 298 365 440
#     4  11  25  45  72 106 143 190 249 298 366 434
#     4  11  24  47  73 102 141 195 241 291 370 443
#     4  12  29  44  71 113 148 190 245 311 360 437
#     4  11  25  46  72 105 144 190 250 294 369 441
#     4  10  24  45  72 108 139 184 237 308 364 432
#
# _framework density 24.355937999999998
#
# number of rings (size 3 to 8) (size 9 to 14) (size 15 to 20)
#    0.000    1.000    3.750    1.125    5.250    4.500 
#    0.000    0.000    0.000    0.000    0.000    0.000 
#    0.000    0.000    0.000    0.000    0.000    0.000 
#
# Total GULP energy -178974.273962 kJ/mol
# GULP energy per Si atom -5592.946061 kJ/mol
# Density = 2.430050 g / cm^3
# Si number density = 24.355938 Si / 1000 Ang^3
#
#
#
# Elastic Constant Matrix: (Units=GPa)
#
#
# Indices 1 2 3 4 5 6 
#
# 1 98.6457 5.5483 8.6653 0.0000 -15.8926 0.0000
# 2 5.5483 45.4976 43.2410 0.0000 -3.7146 0.0000
# 3 8.6653 43.2410 135.2348 0.0000 1.3286 0.0000
# 4 0.0000 0.0000 0.0000 43.2401 0.0000 9.6538
# 5 -15.8926 -3.7146 1.3286 0.0000 38.3978 0.0000
# 6 0.0000 0.0000 0.0000 9.6538 0.0000 30.8464
#
#
#
# Elastic Compliance Matrix: (Units=1/GPa)
#
#
# Indices 1 2 3 4 5 6 
#
# 1 0.010940 -0.000370 -0.000627 0.000000 0.004514 0.000000
# 2 -0.000370 0.032038 -0.010253 0.000000 0.003301 0.000000
# 3 -0.000627 -0.010253 0.010729 0.000000 -0.001623 0.000000
# 4 0.000000 0.000000 0.000000 0.024864 0.000000 -0.007782
# 5 0.004514 0.003301 -0.001623 0.000000 0.028287 0.000000
# 6 0.000000 0.000000 0.000000 -0.007782 0.000000 0.034854
#
#
# Mechanical properties :
#
#
# Convention : Reuss Voigt Hill
#
# Bulk Modulus (GPa) = 32.04266 43.80969 37.92618
# Shear Modulus (GPa) = 28.63449 37.29175 32.96312
#
# Velocity S-wave (km/s) = 3.43252 3.91719 3.68284
# Velocity P-wave (km/s) = 5.37533 6.20367 5.80429
#
# Compressibility (1/GPa) = 0.03120839
#
# Stress axis : x y z
#
# Youngs Moduli (GPa) = 91.40406 31.21279 93.20519
#
# Poissons Ratio (x) = 0.01153 0.05846
# Poissons Ratio (y) = 0.03377 0.95562
# Poissons Ratio (z) = 0.05733 0.32002
#
# Static dielectric constant tensor:
#      x y z
#    x 1.923750 0.000000 -0.001680 
#    y 0.000000 2.071540 0.000000 
#    z -0.001680 0.000000 1.905170 
# 
# From -- ./inp_files/73858.got.cif
#   From: 2010.05.17/outbox.cif.g08.bks.cpg/sg14_37_cif.got.tgz:73858.got - 2010.06.03 17:49:19.
