data_PCOD9250771
_publ_section_title
;
Structure prediction by ZEFSAII (Michael W. Deem and Ramdas Pophale) SiO2 
 PCOD9250771
Probable space group: P 21/C
;
_chemical_formula_sum "Si O2"
_cell_formula_units_Z 20
_cell_length_a 10.724438
_cell_length_b 9.557585
_cell_length_c 11.308995
_cell_angle_alpha 90.000000
_cell_angle_beta 135.559430
_cell_angle_gamma 90.000000
_cell_volume 811.614216
_symmetry_space_group_name_H-M "P 21/C"
_symmetry_group_IT_number 14
_symmetry_cell_setting 'monoclinic'
loop_
_space_group_symop_operation_xyz
x,y,z
-x,1/2+y,1/2-z
-x,-y,-z
x,1/2-y,1/2+z
loop_
_atom_site_type_symbol
_atom_site_label
_atom_site_fract_x
_atom_site_fract_y
_atom_site_fract_z
Si Si1 0.479600 0.764978 0.772105
Si Si2 0.797788 0.495862 0.903686
Si Si3 0.931726 0.582282 0.245392
Si Si4 0.222938 0.123186 0.850872
Si Si5 0.376208 0.479907 0.802607
O O1 0.293442 0.846471 0.653598
O O2 0.431186 0.602695 0.749821
O O3 0.576818 0.833021 0.725351
O O4 0.609617 0.815603 0.965336
O O5 0.712845 0.574083 0.734196
O O6 0.813645 0.557127 0.046102
O O7 0.000000 0.500000 0.000000
O O8 0.921725 0.749720 0.255891
O O9 0.824130 0.517192 0.283089
O O10 0.118104 0.504064 0.346001
O O11 0.500000 0.500000 0.000000
#
# Coordination Sequence:
#
# PCOD9250771 Si02
#       5
#     4   4   4   4   4
#     4  12  26  46  76 106 142 196 244 300 363 436
#     4  10  24  46  71 101 146 190 235 299 365 426
#     4  11  26  48  71 104 149 190 238 309 364 434
#     4  11  26  44  73 106 144 188 248 295 368 439
#     4  12  27  48  76 106 150 187 250 303 366 432
#
# _framework density 24.642249
#
# number of rings (size 3 to 8) (size 9 to 14) (size 15 to 20)
#    0.000    0.800    4.000    0.600   11.200    5.600 
#    0.000    0.000    0.000    0.000    0.000    0.000 
#    0.000    0.000    0.000    0.000    0.000    0.000 
#
# Total GULP energy -111855.519378 kJ/mol
# GULP energy per Si atom -5592.775969 kJ/mol
# Density = 2.458616 g / cm^3
# Si number density = 24.642249 Si / 1000 Ang^3
#
#
#
# Elastic Constant Matrix: (Units=GPa)
#
#
# Indices 1 2 3 4 5 6 
#
# 1 141.4725 34.1588 12.8887 0.0000 -21.1284 0.0000
# 2 34.1588 87.2646 -9.3700 0.0000 -25.2132 0.0000
# 3 12.8887 -9.3700 74.2478 0.0000 -6.7144 0.0000
# 4 0.0000 0.0000 0.0000 27.9168 0.0000 4.0055
# 5 -21.1284 -25.2132 -6.7144 0.0000 35.5874 0.0000
# 6 0.0000 0.0000 0.0000 4.0055 0.0000 52.2327
#
#
#
# Elastic Compliance Matrix: (Units=1/GPa)
#
#
# Indices 1 2 3 4 5 6 
#
# 1 0.008245 -0.002586 -0.001506 0.000000 0.002779 0.000000
# 2 -0.002586 0.015811 0.003376 0.000000 0.010304 0.000000
# 3 -0.001506 0.003376 0.014539 0.000000 0.004241 0.000000
# 4 0.000000 0.000000 0.000000 0.036219 0.000000 -0.002777
# 5 0.002779 0.010304 0.004241 0.000000 0.037850 0.000000
# 6 0.000000 0.000000 0.000000 -0.002777 0.000000 0.019358
#
#
# Mechanical properties :
#
#
# Convention : Reuss Voigt Hill
#
# Bulk Modulus (GPa) = 26.90881 42.03777 34.47329
# Shear Modulus (GPa) = 34.28321 40.83453 37.55887
#
# Velocity S-wave (km/s) = 3.73398 4.07516 3.90829
# Velocity P-wave (km/s) = 5.43448 6.26409 5.86397
#
# Compressibility (1/GPa) = 0.03716255
#
# Stress axis : x y z
#
# Youngs Moduli (GPa) = 121.28239 63.24570 68.77827
#
# Poissons Ratio (x) = 0.16358 0.10361
# Poissons Ratio (y) = 0.31369 -0.23220
# Poissons Ratio (z) = 0.18270 -0.21353
#
# Static dielectric constant tensor:
#      x y z
#    x 1.954950 0.000000 -0.004370 
#    y 0.000000 1.927270 0.000000 
#    z -0.004370 0.000000 2.008390 
# 
# From -- ./inp_files/27901.got.cif
#   From: 2010.05.17/outbox.cif.g08.bks.cpg/sg14_14_cif.got.tgz:27901.got - 2010.06.03 17:49:19.
