data_PCOD9250748
_publ_section_title
;
Structure prediction by ZEFSAII (Michael W. Deem and Ramdas Pophale) SiO2 
 PCOD9250748
Probable space group: P 21/C
;
_chemical_formula_sum "Si O2"
_cell_formula_units_Z 28
_cell_length_a 6.468408
_cell_length_b 17.351542
_cell_length_c 10.214576
_cell_angle_alpha 90.000000
_cell_angle_beta 104.993644
_cell_angle_gamma 90.000000
_cell_volume 1107.420375
_symmetry_space_group_name_H-M "P 21/C"
_symmetry_group_IT_number 14
_symmetry_cell_setting 'monoclinic'
loop_
_space_group_symop_operation_xyz
x,y,z
-x,1/2+y,1/2-z
-x,-y,-z
x,1/2-y,1/2+z
loop_
_atom_site_type_symbol
_atom_site_label
_atom_site_fract_x
_atom_site_fract_y
_atom_site_fract_z
Si Si1 0.177287 0.641051 0.189113
Si Si2 0.679963 0.017698 0.828254
Si Si3 0.998263 0.108509 0.069570
Si Si4 0.566326 0.276403 0.147114
Si Si5 0.178147 0.914247 0.413482
Si Si6 0.728468 0.894950 0.242783
Si Si7 0.836086 0.732282 0.557124
O O1 0.116590 0.596850 0.310864
O O2 0.354432 0.704400 0.256360
O O3 0.240343 0.588788 0.075965
O O4 0.967972 0.693131 0.120247
O O5 0.439495 0.039792 0.827130
O O6 0.712319 0.030507 0.676697
O O7 0.775822 0.935943 0.885488
O O8 0.839298 0.075366 0.933110
O O9 0.050044 0.197799 0.053554
O O10 0.418328 0.334498 0.203931
O O11 0.411704 0.249460 0.006395
O O12 0.757741 0.328576 0.125412
O O13 0.924453 0.925590 0.360336
O O14 0.835598 0.842667 0.149075
#
# Coordination Sequence:
#
# PCOD9250748 Si02
#       7
#     4   4   4   4   4   4   4
#     4  12  23  40  67 102 133 168 218 278 341 394
#     4  10  24  46  67  90 134 185 226 268 322 389
#     4  11  24  44  66  99 134 174 230 272 319 409
#     4  11  22  38  65  98 134 169 209 277 346 395
#     4  11  22  42  65  92 133 173 216 275 332 389
#     4  11  20  39  65  92 125 176 215 267 326 392
#     4  12  21  39  68  98 133 168 216 274 340 394
#
# _framework density 25.283987
#
# number of rings (size 3 to 8) (size 9 to 14) (size 15 to 20)
#    0.000    0.857    4.286    4.286    0.000    1.143 
#    2.571    0.714    0.000    0.000    0.000    0.000 
#    0.000    0.000    0.000    0.000    0.000    0.000 
#
# Total GULP energy -156809.464567 kJ/mol
# GULP energy per Si atom -5600.338020 kJ/mol
# Density = 2.522644 g / cm^3
# Si number density = 25.283987 Si / 1000 Ang^3
#
#
#
# Elastic Constant Matrix: (Units=GPa)
#
#
# Indices 1 2 3 4 5 6 
#
# 1 78.6068 23.6050 21.6771 0.0000 6.9965 0.0000
# 2 23.6050 58.3846 8.6152 0.0000 1.6967 0.0000
# 3 21.6771 8.6152 68.6860 0.0000 -12.9697 0.0000
# 4 0.0000 0.0000 0.0000 22.0959 0.0000 10.4891
# 5 6.9965 1.6967 -12.9697 0.0000 49.6864 0.0000
# 6 0.0000 0.0000 0.0000 10.4891 0.0000 42.5176
#
#
#
# Elastic Compliance Matrix: (Units=1/GPa)
#
#
# Indices 1 2 3 4 5 6 
#
# 1 0.016109 -0.005675 -0.005011 0.000000 -0.003382 0.000000
# 2 -0.005675 0.019522 -0.000665 0.000000 -0.000041 0.000000
# 3 -0.005011 -0.000665 0.017210 0.000000 0.005221 0.000000
# 4 0.000000 0.000000 0.000000 0.051260 0.000000 -0.012646
# 5 -0.003382 -0.000041 0.005221 0.000000 0.021967 0.000000
# 6 0.000000 0.000000 0.000000 -0.012646 0.000000 0.026639
#
#
# Mechanical properties :
#
#
# Convention : Reuss Voigt Hill
#
# Bulk Modulus (GPa) = 33.18108 34.83021 34.00564
# Shear Modulus (GPa) = 26.96083 32.97865 29.96974
#
# Velocity S-wave (km/s) = 3.26900 3.61547 3.44659
# Velocity P-wave (km/s) = 5.23453 5.58877 5.41455
#
# Compressibility (1/GPa) = 0.03013766
#
# Stress axis : x y z
#
# Youngs Moduli (GPa) = 62.07876 51.22523 58.10716
#
# Poissons Ratio (x) = 0.29071 0.29116
# Poissons Ratio (y) = 0.35230 0.03866
# Poissons Ratio (z) = 0.31106 0.03408
#
# Static dielectric constant tensor:
#      x y z
#    x 1.971940 0.000000 -0.052360 
#    y 0.000000 1.955140 0.000000 
#    z -0.052360 0.000000 2.069560 
# 
# From -- ./inp_files/21823.got.cif
#   From: 2010.05.17/outbox.cif.g08.bks.cpg/sg14_11_cif.got.tgz:21823.got - 2010.06.03 17:49:19.
