data_PCOD9250597
_publ_section_title
;
Structure prediction by ZEFSAII (Michael W. Deem and Ramdas Pophale) SiO2 
 PCOD9250597
Probable space group: P 21/C
;
_chemical_formula_sum "Si O2"
_cell_formula_units_Z 24
_cell_length_a 23.461141
_cell_length_b 7.903304
_cell_length_c 12.098766
_cell_angle_alpha 90.000000
_cell_angle_beta 152.475714
_cell_angle_gamma 90.000000
_cell_volume 1036.711544
_symmetry_space_group_name_H-M "P 21/C"
_symmetry_group_IT_number 14
_symmetry_cell_setting 'monoclinic'
loop_
_space_group_symop_operation_xyz
x,y,z
-x,1/2+y,1/2-z
-x,-y,-z
x,1/2-y,1/2+z
loop_
_atom_site_type_symbol
_atom_site_label
_atom_site_fract_x
_atom_site_fract_y
_atom_site_fract_z
Si Si1 0.382428 0.876013 0.569125
Si Si2 0.360797 0.221558 0.435534
Si Si3 0.140054 0.220083 0.726009
Si Si4 0.944967 0.452891 0.762781
Si Si5 0.831732 0.206251 0.408107
Si Si6 0.280944 0.461352 0.107932
O O1 0.513239 0.786507 0.792973
O O2 0.267248 0.750563 0.355660
O O3 0.370112 0.019104 0.453660
O O4 0.368286 0.971620 0.661504
O O5 0.245143 0.273922 0.313531
O O6 0.340307 0.312693 0.283616
O O7 0.147412 0.056410 0.818337
O O8 0.162774 0.381068 0.842350
O O9 0.009406 0.200388 0.440403
O O10 0.888102 0.378171 0.554782
O O11 0.056209 0.584059 0.931772
O O12 0.757654 0.110718 0.377341
#
# Coordination Sequence:
#
# PCOD9250597 Si02
#       6
#     4   4   4   4   4   4
#     4  11  27  44  75 100 142 179 232 283 348 400
#     4  11  23  48  68 103 140 180 227 290 335 414
#     4  10  24  44  68  98 136 184 221 289 335 409
#     4  11  25  42  70  99 142 176 238 273 349 406
#     4  12  26  44  70 102 138 185 225 289 340 407
#     4  11  24  44  70 103 138 177 234 269 355 403
#
# _framework density 23.150123000000001
#
# number of rings (size 3 to 8) (size 9 to 14) (size 15 to 20)
#    0.000    1.000    1.667    3.500    9.333    2.000 
#    0.000    5.000    0.000    0.000    0.000    0.000 
#    0.000    0.000    0.000    0.000    0.000    0.000 
#
# Total GULP energy -134350.713916 kJ/mol
# GULP energy per Si atom -5597.946413 kJ/mol
# Density = 2.309743 g / cm^3
# Si number density = 23.150123 Si / 1000 Ang^3
#
#
#
# Elastic Constant Matrix: (Units=GPa)
#
#
# Indices 1 2 3 4 5 6 
#
# 1 35.2615 9.9702 6.5592 0.0000 -14.1613 0.0000
# 2 9.9702 63.2359 21.5956 0.0000 6.6603 0.0000
# 3 6.5592 21.5956 84.9784 0.0000 -0.1720 0.0000
# 4 0.0000 0.0000 0.0000 41.5518 0.0000 2.1195
# 5 -14.1613 6.6603 -0.1720 0.0000 23.3695 0.0000
# 6 0.0000 0.0000 0.0000 2.1195 0.0000 34.8614
#
#
#
# Elastic Compliance Matrix: (Units=1/GPa)
#
#
# Indices 1 2 3 4 5 6 
#
# 1 0.042640 -0.009442 -0.000834 0.000000 0.028524 0.000000
# 2 -0.009442 0.020004 -0.004378 0.000000 -0.011455 0.000000
# 3 -0.000834 -0.004378 0.012946 0.000000 0.000838 0.000000
# 4 0.000000 0.000000 0.000000 0.024141 0.000000 -0.001468
# 5 0.028524 -0.011455 0.000838 0.000000 0.063346 0.000000
# 6 0.000000 0.000000 0.000000 -0.001468 0.000000 0.028774
#
#
# Mechanical properties :
#
#
# Convention : Reuss Voigt Hill
#
# Bulk Modulus (GPa) = 21.60678 28.85841 25.23260
# Shear Modulus (GPa) = 21.13379 29.64660 25.39019
#
# Velocity S-wave (km/s) = 3.02470 3.58246 3.31533
# Velocity P-wave (km/s) = 4.64242 5.44104 5.05752
#
# Compressibility (1/GPa) = 0.04628177
#
# Stress axis : x y z
#
# Youngs Moduli (GPa) = 23.45229 49.98941 77.24182
#
# Poissons Ratio (x) = 0.47202 0.06441
# Poissons Ratio (y) = 0.22144 0.33817
# Poissons Ratio (z) = 0.01956 0.21886
#
# Static dielectric constant tensor:
#      x y z
#    x 1.851490 0.000000 -0.028280 
#    y 0.000000 1.888420 0.000000 
#    z -0.028280 0.000000 1.853820 
# 
# From -- ./inp_files/35771.got.cif
#   From: 2010.05.17/outbox.cif.g08.bks.cpg/sg14_18_cif.got.tgz:35771.got - 2010.06.03 17:49:19.
