data_PCOD9250435
_publ_section_title
;
Structure prediction by ZEFSAII (Michael W. Deem and Ramdas Pophale) SiO2 
 PCOD9250435
Probable space group: P 21/C
;
_chemical_formula_sum "Si O2"
_cell_formula_units_Z 30
_cell_length_a 6.439295
_cell_length_b 27.471021
_cell_length_c 7.854917
_cell_angle_alpha 90.000000
_cell_angle_beta 61.264180
_cell_angle_gamma 90.000000
_cell_volume 1218.366455
_symmetry_space_group_name_H-M "P 21/C"
_symmetry_group_IT_number 14
_symmetry_cell_setting 'monoclinic'
loop_
_space_group_symop_operation_xyz
x,y,z
-x,1/2+y,1/2-z
-x,-y,-z
x,1/2-y,1/2+z
loop_
_atom_site_type_symbol
_atom_site_label
_atom_site_fract_x
_atom_site_fract_y
_atom_site_fract_z
Si Si1 0.340506 0.310408 0.005127
Si Si2 0.019852 0.554112 0.635770
Si Si3 0.218435 0.099900 0.072150
Si Si4 0.499113 0.964379 0.767946
Si Si5 0.687267 0.109118 0.408566
Si Si6 0.000000 0.500000 0.000000
Si Si7 0.408533 0.299857 0.377058
Si Si8 0.150787 0.856034 0.303451
O O1 0.574907 0.341743 0.873323
O O2 0.345881 0.255182 0.943614
O O3 0.333373 0.308646 0.212458
O O4 0.108486 0.339162 0.035713
O O5 0.233522 0.527892 0.447093
O O6 0.122500 0.605957 0.663550
O O7 0.807614 0.572695 0.598242
O O8 0.951014 0.523636 0.829034
O O9 0.291654 0.156077 0.026908
O O10 0.382054 0.071037 0.137421
O O11 0.953748 0.098691 0.248840
O O12 0.464964 0.933999 0.608418
O O13 0.708876 0.002501 0.655030
O O14 0.709728 0.116929 0.600413
O O15 0.688860 0.309016 0.295552
#
# Coordination Sequence:
#
# PCOD9250435 Si02
#       8
#     4   4   4   4   4   2   4   4
#     4  11  25  40  63 103 137 180 237 284 335 401
#     4  11  24  46  72 102 138 183 234 288 360 422
#     4  11  23  45  70  95 138 186 226 283 351 418
#     4  11  25  46  71 104 140 180 232 288 356 428
#     4  10  24  42  70  98 137 185 228 279 346 411
#     4  12  26  44  76 104 138 176 234 304 348 430
#     4  11  26  39  67  97 136 183 227 282 334 406
#     4  11  23  46  68  96 142 184 227 285 346 415
#
# _framework density 24.623135999999999
#
# number of rings (size 3 to 8) (size 9 to 14) (size 15 to 20)
#    0.000    1.067    2.667    2.800    7.467    1.600 
#    0.000    8.000    0.000    0.000    0.000    0.000 
#    0.000    0.000    0.000    0.000    0.000    0.000 
#
# Total GULP energy -167460.615802 kJ/mol
# GULP energy per Si atom -5582.020527 kJ/mol
# Density = 2.456709 g / cm^3
# Si number density = 24.623136 Si / 1000 Ang^3
#
#
#
# Elastic Constant Matrix: (Units=GPa)
#
#
# Indices 1 2 3 4 5 6 
#
# 1 131.3791 37.5674 20.6559 0.0000 1.6069 0.0000
# 2 37.5674 102.8456 8.7106 0.0000 2.2916 0.0000
# 3 20.6559 8.7106 41.7905 0.0000 -15.4361 0.0000
# 4 0.0000 0.0000 0.0000 35.8120 0.0000 5.5138
# 5 1.6069 2.2916 -15.4361 0.0000 43.3321 0.0000
# 6 0.0000 0.0000 0.0000 5.5138 0.0000 38.5906
#
#
#
# Elastic Compliance Matrix: (Units=1/GPa)
#
#
# Indices 1 2 3 4 5 6 
#
# 1 0.009196 -0.002928 -0.004610 0.000000 -0.001829 0.000000
# 2 -0.002928 0.010910 -0.001151 0.000000 -0.000879 0.000000
# 3 -0.004610 -0.001151 0.030554 0.000000 0.011116 0.000000
# 4 0.000000 0.000000 0.000000 0.028552 0.000000 -0.004079
# 5 -0.001829 -0.000879 0.011116 0.000000 0.027152 0.000000
# 6 0.000000 0.000000 0.000000 -0.004079 0.000000 0.026496
#
#
# Mechanical properties :
#
#
# Convention : Reuss Voigt Hill
#
# Bulk Modulus (GPa) = 30.04799 45.54254 37.79527
# Shear Modulus (GPa) = 30.99210 37.48571 34.23891
#
# Velocity S-wave (km/s) = 3.55161 3.90600 3.73301
# Velocity P-wave (km/s) = 5.38964 6.23526 5.82780
#
# Compressibility (1/GPa) = 0.03328010
#
# Stress axis : x y z
#
# Youngs Moduli (GPa) = 108.74269 91.65995 32.72942
#
# Poissons Ratio (x) = 0.26837 0.15090
# Poissons Ratio (y) = 0.31839 0.03768
# Poissons Ratio (z) = 0.50136 0.10553
#
# Static dielectric constant tensor:
#      x y z
#    x 1.927650 0.000000 0.009110 
#    y 0.000000 1.966050 0.000000 
#    z 0.009110 0.000000 2.005490 
# 
# From -- ./inp_files/6785.got.cif
#   From: 2010.05.17/outbox.cif.g08.bks.cpg/sg14_4_cif.got.tgz:6785.got - 2010.06.03 17:49:19.
