data_PCOD9250585
_publ_section_title
;
Structure prediction by ZEFSAII (Michael W. Deem and Ramdas Pophale) SiO2 
 PCOD9250585
Probable space group: P 21/C
;
_chemical_formula_sum "Si O2"
_cell_formula_units_Z 12
_cell_length_a 11.311043
_cell_length_b 11.838475
_cell_length_c 8.726797
_cell_angle_alpha 90.000000
_cell_angle_beta 23.629127
_cell_angle_gamma 90.000000
_cell_volume 468.378622
_symmetry_space_group_name_H-M "P 21/C"
_symmetry_group_IT_number 14
_symmetry_cell_setting 'monoclinic'
loop_
_space_group_symop_operation_xyz
x,y,z
-x,1/2+y,1/2-z
-x,-y,-z
x,1/2-y,1/2+z
loop_
_atom_site_type_symbol
_atom_site_label
_atom_site_fract_x
_atom_site_fract_y
_atom_site_fract_z
Si Si1 0.442333 0.550327 0.901989
Si Si2 0.008565 0.692112 0.251911
Si Si3 0.202423 0.605956 0.716638
O O1 0.513314 0.451456 0.695957
O O2 0.680812 0.652479 0.598310
O O3 0.500000 0.500000 0.000000
O O4 0.129403 0.604291 0.235541
O O5 0.047422 0.814550 0.276328
O O6 0.219497 0.675731 0.853701
O O7 0.000000 0.500000 0.000000
#
# Coordination Sequence:
#
# PCOD9250585 Si02
#       3
#     4   4   4
#     4  11  24  42  67  97 129 170 220 271 328 389
#     4  11  24  42  65  94 130 173 215 270 327 386
#     4  10  24  44  67  97 133 173 220 271 326 391
#
# _framework density 25.620298999999999
#
# number of rings (size 3 to 8) (size 9 to 14) (size 15 to 20)
#    0.000    1.333    0.000    4.000    0.000   18.667 
#    0.000    0.000    0.000    0.000    0.000    0.000 
#    0.000    0.000    0.000    0.000    0.000    0.000 
#
# Total GULP energy -67271.029204 kJ/mol
# GULP energy per Si atom -5605.919100 kJ/mol
# Density = 2.556199 g / cm^3
# Si number density = 25.620299 Si / 1000 Ang^3
#
#
#
# Elastic Constant Matrix: (Units=GPa)
#
#
# Indices 1 2 3 4 5 6 
#
# 1 111.3253 53.6117 24.8192 0.0000 5.1746 0.0000
# 2 53.6117 149.2604 31.7378 0.0000 12.5033 0.0000
# 3 24.8192 31.7378 49.2945 0.0000 -6.9111 0.0000
# 4 0.0000 0.0000 0.0000 33.2615 0.0000 14.6826
# 5 5.1746 12.5033 -6.9111 0.0000 51.2890 0.0000
# 6 0.0000 0.0000 0.0000 14.6826 0.0000 70.4675
#
#
#
# Elastic Compliance Matrix: (Units=1/GPa)
#
#
# Indices 1 2 3 4 5 6 
#
# 1 0.011422 -0.003221 -0.003800 0.000000 -0.000879 0.000000
# 2 -0.003221 0.009031 -0.004542 0.000000 -0.002489 0.000000
# 3 -0.003800 -0.004542 0.025821 0.000000 0.004970 0.000000
# 4 0.000000 0.000000 0.000000 0.033110 0.000000 -0.006899
# 5 -0.000879 -0.002489 0.004970 0.000000 0.020862 0.000000
# 6 0.000000 0.000000 0.000000 -0.006899 0.000000 0.015628
#
#
# Mechanical properties :
#
#
# Convention : Reuss Voigt Hill
#
# Bulk Modulus (GPa) = 43.20110 58.91309 51.05709
# Shear Modulus (GPa) = 34.07957 44.31772 39.19864
#
# Velocity S-wave (km/s) = 3.65112 4.16359 3.91574
# Velocity P-wave (km/s) = 5.88837 6.79401 6.35734
#
# Compressibility (1/GPa) = 0.02314756
#
# Stress axis : x y z
#
# Youngs Moduli (GPa) = 87.55126 110.73319 38.72888
#
# Poissons Ratio (x) = 0.35665 0.14718
# Poissons Ratio (y) = 0.28198 0.17589
# Poissons Ratio (z) = 0.33273 0.50291
#
# Static dielectric constant tensor:
#      x y z
#    x 1.989860 0.000000 0.049960 
#    y 0.000000 2.015400 0.000000 
#    z 0.049960 0.000000 2.039900 
# 
# From -- ./inp_files/4680.got.cif
#   From: 2010.05.17/outbox.cif.g08.bks.cpg/sg14_3_cif.got.tgz:4680.got - 2010.06.03 17:49:19.
