data_PCOD9250721
_publ_section_title
;
Structure prediction by ZEFSAII (Michael W. Deem and Ramdas Pophale) SiO2 
 PCOD9250721
Probable space group: P 21/C
;
_chemical_formula_sum "Si O2"
_cell_formula_units_Z 16
_cell_length_a 4.950517
_cell_length_b 5.146489
_cell_length_c 25.040749
_cell_angle_alpha 90.000000
_cell_angle_beta 94.288965
_cell_angle_gamma 90.000000
_cell_volume 636.196091
_symmetry_space_group_name_H-M "P 21/C"
_symmetry_group_IT_number 14
_symmetry_cell_setting 'monoclinic'
loop_
_space_group_symop_operation_xyz
x,y,z
-x,1/2+y,1/2-z
-x,-y,-z
x,1/2-y,1/2+z
loop_
_atom_site_type_symbol
_atom_site_label
_atom_site_fract_x
_atom_site_fract_y
_atom_site_fract_z
Si Si1 0.140822 0.696256 0.817169
Si Si2 0.941907 0.250621 0.463311
Si Si3 0.595546 0.830573 0.610565
Si Si4 0.758442 0.308955 0.299908
O O1 0.334254 0.625901 0.869746
O O2 0.306757 0.690320 0.764046
O O3 0.934576 0.450970 0.811837
O O4 0.950048 0.945878 0.814773
O O5 0.858503 0.733324 0.584052
O O6 0.000000 0.500000 0.500000
O O7 0.000000 0.000000 0.500000
O O8 0.645174 0.211401 0.434630
O O9 0.495272 0.697304 0.664025
#
# Coordination Sequence:
#
# PCOD9250721 Si02
#       4
#     4   4   4   4
#     4  10  24  45  74 114 156 196 245 300 375 472
#     4  12  30  52  76 108 144 196 264 324 370 436
#     4  12  26  52  80 108 152 202 246 312 390 440
#     4  10  24  45  74 114 156 196 245 300 375 472
#
# _framework density 25.149481999999999
#
# number of rings (size 3 to 8) (size 9 to 14) (size 15 to 20)
#    0.000    1.000    2.500    1.500    3.500   12.000 
#    0.000    0.000    0.000    0.000    0.000    0.000 
#    0.000    0.000    0.000    0.000    0.000    0.000 
#
# Total GULP energy -89758.163703 kJ/mol
# GULP energy per Si atom -5609.885231 kJ/mol
# Density = 2.509224 g / cm^3
# Si number density = 25.149482 Si / 1000 Ang^3
#
#
#
# Elastic Constant Matrix: (Units=GPa)
#
#
# Indices 1 2 3 4 5 6 
#
# 1 59.2847 21.4871 3.3639 0.0000 -17.0088 0.0000
# 2 21.4871 174.6238 34.9377 0.0000 -9.0255 0.0000
# 3 3.3639 34.9377 109.4189 0.0000 -6.5397 0.0000
# 4 0.0000 0.0000 0.0000 53.7134 0.0000 -1.9602
# 5 -17.0088 -9.0255 -6.5397 0.0000 69.3717 0.0000
# 6 0.0000 0.0000 0.0000 -1.9602 0.0000 33.1564
#
#
#
# Elastic Compliance Matrix: (Units=1/GPa)
#
#
# Indices 1 2 3 4 5 6 
#
# 1 0.018892 -0.002173 0.000375 0.000000 0.004385 0.000000
# 2 -0.002173 0.006394 -0.001968 0.000000 0.000114 0.000000
# 3 0.000375 -0.001968 0.009801 0.000000 0.000760 0.000000
# 4 0.000000 0.000000 0.000000 0.018658 0.000000 0.001103
# 5 0.004385 0.000114 0.000760 0.000000 0.015577 0.000000
# 6 0.000000 0.000000 0.000000 0.001103 0.000000 0.030225
#
#
# Mechanical properties :
#
#
# Convention : Reuss Voigt Hill
#
# Bulk Modulus (GPa) = 36.29056 51.43389 43.86222
# Shear Modulus (GPa) = 43.00583 50.15087 46.57835
#
# Velocity S-wave (km/s) = 4.13971 4.47039 4.30823
# Velocity P-wave (km/s) = 6.10826 6.86597 6.49817
#
# Compressibility (1/GPa) = 0.02755538
#
# Stress axis : x y z
#
# Youngs Moduli (GPa) = 52.93232 156.40697 102.02599
#
# Poissons Ratio (x) = 0.33988 -0.03827
# Poissons Ratio (y) = 0.11502 0.20078
# Poissons Ratio (z) = -0.01986 0.30779
#
# Static dielectric constant tensor:
#      x y z
#    x 1.957750 0.000000 0.026490 
#    y 0.000000 2.016050 0.000000 
#    z 0.026490 0.000000 2.005410 
# 
# From -- ./inp_files/62785.got.cif
#   From: 2010.05.17/outbox.cif.g08.bks.cpg/sg14_32_cif.got.tgz:62785.got - 2010.06.03 17:49:19.
