data_PCOD9250066
_publ_section_title
;
Structure prediction by ZEFSAII (Michael W. Deem and Ramdas Pophale) SiO2 
 PCOD9250066
Probable space group: P 21/C
;
_chemical_formula_sum "Si O2"
_cell_formula_units_Z 28
_cell_length_a 17.901968
_cell_length_b 11.413324
_cell_length_c 11.622911
_cell_angle_alpha 90.000000
_cell_angle_beta 150.075306
_cell_angle_gamma 90.000000
_cell_volume 1184.698027
_symmetry_space_group_name_H-M "P 21/C"
_symmetry_group_IT_number 14
_symmetry_cell_setting 'monoclinic'
loop_
_space_group_symop_operation_xyz
x,y,z
-x,1/2+y,1/2-z
-x,-y,-z
x,1/2-y,1/2+z
loop_
_atom_site_type_symbol
_atom_site_label
_atom_site_fract_x
_atom_site_fract_y
_atom_site_fract_z
Si Si1 0.618020 0.061844 0.242766
Si Si2 0.118401 0.507154 0.033122
Si Si3 0.839392 0.757103 0.322516
Si Si4 0.835003 0.575132 0.526626
Si Si5 0.688418 0.207542 0.141096
Si Si6 0.433304 0.163607 0.181643
Si Si7 0.064046 0.607863 0.511501
O O1 0.774628 0.995067 0.436928
O O2 0.654653 0.188575 0.232781
O O3 0.547660 0.075163 0.272470
O O4 0.500000 0.000000 0.000000
O O5 0.910002 0.619687 0.954986
O O6 0.973304 0.576087 0.799436
O O7 0.222952 0.584722 0.258425
O O8 0.847544 0.671701 0.442908
O O9 0.923666 0.695328 0.328700
O O10 0.671598 0.784529 0.058551
O O11 0.678400 0.598591 0.380269
O O12 0.863931 0.449482 0.505136
O O13 0.801986 0.311303 0.261434
O O14 0.532658 0.235515 0.872798
O O15 0.000000 0.500000 0.500000
#
# Coordination Sequence:
#
# PCOD9250066 Si02
#       7
#     4   4   4   4   4   4   4
#     4  10  23  46  67 112 145 193 244 304 375 446
#     4  10  25  47  77 107 154 193 257 311 371 456
#     4  11  25  48  78 111 147 204 255 308 381 450
#     4  11  27  47  75 115 148 202 259 313 369 464
#     4  10  25  45  71 113 152 191 255 311 375 455
#     4  12  24  45  77 106 155 199 243 312 381 447
#     4  10  25  49  72 106 149 197 252 316 375 438
#
# _framework density 23.634713000000001
#
# number of rings (size 3 to 8) (size 9 to 14) (size 15 to 20)
#    0.857    0.571    1.429    1.714    8.000    4.000 
#   12.857    0.000    0.000    0.000    0.000    0.000 
#    0.000    0.000    0.000    0.000    0.000    0.000 
#
# Total GULP energy -156296.756865 kJ/mol
# GULP energy per Si atom -5582.027031 kJ/mol
# Density = 2.358092 g / cm^3
# Si number density = 23.634713 Si / 1000 Ang^3
#
#
#
# Elastic Constant Matrix: (Units=GPa)
#
#
# Indices 1 2 3 4 5 6 
#
# 1 136.0846 56.2634 27.0109 0.0000 23.9109 0.0000
# 2 56.2634 119.0241 18.7116 0.0000 6.4409 0.0000
# 3 27.0109 18.7116 48.6851 0.0000 13.8491 0.0000
# 4 0.0000 0.0000 0.0000 34.7779 0.0000 3.3571
# 5 23.9109 6.4409 13.8491 0.0000 34.2044 0.0000
# 6 0.0000 0.0000 0.0000 3.3571 0.0000 47.7811
#
#
#
# Elastic Compliance Matrix: (Units=1/GPa)
#
#
# Indices 1 2 3 4 5 6 
#
# 1 0.010632 -0.004307 -0.002667 0.000000 -0.005541 0.000000
# 2 -0.004307 0.010690 -0.002264 0.000000 0.001914 0.000000
# 3 -0.002667 -0.002264 0.025133 0.000000 -0.007885 0.000000
# 4 0.000000 0.000000 0.000000 0.028950 0.000000 -0.002034
# 5 -0.005541 0.001914 -0.007885 0.000000 0.035942 0.000000
# 6 0.000000 0.000000 0.000000 -0.002034 0.000000 0.021072
#
#
# Mechanical properties :
#
#
# Convention : Reuss Voigt Hill
#
# Bulk Modulus (GPa) = 35.73995 56.41841 46.07918
# Shear Modulus (GPa) = 31.20703 36.80653 34.00678
#
# Velocity S-wave (km/s) = 3.63766 3.95056 3.79733
# Velocity P-wave (km/s) = 5.72696 6.68820 6.22616
#
# Compressibility (1/GPa) = 0.02797989
#
# Stress axis : x y z
#
# Youngs Moduli (GPa) = 94.05578 93.54792 39.78825
#
# Poissons Ratio (x) = 0.40288 0.10612
# Poissons Ratio (y) = 0.40506 0.09007
# Poissons Ratio (z) = 0.25086 0.21176
#
# Static dielectric constant tensor:
#      x y z
#    x 1.988590 0.000000 0.001410 
#    y 0.000000 1.921260 0.000000 
#    z 0.001410 0.000000 1.888630 
# 
# From -- ./inp_files/34106.got.cif
#   From: 2010.05.17/outbox.cif.g08.bks.cpg/sg14_18_cif.got.tgz:34106.got - 2010.06.03 17:49:19.
