data_PCOD9250425
_publ_section_title
;
Structure prediction by ZEFSAII (Michael W. Deem and Ramdas Pophale) SiO2 
 PCOD9250425
Probable space group: P 21/C
;
_chemical_formula_sum "Si O2"
_cell_formula_units_Z 24
_cell_length_a 9.640928
_cell_length_b 23.990480
_cell_length_c 4.880980
_cell_angle_alpha 90.000000
_cell_angle_beta 120.600795
_cell_angle_gamma 90.000000
_cell_volume 971.704580
_symmetry_space_group_name_H-M "P 21/C"
_symmetry_group_IT_number 14
_symmetry_cell_setting 'monoclinic'
loop_
_space_group_symop_operation_xyz
x,y,z
-x,1/2+y,1/2-z
-x,-y,-z
x,1/2-y,1/2+z
loop_
_atom_site_type_symbol
_atom_site_label
_atom_site_fract_x
_atom_site_fract_y
_atom_site_fract_z
Si Si1 0.006634 0.215313 0.174640
Si Si2 0.189378 0.120796 0.042938
Si Si3 0.099065 0.548731 0.745290
Si Si4 0.511603 0.873520 0.996614
Si Si5 0.701113 0.353630 0.232664
Si Si6 0.374723 0.473438 0.087708
O O1 0.029070 0.270576 0.013501
O O2 0.826939 0.194434 0.923140
O O3 0.123497 0.168228 0.175959
O O4 0.318634 0.143984 0.959120
O O5 0.281231 0.074415 0.318007
O O6 0.033692 0.089492 0.753519
O O7 0.000000 0.500000 0.500000
O O8 0.197785 0.588716 0.635669
O O9 0.237086 0.516180 0.048863
O O10 0.371280 0.858480 0.642687
O O11 0.538144 0.939262 0.084983
O O12 0.450031 0.849214 0.219123
O O13 0.500000 0.500000 0.000000
#
# Coordination Sequence:
#
# PCOD9250425 Si02
#       6
#     4   4   4   4   4   4
#     4  11  26  50  77  99 131 178 236 297 359 414
#     4  10  24  42  70 104 141 185 232 292 347 409
#     4   9  20  42  60 100 137 185 227 272 328 415
#     4  12  23  43  69  97 144 176 222 275 339 408
#     4  11  24  45  69  97 133 178 227 284 342 413
#     4  11  21  41  69 105 146 193 228 276 343 421
#
# _framework density 24.698865000000001
#
# number of rings (size 3 to 8) (size 9 to 14) (size 15 to 20)
#    0.000    1.333    3.333    1.000    2.333    3.333 
#    9.000    5.000    0.000    0.000    0.000    0.000 
#    0.000    0.000    0.000    0.000    0.000    0.000 
#
# Total GULP energy -134356.083938 kJ/mol
# GULP energy per Si atom -5598.170164 kJ/mol
# Density = 2.464265 g / cm^3
# Si number density = 24.698865 Si / 1000 Ang^3
#
#
#
# Elastic Constant Matrix: (Units=GPa)
#
#
# Indices 1 2 3 4 5 6 
#
# 1 120.0191 22.7133 3.7368 0.0000 17.7513 0.0000
# 2 22.7133 56.2913 -1.8543 0.0000 11.7267 0.0000
# 3 3.7368 -1.8543 83.0301 0.0000 9.6724 0.0000
# 4 0.0000 0.0000 0.0000 41.2435 0.0000 9.9940
# 5 17.7513 11.7267 9.6724 0.0000 39.0322 0.0000
# 6 0.0000 0.0000 0.0000 9.9940 0.0000 41.9661
#
#
#
# Elastic Compliance Matrix: (Units=1/GPa)
#
#
# Indices 1 2 3 4 5 6 
#
# 1 0.009415 -0.003111 -0.000106 0.000000 -0.003321 0.000000
# 2 -0.003111 0.020080 0.001160 0.000000 -0.004905 0.000000
# 3 -0.000106 0.001160 0.012469 0.000000 -0.003390 0.000000
# 4 0.000000 0.000000 0.000000 0.025731 0.000000 -0.006128
# 5 -0.003321 -0.004905 -0.003390 0.000000 0.029444 0.000000
# 6 0.000000 0.000000 0.000000 -0.006128 0.000000 0.025288
#
#
# Mechanical properties :
#
#
# Convention : Reuss Voigt Hill
#
# Bulk Modulus (GPa) = 26.41979 34.28136 30.35057
# Shear Modulus (GPa) = 35.93015 40.09800 38.01408
#
# Velocity S-wave (km/s) = 3.81823 4.03361 3.92740
# Velocity P-wave (km/s) = 5.49167 5.96684 5.73418
#
# Compressibility (1/GPa) = 0.03785041
#
# Stress axis : x y z
#
# Youngs Moduli (GPa) = 106.21126 49.80079 80.19606
#
# Poissons Ratio (x) = 0.15491 0.00853
# Poissons Ratio (y) = 0.33039 -0.09302
# Poissons Ratio (z) = 0.01129 -0.05776
#
# Static dielectric constant tensor:
#      x y z
#    x 1.944760 0.000000 0.022980 
#    y 0.000000 1.995680 0.000000 
#    z 0.022980 0.000000 1.989380 
# 
# From -- ./inp_files/1827.got.cif
#   From: 2010.05.17/outbox.cif.g08.bks.cpg/sg14_1_cif.got.tgz:1827.got - 2010.06.03 17:49:19.
