data_PCOD9250006
_publ_section_title
;
Structure prediction by ZEFSAII (Michael W. Deem and Ramdas Pophale) SiO2 
 PCOD9250006
Probable space group: P 21/C
;
_chemical_formula_sum "Si O2"
_cell_formula_units_Z 32
_cell_length_a 9.166273
_cell_length_b 9.491820
_cell_length_c 18.578192
_cell_angle_alpha 90.000000
_cell_angle_beta 62.293141
_cell_angle_gamma 90.000000
_cell_volume 1431.050039
_symmetry_space_group_name_H-M "P 21/C"
_symmetry_group_IT_number 14
_symmetry_cell_setting 'monoclinic'
loop_
_space_group_symop_operation_xyz
x,y,z
-x,1/2+y,1/2-z
-x,-y,-z
x,1/2-y,1/2+z
loop_
_atom_site_type_symbol
_atom_site_label
_atom_site_fract_x
_atom_site_fract_y
_atom_site_fract_z
Si Si1 0.014345 0.821245 0.947259
Si Si2 0.446225 0.808140 0.215480
Si Si3 0.863316 0.632086 0.780882
Si Si4 0.368500 0.691757 0.570320
Si Si5 0.691210 0.467355 0.706232
Si Si6 0.026403 0.746509 0.101258
Si Si7 0.293861 0.361695 0.581856
Si Si8 0.116071 0.547740 0.847665
O O1 0.150421 0.908893 0.871955
O O2 0.065577 0.659378 0.920099
O O3 0.837151 0.844499 0.952479
O O4 0.981599 0.159809 0.968529
O O5 0.418341 0.768626 0.139257
O O6 0.434854 0.663200 0.262101
O O7 0.294970 0.905931 0.278010
O O8 0.610381 0.897629 0.187959
O O9 0.742208 0.515889 0.774872
O O10 0.774148 0.766939 0.837077
O O11 0.964485 0.680313 0.687977
O O12 0.987858 0.570995 0.811279
O O13 0.219380 0.781773 0.571879
O O14 0.310383 0.528255 0.591089
O O15 0.527370 0.692635 0.482964
O O16 0.912549 0.609538 0.118879
#
# Coordination Sequence:
#
# PCOD9250006 Si02
#       8
#     4   4   4   4   4   4   4   4
#     4  10  25  45  65 105 140 182 231 294 347 426
#     4  11  25  45  67 103 141 184 234 291 349 416
#     4  11  24  43  72  99 134 187 239 282 357 423
#     4  11  24  41  69 101 141 176 236 284 351 412
#     4  11  27  44  69 101 144 182 236 294 349 422
#     4  12  24  41  74 101 136 187 233 286 357 417
#     4  10  25  44  67 101 142 180 225 294 347 417
#     4  10  23  45  69  98 144 182 237 285 355 422
#
# _framework density 22.361201999999999
#
# number of rings (size 3 to 8) (size 9 to 14) (size 15 to 20)
#    0.000    1.250    1.250    2.625   12.250    2.000 
#    0.000    6.875    0.000    0.000    0.000    0.000 
#    0.000    0.000    0.000    0.000    0.000    0.000 
#
# Total GULP energy -179125.959842 kJ/mol
# GULP energy per Si atom -5597.686245 kJ/mol
# Density = 2.231031 g / cm^3
# Si number density = 22.361202 Si / 1000 Ang^3
#
#
#
# Elastic Constant Matrix: (Units=GPa)
#
#
# Indices 1 2 3 4 5 6 
#
# 1 62.9828 16.5787 26.2581 0.0000 -1.4615 0.0000
# 2 16.5787 56.6391 17.8286 0.0000 -7.3980 0.0000
# 3 26.2581 17.8286 101.2904 0.0000 9.7943 0.0000
# 4 0.0000 0.0000 0.0000 33.0198 0.0000 -4.3179
# 5 -1.4615 -7.3980 9.7943 0.0000 32.9943 0.0000
# 6 0.0000 0.0000 0.0000 -4.3179 0.0000 37.1708
#
#
#
# Elastic Compliance Matrix: (Units=1/GPa)
#
#
# Indices 1 2 3 4 5 6 
#
# 1 0.018735 -0.003981 -0.004272 0.000000 0.001205 0.000000
# 2 -0.003981 0.020491 -0.003090 0.000000 0.005336 0.000000
# 3 -0.004272 -0.003090 0.011953 0.000000 -0.004430 0.000000
# 4 0.000000 0.000000 0.000000 0.030752 0.000000 0.003572
# 5 0.001205 0.005336 -0.004430 0.000000 0.032873 0.000000
# 6 0.000000 0.000000 0.000000 0.003572 0.000000 0.027318
#
#
# Mechanical properties :
#
#
# Convention : Reuss Voigt Hill
#
# Bulk Modulus (GPa) = 35.10106 38.02700 36.56403
# Shear Modulus (GPa) = 28.68521 31.32011 30.00266
#
# Velocity S-wave (km/s) = 3.58552 3.74658 3.66694
# Velocity P-wave (km/s) = 5.73347 5.97984 5.85795
#
# Compressibility (1/GPa) = 0.02848917
#
# Stress axis : x y z
#
# Youngs Moduli (GPa) = 53.37729 48.80246 83.66427
#
# Poissons Ratio (x) = 0.19430 0.35745
# Poissons Ratio (y) = 0.21252 0.25856
# Poissons Ratio (z) = 0.22805 0.15082
#
# Static dielectric constant tensor:
#      x y z
#    x 1.806840 0.000000 -0.010280 
#    y 0.000000 1.843990 0.000000 
#    z -0.010280 0.000000 1.782180 
# 
# From -- ./inp_files/72071.got.cif
#   From: 2010.05.17/outbox.cif.g08.bks.cpg/sg14_37_cif.got.tgz:72071.got - 2010.06.03 17:49:19.
