data_PCOD9250979
_publ_section_title
;
Structure prediction by ZEFSAII (Michael W. Deem and Ramdas Pophale) SiO2 
 PCOD9250979
Probable space group: P 21/C
;
_chemical_formula_sum "Si O2"
_cell_formula_units_Z 28
_cell_length_a 23.523190
_cell_length_b 7.303991
_cell_length_c 17.264563
_cell_angle_alpha 90.000000
_cell_angle_beta 20.934786
_cell_angle_gamma 90.000000
_cell_volume 1059.866760
_symmetry_space_group_name_H-M "P 21/C"
_symmetry_group_IT_number 14
_symmetry_cell_setting 'monoclinic'
loop_
_space_group_symop_operation_xyz
x,y,z
-x,1/2+y,1/2-z
-x,-y,-z
x,1/2-y,1/2+z
loop_
_atom_site_type_symbol
_atom_site_label
_atom_site_fract_x
_atom_site_fract_y
_atom_site_fract_z
Si Si1 0.118873 0.749860 0.983584
Si Si2 0.335485 0.983996 0.607367
Si Si3 0.784458 0.875905 0.681885
Si Si4 0.684227 0.482745 0.465449
Si Si5 0.614900 0.556198 0.249311
Si Si6 0.773560 0.861790 0.400502
Si Si7 0.322129 0.636581 0.354320
O O1 0.110015 0.527676 0.000213
O O2 0.161321 0.859360 0.008454
O O3 0.267900 0.816453 0.742083
O O4 0.956396 0.817516 0.153308
O O5 0.234263 0.161849 0.769707
O O6 0.283872 0.977403 0.582712
O O7 0.527375 0.011038 0.363826
O O8 0.636251 0.883118 0.809778
O O9 0.798631 0.977159 0.747188
O O10 0.536426 0.392553 0.609878
O O11 0.659057 0.693780 0.523303
O O12 0.718272 0.391492 0.504256
O O13 0.613488 0.338118 0.245483
O O14 0.758452 0.617641 0.011442
#
# Coordination Sequence:
#
# PCOD9250979 Si02
#       7
#     4   4   4   4   4   4   4
#     4  11  27  45  66 104 142 179 225 288 351 408
#     4  11  23  47  70 103 133 181 237 274 347 420
#     4  10  25  43  73 100 140 178 230 286 347 406
#     4  11  22  42  72 100 135 179 237 286 335 416
#     4  11  21  43  69 100 137 177 233 288 344 401
#     4  11  25  44  68 101 138 181 230 279 355 414
#     4  11  24  42  67 106 131 180 236 275 348 414
#
# _framework density 26.418415
#
# number of rings (size 3 to 8) (size 9 to 14) (size 15 to 20)
#    0.000    1.143    4.286    1.286    6.000    5.714 
#    2.571    0.000    0.000    0.000    0.000    0.000 
#    0.000    0.000    0.000    0.000    0.000    0.000 
#
# Total GULP energy -156040.642746 kJ/mol
# GULP energy per Si atom -5572.880098 kJ/mol
# Density = 2.635829 g / cm^3
# Si number density = 26.418415 Si / 1000 Ang^3
#
#
#
# Elastic Constant Matrix: (Units=GPa)
#
#
# Indices 1 2 3 4 5 6 
#
# 1 164.8926 18.0231 40.8727 0.0000 4.2414 0.0000
# 2 18.0231 66.2818 11.7342 0.0000 6.9309 0.0000
# 3 40.8727 11.7342 64.4917 0.0000 -7.2486 0.0000
# 4 0.0000 0.0000 0.0000 18.7314 0.0000 12.3302
# 5 4.2414 6.9309 -7.2486 0.0000 44.1006 0.0000
# 6 0.0000 0.0000 0.0000 12.3302 0.0000 35.5226
#
#
#
# Elastic Compliance Matrix: (Units=1/GPa)
#
#
# Indices 1 2 3 4 5 6 
#
# 1 0.007357 -0.001047 -0.004619 0.000000 -0.001302 0.000000
# 2 -0.001047 0.016130 -0.002593 0.000000 -0.002861 0.000000
# 3 -0.004619 -0.002593 0.019358 0.000000 0.004034 0.000000
# 4 0.000000 0.000000 0.000000 0.069197 0.000000 -0.024019
# 5 -0.001302 -0.002861 0.004034 0.000000 0.023913 0.000000
# 6 0.000000 0.000000 0.000000 -0.024019 0.000000 0.036488
#
#
# Mechanical properties :
#
#
# Convention : Reuss Voigt Hill
#
# Bulk Modulus (GPa) = 37.98152 48.54733 43.26442
# Shear Modulus (GPa) = 25.28613 34.67331 29.97972
#
# Velocity S-wave (km/s) = 3.09712 3.62673 3.37234
# Velocity P-wave (km/s) = 5.21514 5.99615 5.61923
#
# Compressibility (1/GPa) = 0.02632859
#
# Stress axis : x y z
#
# Youngs Moduli (GPa) = 135.91886 61.99678 51.65765
#
# Poissons Ratio (x) = 0.06489 0.23859
# Poissons Ratio (y) = 0.14227 0.13395
# Poissons Ratio (z) = 0.62777 0.16075
#
# Static dielectric constant tensor:
#      x y z
#    x 2.147950 0.000000 0.060840 
#    y 0.000000 2.124120 0.000000 
#    z 0.060840 0.000000 2.121620 
# 
# From -- ./inp_files/50041.got.cif
#   From: 2010.05.17/outbox.cif.g08.bks.cpg/sg14_26_cif.got.tgz:50041.got - 2010.06.03 17:49:19.
