data_PCOD9250409
_publ_section_title
;
Structure prediction by ZEFSAII (Michael W. Deem and Ramdas Pophale) SiO2 
 PCOD9250409
Probable space group: P 21/C
;
_chemical_formula_sum "Si O2"
_cell_formula_units_Z 22
_cell_length_a 25.207482
_cell_length_b 7.386505
_cell_length_c 14.565447
_cell_angle_alpha 90.000000
_cell_angle_beta 161.487064
_cell_angle_gamma 90.000000
_cell_volume 861.116012
_symmetry_space_group_name_H-M "P 21/C"
_symmetry_group_IT_number 14
_symmetry_cell_setting 'monoclinic'
loop_
_space_group_symop_operation_xyz
x,y,z
-x,1/2+y,1/2-z
-x,-y,-z
x,1/2-y,1/2+z
loop_
_atom_site_type_symbol
_atom_site_label
_atom_site_fract_x
_atom_site_fract_y
_atom_site_fract_z
Si Si1 0.296020 0.182180 0.120727
Si Si2 0.318833 0.688574 0.428854
Si Si3 0.585900 0.963486 0.493555
Si Si4 0.000000 0.500000 0.000000
Si Si5 0.226635 0.534325 0.088836
Si Si6 0.048976 0.619019 0.240137
O O1 0.443485 0.092888 0.305900
O O2 0.292953 0.397857 0.120844
O O3 0.323928 0.132664 0.273905
O O4 0.127032 0.066076 0.819035
O O5 0.295819 0.896567 0.363144
O O6 0.487287 0.665915 0.763587
O O7 0.326017 0.570889 0.346156
O O8 0.163722 0.623945 0.233290
O O9 0.063194 0.330749 0.029538
O O10 0.186121 0.733642 0.985539
O O11 0.054060 0.442350 0.841559
#
# Coordination Sequence:
#
# PCOD9250409 Si02
#       6
#     4   4   4   2   4   4
#     4  11  23  43  65 101 135 182 223 285 341 418
#     4  11  23  42  66 100 134 184 223 292 339 413
#     4  11  24  42  67  98 143 174 231 285 349 408
#     4  10  24  42  68  94 144 172 240 284 334 410
#     4  11  23  40  72  95 134 179 231 274 355 399
#     4  11  21  43  66  99 132 182 219 291 332 412
#
# _framework density 25.548241999999998
#
# number of rings (size 3 to 8) (size 9 to 14) (size 15 to 20)
#    0.000    1.091    5.455    1.091    0.000    2.182 
#    0.000    0.909    0.000    0.000    0.000    0.000 
#    0.000    0.000    0.000    0.000    0.000    0.000 
#
# Total GULP energy -122747.283665 kJ/mol
# GULP energy per Si atom -5579.421985 kJ/mol
# Density = 2.549009 g / cm^3
# Si number density = 25.548242 Si / 1000 Ang^3
#
#
#
# Elastic Constant Matrix: (Units=GPa)
#
#
# Indices 1 2 3 4 5 6 
#
# 1 72.6112 13.3443 15.5328 0.0000 -18.9385 0.0000
# 2 13.3443 62.6649 20.7787 0.0000 -18.1322 0.0000
# 3 15.5328 20.7787 89.5833 0.0000 -18.7587 0.0000
# 4 0.0000 0.0000 0.0000 35.9095 0.0000 0.6908
# 5 -18.9385 -18.1322 -18.7587 0.0000 45.1266 0.0000
# 6 0.0000 0.0000 0.0000 0.6908 0.0000 35.4932
#
#
#
# Elastic Compliance Matrix: (Units=1/GPa)
#
#
# Indices 1 2 3 4 5 6 
#
# 1 0.015732 -0.001328 -0.001258 0.000000 0.005545 0.000000
# 2 -0.001328 0.018897 -0.002935 0.000000 0.005815 0.000000
# 3 -0.001258 -0.002935 0.012820 0.000000 0.003622 0.000000
# 4 0.000000 0.000000 0.000000 0.027858 0.000000 -0.000542
# 5 0.005545 0.005815 0.003622 0.000000 0.028329 0.000000
# 6 0.000000 0.000000 0.000000 -0.000542 0.000000 0.028185
#
#
# Mechanical properties :
#
#
# Convention : Reuss Voigt Hill
#
# Bulk Modulus (GPa) = 27.46865 36.01902 31.74384
# Shear Modulus (GPa) = 32.25823 34.98609 33.62216
#
# Velocity S-wave (km/s) = 3.55722 3.70457 3.63164
# Velocity P-wave (km/s) = 5.25802 5.69452 5.48062
#
# Compressibility (1/GPa) = 0.03640514
#
# Stress axis : x y z
#
# Youngs Moduli (GPa) = 63.56628 52.91950 78.00210
#
# Poissons Ratio (x) = 0.07029 0.09816
# Poissons Ratio (y) = 0.08443 0.22894
# Poissons Ratio (z) = 0.07999 0.15532
#
# Static dielectric constant tensor:
#      x y z
#    x 2.185450 0.000000 -0.238610 
#    y 0.000000 2.070630 0.000000 
#    z -0.238610 0.000000 2.304080 
# 
# From -- ./inp_files/62470.got.cif
#   From: 2010.05.17/outbox.cif.g08.bks.cpg/sg14_32_cif.got.tgz:62470.got - 2010.06.03 17:49:19.
