data_PCOD9250688
_publ_section_title
;
Structure prediction by ZEFSAII (Michael W. Deem and Ramdas Pophale) SiO2 
 PCOD9250688
Probable space group: P 21/C
;
_chemical_formula_sum "Si O2"
_cell_formula_units_Z 28
_cell_length_a 13.511769
_cell_length_b 11.773722
_cell_length_c 7.996383
_cell_angle_alpha 90.000000
_cell_angle_beta 66.816026
_cell_angle_gamma 90.000000
_cell_volume 1169.367675
_symmetry_space_group_name_H-M "P 21/C"
_symmetry_group_IT_number 14
_symmetry_cell_setting 'monoclinic'
loop_
_space_group_symop_operation_xyz
x,y,z
-x,1/2+y,1/2-z
-x,-y,-z
x,1/2-y,1/2+z
loop_
_atom_site_type_symbol
_atom_site_label
_atom_site_fract_x
_atom_site_fract_y
_atom_site_fract_z
Si Si1 0.617194 0.515864 0.350510
Si Si2 0.774973 0.824378 0.868122
Si Si3 0.929952 0.697493 0.982024
Si Si4 0.385036 0.120137 0.516785
Si Si5 0.038721 0.607477 0.588180
Si Si6 0.270772 0.669336 0.572194
Si Si7 0.628430 0.369534 0.841651
O O1 0.500000 0.500000 0.500000
O O2 0.684521 0.583180 0.444916
O O3 0.619545 0.585377 0.176709
O O4 0.680370 0.397420 0.300705
O O5 0.849643 0.795548 0.971862
O O6 0.858903 0.863267 0.669298
O O7 0.706798 0.710086 0.879487
O O8 0.963257 0.621534 0.803123
O O9 0.024823 0.772271 0.998389
O O10 0.505876 0.165223 0.472391
O O11 0.366972 0.002809 0.624627
O O12 0.159183 0.615306 0.582342
O O13 0.000000 0.500000 0.500000
O O14 0.279502 0.800266 0.620927
O O15 0.352860 0.653358 0.364864
#
# Coordination Sequence:
#
# PCOD9250688 Si02
#       7
#     4   4   4   4   4   4   4
#     4  12  24  42  68 107 141 182 238 287 366 444
#     4  11  23  42  72 100 142 186 239 298 357 432
#     4  10  24  45  70 106 135 190 248 297 366 439
#     4  11  25  43  67 103 144 188 234 295 357 446
#     4  11  25  47  74 106 147 192 247 318 374 434
#     4  12  25  45  72  99 144 188 233 304 364 440
#     4  11  26  43  67 102 143 187 235 286 373 437
#
# _framework density 23.944566999999999
#
# number of rings (size 3 to 8) (size 9 to 14) (size 15 to 20)
#    0.000    0.857    2.857    3.429    6.000    0.000 
#    0.000    6.429    0.000    0.000    0.000    0.000 
#    0.000    0.000    0.000    0.000    0.000    0.000 
#
# Total GULP energy -156539.774327 kJ/mol
# GULP energy per Si atom -5590.706226 kJ/mol
# Density = 2.389007 g / cm^3
# Si number density = 23.944567 Si / 1000 Ang^3
#
#
#
# Elastic Constant Matrix: (Units=GPa)
#
#
# Indices 1 2 3 4 5 6 
#
# 1 118.6200 40.7631 17.5442 0.0000 -9.3410 0.0000
# 2 40.7631 72.3861 35.7227 0.0000 -11.3633 0.0000
# 3 17.5442 35.7227 100.0802 0.0000 -5.0874 0.0000
# 4 0.0000 0.0000 0.0000 25.8053 0.0000 2.5403
# 5 -9.3410 -11.3633 -5.0874 0.0000 23.6759 0.0000
# 6 0.0000 0.0000 0.0000 2.5403 0.0000 46.4784
#
#
#
# Elastic Compliance Matrix: (Units=1/GPa)
#
#
# Indices 1 2 3 4 5 6 
#
# 1 0.010505 -0.005853 0.000319 0.000000 0.001404 0.000000
# 2 -0.005853 0.021200 -0.006209 0.000000 0.006532 0.000000
# 3 0.000319 -0.006209 0.012140 0.000000 -0.000246 0.000000
# 4 0.000000 0.000000 0.000000 0.038961 0.000000 -0.002129
# 5 0.001404 0.006532 -0.000246 0.000000 0.045873 0.000000
# 6 0.000000 0.000000 0.000000 -0.002129 0.000000 0.021632
#
#
# Mechanical properties :
#
#
# Convention : Reuss Voigt Hill
#
# Bulk Modulus (GPa) = 49.11794 53.23847 51.17821
# Shear Modulus (GPa) = 27.68796 32.32898 30.00847
#
# Velocity S-wave (km/s) = 3.40418 3.67844 3.54396
# Velocity P-wave (km/s) = 6.00075 6.35008 6.17789
#
# Compressibility (1/GPa) = 0.02035916
#
# Stress axis : x y z
#
# Youngs Moduli (GPa) = 95.19356 47.16922 82.37277
#
# Poissons Ratio (x) = 0.27606 -0.02627
# Poissons Ratio (y) = 0.55713 0.51147
# Poissons Ratio (z) = -0.03036 0.29289
#
# Static dielectric constant tensor:
#      x y z
#    x 1.964690 0.000000 0.031810 
#    y 0.000000 2.003540 0.000000 
#    z 0.031810 0.000000 1.908790 
# 
# From -- ./inp_files/15679.got.cif
#   From: 2010.05.17/outbox.cif.g08.bks.cpg/sg14_8_cif.got.tgz:15679.got - 2010.06.03 17:49:19.
