data_PCOD9250701
_publ_section_title
;
Structure prediction by ZEFSAII (Michael W. Deem and Ramdas Pophale) SiO2 
 PCOD9250701
Probable space group: P 21/C
;
_chemical_formula_sum "Si O2"
_cell_formula_units_Z 20
_cell_length_a 4.576926
_cell_length_b 11.514598
_cell_length_c 13.728020
_cell_angle_alpha 90.000000
_cell_angle_beta 103.532748
_cell_angle_gamma 90.000000
_cell_volume 703.400093
_symmetry_space_group_name_H-M "P 21/C"
_symmetry_group_IT_number 14
_symmetry_cell_setting 'monoclinic'
loop_
_space_group_symop_operation_xyz
x,y,z
-x,1/2+y,1/2-z
-x,-y,-z
x,1/2-y,1/2+z
loop_
_atom_site_type_symbol
_atom_site_label
_atom_site_fract_x
_atom_site_fract_y
_atom_site_fract_z
Si Si1 0.842624 0.076360 0.630717
Si Si2 0.126505 0.834143 0.872197
Si Si3 0.451857 0.019945 0.197586
Si Si4 0.805876 0.354920 0.912387
Si Si5 0.366591 0.308748 0.420345
O O1 0.986959 0.203595 0.658601
O O2 0.705884 0.100848 0.513364
O O3 0.645484 0.040172 0.708368
O O4 0.055228 0.968883 0.623512
O O5 0.307636 0.876547 0.792261
O O6 0.855351 0.923466 0.869359
O O7 0.390052 0.832080 0.974558
O O8 0.615018 0.924838 0.141594
O O9 0.059515 0.251341 0.933478
O O10 0.501933 0.290260 0.861029
#
# Coordination Sequence:
#
# PCOD9250701 Si02
#       5
#     4   4   4   4   4
#     4  10  26  44  68 100 134 177 225 274 326 394
#     4  11  25  44  65  99 136 175 218 278 330 393
#     4  12  26  40  72  97 138 170 227 273 332 389
#     4  10  24  45  71  96 136 177 219 270 335 396
#     4  11  23  45  71  99 133 177 217 270 339 398
#
# _framework density 28.433323000000001
#
# number of rings (size 3 to 8) (size 9 to 14) (size 15 to 20)
#    0.000    1.200    0.000    4.800    5.600   13.600 
#    0.000    0.000    0.000    0.000    0.000    0.000 
#    0.000    0.000    0.000    0.000    0.000    0.000 
#
# Total GULP energy -111847.353798 kJ/mol
# GULP energy per Si atom -5592.367690 kJ/mol
# Density = 2.836861 g / cm^3
# Si number density = 28.433323 Si / 1000 Ang^3
#
#
#
# Elastic Constant Matrix: (Units=GPa)
#
#
# Indices 1 2 3 4 5 6 
#
# 1 130.0290 54.4916 17.1829 0.0000 -24.4524 0.0000
# 2 54.4916 179.0779 67.2035 0.0000 -31.9971 0.0000
# 3 17.1829 67.2035 84.8258 0.0000 -22.3973 0.0000
# 4 0.0000 0.0000 0.0000 43.5497 0.0000 -33.4655
# 5 -24.4524 -31.9971 -22.3973 0.0000 35.0719 0.0000
# 6 0.0000 0.0000 0.0000 -33.4655 0.0000 43.1392
#
#
#
# Elastic Compliance Matrix: (Units=1/GPa)
#
#
# Indices 1 2 3 4 5 6 
#
# 1 0.009543 -0.002500 0.001446 0.000000 0.005296 0.000000
# 2 -0.002500 0.009068 -0.005958 0.000000 0.002725 0.000000
# 3 0.001446 -0.005958 0.018099 0.000000 0.007131 0.000000
# 4 0.000000 0.000000 0.000000 0.056855 0.000000 0.044105
# 5 0.005296 0.002725 0.007131 0.000000 0.039245 0.000000
# 6 0.000000 0.000000 0.000000 0.044105 0.000000 0.057396
#
#
# Mechanical properties :
#
#
# Convention : Reuss Voigt Hill
#
# Bulk Modulus (GPa) = 44.08114 74.63208 59.35661
# Shear Modulus (GPa) = 23.60811 41.35582 32.48197
#
# Velocity S-wave (km/s) = 2.88461 3.81791 3.38359
# Velocity P-wave (km/s) = 5.16059 6.76316 6.01548
#
# Compressibility (1/GPa) = 0.02268544
#
# Stress axis : x y z
#
# Youngs Moduli (GPa) = 104.78620 110.28134 55.25166
#
# Poissons Ratio (x) = 0.27574 -0.07990
# Poissons Ratio (y) = 0.26200 0.32919
# Poissons Ratio (z) = -0.15153 0.65706
#
# Static dielectric constant tensor:
#      x y z
#    x 2.171050 0.000000 0.151160 
#    y 0.000000 2.265490 0.000000 
#    z 0.151160 0.000000 2.551090 
# 
# From -- ./inp_files/36955.got.cif
#   From: 2010.05.17/outbox.cif.g08.bks.cpg/sg14_19_cif.got.tgz:36955.got - 2010.06.03 17:49:19.
