data_PCOD9250480
_publ_section_title
;
Structure prediction by ZEFSAII (Michael W. Deem and Ramdas Pophale) SiO2 
 PCOD9250480
Probable space group: P 21/C
;
_chemical_formula_sum "Si O2"
_cell_formula_units_Z 28
_cell_length_a 12.533517
_cell_length_b 13.815468
_cell_length_c 8.726006
_cell_angle_alpha 90.000000
_cell_angle_beta 52.663553
_cell_angle_gamma 90.000000
_cell_volume 1201.348951
_symmetry_space_group_name_H-M "P 21/C"
_symmetry_group_IT_number 14
_symmetry_cell_setting 'monoclinic'
loop_
_space_group_symop_operation_xyz
x,y,z
-x,1/2+y,1/2-z
-x,-y,-z
x,1/2-y,1/2+z
loop_
_atom_site_type_symbol
_atom_site_label
_atom_site_fract_x
_atom_site_fract_y
_atom_site_fract_z
Si Si1 0.497829 0.470423 0.758251
Si Si2 0.593266 0.884794 0.963433
Si Si3 0.174324 0.537571 0.749494
Si Si4 0.279930 0.477645 0.216190
Si Si5 0.010873 0.711777 0.810304
Si Si6 0.929762 0.431975 0.817273
Si Si7 0.808280 0.777631 0.231442
O O1 0.476053 0.391866 0.642884
O O2 0.496557 0.579713 0.684769
O O3 0.635744 0.461959 0.733934
O O4 0.379459 0.461310 0.984993
O O5 0.686244 0.790149 0.893617
O O6 0.689872 0.978906 0.878405
O O7 0.139745 0.645596 0.724707
O O8 0.074280 0.477272 0.726672
O O9 0.141639 0.540929 0.959603
O O10 0.149647 0.528303 0.260274
O O11 0.247190 0.370785 0.309227
O O12 0.902794 0.677034 0.779677
O O13 0.054800 0.818446 0.724976
O O14 0.913975 0.715457 0.042337
#
# Coordination Sequence:
#
# PCOD9250480 Si02
#       7
#     4   4   4   4   4   4   4
#     4  10  24  43  66  89 125 179 226 262 328 385
#     4  11  22  45  70  93 130 180 221 264 332 398
#     4  11  21  41  65  96 136 171 204 277 338 388
#     4  11  23  43  66  98 134 168 220 282 318 377
#     4  12  23  38  63 107 133 169 218 261 344 399
#     4  11  22  40  66  95 137 170 207 275 340 385
#     4  12  23  39  68 102 128 164 230 272 310 408
#
# _framework density 23.307134000000001
#
# number of rings (size 3 to 8) (size 9 to 14) (size 15 to 20)
#    0.000    0.857    5.714    2.571    0.000    1.714 
#    0.000    8.571    0.000    0.000    0.000    0.000 
#    0.000    0.000    0.000    0.000    0.000    0.000 
#
# Total GULP energy -156415.737645 kJ/mol
# GULP energy per Si atom -5586.276344 kJ/mol
# Density = 2.325409 g / cm^3
# Si number density = 23.307134 Si / 1000 Ang^3
#
#
#
# Elastic Constant Matrix: (Units=GPa)
#
#
# Indices 1 2 3 4 5 6 
#
# 1 132.0769 25.2988 -6.7053 0.0000 15.3902 0.0000
# 2 25.2988 99.8269 0.3810 0.0000 -11.7801 0.0000
# 3 -6.7053 0.3810 45.9242 0.0000 6.7635 0.0000
# 4 0.0000 0.0000 0.0000 28.6810 0.0000 -4.0792
# 5 15.3902 -11.7801 6.7635 0.0000 32.1674 0.0000
# 6 0.0000 0.0000 0.0000 -4.0792 0.0000 20.2743
#
#
#
# Elastic Compliance Matrix: (Units=1/GPa)
#
#
# Indices 1 2 3 4 5 6 
#
# 1 0.008926 -0.002956 0.002184 0.000000 -0.005812 0.000000
# 2 -0.002956 0.011469 -0.001397 0.000000 0.005908 0.000000
# 3 0.002184 -0.001397 0.023048 0.000000 -0.006403 0.000000
# 4 0.000000 0.000000 0.000000 0.035893 0.000000 0.007222
# 5 -0.005812 0.005908 -0.006403 0.000000 0.037378 0.000000
# 6 0.000000 0.000000 0.000000 0.007222 0.000000 0.050776
#
#
# Mechanical properties :
#
#
# Convention : Reuss Voigt Hill
#
# Bulk Modulus (GPa) = 25.57261 35.08634 30.32947
# Shear Modulus (GPa) = 27.04682 33.48144 30.26413
#
# Velocity S-wave (km/s) = 3.41024 3.79427 3.60737
# Velocity P-wave (km/s) = 5.14802 5.85508 5.51290
#
# Compressibility (1/GPa) = 0.03910434
#
# Stress axis : x y z
#
# Youngs Moduli (GPa) = 112.03566 87.19107 43.38705
#
# Poissons Ratio (x) = 0.25776 -0.09475
# Poissons Ratio (y) = 0.33120 0.06061
# Poissons Ratio (z) = -0.24466 0.12180
#
# Static dielectric constant tensor:
#      x y z
#    x 1.924610 0.000000 0.014130 
#    y 0.000000 1.853730 0.000000 
#    z 0.014130 0.000000 1.999790 
# 
# From -- ./inp_files/12990.got.cif
#   From: 2010.05.17/outbox.cif.g08.bks.cpg/sg14_7_cif.got.tgz:12990.got - 2010.06.03 17:49:19.
