data_PCOD9250631
_publ_section_title
;
Structure prediction by ZEFSAII (Michael W. Deem and Ramdas Pophale) SiO2 
 PCOD9250631
Probable space group: P 21/C
;
_chemical_formula_sum "Si O2"
_cell_formula_units_Z 16
_cell_length_a 8.072816
_cell_length_b 7.686189
_cell_length_c 13.605437
_cell_angle_alpha 90.000000
_cell_angle_beta 44.753110
_cell_angle_gamma 90.000000
_cell_volume 594.366235
_symmetry_space_group_name_H-M "P 21/C"
_symmetry_group_IT_number 14
_symmetry_cell_setting 'monoclinic'
loop_
_space_group_symop_operation_xyz
x,y,z
-x,1/2+y,1/2-z
-x,-y,-z
x,1/2-y,1/2+z
loop_
_atom_site_type_symbol
_atom_site_label
_atom_site_fract_x
_atom_site_fract_y
_atom_site_fract_z
Si Si1 0.906006 0.619878 0.454036
Si Si2 0.266183 0.065489 0.362230
Si Si3 0.637474 0.792813 0.892246
Si Si4 0.668528 0.431004 0.833773
O O1 0.742659 0.750097 0.580150
O O2 0.748643 0.577138 0.425971
O O3 0.000000 0.500000 0.500000
O O4 0.151608 0.684222 0.304208
O O5 0.346888 0.104790 0.217238
O O6 0.472042 0.986029 0.342648
O O7 0.000000 0.000000 0.500000
O O8 0.793615 0.612223 0.814880
O O9 0.424124 0.689148 0.038298
#
# Coordination Sequence:
#
# PCOD9250631 Si02
#       4
#     4   4   4   4
#     4  11  24  44  72 106 144 189 256 307 369 452
#     4  11  26  42  73 110 149 197 250 314 372 452
#     4  10  24  44  72 104 143 202 239 309 377 440
#     4  10  24  47  70 103 153 198 250 304 379 451
#
# _framework density 26.919428
#
# number of rings (size 3 to 8) (size 9 to 14) (size 15 to 20)
#    0.000    1.500    2.500    0.000   14.000    0.000 
#    0.000    2.500    0.000    0.000    0.000    0.000 
#    0.000    0.000    0.000    0.000    0.000    0.000 
#
# Total GULP energy -89077.210333 kJ/mol
# GULP energy per Si atom -5567.325646 kJ/mol
# Density = 2.685816 g / cm^3
# Si number density = 26.919428 Si / 1000 Ang^3
#
#
#
# Elastic Constant Matrix: (Units=GPa)
#
#
# Indices 1 2 3 4 5 6 
#
# 1 141.2436 19.9656 88.3405 0.0000 43.3220 0.0000
# 2 19.9656 65.9038 31.9227 0.0000 18.5117 0.0000
# 3 88.3405 31.9227 235.9355 0.0000 48.0592 0.0000
# 4 0.0000 0.0000 0.0000 56.9105 0.0000 -2.7530
# 5 43.3220 18.5117 48.0592 0.0000 58.6211 0.0000
# 6 0.0000 0.0000 0.0000 -2.7530 0.0000 34.1753
#
#
#
# Elastic Compliance Matrix: (Units=1/GPa)
#
#
# Indices 1 2 3 4 5 6 
#
# 1 0.010529 -0.000320 -0.002803 0.000000 -0.005382 0.000000
# 2 -0.000320 0.017066 -0.001368 0.000000 -0.004031 0.000000
# 3 -0.002803 -0.001368 0.005958 0.000000 -0.002381 0.000000
# 4 0.000000 0.000000 0.000000 0.017640 0.000000 0.001421
# 5 -0.005382 -0.004031 -0.002381 0.000000 0.024261 0.000000
# 6 0.000000 0.000000 0.000000 0.001421 0.000000 0.029375
#
#
# Mechanical properties :
#
#
# Convention : Reuss Voigt Hill
#
# Bulk Modulus (GPa) = 40.69934 80.39340 60.54637
# Shear Modulus (GPa) = 40.98304 50.13166 45.55735
#
# Velocity S-wave (km/s) = 3.90607 4.32010 4.11829
# Velocity P-wave (km/s) = 5.95776 7.40363 6.71970
#
# Compressibility (1/GPa) = 0.02457042
#
# Stress axis : x y z
#
# Youngs Moduli (GPa) = 94.97584 58.59764 167.84183
#
# Poissons Ratio (x) = 0.01878 0.47040
# Poissons Ratio (y) = 0.03043 0.22961
# Poissons Ratio (z) = 0.26618 0.08016
#
# Static dielectric constant tensor:
#      x y z
#    x 3.368690 0.000000 0.179340 
#    y 0.000000 2.145100 0.000000 
#    z 0.179340 0.000000 2.255770 
# 
# From -- ./inp_files/38566.got.cif
#   From: 2010.05.17/outbox.cif.g08.bks.cpg/sg14_20_cif.got.tgz:38566.got - 2010.06.03 17:49:19.
