data_PCOD9250322
_publ_section_title
;
Structure prediction by ZEFSAII (Michael W. Deem and Ramdas Pophale) SiO2 
 PCOD9250322
Probable space group: P 21/C
;
_chemical_formula_sum "Si O2"
_cell_formula_units_Z 30
_cell_length_a 30.216605
_cell_length_b 4.774664
_cell_length_c 8.819575
_cell_angle_alpha 90.000000
_cell_angle_beta 117.165408
_cell_angle_gamma 90.000000
_cell_volume 1132.076862
_symmetry_space_group_name_H-M "P 21/C"
_symmetry_group_IT_number 14
_symmetry_cell_setting 'monoclinic'
loop_
_space_group_symop_operation_xyz
x,y,z
-x,1/2+y,1/2-z
-x,-y,-z
x,1/2-y,1/2+z
loop_
_atom_site_type_symbol
_atom_site_label
_atom_site_fract_x
_atom_site_fract_y
_atom_site_fract_z
Si Si1 0.837142 0.500369 0.503885
Si Si2 0.575332 0.770062 0.863664
Si Si3 0.294549 0.052041 0.682450
Si Si4 0.035397 0.251191 0.003879
Si Si5 0.638669 0.053342 0.705437
Si Si6 0.099948 0.483511 0.843868
Si Si7 0.768758 0.273698 0.655196
Si Si8 0.500000 0.500000 0.500000
O O1 0.851640 0.822570 0.522752
O O2 0.798541 0.450042 0.577974
O O3 0.810467 0.396453 0.312132
O O4 0.886458 0.308870 0.618105
O O5 0.607046 0.973307 0.804137
O O6 0.537952 0.610905 0.692858
O O7 0.542409 0.930323 0.936120
O O8 0.609876 0.556451 0.012528
O O9 0.345814 0.875261 0.775693
O O10 0.261727 0.962963 0.774751
O O11 0.267356 0.938653 0.490448
O O12 0.310189 0.374079 0.704230
O O13 0.086630 0.140898 0.159660
O O14 0.054060 0.368741 0.871957
O O15 0.000000 0.500000 0.000000
O O16 0.000000 0.000000 0.000000
#
# Coordination Sequence:
#
# PCOD9250322 Si02
#       8
#     4   4   4   4   4   4   4   2
#     4  11  24  41  62  92 125 167 212 261 327 390
#     4  10  24  42  69 101 142 184 237 291 354 422
#     4  11  24  42  67  97 134 174 223 277 338 401
#     4  12  24  41  64  91 122 162 209 262 321 384
#     4  11  24  43  69 100 135 181 228 285 345 414
#     4  12  24  42  64  90 126 164 209 264 320 390
#     4  10  24  41  65  94 130 170 216 271 327 400
#     4  10  24  44  64 102 140 188 236 296 356 422
#
# _framework density 26.499966000000001
#
# number of rings (size 3 to 8) (size 9 to 14) (size 15 to 20)
#    0.000    1.067    0.000    5.600    0.000   12.800 
#    0.000    0.000    0.000    0.000    0.000    0.000 
#    0.000    0.000    0.000    0.000    0.000    0.000 
#
# Total GULP energy -167855.349965 kJ/mol
# GULP energy per Si atom -5595.178332 kJ/mol
# Density = 2.643965 g / cm^3
# Si number density = 26.499966 Si / 1000 Ang^3
#
#
#
# Elastic Constant Matrix: (Units=GPa)
#
#
# Indices 1 2 3 4 5 6 
#
# 1 120.0848 20.4089 50.4161 0.0000 -6.7579 0.0000
# 2 20.4089 108.3525 12.3961 0.0000 6.1283 0.0000
# 3 50.4161 12.3961 73.7057 0.0000 -5.0261 0.0000
# 4 0.0000 0.0000 0.0000 26.9317 0.0000 9.5748
# 5 -6.7579 6.1283 -5.0261 0.0000 43.2987 0.0000
# 6 0.0000 0.0000 0.0000 9.5748 0.0000 39.6310
#
#
#
# Elastic Compliance Matrix: (Units=1/GPa)
#
#
# Indices 1 2 3 4 5 6 
#
# 1 0.011924 -0.001414 -0.007840 0.000000 0.001151 0.000000
# 2 -0.001414 0.009679 -0.000775 0.000000 -0.001681 0.000000
# 3 -0.007840 -0.000775 0.019136 0.000000 0.001107 0.000000
# 4 0.000000 0.000000 0.000000 0.040620 0.000000 -0.009814
# 5 0.001151 -0.001681 0.001107 0.000000 0.023641 0.000000
# 6 0.000000 0.000000 0.000000 -0.009814 0.000000 0.027604
#
#
# Mechanical properties :
#
#
# Convention : Reuss Voigt Hill
#
# Bulk Modulus (GPa) = 48.35411 52.06500 50.20956
# Shear Modulus (GPa) = 31.33682 36.56709 33.95196
#
# Velocity S-wave (km/s) = 3.44251 3.71872 3.58328
# Velocity P-wave (km/s) = 5.83846 6.17482 6.00899
#
# Compressibility (1/GPa) = 0.02068077
#
# Stress axis : x y z
#
# Youngs Moduli (GPa) = 83.86401 103.31391 52.25742
#
# Poissons Ratio (x) = 0.14610 0.40970
# Poissons Ratio (y) = 0.11860 0.04051
# Poissons Ratio (z) = 0.65749 0.08009
#
# Static dielectric constant tensor:
#      x y z
#    x 2.090000 0.000000 0.012920 
#    y 0.000000 1.994430 0.000000 
#    z 0.012920 0.000000 2.038560 
# 
# From -- ./inp_files/19904.got.cif
#   From: 2010.05.17/outbox.cif.g08.bks.cpg/sg14_10_cif.got.tgz:19904.got - 2010.06.03 17:49:19.
