data_PCOD9250275
_publ_section_title
;
Structure prediction by ZEFSAII (Michael W. Deem and Ramdas Pophale) SiO2 
 PCOD9250275
Probable space group: P 21/C
;
_chemical_formula_sum "Si O2"
_cell_formula_units_Z 26
_cell_length_a 8.342754
_cell_length_b 8.346214
_cell_length_c 21.708235
_cell_angle_alpha 90.000000
_cell_angle_beta 44.934806
_cell_angle_gamma 90.000000
_cell_volume 1067.612735
_symmetry_space_group_name_H-M "P 21/C"
_symmetry_group_IT_number 14
_symmetry_cell_setting 'monoclinic'
loop_
_space_group_symop_operation_xyz
x,y,z
-x,1/2+y,1/2-z
-x,-y,-z
x,1/2-y,1/2+z
loop_
_atom_site_type_symbol
_atom_site_label
_atom_site_fract_x
_atom_site_fract_y
_atom_site_fract_z
Si Si1 0.350553 0.739722 0.244391
Si Si2 0.047904 0.658522 0.603290
Si Si3 0.507066 0.707140 0.423223
Si Si4 0.007167 0.982787 0.372539
Si Si5 0.500000 0.000000 0.500000
Si Si6 0.671857 0.022823 0.143295
Si Si7 0.989023 0.954816 0.773831
O O1 0.435336 0.599294 0.265637
O O2 0.193915 0.663620 0.234619
O O3 0.537070 0.858641 0.167501
O O4 0.185405 0.843225 0.334749
O O5 0.321354 0.664647 0.526636
O O6 0.967103 0.837393 0.608406
O O7 0.975995 0.608735 0.691690
O O8 0.926977 0.528571 0.592390
O O9 0.379449 0.644598 0.397311
O O10 0.750442 0.623734 0.359459
O O11 0.531929 0.895601 0.426699
O O12 0.748895 0.934980 0.455609
O O13 0.026052 0.009846 0.293569
#
# Coordination Sequence:
#
# PCOD9250275 Si02
#       7
#     4   4   4   4   2   4   4
#     4  11  23  41  65  97 132 171 223 270 322 403
#     4  10  24  40  64  97 134 172 221 271 329 402
#     4  11  22  42  67  94 136 172 225 276 334 393
#     4  11  21  41  65  97 129 174 218 274 330 391
#     4  10  24  40  64  98 136 164 222 286 326 390
#     4  11  24  41  65  96 137 177 216 272 335 403
#     4  11  22  40  70  95 128 175 227 275 332 389
#
# _framework density 24.353401000000002
#
# number of rings (size 3 to 8) (size 9 to 14) (size 15 to 20)
#    0.000    1.231    3.077    2.769    0.000    1.231 
#    0.000    4.615    0.000    0.000    0.000    0.000 
#    0.000    0.000    0.000    0.000    0.000    0.000 
#
# Total GULP energy -144793.260794 kJ/mol
# GULP energy per Si atom -5568.971569 kJ/mol
# Density = 2.429797 g / cm^3
# Si number density = 24.353401 Si / 1000 Ang^3
#
#
#
# Elastic Constant Matrix: (Units=GPa)
#
#
# Indices 1 2 3 4 5 6 
#
# 1 51.5478 25.0892 1.1266 0.0000 -3.1844 0.0000
# 2 25.0892 61.0772 2.0194 0.0000 3.8336 0.0000
# 3 1.1266 2.0194 28.9573 0.0000 -12.8294 0.0000
# 4 0.0000 0.0000 0.0000 34.3529 0.0000 -1.4361
# 5 -3.1844 3.8336 -12.8294 0.0000 46.0240 0.0000
# 6 0.0000 0.0000 0.0000 -1.4361 0.0000 41.4441
#
#
#
# Elastic Compliance Matrix: (Units=1/GPa)
#
#
# Indices 1 2 3 4 5 6 
#
# 1 0.024568 -0.010304 0.001022 0.000000 0.002843 0.000000
# 2 -0.010304 0.020883 -0.002444 0.000000 -0.003134 0.000000
# 3 0.001022 -0.002444 0.039687 0.000000 0.011337 0.000000
# 4 0.000000 0.000000 0.000000 0.029152 0.000000 0.001010
# 5 0.002843 -0.003134 0.011337 0.000000 0.025346 0.000000
# 6 0.000000 0.000000 0.000000 0.001010 0.000000 0.024164
#
#
# Mechanical properties :
#
#
# Convention : Reuss Voigt Hill
#
# Bulk Modulus (GPa) = 16.21089 22.00585 19.10837
# Shear Modulus (GPa) = 24.06005 31.92067 27.99036
#
# Velocity S-wave (km/s) = 3.14658 3.62432 3.39387
# Velocity P-wave (km/s) = 4.45784 5.15461 4.81883
#
# Compressibility (1/GPa) = 0.06168692
#
# Stress axis : x y z
#
# Youngs Moduli (GPa) = 40.70331 47.88584 25.19707
#
# Poissons Ratio (x) = 0.49343 -0.02576
# Poissons Ratio (y) = 0.41942 0.06158
# Poissons Ratio (z) = -0.04162 0.11702
#
# Static dielectric constant tensor:
#      x y z
#    x 1.986320 0.000000 0.064310 
#    y 0.000000 -0.217530 0.000000 
#    z 0.064310 0.000000 2.137340 
# 
# From -- ./inp_files/64911.got.cif
#   From: 2010.05.17/outbox.cif.g08.bks.cpg/sg14_33_cif.got.tgz:64911.got - 2010.06.03 17:49:19.
