data_PCOD9250125
_publ_section_title
;
Structure prediction by ZEFSAII (Michael W. Deem and Ramdas Pophale) SiO2 
 PCOD9250125
Probable space group: P 21/C
;
_chemical_formula_sum "Si O2"
_cell_formula_units_Z 20
_cell_length_a 9.547030
_cell_length_b 10.219222
_cell_length_c 10.227335
_cell_angle_alpha 90.000000
_cell_angle_beta 136.977556
_cell_angle_gamma 90.000000
_cell_volume 680.791768
_symmetry_space_group_name_H-M "P 21/C"
_symmetry_group_IT_number 14
_symmetry_cell_setting 'monoclinic'
loop_
_space_group_symop_operation_xyz
x,y,z
-x,1/2+y,1/2-z
-x,-y,-z
x,1/2-y,1/2+z
loop_
_atom_site_type_symbol
_atom_site_label
_atom_site_fract_x
_atom_site_fract_y
_atom_site_fract_z
Si Si1 0.230960 0.267432 0.315046
Si Si2 0.302750 0.609922 0.634577
Si Si3 0.026561 0.135571 0.410334
Si Si4 0.136685 0.507025 0.762261
Si Si5 0.589021 0.386906 0.726671
O O1 0.417411 0.344101 0.502983
O O2 0.072669 0.246168 0.330329
O O3 0.282454 0.116122 0.323221
O O4 0.133866 0.318349 0.115727
O O5 0.093542 0.543423 0.434961
O O6 0.370920 0.758844 0.653252
O O7 0.233286 0.617257 0.739589
O O8 0.484885 0.512745 0.722191
O O9 0.123996 0.005227 0.409065
O O10 0.795292 0.098412 0.283395
#
# Coordination Sequence:
#
# PCOD9250125 Si02
#       5
#     4   4   4   4   4
#     4  10  23  46  81 119 162 216 271 344 408 498
#     4  11  25  52  85 124 166 223 277 342 419 495
#     4  10  23  49  77 119 165 213 274 340 415 483
#     4   9  23  46  83 111 171 212 269 348 410 482
#     4  12  26  49  91 120 172 220 282 338 418 506
#
# _framework density 29.377558000000001
#
# number of rings (size 3 to 8) (size 9 to 14) (size 15 to 20)
#    1.200    0.400    2.000    1.200    2.800    8.000 
#    3.600    4.000    0.000    0.000    0.000    0.000 
#    0.000    0.000    0.000    0.000    0.000    0.000 
#
# Total GULP energy -112061.388728 kJ/mol
# GULP energy per Si atom -5603.069436 kJ/mol
# Density = 2.931069 g / cm^3
# Si number density = 29.377558 Si / 1000 Ang^3
#
#
#
# Elastic Constant Matrix: (Units=GPa)
#
#
# Indices 1 2 3 4 5 6 
#
# 1 174.6174 55.2406 77.0677 0.0000 -2.4125 0.0000
# 2 55.2406 136.9918 5.1281 0.0000 -0.3490 0.0000
# 3 77.0677 5.1281 146.7288 0.0000 7.5167 0.0000
# 4 0.0000 0.0000 0.0000 41.5551 0.0000 -8.4357
# 5 -2.4125 -0.3490 7.5167 0.0000 53.9447 0.0000
# 6 0.0000 0.0000 0.0000 -8.4357 0.0000 68.6191
#
#
#
# Elastic Compliance Matrix: (Units=1/GPa)
#
#
# Indices 1 2 3 4 5 6 
#
# 1 0.008830 -0.003387 -0.004571 0.000000 0.001010 0.000000
# 2 -0.003387 0.008609 0.001494 0.000000 -0.000304 0.000000
# 3 -0.004571 0.001494 0.009240 0.000000 -0.001482 0.000000
# 4 0.000000 0.000000 0.000000 0.024680 0.000000 0.003034
# 5 0.001010 -0.000304 -0.001482 0.000000 0.018787 0.000000
# 6 0.000000 0.000000 0.000000 0.003034 0.000000 0.014946
#
#
# Mechanical properties :
#
#
# Convention : Reuss Voigt Hill
#
# Bulk Modulus (GPa) = 72.72857 81.46786 77.09822
# Shear Modulus (GPa) = 48.73119 54.21722 51.47421
#
# Velocity S-wave (km/s) = 4.07724 4.30063 4.19042
# Velocity P-wave (km/s) = 6.85386 7.24238 7.05080
#
# Compressibility (1/GPa) = 0.01374975
#
# Stress axis : x y z
#
# Youngs Moduli (GPa) = 113.25550 116.16152 108.22628
#
# Poissons Ratio (x) = 0.39341 0.49470
# Poissons Ratio (y) = 0.38357 -0.16164
# Poissons Ratio (z) = 0.51769 -0.17349
#
# Static dielectric constant tensor:
#      x y z
#    x 2.244960 0.000000 -0.056990 
#    y 0.000000 2.428680 0.000000 
#    z -0.056990 0.000000 2.384010 
# 
# From -- ./inp_files/29636.got.cif
#   From: 2010.05.17/outbox.cif.g08.bks.cpg/sg14_15_cif.got.tgz:29636.got - 2010.06.03 17:49:19.
