data_PCOD9250146
_publ_section_title
;
Structure prediction by ZEFSAII (Michael W. Deem and Ramdas Pophale) SiO2 
 PCOD9250146
Probable space group: P 21/C
;
_chemical_formula_sum "Si O2"
_cell_formula_units_Z 28
_cell_length_a 8.356073
_cell_length_b 22.966252
_cell_length_c 9.275985
_cell_angle_alpha 90.000000
_cell_angle_beta 37.011145
_cell_angle_gamma 90.000000
_cell_volume 1071.587149
_symmetry_space_group_name_H-M "P 21/C"
_symmetry_group_IT_number 14
_symmetry_cell_setting 'monoclinic'
loop_
_space_group_symop_operation_xyz
x,y,z
-x,1/2+y,1/2-z
-x,-y,-z
x,1/2-y,1/2+z
loop_
_atom_site_type_symbol
_atom_site_label
_atom_site_fract_x
_atom_site_fract_y
_atom_site_fract_z
Si Si1 0.297074 0.405026 0.200436
Si Si2 0.198648 0.828027 0.628635
Si Si3 0.112532 0.145219 0.556783
Si Si4 0.649123 0.949224 0.041111
Si Si5 0.283848 0.760341 0.289512
Si Si6 0.640693 0.661282 0.390974
Si Si7 0.841649 0.515135 0.949533
O O1 0.155290 0.358185 0.197102
O O2 0.201996 0.420341 0.427554
O O3 0.082427 0.422472 0.034328
O O4 0.588569 0.379055 0.015748
O O5 0.288869 0.776611 0.452950
O O6 0.178115 0.799396 0.800739
O O7 0.939196 0.848785 0.733289
O O8 0.364896 0.164247 0.277337
O O9 0.890832 0.190036 0.667506
O O10 0.404189 0.986390 0.286307
O O11 0.725271 0.962368 0.380560
O O12 0.515895 0.897916 0.042175
O O13 0.880713 0.982949 0.787597
O O14 0.567868 0.778306 0.020123
#
# Coordination Sequence:
#
# PCOD9250146 Si02
#       7
#     4   4   4   4   4   4   4
#     4  10  23  47  70 109 144 189 248 306 357 443
#     4  11  26  46  74 101 142 190 244 308 380 435
#     4   9  26  45  68 108 146 184 249 300 368 435
#     4  12  23  47  75 108 153 200 251 299 375 427
#     4  11  26  48  71 104 141 190 245 308 376 447
#     4  11  26  45  71 102 152 187 242 313 365 453
#     4  10  26  42  79 107 152 200 251 302 362 447
#
# _framework density 26.129467999999999
#
# number of rings (size 3 to 8) (size 9 to 14) (size 15 to 20)
#    0.857    0.571    1.429    1.714    8.000    4.571 
#    2.571    0.000    0.000    0.000    0.000    0.000 
#    0.000    0.000    0.000    0.000    0.000    0.000 
#
# Total GULP energy -156332.330859 kJ/mol
# GULP energy per Si atom -5583.297531 kJ/mol
# Density = 2.607000 g / cm^3
# Si number density = 26.129468 Si / 1000 Ang^3
#
#
#
# Elastic Constant Matrix: (Units=GPa)
#
#
# Indices 1 2 3 4 5 6 
#
# 1 98.1520 1.9710 17.9471 0.0000 16.1472 0.0000
# 2 1.9710 76.0007 33.7614 0.0000 -7.1912 0.0000
# 3 17.9471 33.7614 101.3223 0.0000 12.2783 0.0000
# 4 0.0000 0.0000 0.0000 35.8633 0.0000 7.1825
# 5 16.1472 -7.1912 12.2783 0.0000 38.4658 0.0000
# 6 0.0000 0.0000 0.0000 7.1825 0.0000 59.5531
#
#
#
# Elastic Compliance Matrix: (Units=1/GPa)
#
#
# Indices 1 2 3 4 5 6 
#
# 1 0.011149 -0.000046 -0.001447 0.000000 -0.004227 0.000000
# 2 -0.000046 0.016311 -0.006032 0.000000 0.004994 0.000000
# 3 -0.001447 -0.006032 0.012690 0.000000 -0.004571 0.000000
# 4 0.000000 0.000000 0.000000 0.028574 0.000000 -0.003446
# 5 -0.004227 0.004994 -0.004571 0.000000 0.030164 0.000000
# 6 0.000000 0.000000 0.000000 -0.003446 0.000000 0.017207
#
#
# Mechanical properties :
#
#
# Convention : Reuss Voigt Hill
#
# Bulk Modulus (GPa) = 39.84213 42.53712 41.18962
# Shear Modulus (GPa) = 35.83908 41.56281 38.70094
#
# Velocity S-wave (km/s) = 3.70752 3.99262 3.85271
# Velocity P-wave (km/s) = 5.79730 6.12939 5.96566
#
# Compressibility (1/GPa) = 0.02509906
#
# Stress axis : x y z
#
# Youngs Moduli (GPa) = 89.69247 61.30800 78.80447
#
# Poissons Ratio (x) = 0.00283 0.11405
# Poissons Ratio (y) = 0.00414 0.47535
# Poissons Ratio (z) = 0.12981 0.36981
#
# Static dielectric constant tensor:
#      x y z
#    x 2.023540 0.000000 -0.060970 
#    y 0.000000 2.104810 0.000000 
#    z -0.060970 0.000000 2.203390 
# 
# From -- ./inp_files/11146.got.cif
#   From: 2010.05.17/outbox.cif.g08.bks.cpg/sg14_6_cif.got.tgz:11146.got - 2010.06.03 17:49:19.
