data_PCOD9250310
_publ_section_title
;
Structure prediction by ZEFSAII (Michael W. Deem and Ramdas Pophale) SiO2 
 PCOD9250310
Probable space group: P 21/C
;
_chemical_formula_sum "Si O2"
_cell_formula_units_Z 24
_cell_length_a 5.287321
_cell_length_b 14.971485
_cell_length_c 14.543300
_cell_angle_alpha 90.000000
_cell_angle_beta 114.241665
_cell_angle_gamma 90.000000
_cell_volume 1049.720027
_symmetry_space_group_name_H-M "P 21/C"
_symmetry_group_IT_number 14
_symmetry_cell_setting 'monoclinic'
loop_
_space_group_symop_operation_xyz
x,y,z
-x,1/2+y,1/2-z
-x,-y,-z
x,1/2-y,1/2+z
loop_
_atom_site_type_symbol
_atom_site_label
_atom_site_fract_x
_atom_site_fract_y
_atom_site_fract_z
Si Si1 0.011798 0.188461 0.764305
Si Si2 0.392479 0.374785 0.641421
Si Si3 0.513443 0.698716 0.151894
Si Si4 0.468825 0.576783 0.726042
Si Si5 0.202988 0.707324 0.440699
Si Si6 0.324417 0.505707 0.064962
O O1 0.163063 0.279087 0.822657
O O2 0.283907 0.126820 0.789390
O O3 0.806475 0.135879 0.800686
O O4 0.877888 0.214770 0.645511
O O5 0.494363 0.305277 0.737462
O O6 0.416798 0.478247 0.676197
O O7 0.575692 0.353790 0.580009
O O8 0.073600 0.348404 0.580297
O O9 0.413924 0.599923 0.117836
O O10 0.331041 0.755179 0.053408
O O11 0.582582 0.565617 0.846411
O O12 0.500000 0.500000 0.000000
O O13 0.000000 0.500000 0.000000
#
# Coordination Sequence:
#
# PCOD9250310 Si02
#       6
#     4   4   4   4   4   4
#     4  11  23  40  64  91 123 166 209 256 310 375
#     4  10  24  41  62  90 125 163 205 258 313 370
#     4  10  24  41  65  94 126 163 210 259 315 375
#     4  11  22  41  60  87 127 164 205 258 310 371
#     4  11  22  41  63  91 123 161 207 260 313 372
#     4  11  23  38  63  95 124 159 206 265 326 375
#
# _framework density 22.863237000000002
#
# number of rings (size 3 to 8) (size 9 to 14) (size 15 to 20)
#    0.000    1.333    0.000    6.000    0.000   13.333 
#    0.000    5.000    0.000    0.000    0.000    0.000 
#    0.000    0.000    0.000    0.000    0.000    0.000 
#
# Total GULP energy -134147.328917 kJ/mol
# GULP energy per Si atom -5589.472038 kJ/mol
# Density = 2.281120 g / cm^3
# Si number density = 22.863237 Si / 1000 Ang^3
#
#
#
# Elastic Constant Matrix: (Units=GPa)
#
#
# Indices 1 2 3 4 5 6 
#
# 1 181.4110 50.3297 32.1865 0.0000 9.3227 0.0000
# 2 50.3297 81.4924 16.5204 0.0000 6.9985 0.0000
# 3 32.1865 16.5204 85.0059 0.0000 7.4639 0.0000
# 4 0.0000 0.0000 0.0000 37.8463 0.0000 4.3697
# 5 9.3227 6.9985 7.4639 0.0000 21.2104 0.0000
# 6 0.0000 0.0000 0.0000 4.3697 0.0000 32.8826
#
#
#
# Elastic Compliance Matrix: (Units=1/GPa)
#
#
# Indices 1 2 3 4 5 6 
#
# 1 0.006952 -0.003832 -0.001785 0.000000 -0.001163 0.000000
# 2 -0.003832 0.015135 -0.001238 0.000000 -0.002874 0.000000
# 3 -0.001785 -0.001238 0.012977 0.000000 -0.003373 0.000000
# 4 0.000000 0.000000 0.000000 0.026834 0.000000 -0.003566
# 5 -0.001163 -0.002874 -0.003373 0.000000 0.049793 0.000000
# 6 0.000000 0.000000 0.000000 -0.003566 0.000000 0.030885
#
#
# Mechanical properties :
#
#
# Convention : Reuss Voigt Hill
#
# Bulk Modulus (GPa) = 46.83142 60.66471 53.74806
# Shear Modulus (GPa) = 30.59875 34.97939 32.78907
#
# Velocity S-wave (km/s) = 3.66230 3.91569 3.79111
# Velocity P-wave (km/s) = 6.19766 6.85819 6.53628
#
# Compressibility (1/GPa) = 0.02135319
#
# Stress axis : x y z
#
# Youngs Moduli (GPa) = 143.84479 66.07034 77.06071
#
# Poissons Ratio (x) = 0.25316 0.13759
# Poissons Ratio (y) = 0.55117 0.09542
# Poissons Ratio (z) = 0.25683 0.08181
#
# Static dielectric constant tensor:
#      x y z
#    x 1.820810 0.000000 0.033740 
#    y 0.000000 1.917130 0.000000 
#    z 0.033740 0.000000 1.758540 
# 
# From -- ./inp_files/37391.got.cif
#   From: 2010.05.17/outbox.cif.g08.bks.cpg/sg14_19_cif.got.tgz:37391.got - 2010.06.03 17:49:19.
