data_PCOD9250203
_publ_section_title
;
Structure prediction by ZEFSAII (Michael W. Deem and Ramdas Pophale) SiO2 
 PCOD9250203
Probable space group: P 21/C
;
_chemical_formula_sum "Si O2"
_cell_formula_units_Z 32
_cell_length_a 14.077897
_cell_length_b 9.309402
_cell_length_c 22.981030
_cell_angle_alpha 90.000000
_cell_angle_beta 31.252503
_cell_angle_gamma 90.000000
_cell_volume 1562.564317
_symmetry_space_group_name_H-M "P 21/C"
_symmetry_group_IT_number 14
_symmetry_cell_setting 'monoclinic'
loop_
_space_group_symop_operation_xyz
x,y,z
-x,1/2+y,1/2-z
-x,-y,-z
x,1/2-y,1/2+z
loop_
_atom_site_type_symbol
_atom_site_label
_atom_site_fract_x
_atom_site_fract_y
_atom_site_fract_z
Si Si1 0.457449 0.135845 0.601302
Si Si2 0.394001 0.814214 0.597150
Si Si3 0.100310 0.778571 0.461301
Si Si4 0.096843 0.657731 0.828547
Si Si5 0.606538 0.020917 0.640180
Si Si6 0.251577 0.352324 0.783708
Si Si7 0.363925 0.970741 0.866689
Si Si8 0.304497 0.252694 0.469266
O O1 0.572206 0.204819 0.488822
O O2 0.584151 0.097777 0.590116
O O3 0.300113 0.237615 0.708632
O O4 0.381274 0.984263 0.617582
O O5 0.225562 0.734797 0.714830
O O6 0.570150 0.755892 0.539841
O O7 0.108912 0.772981 0.387016
O O8 0.213100 0.920421 0.422580
O O9 0.211706 0.645799 0.430300
O O10 0.895760 0.790814 0.593269
O O11 0.160792 0.494597 0.803834
O O12 0.889591 0.680029 0.917741
O O13 0.433117 0.049869 0.771907
O O14 0.606408 0.852055 0.625987
O O15 0.447357 0.398983 0.708682
O O16 0.295220 0.088294 0.948376
#
# Coordination Sequence:
#
# PCOD9250203 Si02
#       8
#     4   4   4   4   4   4   4   4
#     4  10  24  43  71  91 132 178 226 272 333 397
#     4  10  23  49  66  93 130 180 228 275 327 394
#     4  12  24  39  65 103 138 169 219 278 342 411
#     4  12  24  42  66  98 135 177 218 280 337 400
#     4  11  20  41  65  94 134 175 209 272 337 397
#     4  12  24  42  67 102 135 175 220 280 340 407
#     4  12  24  40  66 100 137 177 220 271 349 413
#     4  11  24  41  65  95 131 175 223 272 338 391
#
# _framework density 20.479157000000001
#
# number of rings (size 3 to 8) (size 9 to 14) (size 15 to 20)
#    0.000    0.750    5.000    3.375    3.500    1.000 
#    2.250    0.000    0.000    0.000    0.000    0.000 
#    0.000    0.000    0.000    0.000    0.000    0.000 
#
# Total GULP energy -178991.952070 kJ/mol
# GULP energy per Si atom -5593.498502 kJ/mol
# Density = 2.043255 g / cm^3
# Si number density = 20.479157 Si / 1000 Ang^3
#
#
#
# Elastic Constant Matrix: (Units=GPa)
#
#
# Indices 1 2 3 4 5 6 
#
# 1 35.9888 20.2338 31.1210 0.0000 11.5819 0.0000
# 2 20.2338 74.1361 42.8998 0.0000 4.5141 0.0000
# 3 31.1210 42.8998 113.0211 0.0000 10.4964 0.0000
# 4 0.0000 0.0000 0.0000 39.0829 0.0000 -0.6357
# 5 11.5819 4.5141 10.4964 0.0000 36.7984 0.0000
# 6 0.0000 0.0000 0.0000 -0.6357 0.0000 20.8544
#
#
#
# Elastic Compliance Matrix: (Units=1/GPa)
#
#
# Indices 1 2 3 4 5 6 
#
# 1 0.041456 -0.005943 -0.008233 0.000000 -0.009970 0.000000
# 2 -0.005943 0.018140 -0.005358 0.000000 0.001174 0.000000
# 3 -0.008233 -0.005358 0.013197 0.000000 -0.000516 0.000000
# 4 0.000000 0.000000 0.000000 0.025599 0.000000 0.000780
# 5 -0.009970 0.001174 -0.000516 0.000000 0.030316 0.000000
# 6 0.000000 0.000000 0.000000 0.000780 0.000000 0.047975
#
#
# Mechanical properties :
#
#
# Convention : Reuss Voigt Hill
#
# Bulk Modulus (GPa) = 29.65269 45.73947 37.69608
# Shear Modulus (GPa) = 22.02707 27.93990 24.98349
#
# Velocity S-wave (km/s) = 3.28317 3.69766 3.49656
# Velocity P-wave (km/s) = 5.37430 6.37287 5.89477
#
# Compressibility (1/GPa) = 0.03372375
#
# Stress axis : x y z
#
# Youngs Moduli (GPa) = 24.12182 55.12769 75.77706
#
# Poissons Ratio (x) = 0.32763 0.62390
# Poissons Ratio (y) = 0.14336 0.40600
# Poissons Ratio (z) = 0.19860 0.29537
#
# Static dielectric constant tensor:
#      x y z
#    x 1.733700 0.000000 0.008730 
#    y 0.000000 1.769150 0.000000 
#    z 0.008730 0.000000 1.715500 
# 
# From -- ./inp_files/73845.got.cif
#   From: 2010.05.17/outbox.cif.g08.bks.cpg/sg14_37_cif.got.tgz:73845.got - 2010.06.03 17:49:19.
