data_PCOD9250393
_publ_section_title
;
Structure prediction by ZEFSAII (Michael W. Deem and Ramdas Pophale) SiO2 
 PCOD9250393
Probable space group: P 21/C
;
_chemical_formula_sum "Si O2"
_cell_formula_units_Z 28
_cell_length_a 17.202554
_cell_length_b 10.527257
_cell_length_c 8.881533
_cell_angle_alpha 90.000000
_cell_angle_beta 49.040104
_cell_angle_gamma 90.000000
_cell_volume 1214.618841
_symmetry_space_group_name_H-M "P 21/C"
_symmetry_group_IT_number 14
_symmetry_cell_setting 'monoclinic'
loop_
_space_group_symop_operation_xyz
x,y,z
-x,1/2+y,1/2-z
-x,-y,-z
x,1/2-y,1/2+z
loop_
_atom_site_type_symbol
_atom_site_label
_atom_site_fract_x
_atom_site_fract_y
_atom_site_fract_z
Si Si1 0.305598 0.340768 0.805295
Si Si2 0.915391 0.629511 0.760672
Si Si3 0.266773 0.742290 0.210469
Si Si4 0.374211 0.111337 0.897893
Si Si5 0.954358 0.882262 0.858234
Si Si6 0.607430 0.104165 0.708279
Si Si7 0.789011 0.071275 0.956080
O O1 0.302273 0.351068 0.630392
O O2 0.372326 0.457983 0.780545
O O3 0.196080 0.354057 0.023902
O O4 0.357735 0.209929 0.785801
O O5 0.978534 0.747273 0.752437
O O6 0.917957 0.639049 0.576663
O O7 0.957473 0.489537 0.748174
O O8 0.353350 0.816417 0.197188
O O9 0.202851 0.656682 0.406095
O O10 0.321372 0.654069 0.017790
O O11 0.197331 0.843910 0.209263
O O12 0.489379 0.117300 0.812115
O O13 0.329769 0.976542 0.901514
O O14 0.862892 0.951631 0.882065
#
# Coordination Sequence:
#
# PCOD9250393 Si02
#       7
#     4   4   4   4   4   4   4
#     4  12  25  44  68  98 138 182 229 288 341 409
#     4  11  26  48  73 108 139 187 229 296 348 425
#     4  10  24  42  66  97 141 178 232 281 352 400
#     4  12  26  41  67  98 138 180 235 279 344 406
#     4  11  26  48  74 106 143 179 239 283 358 416
#     4  11  24  42  65  98 137 186 229 287 338 414
#     4  11  24  45  67 100 136 179 226 290 341 423
#
# _framework density 23.052499999999998
#
# number of rings (size 3 to 8) (size 9 to 14) (size 15 to 20)
#    0.000    0.857    2.857    3.000    6.000    5.714 
#    0.000    0.000    0.000    0.000    0.000    0.000 
#    0.000    0.000    0.000    0.000    0.000    0.000 
#
# Total GULP energy -156856.255239 kJ/mol
# GULP energy per Si atom -5602.009116 kJ/mol
# Density = 2.300003 g / cm^3
# Si number density = 23.052500 Si / 1000 Ang^3
#
#
#
# Elastic Constant Matrix: (Units=GPa)
#
#
# Indices 1 2 3 4 5 6 
#
# 1 67.0551 0.5633 31.1917 0.0000 16.5051 0.0000
# 2 0.5633 81.5310 18.6784 0.0000 15.2058 0.0000
# 3 31.1917 18.6784 50.6375 0.0000 13.4682 0.0000
# 4 0.0000 0.0000 0.0000 27.4108 0.0000 16.3046
# 5 16.5051 15.2058 13.4682 0.0000 31.6379 0.0000
# 6 0.0000 0.0000 0.0000 16.3046 0.0000 40.9172
#
#
#
# Elastic Compliance Matrix: (Units=1/GPa)
#
#
# Indices 1 2 3 4 5 6 
#
# 1 0.023419 0.004603 -0.013854 0.000000 -0.008532 0.000000
# 2 0.004603 0.015008 -0.006557 0.000000 -0.006824 0.000000
# 3 -0.013854 -0.006557 0.031508 0.000000 -0.003034 0.000000
# 4 0.000000 0.000000 0.000000 0.047815 0.000000 -0.019053
# 5 -0.008532 -0.006824 -0.003034 0.000000 0.040630 0.000000
# 6 0.000000 0.000000 0.000000 -0.019053 0.000000 0.032032
#
#
# Mechanical properties :
#
#
# Convention : Reuss Voigt Hill
#
# Bulk Modulus (GPa) = 26.09628 33.34338 29.71983
# Shear Modulus (GPa) = 21.29465 29.91254 25.60360
#
# Velocity S-wave (km/s) = 3.04262 3.60611 3.33628
# Velocity P-wave (km/s) = 4.86706 5.64218 5.26889
#
# Compressibility (1/GPa) = 0.03831964
#
# Stress axis : x y z
#
# Youngs Moduli (GPa) = 42.70008 66.63012 31.73824
#
# Poissons Ratio (x) = -0.30673 0.43972
# Poissons Ratio (y) = -0.19657 0.20810
# Poissons Ratio (z) = 0.59159 0.43688
#
# Static dielectric constant tensor:
#      x y z
#    x 1.873660 0.000000 -0.020840 
#    y 0.000000 1.863280 0.000000 
#    z -0.020840 0.000000 1.836070 
# 
# From -- ./inp_files/15665.got.cif
#   From: 2010.05.17/outbox.cif.g08.bks.cpg/sg14_8_cif.got.tgz:15665.got - 2010.06.03 17:49:19.
