data_PCOD9250856
_publ_section_title
;
Structure prediction by ZEFSAII (Michael W. Deem and Ramdas Pophale) SiO2 
 PCOD9250856
Probable space group: P 21/C
;
_chemical_formula_sum "Si O2"
_cell_formula_units_Z 28
_cell_length_a 15.336459
_cell_length_b 5.237510
_cell_length_c 17.606939
_cell_angle_alpha 90.000000
_cell_angle_beta 116.991084
_cell_angle_gamma 90.000000
_cell_volume 1260.228030
_symmetry_space_group_name_H-M "P 21/C"
_symmetry_group_IT_number 14
_symmetry_cell_setting 'monoclinic'
loop_
_space_group_symop_operation_xyz
x,y,z
-x,1/2+y,1/2-z
-x,-y,-z
x,1/2-y,1/2+z
loop_
_atom_site_type_symbol
_atom_site_label
_atom_site_fract_x
_atom_site_fract_y
_atom_site_fract_z
Si Si1 0.436310 0.750108 0.884412
Si Si2 0.023014 0.796250 0.214196
Si Si3 0.443034 0.756162 0.069406
Si Si4 0.052144 0.833388 0.944705
Si Si5 0.149051 0.313339 0.599793
Si Si6 0.238885 0.922167 0.555206
Si Si7 0.770166 0.284481 0.276170
O O1 0.483736 0.477040 0.884853
O O2 0.329753 0.767722 0.806017
O O3 0.507991 0.978120 0.886424
O O4 0.428780 0.768957 0.972761
O O5 0.133631 0.726424 0.234240
O O6 0.975996 0.532797 0.225169
O O7 0.968157 0.940851 0.123107
O O8 0.339953 0.683760 0.065621
O O9 0.950927 0.671622 0.913119
O O10 0.149026 0.668830 0.967148
O O11 0.090423 0.949078 0.039502
O O12 0.213259 0.418007 0.693779
O O13 0.217480 0.221265 0.558353
O O14 0.232227 0.858546 0.643443
#
# Coordination Sequence:
#
# PCOD9250856 Si02
#       7
#     4   4   4   4   4   4   4
#     4  10  24  48  66  96 136 174 225 288 336 409
#     4  11  27  43  64 103 137 181 229 270 335 417
#     4  10  25  44  70  98 129 178 233 275 347 407
#     4   9  21  39  61  95 137 176 218 274 331 406
#     4   9  20  39  63  98 132 175 220 272 343 404
#     4  11  23  39  72  98 134 180 227 281 345 405
#     4  10  25  42  67 100 134 179 222 288 340 399
#
# _framework density 22.218201000000001
#
# number of rings (size 3 to 8) (size 9 to 14) (size 15 to 20)
#    0.000    2.000    0.000    1.286   14.000    1.143 
#    2.571    0.000    0.000    0.000    0.000    0.000 
#    0.000    0.000    0.000    0.000    0.000    0.000 
#
# Total GULP energy -156029.833149 kJ/mol
# GULP energy per Si atom -5572.494041 kJ/mol
# Density = 2.216763 g / cm^3
# Si number density = 22.218201 Si / 1000 Ang^3
#
#
#
# Elastic Constant Matrix: (Units=GPa)
#
#
# Indices 1 2 3 4 5 6 
#
# 1 116.6455 26.1684 19.3887 0.0000 2.7654 0.0000
# 2 26.1684 65.3237 20.5298 0.0000 3.2244 0.0000
# 3 19.3887 20.5298 73.3257 0.0000 21.9200 0.0000
# 4 0.0000 0.0000 0.0000 25.7186 0.0000 -8.0861
# 5 2.7654 3.2244 21.9200 0.0000 32.8791 0.0000
# 6 0.0000 0.0000 0.0000 -8.0861 0.0000 34.2085
#
#
#
# Elastic Compliance Matrix: (Units=1/GPa)
#
#
# Indices 1 2 3 4 5 6 
#
# 1 0.009602 -0.003307 -0.001834 0.000000 0.000740 0.000000
# 2 -0.003307 0.018015 -0.004652 0.000000 0.001613 0.000000
# 3 -0.001834 -0.004652 0.019037 0.000000 -0.012081 0.000000
# 4 0.000000 0.000000 0.000000 0.042004 0.000000 0.009929
# 5 0.000740 0.001613 -0.012081 0.000000 0.038248 0.000000
# 6 0.000000 0.000000 0.000000 0.009929 0.000000 0.031579
#
#
# Mechanical properties :
#
#
# Convention : Reuss Voigt Hill
#
# Bulk Modulus (GPa) = 36.94260 43.05205 39.99732
# Shear Modulus (GPa) = 26.72452 31.17511 28.94981
#
# Velocity S-wave (km/s) = 3.47193 3.74991 3.61359
# Velocity P-wave (km/s) = 5.72151 6.17803 5.95415
#
# Compressibility (1/GPa) = 0.02706902
#
# Stress axis : x y z
#
# Youngs Moduli (GPa) = 104.14333 55.50834 52.53018
#
# Poissons Ratio (x) = 0.18354 0.09635
# Poissons Ratio (y) = 0.34436 0.24435
# Poissons Ratio (z) = 0.19103 0.25821
#
# Static dielectric constant tensor:
#      x y z
#    x 1.967910 0.000000 -0.087180 
#    y 0.000000 2.835870 0.000000 
#    z -0.087180 0.000000 1.825820 
# 
# From -- ./inp_files/58511.got.cif
#   From: 2010.05.17/outbox.cif.g08.bks.cpg/sg14_30_cif.got.tgz:58511.got - 2010.06.03 17:49:19.
