data_PCOD9250831
_publ_section_title
;
Structure prediction by ZEFSAII (Michael W. Deem and Ramdas Pophale) SiO2 
 PCOD9250831
Probable space group: P 21/C
;
_chemical_formula_sum "Si O2"
_cell_formula_units_Z 24
_cell_length_a 5.893221
_cell_length_b 13.556112
_cell_length_c 12.893269
_cell_angle_alpha 90.000000
_cell_angle_beta 68.238395
_cell_angle_gamma 90.000000
_cell_volume 956.626679
_symmetry_space_group_name_H-M "P 21/C"
_symmetry_group_IT_number 14
_symmetry_cell_setting 'monoclinic'
loop_
_space_group_symop_operation_xyz
x,y,z
-x,1/2+y,1/2-z
-x,-y,-z
x,1/2-y,1/2+z
loop_
_atom_site_type_symbol
_atom_site_label
_atom_site_fract_x
_atom_site_fract_y
_atom_site_fract_z
Si Si1 0.649699 0.799495 0.410818
Si Si2 0.789880 0.258152 0.385370
Si Si3 0.905339 0.898209 0.057425
Si Si4 0.587137 0.976944 0.260988
Si Si5 0.068083 0.663122 0.313195
Si Si6 0.135781 0.090690 0.423501
O O1 0.427263 0.738088 0.496456
O O2 0.584018 0.892539 0.349198
O O3 0.753020 0.850073 0.498313
O O4 0.819765 0.721466 0.320912
O O5 0.732159 0.233891 0.275315
O O6 0.950197 0.355219 0.369868
O O7 0.948643 0.161922 0.394823
O O8 0.632701 0.920156 0.143933
O O9 0.995820 0.831771 0.946504
O O10 0.000000 0.000000 0.000000
O O11 0.818064 0.054487 0.228754
O O12 0.346682 0.043387 0.315437
O O13 0.000000 0.000000 0.500000
#
# Coordination Sequence:
#
# PCOD9250831 Si02
#       6
#     4   4   4   4   4   4
#     4  12  24  46  75 108 143 186 251 291 354 442
#     4  12  24  46  76 103 143 190 239 303 357 436
#     4  10  24  47  71 105 146 188 235 294 369 430
#     4  11  23  47  74 103 150 182 239 307 352 436
#     4  11  24  45  73 104 141 189 236 296 364 426
#     4  12  24  43  73 107 139 190 240 296 368 418
#
# _framework density 25.088156999999999
#
# number of rings (size 3 to 8) (size 9 to 14) (size 15 to 20)
#    0.000    0.667    6.667    1.500    0.000    2.667 
#    9.000    4.167    0.000    0.000    0.000    0.000 
#    0.000    0.000    0.000    0.000    0.000    0.000 
#
# Total GULP energy -133748.528954 kJ/mol
# GULP energy per Si atom -5572.855373 kJ/mol
# Density = 2.503105 g / cm^3
# Si number density = 25.088157 Si / 1000 Ang^3
#
#
#
# Elastic Constant Matrix: (Units=GPa)
#
#
# Indices 1 2 3 4 5 6 
#
# 1 31.3699 22.5263 4.4333 0.0000 -19.7231 0.0000
# 2 22.5263 96.4245 31.5597 0.0000 -22.0759 0.0000
# 3 4.4333 31.5597 160.7891 0.0000 -29.7720 0.0000
# 4 0.0000 0.0000 0.0000 40.7965 0.0000 -36.6441
# 5 -19.7231 -22.0759 -29.7720 0.0000 44.4883 0.0000
# 6 0.0000 0.0000 0.0000 -36.6441 0.0000 21.7963
#
#
#
# Elastic Compliance Matrix: (Units=1/GPa)
#
#
# Indices 1 2 3 4 5 6 
#
# 1 0.050494 -0.008338 0.004136 0.000000 0.021016 0.000000
# 2 -0.008338 0.013357 -0.002111 0.000000 0.001519 0.000000
# 3 0.004136 -0.002111 0.007608 0.000000 0.005877 0.000000
# 4 0.000000 0.000000 0.000000 -0.048055 0.000000 -0.080790
# 5 0.021016 0.001519 0.005877 0.000000 0.036482 0.000000
# 6 0.000000 0.000000 0.000000 -0.080790 0.000000 -0.089945
#
#
# Mechanical properties :
#
#
# Convention : Reuss Voigt Hill
#
# Bulk Modulus (GPa) = 16.99737 45.06913 31.03325
# Shear Modulus (GPa) = 2294.67129 36.75384 1165.71257
#
# Velocity S-wave (km/s) = 30.27588 3.83167 21.57905
# Velocity P-wave (km/s) = 35.05655 6.13016 25.16486
#
# Compressibility (1/GPa) = 0.05883263
#
# Stress axis : x y z
#
# Youngs Moduli (GPa) = 19.80435 74.86506 131.44345
#
# Poissons Ratio (x) = 0.62425 -0.54361
# Poissons Ratio (y) = 0.16514 0.27743
# Poissons Ratio (z) = -0.08190 0.15801
#
# Static dielectric constant tensor:
#      x y z
#    x 2.150060 0.000000 0.035340 
#    y 0.000000 1.898870 0.000000 
#    z 0.035340 0.000000 2.049720 
# 
# From -- ./inp_files/37255.got.cif
#   From: 2010.05.17/outbox.cif.g08.bks.cpg/sg14_19_cif.got.tgz:37255.got - 2010.06.03 17:49:19.
