data_PCOD9250285
_publ_section_title
;
Structure prediction by ZEFSAII (Michael W. Deem and Ramdas Pophale) SiO2 
 PCOD9250285
Probable space group: P 21/C
;
_chemical_formula_sum "Si O2"
_cell_formula_units_Z 26
_cell_length_a 5.917080
_cell_length_b 13.971424
_cell_length_c 12.232120
_cell_angle_alpha 90.000000
_cell_angle_beta 87.342180
_cell_angle_gamma 90.000000
_cell_volume 1010.141973
_symmetry_space_group_name_H-M "P 21/C"
_symmetry_group_IT_number 14
_symmetry_cell_setting 'monoclinic'
loop_
_space_group_symop_operation_xyz
x,y,z
-x,1/2+y,1/2-z
-x,-y,-z
x,1/2-y,1/2+z
loop_
_atom_site_type_symbol
_atom_site_label
_atom_site_fract_x
_atom_site_fract_y
_atom_site_fract_z
Si Si1 0.500888 0.189105 0.823447
Si Si2 0.000000 0.000000 0.000000
Si Si3 0.167340 0.417751 0.711678
Si Si4 0.267975 0.415021 0.126947
Si Si5 0.420899 0.865591 0.948592
Si Si6 0.890704 0.276109 0.173321
Si Si7 0.531690 0.907594 0.613654
O O1 0.360672 0.137444 0.732908
O O2 0.436190 0.152745 0.944646
O O3 0.479846 0.302718 0.835640
O O4 0.760177 0.179077 0.779153
O O5 0.227672 0.936742 0.989694
O O6 0.026403 0.014560 0.135523
O O7 0.406602 0.405650 0.642976
O O8 0.044578 0.313819 0.708592
O O9 0.247912 0.451243 0.829216
O O10 0.035851 0.358478 0.112212
O O11 0.309421 0.528534 0.141913
O O12 0.420260 0.399187 0.015614
O O13 0.293962 0.772254 0.903359
#
# Coordination Sequence:
#
# PCOD9250285 Si02
#       7
#     4   2   4   4   4   4   4
#     4  12  24  46  69 103 141 192 239 304 370 438
#     4  10  24  40  68 104 132 178 238 294 352 434
#     4  11  22  45  68 102 140 184 228 301 367 423
#     4  11  26  47  70 107 140 196 248 299 374 444
#     4  11  24  42  69 100 141 179 238 297 370 422
#     4  11  23  42  68 102 135 187 237 291 366 439
#     4  11  24  47  73 100 151 190 241 311 367 434
#
# _framework density 25.738954
#
# number of rings (size 3 to 8) (size 9 to 14) (size 15 to 20)
#    0.000    0.923    3.077    3.231    2.154    3.692 
#    2.769    2.308    0.000    0.000    0.000    0.000 
#    0.000    0.000    0.000    0.000    0.000    0.000 
#
# Total GULP energy -145048.173423 kJ/mol
# GULP energy per Si atom -5578.775901 kJ/mol
# Density = 2.568037 g / cm^3
# Si number density = 25.738954 Si / 1000 Ang^3
#
#
#
# Elastic Constant Matrix: (Units=GPa)
#
#
# Indices 1 2 3 4 5 6 
#
# 1 32.3351 9.7089 6.4144 0.0000 9.2672 0.0000
# 2 9.7089 97.0281 26.1570 0.0000 5.1832 0.0000
# 3 6.4144 26.1570 119.1412 0.0000 22.8039 0.0000
# 4 0.0000 0.0000 0.0000 33.4531 0.0000 -4.6121
# 5 9.2672 5.1832 22.8039 0.0000 40.7682 0.0000
# 6 0.0000 0.0000 0.0000 -4.6121 0.0000 47.1240
#
#
#
# Elastic Compliance Matrix: (Units=1/GPa)
#
#
# Indices 1 2 3 4 5 6 
#
# 1 0.033937 -0.003071 0.000279 0.000000 -0.007480 0.000000
# 2 -0.003071 0.011233 -0.002420 0.000000 0.000624 0.000000
# 3 0.000279 -0.002420 0.009926 0.000000 -0.005308 0.000000
# 4 0.000000 0.000000 0.000000 0.030301 0.000000 0.002966
# 5 -0.007480 0.000624 -0.005308 0.000000 0.029119 0.000000
# 6 0.000000 0.000000 0.000000 0.002966 0.000000 0.021511
#
#
# Mechanical properties :
#
#
# Convention : Reuss Voigt Hill
#
# Bulk Modulus (GPa) = 22.38653 37.00722 29.69687
# Shear Modulus (GPa) = 30.99019 38.01734 34.50377
#
# Velocity S-wave (km/s) = 3.47366 3.84739 3.66529
# Velocity P-wave (km/s) = 4.98045 5.84343 5.42911
#
# Compressibility (1/GPa) = 0.04466972
#
# Stress axis : x y z
#
# Youngs Moduli (GPa) = 29.46662 89.02562 100.74941
#
# Poissons Ratio (x) = 0.27343 -0.02809
# Poissons Ratio (y) = 0.09050 0.24383
# Poissons Ratio (z) = -0.00822 0.21545
#
# Static dielectric constant tensor:
#      x y z
#    x 2.038820 0.000000 0.158120 
#    y 0.000000 1.997680 0.000000 
#    z 0.158120 0.000000 1.685590 
# 
# From -- ./inp_files/21253.got.cif
#   From: 2010.05.17/outbox.cif.g08.bks.cpg/sg14_11_cif.got.tgz:21253.got - 2010.06.03 17:49:19.
