data_PCOD9250545
_publ_section_title
;
Structure prediction by ZEFSAII (Michael W. Deem and Ramdas Pophale) SiO2 
 PCOD9250545
Probable space group: P 21/C
;
_chemical_formula_sum "Si O2"
_cell_formula_units_Z 28
_cell_length_a 19.418985
_cell_length_b 8.752864
_cell_length_c 8.856431
_cell_angle_alpha 90.000000
_cell_angle_beta 48.634233
_cell_angle_gamma 90.000000
_cell_volume 1129.768992
_symmetry_space_group_name_H-M "P 21/C"
_symmetry_group_IT_number 14
_symmetry_cell_setting 'monoclinic'
loop_
_space_group_symop_operation_xyz
x,y,z
-x,1/2+y,1/2-z
-x,-y,-z
x,1/2-y,1/2+z
loop_
_atom_site_type_symbol
_atom_site_label
_atom_site_fract_x
_atom_site_fract_y
_atom_site_fract_z
Si Si1 0.750559 0.766684 0.654948
Si Si2 0.782860 0.408769 0.239369
Si Si3 0.077781 0.426721 0.588301
Si Si4 0.333698 0.810013 0.811945
Si Si5 0.028541 0.756980 0.024078
Si Si6 0.379635 0.240843 0.407529
Si Si7 0.554651 0.415199 0.135194
O O1 0.817440 0.625101 0.586837
O O2 0.719887 0.770304 0.526196
O O3 0.794314 0.924716 0.648443
O O4 0.650601 0.760411 0.876093
O O5 0.721243 0.404719 0.480630
O O6 0.734351 0.302306 0.182891
O O7 0.879490 0.335247 0.141332
O O8 0.057588 0.603957 0.593419
O O9 0.016765 0.338440 0.552602
O O10 0.043916 0.356046 0.794041
O O11 0.388011 0.898985 0.602466
O O12 0.403561 0.704786 0.805798
O O13 0.449172 0.373256 0.263166
O O14 0.431775 0.081662 0.315905
#
# Coordination Sequence:
#
# PCOD9250545 Si02
#       7
#     4   4   4   4   4   4   4
#     4  12  28  46  70 107 147 184 239 297 357 419
#     4  11  24  44  73 105 141 188 237 290 354 418
#     4  11  26  46  72 107 145 185 236 291 348 421
#     4  10  24  43  74 102 141 180 240 293 351 421
#     4  11  25  46  75 105 144 189 235 288 348 419
#     4  12  29  47  74 103 143 187 237 299 357 425
#     4  11  26  48  72 102 140 185 239 292 359 427
#
# _framework density 24.783826999999999
#
# number of rings (size 3 to 8) (size 9 to 14) (size 15 to 20)
#    0.000    0.857    1.429    3.429   10.000    9.143 
#    0.000    0.000    0.000    0.000    0.000    0.000 
#    0.000    0.000    0.000    0.000    0.000    0.000 
#
# Total GULP energy -157030.209258 kJ/mol
# GULP energy per Si atom -5608.221759 kJ/mol
# Density = 2.472742 g / cm^3
# Si number density = 24.783827 Si / 1000 Ang^3
#
#
#
# Elastic Constant Matrix: (Units=GPa)
#
#
# Indices 1 2 3 4 5 6 
#
# 1 115.2308 37.1324 11.2398 0.0000 5.8225 0.0000
# 2 37.1324 109.2268 -0.9714 0.0000 -8.9459 0.0000
# 3 11.2398 -0.9714 54.1166 0.0000 -7.3490 0.0000
# 4 0.0000 0.0000 0.0000 30.8770 0.0000 1.9844
# 5 5.8225 -8.9459 -7.3490 0.0000 33.9932 0.0000
# 6 0.0000 0.0000 0.0000 1.9844 0.0000 47.5182
#
#
#
# Elastic Compliance Matrix: (Units=1/GPa)
#
#
# Indices 1 2 3 4 5 6 
#
# 1 0.010336 -0.003812 -0.002670 0.000000 -0.003351 0.000000
# 2 -0.003812 0.010777 0.001503 0.000000 0.003814 0.000000
# 3 -0.002670 0.001503 0.019756 0.000000 0.005124 0.000000
# 4 0.000000 0.000000 0.000000 0.032474 0.000000 -0.001356
# 5 -0.003351 0.003814 0.005124 0.000000 0.032103 0.000000
# 6 0.000000 0.000000 0.000000 -0.001356 0.000000 0.021101
#
#
# Mechanical properties :
#
#
# Convention : Reuss Voigt Hill
#
# Bulk Modulus (GPa) = 32.35110 41.48621 36.91866
# Shear Modulus (GPa) = 34.05767 37.88925 35.97346
#
# Velocity S-wave (km/s) = 3.71103 3.91422 3.81397
# Velocity P-wave (km/s) = 5.60749 6.09948 5.85865
#
# Compressibility (1/GPa) = 0.03091085
#
# Stress axis : x y z
#
# Youngs Moduli (GPa) = 96.74484 92.79039 50.61739
#
# Poissons Ratio (x) = 0.35373 0.13517
# Poissons Ratio (y) = 0.36881 -0.07609
# Poissons Ratio (z) = 0.25834 -0.13948
#
# Static dielectric constant tensor:
#      x y z
#    x 1.927280 0.000000 0.008260 
#    y 0.000000 1.910310 0.000000 
#    z 0.008260 0.000000 1.900120 
# 
# From -- ./inp_files/18698.got.cif
#   From: 2010.05.17/outbox.cif.g08.bks.cpg/sg14_10_cif.got.tgz:18698.got - 2010.06.03 17:49:19.
