data_PCOD9250007
_publ_section_title
;
Structure prediction by ZEFSAII (Michael W. Deem and Ramdas Pophale) SiO2 
 PCOD9250007
Probable space group: P 21/C
;
_chemical_formula_sum "Si O2"
_cell_formula_units_Z 32
_cell_length_a 9.621294
_cell_length_b 10.283971
_cell_length_c 15.638203
_cell_angle_alpha 90.000000
_cell_angle_beta 114.762641
_cell_angle_gamma 90.000000
_cell_volume 1405.048492
_symmetry_space_group_name_H-M "P 21/C"
_symmetry_group_IT_number 14
_symmetry_cell_setting 'monoclinic'
loop_
_space_group_symop_operation_xyz
x,y,z
-x,1/2+y,1/2-z
-x,-y,-z
x,1/2-y,1/2+z
loop_
_atom_site_type_symbol
_atom_site_label
_atom_site_fract_x
_atom_site_fract_y
_atom_site_fract_z
Si Si1 0.924932 0.449974 0.731935
Si Si2 0.698953 0.371198 0.056914
Si Si3 0.319913 0.137830 0.768582
Si Si4 0.669171 0.056436 0.859946
Si Si5 0.235411 0.280972 0.580155
Si Si6 0.650109 0.672243 0.070158
Si Si7 0.097439 0.672517 0.459206
Si Si8 0.858301 0.183646 0.757540
O O1 0.761741 0.511455 0.713400
O O2 0.943373 0.388925 0.642618
O O3 0.941991 0.321039 0.794902
O O4 0.032647 0.576574 0.758514
O O5 0.703791 0.523563 0.077277
O O6 0.835143 0.317457 0.033392
O O7 0.724119 0.296307 0.152970
O O8 0.534660 0.336007 0.976184
O O9 0.500444 0.112452 0.808401
O O10 0.250762 0.171508 0.657710
O O11 0.295301 0.253748 0.830926
O O12 0.779056 0.120574 0.818057
O O13 0.669709 0.901357 0.856427
O O14 0.759041 0.091408 0.969522
O O15 0.297631 0.241441 0.503811
O O16 0.058360 0.325369 0.527772
#
# Coordination Sequence:
#
# PCOD9250007 Si02
#       8
#     4   4   4   4   4   4   4   4
#     4  11  26  45  73 102 141 188 243 290 366 425
#     4  10  23  45  69  99 144 186 234 294 360 425
#     4  12  27  45  71 106 141 192 241 293 363 431
#     4  12  26  43  71 101 147 184 241 299 361 420
#     4  12  27  45  72 106 142 185 249 296 352 439
#     4  11  25  44  73 102 142 192 234 295 368 420
#     4  11  24  47  67 105 140 183 238 300 354 430
#     4  11  25  46  72 103 141 190 235 303 355 432
#
# _framework density 22.775015
#
# number of rings (size 3 to 8) (size 9 to 14) (size 15 to 20)
#    0.000    0.750    2.500    4.125    8.750    3.500 
#    0.000    0.000    0.000    0.000    0.000    0.000 
#    0.000    0.000    0.000    0.000    0.000    0.000 
#
# Total GULP energy -178962.748560 kJ/mol
# GULP energy per Si atom -5592.585892 kJ/mol
# Density = 2.272318 g / cm^3
# Si number density = 22.775015 Si / 1000 Ang^3
#
#
#
# Elastic Constant Matrix: (Units=GPa)
#
#
# Indices 1 2 3 4 5 6 
#
# 1 101.9696 38.5033 8.5109 0.0000 0.1349 0.0000
# 2 38.5033 108.2429 -3.7687 0.0000 -1.4310 0.0000
# 3 8.5109 -3.7687 39.6430 0.0000 -0.5655 0.0000
# 4 0.0000 0.0000 0.0000 31.6175 0.0000 2.0126
# 5 0.1349 -1.4310 -0.5655 0.0000 35.3021 0.0000
# 6 0.0000 0.0000 0.0000 2.0126 0.0000 36.0722
#
#
#
# Elastic Compliance Matrix: (Units=1/GPa)
#
#
# Indices 1 2 3 4 5 6 
#
# 1 0.011655 -0.004251 -0.002910 0.000000 -0.000263 0.000000
# 2 -0.004251 0.010825 0.001949 0.000000 0.000486 0.000000
# 3 -0.002910 0.001949 0.026042 0.000000 0.000507 0.000000
# 4 0.000000 0.000000 0.000000 0.031741 0.000000 -0.001771
# 5 -0.000263 0.000486 0.000507 0.000000 0.028356 0.000000
# 6 0.000000 0.000000 0.000000 -0.001771 0.000000 0.027821
#
#
# Mechanical properties :
#
#
# Convention : Reuss Voigt Hill
#
# Bulk Modulus (GPa) = 26.24812 37.37182 31.80997
# Shear Modulus (GPa) = 31.33549 34.37235 32.85392
#
# Velocity S-wave (km/s) = 3.71330 3.88907 3.80220
# Velocity P-wave (km/s) = 5.47127 6.05073 5.76828
#
# Compressibility (1/GPa) = 0.03809796
#
# Stress axis : x y z
#
# Youngs Moduli (GPa) = 85.79924 92.38067 38.39894
#
# Poissons Ratio (x) = 0.39268 0.11174
# Poissons Ratio (y) = 0.36470 -0.07482
# Poissons Ratio (z) = 0.24968 -0.18001
#
# Static dielectric constant tensor:
#      x y z
#    x 1.827270 0.000000 0.013700 
#    y 0.000000 1.890730 0.000000 
#    z 0.013700 0.000000 1.863150 
# 
# From -- ./inp_files/40361.got.cif
#   From: 2010.05.17/outbox.cif.g08.bks.cpg/sg14_21_cif.got.tgz:40361.got - 2010.06.03 17:49:19.
