data_PCOD9250791
_publ_section_title
;
Structure prediction by ZEFSAII (Michael W. Deem and Ramdas Pophale) SiO2 
 PCOD9250791
Probable space group: P 21/C
;
_chemical_formula_sum "Si O2"
_cell_formula_units_Z 24
_cell_length_a 9.961786
_cell_length_b 18.458399
_cell_length_c 6.912623
_cell_angle_alpha 90.000000
_cell_angle_beta 40.992566
_cell_angle_gamma 90.000000
_cell_volume 833.781387
_symmetry_space_group_name_H-M "P 21/C"
_symmetry_group_IT_number 14
_symmetry_cell_setting 'monoclinic'
loop_
_space_group_symop_operation_xyz
x,y,z
-x,1/2+y,1/2-z
-x,-y,-z
x,1/2-y,1/2+z
loop_
_atom_site_type_symbol
_atom_site_label
_atom_site_fract_x
_atom_site_fract_y
_atom_site_fract_z
Si Si1 0.247471 0.587987 0.329168
Si Si2 0.000000 0.368071 0.750000
Si Si3 0.752529 0.587987 0.170831
Si Si4 0.500000 0.977602 0.250000
Si Si5 0.340334 0.248994 0.302152
Si Si6 0.340333 0.748994 0.302152
O O1 0.299164 0.526767 0.429793
O O2 0.247370 0.667813 0.413352
O O3 0.070634 0.587121 0.361404
O O4 0.453726 0.574576 0.978213
O O5 0.070635 0.412879 0.861404
O O6 0.180427 0.314977 0.482884
O O7 0.819574 0.185023 0.517116
O O8 0.700837 0.526767 0.070205
O O9 0.546274 0.574575 0.521786
O O10 0.752629 0.667813 0.086647
O O11 0.397662 0.253695 0.489083
O O12 0.602338 0.253694 0.010917
#
# Coordination Sequence:
#
# PCOD9250791 Si02
#       6
#     4   4   4   4   4   4
#     4  11  23  44  68 104 140 185 239 287 346 428
#     4  12  26  44  76 114 136 180 248 296 356 420
#     4  11  23  44  68 104 140 185 239 287 346 428
#     4  10  24  46  72  96 146 198 230 282 358 418
#     4  12  24  44  73 107 145 185 228 303 364 412
#     4  12  24  44  73 107 145 185 228 303 364 412
#
# _framework density 28.784524000000001
#
# number of rings (size 3 to 8) (size 9 to 14) (size 15 to 20)
#    0.000    0.667    5.000    3.000    0.000    1.333 
#    0.000    1.667    0.000    0.000    0.000    0.000 
#    0.000    0.000    0.000    0.000    0.000    0.000 
#
# Total GULP energy -134315.508846 kJ/mol
# GULP energy per Si atom -5596.479535 kJ/mol
# Density = 2.871901 g / cm^3
# Si number density = 28.784524 Si / 1000 Ang^3
#
#
#
# Elastic Constant Matrix: (Units=GPa)
#
#
# Indices 1 2 3 4 5 6 
#
# 1 269.7407 85.9192 41.1436 0.0000 -14.3732 0.0000
# 2 85.9192 142.4340 42.8484 0.0000 -18.8070 0.0000
# 3 41.1436 42.8484 146.1629 0.0000 13.5893 0.0000
# 4 0.0000 0.0000 0.0000 51.7964 0.0000 -2.2049
# 5 -14.3732 -18.8070 13.5893 0.0000 47.8860 0.0000
# 6 0.0000 0.0000 0.0000 -2.2049 0.0000 52.2424
#
#
#
# Elastic Compliance Matrix: (Units=1/GPa)
#
#
# Indices 1 2 3 4 5 6 
#
# 1 0.004640 -0.002539 -0.000615 0.000000 0.000570 0.000000
# 2 -0.002539 0.009811 -0.002515 0.000000 0.003805 0.000000
# 3 -0.000615 -0.002515 0.008074 0.000000 -0.003464 0.000000
# 4 0.000000 0.000000 0.000000 0.019341 0.000000 0.000816
# 5 0.000570 0.003805 -0.003464 0.000000 0.023532 0.000000
# 6 0.000000 0.000000 0.000000 0.000816 0.000000 0.019176
#
#
# Mechanical properties :
#
#
# Convention : Reuss Voigt Hill
#
# Bulk Modulus (GPa) = 89.38487 99.79556 94.59022
# Shear Modulus (GPa) = 50.17987 56.28006 53.22996
#
# Velocity S-wave (km/s) = 4.17981 4.42658 4.30496
# Velocity P-wave (km/s) = 7.37664 7.80201 7.59231
#
# Compressibility (1/GPa) = 0.01118758
#
# Stress axis : x y z
#
# Youngs Moduli (GPa) = 215.51324 101.92270 123.85092
#
# Poissons Ratio (x) = 0.25875 0.07616
# Poissons Ratio (y) = 0.54713 0.31154
# Poissons Ratio (z) = 0.13252 0.25638
#
# Static dielectric constant tensor:
#      x y z
#    x 2.460550 0.000000 0.164810 
#    y 0.000000 2.019900 0.000000 
#    z 0.164810 0.000000 2.267440 
# 
# From -- ./inp_files/10610.got.cif
#   From: 2010.05.17/outbox.cif.g08.bks.cpg/sg14_6_cif.got.tgz:10610.got - 2010.06.03 17:49:19.
