data_PCOD9250321
_publ_section_title
;
Structure prediction by ZEFSAII (Michael W. Deem and Ramdas Pophale) SiO2 
 PCOD9250321
Probable space group: P 21/C
;
_chemical_formula_sum "Si O2"
_cell_formula_units_Z 32
_cell_length_a 20.142107
_cell_length_b 14.136322
_cell_length_c 14.137155
_cell_angle_alpha 90.000000
_cell_angle_beta 18.406230
_cell_angle_gamma 90.000000
_cell_volume 1271.012280
_symmetry_space_group_name_H-M "P 21/C"
_symmetry_group_IT_number 14
_symmetry_cell_setting 'monoclinic'
loop_
_space_group_symop_operation_xyz
x,y,z
-x,1/2+y,1/2-z
-x,-y,-z
x,1/2-y,1/2+z
loop_
_atom_site_type_symbol
_atom_site_label
_atom_site_fract_x
_atom_site_fract_y
_atom_site_fract_z
Si Si1 0.500111 0.710468 0.479907
Si Si2 0.799860 0.074929 0.729172
Si Si3 0.751256 0.625932 0.687432
Si Si4 0.868654 0.861413 0.347350
Si Si5 0.392938 0.013521 0.451875
Si Si6 0.450720 0.383224 0.387399
Si Si7 0.127570 0.503308 0.635228
Si Si8 0.945242 0.737864 0.077364
O O1 0.330765 0.654137 0.649485
O O2 0.531484 0.820672 0.462119
O O3 0.475779 0.659784 0.614295
O O4 0.713715 0.690048 0.131121
O O5 0.981750 0.028261 0.419456
O O6 0.914874 0.148855 0.644396
O O7 0.648911 0.986285 0.954034
O O8 0.847031 0.591258 0.461341
O O9 0.890118 0.696924 0.562865
O O10 0.721539 0.535379 0.795544
O O11 0.719343 0.920625 0.475554
O O12 0.002606 0.797459 0.093225
O O13 0.011997 0.924435 0.221960
O O14 0.388128 0.908572 0.413644
O O15 0.638486 0.032536 0.147153
O O16 0.273927 0.310890 0.593188
#
# Coordination Sequence:
#
# PCOD9250321 Si02
#       8
#     4   4   4   4   4   4   4   4
#     4  11  23  43  69  99 146 173 232 292 343 402
#     4  12  22  40  70 103 127 184 227 282 348 406
#     4  10  26  48  64 101 139 185 227 286 345 415
#     4  11  24  46  68 102 141 179 227 292 342 411
#     4  11  24  43  69  97 135 179 229 279 341 411
#     4  11  21  42  67  97 132 179 225 282 340 410
#     4  12  25  45  75  98 138 184 233 276 351 419
#     4  10  24  41  65 100 136 172 230 283 343 405
#
# _framework density 25.176784000000001
#
# number of rings (size 3 to 8) (size 9 to 14) (size 15 to 20)
#    0.000    1.000    3.750    2.625    1.750    2.000 
#    4.500    0.000    0.000    0.000    0.000    0.000 
#    0.000    0.000    0.000    0.000    0.000    0.000 
#
# Total GULP energy -178748.940734 kJ/mol
# GULP energy per Si atom -5585.904398 kJ/mol
# Density = 2.511948 g / cm^3
# Si number density = 25.176784 Si / 1000 Ang^3
#
#
#
# Elastic Constant Matrix: (Units=GPa)
#
#
# Indices 1 2 3 4 5 6 
#
# 1 87.4336 17.7187 6.4637 0.0000 -1.6068 0.0000
# 2 17.7187 63.7205 -0.4366 0.0000 -4.7747 0.0000
# 3 6.4637 -0.4366 15.0954 0.0000 0.2795 0.0000
# 4 0.0000 0.0000 0.0000 14.6818 0.0000 -8.9170
# 5 -1.6068 -4.7747 0.2795 0.0000 24.5856 0.0000
# 6 0.0000 0.0000 0.0000 -8.9170 0.0000 14.1414
#
#
#
# Elastic Compliance Matrix: (Units=1/GPa)
#
#
# Indices 1 2 3 4 5 6 
#
# 1 0.012559 -0.003515 -0.005483 0.000000 0.000201 0.000000
# 2 -0.003515 0.016911 0.001938 0.000000 0.003033 0.000000
# 3 -0.005483 0.001938 0.068663 0.000000 -0.000763 0.000000
# 4 0.000000 0.000000 0.000000 0.110386 0.000000 0.069605
# 5 0.000201 0.003033 -0.000763 0.000000 0.041285 0.000000
# 6 0.000000 0.000000 0.000000 0.069605 0.000000 0.114605
#
#
# Mechanical properties :
#
#
# Convention : Reuss Voigt Hill
#
# Bulk Modulus (GPa) = 11.90279 23.74900 17.82589
# Shear Modulus (GPa) = 12.29915 20.18202 16.24059
#
# Velocity S-wave (km/s) = 2.21263 2.83435 2.54256
# Velocity P-wave (km/s) = 3.35642 4.49052 3.96423
#
# Compressibility (1/GPa) = 0.08401394
#
# Stress axis : x y z
#
# Youngs Moduli (GPa) = 79.62722 59.13177 14.56386
#
# Poissons Ratio (x) = 0.20783 0.07985
# Poissons Ratio (y) = 0.27986 -0.02822
# Poissons Ratio (z) = 0.43658 -0.11459
#
# Static dielectric constant tensor:
#      x y z
#    x 2.005840 0.000000 -0.018730 
#    y 0.000000 1.975270 0.000000 
#    z -0.018730 0.000000 2.087950 
# 
# From -- ./inp_files/50605.got.cif
#   From: 2010.05.17/outbox.cif.g08.bks.cpg/sg14_26_cif.got.tgz:50605.got - 2010.06.03 17:49:19.
