data_PCOD9250723
_publ_section_title
;
Structure prediction by ZEFSAII (Michael W. Deem and Ramdas Pophale) SiO2 
 PCOD9250723
Probable space group: P 21/C
;
_chemical_formula_sum "Si O2"
_cell_formula_units_Z 22
_cell_length_a 7.394248
_cell_length_b 6.584660
_cell_length_c 21.292976
_cell_angle_alpha 90.000000
_cell_angle_beta 52.368888
_cell_angle_gamma 90.000000
_cell_volume 821.043183
_symmetry_space_group_name_H-M "P 21/C"
_symmetry_group_IT_number 14
_symmetry_cell_setting 'monoclinic'
loop_
_space_group_symop_operation_xyz
x,y,z
-x,1/2+y,1/2-z
-x,-y,-z
x,1/2-y,1/2+z
loop_
_atom_site_type_symbol
_atom_site_label
_atom_site_fract_x
_atom_site_fract_y
_atom_site_fract_z
Si Si1 0.226585 0.468823 0.760034
Si Si2 0.361375 0.010387 0.737960
Si Si3 0.137650 0.028319 0.141527
Si Si4 0.674384 0.812462 0.567287
Si Si5 0.105581 0.847111 0.562743
Si Si6 0.500000 0.000000 0.000000
O O1 0.282629 0.232946 0.734813
O O2 0.454234 0.543888 0.746129
O O3 0.153420 0.552383 0.708554
O O4 0.021777 0.459875 0.853153
O O5 0.483863 0.894128 0.656017
O O6 0.124055 0.911627 0.812860
O O7 0.217248 0.853518 0.071837
O O8 0.344108 0.167432 0.077965
O O9 0.902799 0.771660 0.560093
O O10 0.598895 0.615903 0.545746
O O11 0.259786 0.999999 0.491827
#
# Coordination Sequence:
#
# PCOD9250723 Si02
#       6
#     4   4   4   4   4   2
#     4  10  24  45  74 115 140 201 249 314 379 458
#     4  10  25  46  79 102 155 193 251 315 382 451
#     4  11  27  45  70 111 146 196 249 311 377 463
#     4  10  24  50  76 112 150 204 254 314 390 459
#     4   9  23  48  78 105 153 200 252 315 387 455
#     4  12  30  44  74 112 154 194 256 312 384 458
#
# _framework density 26.795183000000002
#
# number of rings (size 3 to 8) (size 9 to 14) (size 15 to 20)
#    0.000    1.818    0.000    0.000   15.273    8.727 
#    0.000    0.000    0.000    0.000    0.000    0.000 
#    0.000    0.000    0.000    0.000    0.000    0.000 
#
# Total GULP energy -122957.996783 kJ/mol
# GULP energy per Si atom -5588.999854 kJ/mol
# Density = 2.673420 g / cm^3
# Si number density = 26.795183 Si / 1000 Ang^3
#
#
#
# Elastic Constant Matrix: (Units=GPa)
#
#
# Indices 1 2 3 4 5 6 
#
# 1 191.2770 66.2803 99.3100 0.0000 -6.1659 0.0000
# 2 66.2803 107.9081 47.1554 0.0000 7.4658 0.0000
# 3 99.3100 47.1554 225.4799 0.0000 -13.0530 0.0000
# 4 0.0000 0.0000 0.0000 50.8641 0.0000 9.4559
# 5 -6.1659 7.4658 -13.0530 0.0000 53.4661 0.0000
# 6 0.0000 0.0000 0.0000 9.4559 0.0000 36.6670
#
#
#
# Elastic Compliance Matrix: (Units=1/GPa)
#
#
# Indices 1 2 3 4 5 6 
#
# 1 0.007943 -0.003769 -0.002664 0.000000 0.000792 0.000000
# 2 -0.003769 0.012197 -0.001029 0.000000 -0.002389 0.000000
# 3 -0.002664 -0.001029 0.005898 0.000000 0.001276 0.000000
# 4 0.000000 0.000000 0.000000 0.020650 0.000000 -0.005325
# 5 0.000792 -0.002389 0.001276 0.000000 0.019440 0.000000
# 6 0.000000 0.000000 0.000000 -0.005325 0.000000 0.028646
#
#
# Mechanical properties :
#
#
# Convention : Reuss Voigt Hill
#
# Bulk Modulus (GPa) = 89.98777 105.57292 97.78035
# Shear Modulus (GPa) = 44.09047 48.99405 46.54226
#
# Velocity S-wave (km/s) = 4.06083 4.28069 4.17221
# Velocity P-wave (km/s) = 7.45946 7.99487 7.73180
#
# Compressibility (1/GPa) = 0.01111262
#
# Stress axis : x y z
#
# Youngs Moduli (GPa) = 125.89816 81.98513 169.56320
#
# Poissons Ratio (x) = 0.30903 0.45176
# Poissons Ratio (y) = 0.47455 0.17449
# Poissons Ratio (z) = 0.33542 0.08437
#
# Static dielectric constant tensor:
#      x y z
#    x 2.150240 0.000000 -0.120910 
#    y 0.000000 2.206250 0.000000 
#    z -0.120910 0.000000 2.169970 
# 
# From -- ./inp_files/63025.got.cif
#   From: 2010.05.17/outbox.cif.g08.bks.cpg/sg14_32_cif.got.tgz:63025.got - 2010.06.03 17:49:19.
