data_PCOD9250513
_publ_section_title
;
Structure prediction by ZEFSAII (Michael W. Deem and Ramdas Pophale) SiO2 
 PCOD9250513
Probable space group: P 21/C
;
_chemical_formula_sum "Si O2"
_cell_formula_units_Z 30
_cell_length_a 8.432875
_cell_length_b 11.881908
_cell_length_c 11.753555
_cell_angle_alpha 90.000000
_cell_angle_beta 108.731773
_cell_angle_gamma 90.000000
_cell_volume 1115.310783
_symmetry_space_group_name_H-M "P 21/C"
_symmetry_group_IT_number 14
_symmetry_cell_setting 'monoclinic'
loop_
_space_group_symop_operation_xyz
x,y,z
-x,1/2+y,1/2-z
-x,-y,-z
x,1/2-y,1/2+z
loop_
_atom_site_type_symbol
_atom_site_label
_atom_site_fract_x
_atom_site_fract_y
_atom_site_fract_z
Si Si1 0.723308 0.447471 0.950282
Si Si2 0.643615 0.323305 0.143048
Si Si3 0.462774 0.963752 0.205479
Si Si4 0.992380 0.248956 0.972555
Si Si5 0.155951 0.125691 0.336964
Si Si6 0.667328 0.692783 0.334747
Si Si7 0.845595 0.390206 0.618152
Si Si8 0.500000 0.500000 0.500000
O O1 0.609711 0.381352 0.015650
O O2 0.866656 0.356271 0.950645
O O3 0.799825 0.546794 0.045873
O O4 0.615591 0.493795 0.820048
O O5 0.681058 0.418860 0.244415
O O6 0.479740 0.275068 0.166276
O O7 0.779176 0.228170 0.155633
O O8 0.396082 0.075996 0.118472
O O9 0.489756 0.893606 0.097737
O O10 0.898394 0.140782 0.001244
O O11 0.156749 0.246430 0.091136
O O12 0.079482 0.258985 0.871096
O O13 0.307506 0.155662 0.288634
O O14 0.006909 0.073337 0.226832
O O15 0.690255 0.470705 0.590523
#
# Coordination Sequence:
#
# PCOD9250513 Si02
#       8
#     4   4   4   4   4   4   4   2
#     4  11  24  47  79 109 147 203 261 323 383 461
#     4  11  24  46  77 109 149 201 259 328 378 457
#     4  12  26  45  78 112 149 200 259 322 383 457
#     4  10  24  43  69 106 149 198 248 313 379 461
#     4  11  23  47  75 108 153 199 261 314 383 484
#     4  11  25  44  70 113 147 196 256 308 393 448
#     4  10  25  46  75 109 153 204 250 317 399 456
#     4  12  26  48  72 112 156 200 254 326 384 474
#
# _framework density 26.898333000000001
#
# number of rings (size 3 to 8) (size 9 to 14) (size 15 to 20)
#    0.000    1.067    2.667    2.400    3.733    3.200 
#    0.000    5.333    0.000    0.000    0.000    0.000 
#    0.000    0.000    0.000    0.000    0.000    0.000 
#
# Total GULP energy -167432.809232 kJ/mol
# GULP energy per Si atom -5581.093641 kJ/mol
# Density = 2.683711 g / cm^3
# Si number density = 26.898333 Si / 1000 Ang^3
#
#
#
# Elastic Constant Matrix: (Units=GPa)
#
#
# Indices 1 2 3 4 5 6 
#
# 1 121.6498 16.4002 46.2075 0.0000 -6.2161 0.0000
# 2 16.4002 56.1548 23.8724 0.0000 12.0490 0.0000
# 3 46.2075 23.8724 186.9611 0.0000 15.6293 0.0000
# 4 0.0000 0.0000 0.0000 29.4753 0.0000 3.2905
# 5 -6.2161 12.0490 15.6293 0.0000 40.1269 0.0000
# 6 0.0000 0.0000 0.0000 3.2905 0.0000 32.8495
#
#
#
# Elastic Compliance Matrix: (Units=1/GPa)
#
#
# Indices 1 2 3 4 5 6 
#
# 1 0.009596 -0.002491 -0.002316 0.000000 0.003137 0.000000
# 2 -0.002491 0.020447 -0.001498 0.000000 -0.005942 0.000000
# 3 -0.002316 -0.001498 0.006310 0.000000 -0.002367 0.000000
# 4 0.000000 0.000000 0.000000 0.034310 0.000000 -0.003437
# 5 0.003137 -0.005942 -0.002367 0.000000 0.028113 0.000000
# 6 0.000000 0.000000 0.000000 -0.003437 0.000000 0.030786
#
#
# Mechanical properties :
#
#
# Convention : Reuss Voigt Hill
#
# Bulk Modulus (GPa) = 42.11751 59.74729 50.93240
# Shear Modulus (GPa) = 33.31378 39.04272 36.17825
#
# Velocity S-wave (km/s) = 3.52306 3.81398 3.67140
# Velocity P-wave (km/s) = 5.67814 6.45412 6.07853
#
# Compressibility (1/GPa) = 0.02374309
#
# Stress axis : x y z
#
# Youngs Moduli (GPa) = 104.20948 48.90587 158.47287
#
# Poissons Ratio (x) = 0.12183 0.36699
# Poissons Ratio (y) = 0.25959 0.23746
# Poissons Ratio (z) = 0.24133 0.07328
#
# Static dielectric constant tensor:
#      x y z
#    x 1.759040 0.000000 0.376190 
#    y 0.000000 2.063320 0.000000 
#    z 0.376190 0.000000 1.606160 
# 
# From -- ./inp_files/25612.got.cif
#   From: 2010.05.17/outbox.cif.g08.bks.cpg/sg14_13_cif.got.tgz:25612.got - 2010.06.03 17:49:19.
