data_PCOD9250966
_publ_section_title
;
Structure prediction by ZEFSAII (Michael W. Deem and Ramdas Pophale) SiO2 
 PCOD9250966
Probable space group: P 21/C
;
_chemical_formula_sum "Si O2"
_cell_formula_units_Z 28
_cell_length_a 20.335687
_cell_length_b 8.103326
_cell_length_c 15.677901
_cell_angle_alpha 90.000000
_cell_angle_beta 29.173736
_cell_angle_gamma 90.000000
_cell_volume 1259.356205
_symmetry_space_group_name_H-M "P 21/C"
_symmetry_group_IT_number 14
_symmetry_cell_setting 'monoclinic'
loop_
_space_group_symop_operation_xyz
x,y,z
-x,1/2+y,1/2-z
-x,-y,-z
x,1/2-y,1/2+z
loop_
_atom_site_type_symbol
_atom_site_label
_atom_site_fract_x
_atom_site_fract_y
_atom_site_fract_z
Si Si1 0.421064 0.990635 0.335730
Si Si2 0.561170 0.863568 0.870070
Si Si3 0.681523 0.139072 0.100238
Si Si4 0.104541 0.838897 0.276821
Si Si5 0.183372 0.465311 0.229363
Si Si6 0.168704 0.132388 0.329918
Si Si7 0.368063 0.886941 0.648315
O O1 0.405560 0.075305 0.261442
O O2 0.573387 0.000411 0.197276
O O3 0.314815 0.067469 0.522021
O O4 0.380099 0.802624 0.371018
O O5 0.695185 0.817936 0.772974
O O6 0.430862 0.745488 0.013033
O O7 0.500000 0.000000 0.000000
O O8 0.671814 0.166444 0.212054
O O9 0.824966 0.115109 0.892629
O O10 0.114762 0.636772 0.274096
O O11 0.949009 0.884690 0.466834
O O12 0.175456 0.960539 0.268036
O O13 0.123967 0.283973 0.317267
O O14 0.238947 0.527296 0.256572
O O15 0.500000 0.000000 0.500000
#
# Coordination Sequence:
#
# PCOD9250966 Si02
#       7
#     4   4   4   4   4   4   4
#     4  11  23  37  64  94 127 164 212 272 326 376
#     4  12  22  38  65  93 126 163 212 267 322 380
#     4  11  23  39  61  96 131 164 214 268 323 382
#     4  10  25  43  66  93 129 174 219 261 313 400
#     4  11  23  43  69  96 130 166 218 267 324 381
#     4  11  23  45  67  91 130 176 214 261 332 378
#     4  12  22  38  62  99 127 159 210 271 327 379
#
# _framework density 22.233581999999998
#
# number of rings (size 3 to 8) (size 9 to 14) (size 15 to 20)
#    0.000    0.857    4.286    3.857    2.000    0.000 
#    0.000    4.286    0.000    0.000    0.000    0.000 
#    0.000    0.000    0.000    0.000    0.000    0.000 
#
# Total GULP energy -156067.419293 kJ/mol
# GULP energy per Si atom -5573.836403 kJ/mol
# Density = 2.218298 g / cm^3
# Si number density = 22.233582 Si / 1000 Ang^3
#
#
#
# Elastic Constant Matrix: (Units=GPa)
#
#
# Indices 1 2 3 4 5 6 
#
# 1 50.5818 -2.5180 19.0536 0.0000 19.4522 0.0000
# 2 -2.5180 67.7410 17.7714 0.0000 1.2493 0.0000
# 3 19.0536 17.7714 151.1186 0.0000 25.1997 0.0000
# 4 0.0000 0.0000 0.0000 28.8806 0.0000 6.3565
# 5 19.4522 1.2493 25.1997 0.0000 30.5327 0.0000
# 6 0.0000 0.0000 0.0000 6.3565 0.0000 19.6093
#
#
#
# Elastic Compliance Matrix: (Units=1/GPa)
#
#
# Indices 1 2 3 4 5 6 
#
# 1 0.026377 0.001489 -0.000798 0.000000 -0.016207 0.000000
# 2 0.001489 0.015342 -0.002005 0.000000 0.000079 0.000000
# 3 -0.000798 -0.002005 0.007949 0.000000 -0.005970 0.000000
# 4 0.000000 0.000000 0.000000 0.037285 0.000000 -0.012086
# 5 -0.016207 0.000079 -0.005970 0.000000 0.048001 0.000000
# 6 0.000000 0.000000 0.000000 -0.012086 0.000000 0.054914
#
#
# Mechanical properties :
#
#
# Convention : Reuss Voigt Hill
#
# Bulk Modulus (GPa) = 21.25857 37.56170 29.41014
# Shear Modulus (GPa) = 24.01783 31.48014 27.74898
#
# Velocity S-wave (km/s) = 3.29028 3.76690 3.53663
# Velocity P-wave (km/s) = 4.90070 5.98751 5.47115
#
# Compressibility (1/GPa) = 0.04703984
#
# Stress axis : x y z
#
# Youngs Moduli (GPa) = 37.91112 65.18056 125.79696
#
# Poissons Ratio (x) = -0.09704 0.10042
# Poissons Ratio (y) = -0.05644 0.25222
# Poissons Ratio (z) = 0.03026 0.13069
#
# Static dielectric constant tensor:
#      x y z
#    x 1.809690 0.000000 -0.033220 
#    y 0.000000 2.096740 0.000000 
#    z -0.033220 0.000000 1.815040 
# 
# From -- ./inp_files/50211.got.cif
#   From: 2010.05.17/outbox.cif.g08.bks.cpg/sg14_26_cif.got.tgz:50211.got - 2010.06.03 17:49:19.
