data_PCOD9250848
_publ_section_title
;
Structure prediction by ZEFSAII (Michael W. Deem and Ramdas Pophale) SiO2 
 PCOD9250848
Probable space group: P 21/C
;
_chemical_formula_sum "Si O2"
_cell_formula_units_Z 12
_cell_length_a 5.095246
_cell_length_b 9.064570
_cell_length_c 10.630632
_cell_angle_alpha 90.000000
_cell_angle_beta 105.665054
_cell_angle_gamma 90.000000
_cell_volume 472.751663
_symmetry_space_group_name_H-M "P 21/C"
_symmetry_group_IT_number 14
_symmetry_cell_setting 'monoclinic'
loop_
_space_group_symop_operation_xyz
x,y,z
-x,1/2+y,1/2-z
-x,-y,-z
x,1/2-y,1/2+z
loop_
_atom_site_type_symbol
_atom_site_label
_atom_site_fract_x
_atom_site_fract_y
_atom_site_fract_z
Si Si1 0.016535 0.101963 0.381546
Si Si2 0.193530 0.043897 0.139118
Si Si3 0.548499 0.777767 0.186622
O O1 0.744412 0.198428 0.343983
O O2 0.278123 0.210410 0.405359
O O3 0.000000 0.000000 0.500000
O O4 0.057374 0.008776 0.257563
O O5 0.466638 0.946688 0.165743
O O6 0.277738 0.214392 0.173218
O O7 0.000000 0.000000 0.000000
#
# Coordination Sequence:
#
# PCOD9250848 Si02
#       3
#     4   4   4
#     4  10  24  47  75 108 152 202 254 315 390 452
#     4  10  26  49  78 112 153 201 263 316 385 461
#     4  10  25  45  78 107 154 196 258 314 392 450
#
# _framework density 25.383306999999999
#
# number of rings (size 3 to 8) (size 9 to 14) (size 15 to 20)
#    2.000    0.000    0.000    1.000    4.667    6.667 
#    0.000    0.000    0.000    0.000    0.000    0.000 
#    0.000    0.000    0.000    0.000    0.000    0.000 
#
# Total GULP energy -67066.805920 kJ/mol
# GULP energy per Si atom -5588.900493 kJ/mol
# Density = 2.532553 g / cm^3
# Si number density = 25.383307 Si / 1000 Ang^3
#
#
#
# Elastic Constant Matrix: (Units=GPa)
#
#
# Indices 1 2 3 4 5 6 
#
# 1 167.6485 23.5665 36.2355 0.0000 -24.3176 0.0000
# 2 23.5665 86.6669 39.7374 0.0000 6.8794 0.0000
# 3 36.2355 39.7374 174.1049 0.0000 -25.8208 0.0000
# 4 0.0000 0.0000 0.0000 27.8716 0.0000 5.5814
# 5 -24.3176 6.8794 -25.8208 0.0000 36.2445 0.0000
# 6 0.0000 0.0000 0.0000 5.5814 0.0000 57.5773
#
#
#
# Elastic Compliance Matrix: (Units=1/GPa)
#
#
# Indices 1 2 3 4 5 6 
#
# 1 0.007047 -0.002210 -0.000222 0.000000 0.004990 0.000000
# 2 -0.002210 0.014474 -0.003881 0.000000 -0.006995 0.000000
# 3 -0.000222 -0.003881 0.007562 0.000000 0.005975 0.000000
# 4 0.000000 0.000000 0.000000 0.036589 0.000000 -0.003547
# 5 0.004990 -0.006995 0.005975 0.000000 0.036522 0.000000
# 6 0.000000 0.000000 0.000000 -0.003547 0.000000 0.017712
#
#
# Mechanical properties :
#
#
# Convention : Reuss Voigt Hill
#
# Bulk Modulus (GPa) = 60.76803 69.72212 65.24508
# Shear Modulus (GPa) = 36.22693 46.26408 41.24551
#
# Velocity S-wave (km/s) = 3.78192 4.27385 4.03539
# Velocity P-wave (km/s) = 6.56222 7.20289 6.89001
#
# Compressibility (1/GPa) = 0.01645602
#
# Stress axis : x y z
#
# Youngs Moduli (GPa) = 141.89703 69.08839 132.24440
#
# Poissons Ratio (x) = 0.15272 0.02939
# Poissons Ratio (y) = 0.31366 0.51323
# Poissons Ratio (z) = 0.03153 0.26813
#
# Static dielectric constant tensor:
#      x y z
#    x 1.960110 0.000000 0.008850 
#    y 0.000000 2.145690 0.000000 
#    z 0.008850 0.000000 2.034050 
# 
# From -- ./inp_files/4746.got.cif
#   From: 2010.05.17/outbox.cif.g08.bks.cpg/sg14_3_cif.got.tgz:4746.got - 2010.06.03 17:49:19.
