data_PCOD9250733
_publ_section_title
;
Structure prediction by ZEFSAII (Michael W. Deem and Ramdas Pophale) SiO2 
 PCOD9250733
Probable space group: P 21/C
;
_chemical_formula_sum "Si O2"
_cell_formula_units_Z 20
_cell_length_a 7.878670
_cell_length_b 6.433051
_cell_length_c 18.304688
_cell_angle_alpha 90.000000
_cell_angle_beta 68.501779
_cell_angle_gamma 90.000000
_cell_volume 863.207985
_symmetry_space_group_name_H-M "P 21/C"
_symmetry_group_IT_number 14
_symmetry_cell_setting 'monoclinic'
loop_
_space_group_symop_operation_xyz
x,y,z
-x,1/2+y,1/2-z
-x,-y,-z
x,1/2-y,1/2+z
loop_
_atom_site_type_symbol
_atom_site_label
_atom_site_fract_x
_atom_site_fract_y
_atom_site_fract_z
Si Si1 0.745120 0.007347 0.893775
Si Si2 0.130487 0.025108 0.880819
Si Si3 0.299077 0.197776 0.241598
Si Si4 0.615050 0.740244 0.043705
Si Si5 0.676534 0.126503 0.629889
O O1 0.808844 0.907584 0.807480
O O2 0.921177 0.091051 0.908259
O O3 0.589111 0.179594 0.906068
O O4 0.659352 0.823253 0.956432
O O5 0.153422 0.781398 0.893428
O O6 0.220468 0.092825 0.789438
O O7 0.244439 0.138316 0.925690
O O8 0.498780 0.238119 0.177101
O O9 0.308412 0.038902 0.307263
O O10 0.645285 0.500880 0.060227
#
# Coordination Sequence:
#
# PCOD9250733 Si02
#       5
#     4   4   4   4   4
#     4  11  24  43  66  96 128 167 221 266 321 389
#     4  11  24  42  66  93 131 168 215 269 325 383
#     4  11  22  39  64  95 124 166 211 267 319 384
#     4  10  24  46  63  91 133 173 209 270 326 384
#     4  11  21  42  67  89 132 173 210 263 335 378
#
# _framework density 23.169384000000001
#
# number of rings (size 3 to 8) (size 9 to 14) (size 15 to 20)
#    0.000    1.200    4.000    1.800    2.800    1.600 
#    3.600    0.000    0.000    0.000    0.000    0.000 
#    0.000    0.000    0.000    0.000    0.000    0.000 
#
# Total GULP energy -111870.551054 kJ/mol
# GULP energy per Si atom -5593.527553 kJ/mol
# Density = 2.311665 g / cm^3
# Si number density = 23.169384 Si / 1000 Ang^3
#
#
#
# Elastic Constant Matrix: (Units=GPa)
#
#
# Indices 1 2 3 4 5 6 
#
# 1 140.1127 32.3611 6.8752 0.0000 9.4846 0.0000
# 2 32.3611 67.3004 -5.0684 0.0000 14.5148 0.0000
# 3 6.8752 -5.0684 56.7097 0.0000 17.9123 0.0000
# 4 0.0000 0.0000 0.0000 34.4977 0.0000 9.5385
# 5 9.4846 14.5148 17.9123 0.0000 20.6390 0.0000
# 6 0.0000 0.0000 0.0000 9.5385 0.0000 2.5596
#
#
#
# Elastic Compliance Matrix: (Units=1/GPa)
#
#
# Indices 1 2 3 4 5 6 
#
# 1 0.008132 -0.004124 -0.001502 0.000000 0.000467 0.000000
# 2 -0.004124 0.022289 0.009429 0.000000 -0.021964 0.000000
# 3 -0.001502 0.009429 0.028290 0.000000 -0.030494 0.000000
# 4 0.000000 0.000000 0.000000 -0.954506 0.000000 3.556981
# 5 0.000467 -0.021964 -0.030494 0.000000 0.090149 0.000000
# 6 0.000000 0.000000 0.000000 3.556981 0.000000-12.864466
#
#
# Mechanical properties :
#
#
# Convention : Reuss Voigt Hill
#
# Bulk Modulus (GPa) = 15.07882 36.93985 26.00933
# Shear Modulus (GPa) = -0.36615 26.86959 13.25172
#
# Velocity S-wave (km/s) = -0.39796 3.40913 2.39414
# Velocity P-wave (km/s) = 2.51218 5.61019 4.34657
#
# Compressibility (1/GPa) = 0.06631820
#
# Stress axis : x y z
#
# Youngs Moduli (GPa) = 122.97589 44.86568 35.34779
#
# Poissons Ratio (x) = 0.18502 0.05309
# Poissons Ratio (y) = 0.50713 -0.33331
# Poissons Ratio (z) = 0.18469 -0.42306
#
# Static dielectric constant tensor:
#      x y z
#    x 1.892680 0.000000 0.001490 
#    y 0.000000 1.896960 0.000000 
#    z 0.001490 0.000000 1.857880 
# 
# From -- ./inp_files/54010.got.cif
#   From: 2010.05.17/outbox.cif.g08.bks.cpg/sg14_28_cif.got.tgz:54010.got - 2010.06.03 17:49:19.
