data_PCOD9250413
_publ_section_title
;
Structure prediction by ZEFSAII (Michael W. Deem and Ramdas Pophale) SiO2 
 PCOD9250413
Probable space group: P 21/C
;
_chemical_formula_sum "Si O2"
_cell_formula_units_Z 32
_cell_length_a 12.115844
_cell_length_b 14.381223
_cell_length_c 17.976153
_cell_angle_alpha 90.000000
_cell_angle_beta 28.095271
_cell_angle_gamma 90.000000
_cell_volume 1475.064370
_symmetry_space_group_name_H-M "P 21/C"
_symmetry_group_IT_number 14
_symmetry_cell_setting 'monoclinic'
loop_
_space_group_symop_operation_xyz
x,y,z
-x,1/2+y,1/2-z
-x,-y,-z
x,1/2-y,1/2+z
loop_
_atom_site_type_symbol
_atom_site_label
_atom_site_fract_x
_atom_site_fract_y
_atom_site_fract_z
Si Si1 0.112480 0.188792 0.842656
Si Si2 0.572672 0.712937 0.455827
Si Si3 0.058854 0.631874 0.003202
Si Si4 0.390904 0.597335 0.093364
Si Si5 0.260164 0.498037 0.315608
Si Si6 0.399325 0.015895 0.250571
Si Si7 0.998446 0.913972 0.713084
Si Si8 0.210610 0.907472 0.092300
O O1 0.300585 0.258565 0.696100
O O2 0.955272 0.256056 0.987560
O O3 0.947055 0.143978 0.876756
O O4 0.271976 0.108119 0.781679
O O5 0.548227 0.811606 0.511051
O O6 0.762165 0.641468 0.374742
O O7 0.332762 0.662044 0.577778
O O8 0.815457 0.588169 0.119009
O O9 0.066446 0.598254 0.085935
O O10 0.269783 0.584581 0.831714
O O11 0.276089 0.568358 0.238397
O O12 0.206549 0.624214 0.139671
O O13 0.500000 0.500000 0.000000
O O14 0.444137 0.521849 0.269062
O O15 0.000000 0.500000 0.500000
O O16 0.573726 0.039908 0.078655
O O17 0.947683 0.019214 0.768732
#
# Coordination Sequence:
#
# PCOD9250413 Si02
#       8
#     4   4   4   4   4   4   4   4
#     4  11  22  41  66  96 126 180 223 268 331 410
#     4  11  23  39  69 100 126 176 229 274 332 399
#     4  10  24  42  68  99 129 176 229 272 334 408
#     4  12  23  42  69  99 132 176 227 280 335 400
#     4  12  24  43  64  96 138 174 217 273 341 400
#     4  11  23  42  65  96 134 174 220 271 338 400
#     4  11  22  42  68  99 132 170 227 282 334 394
#     4  12  22  43  70  94 138 174 222 280 340 400
#
# _framework density 21.69397
#
# number of rings (size 3 to 8) (size 9 to 14) (size 15 to 20)
#    0.000    0.750    6.250    2.625    1.750    0.000 
#    2.250    1.250    0.000    0.000    0.000    0.000 
#    0.000    0.000    0.000    0.000    0.000    0.000 
#
# Total GULP energy -178729.496890 kJ/mol
# GULP energy per Si atom -5585.296778 kJ/mol
# Density = 2.164459 g / cm^3
# Si number density = 21.693970 Si / 1000 Ang^3
#
#
#
# Elastic Constant Matrix: (Units=GPa)
#
#
# Indices 1 2 3 4 5 6 
#
# 1 87.3638 18.2730 6.9033 0.0000 -20.9541 0.0000
# 2 18.2730 101.4249 2.9285 0.0000 2.8602 0.0000
# 3 6.9033 2.9285 51.0978 0.0000 0.7982 0.0000
# 4 0.0000 0.0000 0.0000 23.5838 0.0000 2.8360
# 5 -20.9541 2.8602 0.7982 0.0000 21.9453 0.0000
# 6 0.0000 0.0000 0.0000 2.8360 0.0000 32.4309
#
#
#
# Elastic Compliance Matrix: (Units=1/GPa)
#
#
# Indices 1 2 3 4 5 6 
#
# 1 0.016127 -0.003289 -0.002239 0.000000 0.015909 0.000000
# 2 -0.003289 0.010582 -0.000092 0.000000 -0.004517 0.000000
# 3 -0.002239 -0.000092 0.019923 0.000000 -0.002850 0.000000
# 4 0.000000 0.000000 0.000000 0.042853 0.000000 -0.003747
# 5 0.015909 -0.004517 -0.002850 0.000000 0.061450 0.000000
# 6 0.000000 0.000000 0.000000 -0.003747 0.000000 0.031162
#
#
# Mechanical properties :
#
#
# Convention : Reuss Voigt Hill
#
# Bulk Modulus (GPa) = 28.25479 32.89957 30.57718
# Shear Modulus (GPa) = 24.37430 29.71080 27.04255
#
# Velocity S-wave (km/s) = 3.35558 3.70475 3.53448
# Velocity P-wave (km/s) = 5.29771 5.78778 5.54816
#
# Compressibility (1/GPa) = 0.03539223
#
# Stress axis : x y z
#
# Youngs Moduli (GPa) = 62.00777 94.49862 50.19444
#
# Poissons Ratio (x) = 0.31085 0.11237
# Poissons Ratio (y) = 0.20397 0.00459
# Poissons Ratio (z) = 0.13882 0.00865
#
# Static dielectric constant tensor:
#      x y z
#    x 1.741400 0.000000 -0.017890 
#    y 0.000000 1.742840 0.000000 
#    z -0.017890 0.000000 1.806550 
# 
# From -- ./inp_files/57987.got.cif
#   From: 2010.05.17/outbox.cif.g08.bks.cpg/sg14_29_cif.got.tgz:57987.got - 2010.06.03 17:49:19.
