data_PCOD9250889
_publ_section_title
;
Structure prediction by ZEFSAII (Michael W. Deem and Ramdas Pophale) SiO2 
 PCOD9250889
Probable space group: P 21/C
;
_chemical_formula_sum "Si O2"
_cell_formula_units_Z 22
_cell_length_a 8.803295
_cell_length_b 12.320865
_cell_length_c 9.043580
_cell_angle_alpha 90.000000
_cell_angle_beta 136.032377
_cell_angle_gamma 90.000000
_cell_volume 680.994863
_symmetry_space_group_name_H-M "P 21/C"
_symmetry_group_IT_number 14
_symmetry_cell_setting 'monoclinic'
loop_
_space_group_symop_operation_xyz
x,y,z
-x,1/2+y,1/2-z
-x,-y,-z
x,1/2-y,1/2+z
loop_
_atom_site_type_symbol
_atom_site_label
_atom_site_fract_x
_atom_site_fract_y
_atom_site_fract_z
Si Si1 0.030205 0.758704 0.708885
Si Si2 0.756211 0.384588 0.397567
Si Si3 0.444726 0.598025 0.212260
Si Si4 0.500000 0.000000 0.000000
Si Si5 0.999737 0.008339 0.315620
Si Si6 0.420908 0.261342 0.957852
O O1 0.092814 0.673936 0.629906
O O2 0.964600 0.872641 0.588893
O O3 0.231686 0.789357 0.960889
O O4 0.822720 0.733377 0.662986
O O5 0.566546 0.485603 0.351394
O O6 0.956795 0.458714 0.616113
O O7 0.533960 0.348975 0.143118
O O8 0.463675 0.644582 0.398649
O O9 0.418183 0.327144 0.800648
O O10 0.210795 0.566295 0.984382
O O11 0.761695 0.978995 0.213716
#
# Coordination Sequence:
#
# PCOD9250889 Si02
#       6
#     4   4   4   2   4   4
#     4  10  24  48  79 122 171 222 291 345 430 519
#     4  10  24  48  82 119 171 222 286 344 435 508
#     4  12  30  52  87 123 173 223 294 353 442 517
#     4  12  28  58  82 120 174 222 280 380 428 496
#     4  10  28  52  85 126 168 229 290 361 431 507
#     4  12  27  51  83 120 168 234 275 357 435 522
#
# _framework density 32.305678
#
# number of rings (size 3 to 8) (size 9 to 14) (size 15 to 20)
#    1.091    0.000    0.000    3.818    5.091    7.273 
#    0.000    0.000    4.000    0.000    0.000    0.000 
#    0.000    0.000    0.000    0.000    0.000    0.000 
#
# Total GULP energy -122533.275134 kJ/mol
# GULP energy per Si atom -5569.694324 kJ/mol
# Density = 3.223215 g / cm^3
# Si number density = 32.305678 Si / 1000 Ang^3
#
#
#
# Elastic Constant Matrix: (Units=GPa)
#
#
# Indices 1 2 3 4 5 6 
#
# 1 251.3737 133.2617 142.4501 0.0000 -28.5059 0.0000
# 2 133.2617 205.3137 59.8342 0.0000 0.2128 0.0000
# 3 142.4501 59.8342 194.5881 0.0000 -6.7644 0.0000
# 4 0.0000 0.0000 0.0000 78.3425 0.0000 -14.8459
# 5 -28.5059 0.2128 -6.7644 0.0000 96.1542 0.0000
# 6 0.0000 0.0000 0.0000 -14.8459 0.0000 82.4577
#
#
#
# Elastic Compliance Matrix: (Units=1/GPa)
#
#
# Indices 1 2 3 4 5 6 
#
# 1 0.010211 -0.004919 -0.005871 0.000000 0.002625 0.000000
# 2 -0.004919 0.007721 0.001178 0.000000 -0.001392 0.000000
# 3 -0.005871 0.001178 0.009036 0.000000 -0.001107 0.000000
# 4 0.000000 0.000000 0.000000 0.013215 0.000000 0.002379
# 5 0.002625 -0.001392 -0.001107 0.000000 0.011103 0.000000
# 6 0.000000 0.000000 0.000000 0.002379 0.000000 0.012556
#
#
# Mechanical properties :
#
#
# Convention : Reuss Voigt Hill
#
# Bulk Modulus (GPa) = 129.11832 146.92973 138.02402
# Shear Modulus (GPa) = 58.37898 72.43949 65.40924
#
# Velocity S-wave (km/s) = 4.25559 4.74045 4.50455
# Velocity P-wave (km/s) = 8.01256 8.69150 8.35893
#
# Compressibility (1/GPa) = 0.00774483
#
# Stress axis : x y z
#
# Youngs Moduli (GPa) = 97.93819 129.50998 110.66762
#
# Poissons Ratio (x) = 0.63707 0.64972
# Poissons Ratio (y) = 0.48176 -0.13041
# Poissons Ratio (z) = 0.57498 -0.15261
#
# Static dielectric constant tensor:
#      x y z
#    x 3.019540 0.000000 -0.027950 
#    y 0.000000 3.825200 0.000000 
#    z -0.027950 0.000000 2.406510 
# 
# From -- ./inp_files/26529.got.cif
#   From: 2010.05.17/outbox.cif.g08.bks.cpg/sg14_14_cif.got.tgz:26529.got - 2010.06.03 17:49:19.
