data_PCOD9250000
_publ_section_title
;
Structure prediction by ZEFSAII (Michael W. Deem and Ramdas Pophale) SiO2 
 PCOD9250000
Probable space group: P 21/C
;
_chemical_formula_sum "Si O2"
_cell_formula_units_Z 22
_cell_length_a 21.548267
_cell_length_b 4.741110
_cell_length_c 14.185489
_cell_angle_alpha 90.000000
_cell_angle_beta 30.068303
_cell_angle_gamma 90.000000
_cell_volume 726.109625
_symmetry_space_group_name_H-M "P 21/C"
_symmetry_group_IT_number 14
_symmetry_cell_setting 'monoclinic'
loop_
_space_group_symop_operation_xyz
x,y,z
-x,1/2+y,1/2-z
-x,-y,-z
x,1/2-y,1/2+z
loop_
_atom_site_type_symbol
_atom_site_label
_atom_site_fract_x
_atom_site_fract_y
_atom_site_fract_z
Si Si1 0.845850 0.427085 0.254435
Si Si2 0.747207 0.278583 0.717709
Si Si3 0.377144 0.237043 0.499637
Si Si4 0.662680 0.403148 0.131331
Si Si5 0.952927 0.825886 0.866007
Si Si6 0.000000 0.500000 0.500000
O O1 0.870555 0.199776 0.132034
O O2 0.721925 0.519118 0.339607
O O3 0.758097 0.303213 0.451415
O O4 0.905844 0.737980 0.177702
O O5 0.698729 0.087403 0.693511
O O6 0.824739 0.520623 0.549393
O O7 0.644832 0.473973 0.903455
O O8 0.519520 0.311351 0.317505
O O9 0.343698 0.160419 0.435335
O O10 0.042366 0.030157 0.690692
O O11 0.017134 0.766319 0.882935
#
# Coordination Sequence:
#
# PCOD9250000 Si02
#       6
#     4   4   4   4   4   2
#     4  10  23  45  69 106 146 195 256 317 393 468
#     4  10  25  43  69 107 145 203 260 326 390 467
#     4  11  23  43  72 105 154 200 259 323 391 473
#     4  11  22  45  67 108 149 201 257 317 390 468
#     4  11  26  50  76 113 155 204 268 330 407 488
#     4  10  24  50  74 112 150 200 256 334 390 474
#
# _framework density 30.298456000000002
#
# number of rings (size 3 to 8) (size 9 to 14) (size 15 to 20)
#    0.000    1.455    1.818    1.636    5.091    2.909 
#   19.636    0.000    0.000    0.000    0.000    0.000 
#    0.000    0.000    0.000    0.000    0.000    0.000 
#
# Total GULP energy -123219.718782 kJ/mol
# GULP energy per Si atom -5600.896308 kJ/mol
# Density = 3.022950 g / cm^3
# Si number density = 30.298456 Si / 1000 Ang^3
#
#
#
# Elastic Constant Matrix: (Units=GPa)
#
#
# Indices 1 2 3 4 5 6 
#
# 1 298.5315 87.9443 98.6748 0.0000 49.3351 0.0000
# 2 87.9443 244.9481 81.3272 0.0000 -0.9018 0.0000
# 3 98.6748 81.3272 206.8137 0.0000 -34.0103 0.0000
# 4 0.0000 0.0000 0.0000 65.9603 0.0000 9.4681
# 5 49.3351 -0.9018 -34.0103 0.0000 59.5536 0.0000
# 6 0.0000 0.0000 0.0000 9.4681 0.0000 35.5823
#
#
#
# Elastic Compliance Matrix: (Units=1/GPa)
#
#
# Indices 1 2 3 4 5 6 
#
# 1 0.006013 -0.000973 -0.003651 0.000000 -0.007081 0.000000
# 2 -0.000973 0.004917 -0.001462 0.000000 0.000045 0.000000
# 3 -0.003651 -0.001462 0.008438 0.000000 0.007822 0.000000
# 4 0.000000 0.000000 0.000000 0.015763 0.000000 -0.004194
# 5 -0.007081 0.000045 0.007822 0.000000 0.027125 0.000000
# 6 0.000000 0.000000 0.000000 -0.004194 0.000000 0.029220
#
#
# Mechanical properties :
#
#
# Convention : Reuss Voigt Hill
#
# Bulk Modulus (GPa) = 138.94207 142.90954 140.92581
# Shear Modulus (GPa) = 47.14831 64.37572 55.76201
#
# Velocity S-wave (km/s) = 3.94906 4.61447 4.29467
# Velocity P-wave (km/s) = 8.17012 8.69832 8.43835
#
# Compressibility (1/GPa) = 0.00719724
#
# Stress axis : x y z
#
# Youngs Moduli (GPa) = 166.29557 203.36016 118.50506
#
# Poissons Ratio (x) = 0.19784 0.43267
# Poissons Ratio (y) = 0.16178 0.17326
# Poissons Ratio (z) = 0.60716 0.29733
#
# Static dielectric constant tensor:
#      x y z
#    x 2.538280 0.000000 -0.036650 
#    y 0.000000 2.375320 0.000000 
#    z -0.036650 0.000000 2.310660 
# 
# From -- ./inp_files/50968.got.cif
#   From: 2010.05.17/outbox.cif.g08.bks.cpg/sg14_26_cif.got.tgz:50968.got - 2010.06.03 17:49:19.
