data_PCOD9250683
_publ_section_title
;
Structure prediction by ZEFSAII (Michael W. Deem and Ramdas Pophale) SiO2 
 PCOD9250683
Probable space group: P 21/C
;
_chemical_formula_sum "Si O2"
_cell_formula_units_Z 28
_cell_length_a 11.526652
_cell_length_b 14.072598
_cell_length_c 9.050327
_cell_angle_alpha 90.000000
_cell_angle_beta 120.486473
_cell_angle_gamma 90.000000
_cell_volume 1265.093147
_symmetry_space_group_name_H-M "P 21/C"
_symmetry_group_IT_number 14
_symmetry_cell_setting 'monoclinic'
loop_
_space_group_symop_operation_xyz
x,y,z
-x,1/2+y,1/2-z
-x,-y,-z
x,1/2-y,1/2+z
loop_
_atom_site_type_symbol
_atom_site_label
_atom_site_fract_x
_atom_site_fract_y
_atom_site_fract_z
Si Si1 0.971478 0.766718 0.104930
Si Si2 0.657781 0.077176 0.296384
Si Si3 0.786660 0.587143 0.056473
Si Si4 0.162976 0.757147 0.482547
Si Si5 0.301562 0.923156 0.007163
Si Si6 0.581812 0.937105 0.670138
Si Si7 0.969042 0.978239 0.150763
O O1 0.115319 0.759964 0.282760
O O2 0.023130 0.771925 0.970789
O O3 0.868250 0.680350 0.057995
O O4 0.922346 0.869185 0.128269
O O5 0.782065 0.145776 0.415410
O O6 0.624050 0.079965 0.101203
O O7 0.533685 0.116937 0.314160
O O8 0.696958 0.970283 0.377493
O O9 0.695677 0.610983 0.142304
O O10 0.897164 0.509183 0.178164
O O11 0.278233 0.678260 0.567808
O O12 0.151454 0.957752 0.869552
O O13 0.354148 0.995434 0.163729
O O14 0.500000 0.000000 0.500000
O O15 0.000000 0.000000 0.000000
#
# Coordination Sequence:
#
# PCOD9250683 Si02
#       7
#     4   4   4   4   4   4   4
#     4  12  24  39  66 104 138 172 221 281 345 410
#     4  11  25  43  67  98 135 184 229 279 332 412
#     4  11  22  43  66 100 136 177 222 280 349 401
#     4  12  23  40  68  98 132 175 224 275 341 410
#     4  12  24  43  69 100 131 177 230 282 335 408
#     4  10  24  45  69  88 133 182 225 276 339 406
#     4  12  21  39  69  97 137 173 216 278 345 404
#
# _framework density 22.132757000000002
#
# number of rings (size 3 to 8) (size 9 to 14) (size 15 to 20)
#    0.000    0.571    7.143    0.429    4.000    1.143 
#    0.000    5.714    0.000    0.000    0.000    0.000 
#    0.000    0.000    0.000    0.000    0.000    0.000 
#
# Total GULP energy -156320.799721 kJ/mol
# GULP energy per Si atom -5582.885704 kJ/mol
# Density = 2.208238 g / cm^3
# Si number density = 22.132757 Si / 1000 Ang^3
#
#
#
# Elastic Constant Matrix: (Units=GPa)
#
#
# Indices 1 2 3 4 5 6 
#
# 1 100.2760 19.9781 19.3308 0.0000 -23.5784 0.0000
# 2 19.9781 109.0247 3.0556 0.0000 -11.9674 0.0000
# 3 19.3308 3.0556 52.6252 0.0000 -9.4793 0.0000
# 4 0.0000 0.0000 0.0000 10.0013 0.0000 -4.4593
# 5 -23.5784 -11.9674 -9.4793 0.0000 31.5341 0.0000
# 6 0.0000 0.0000 0.0000 -4.4593 0.0000 31.6872
#
#
#
# Elastic Compliance Matrix: (Units=1/GPa)
#
#
# Indices 1 2 3 4 5 6 
#
# 1 0.012748 -0.001362 -0.003150 0.000000 0.008068 0.000000
# 2 -0.001362 0.009717 0.000441 0.000000 0.002802 0.000000
# 3 -0.003150 0.000441 0.020870 0.000000 0.004085 0.000000
# 4 0.000000 0.000000 0.000000 0.106680 0.000000 0.015013
# 5 0.008068 0.002802 0.004085 0.000000 0.040036 0.000000
# 6 0.000000 0.000000 0.000000 0.015013 0.000000 0.033671
#
#
# Mechanical properties :
#
#
# Convention : Reuss Voigt Hill
#
# Bulk Modulus (GPa) = 28.41587 38.51721 33.46654
# Shear Modulus (GPa) = 20.52576 29.28197 24.90386
#
# Velocity S-wave (km/s) = 3.04862 3.64127 3.35805
# Velocity P-wave (km/s) = 5.02581 5.92614 5.49445
#
# Compressibility (1/GPa) = 0.03519161
#
# Stress axis : x y z
#
# Youngs Moduli (GPa) = 78.44214 102.91227 47.91605
#
# Poissons Ratio (x) = 0.14018 0.15096
# Poissons Ratio (y) = 0.10685 -0.02112
# Poissons Ratio (z) = 0.24713 -0.04537
#
# Static dielectric constant tensor:
#      x y z
#    x 1.856340 0.000000 0.010740 
#    y 0.000000 1.832580 0.000000 
#    z 0.010740 0.000000 1.819220 
# 
# From -- ./inp_files/13200.got.cif
#   From: 2010.05.17/outbox.cif.g08.bks.cpg/sg14_7_cif.got.tgz:13200.got - 2010.06.03 17:49:19.
