data_PCOD9250752
_publ_section_title
;
Structure prediction by ZEFSAII (Michael W. Deem and Ramdas Pophale) SiO2 
 PCOD9250752
Probable space group: P 21/C
;
_chemical_formula_sum "Si O2"
_cell_formula_units_Z 26
_cell_length_a 8.558476
_cell_length_b 19.403819
_cell_length_c 9.080602
_cell_angle_alpha 90.000000
_cell_angle_beta 130.280681
_cell_angle_gamma 90.000000
_cell_volume 1150.424572
_symmetry_space_group_name_H-M "P 21/C"
_symmetry_group_IT_number 14
_symmetry_cell_setting 'monoclinic'
loop_
_space_group_symop_operation_xyz
x,y,z
-x,1/2+y,1/2-z
-x,-y,-z
x,1/2-y,1/2+z
loop_
_atom_site_type_symbol
_atom_site_label
_atom_site_fract_x
_atom_site_fract_y
_atom_site_fract_z
Si Si1 0.270112 0.797472 0.662946
Si Si2 0.113714 0.231697 0.233588
Si Si3 0.364910 0.293810 0.152329
Si Si4 0.675090 0.073873 0.469407
Si Si5 0.000000 0.000000 0.500000
Si Si6 0.446783 0.565364 0.766207
Si Si7 0.887967 0.107925 0.173859
O O1 0.416951 0.732450 0.771132
O O2 0.392264 0.854914 0.643984
O O3 0.213452 0.833191 0.783029
O O4 0.077920 0.773837 0.446455
O O5 0.312945 0.263022 0.277634
O O6 0.179002 0.236154 0.442885
O O7 0.059290 0.150382 0.186278
O O8 0.380689 0.376168 0.156091
O O9 0.903264 0.060692 0.548832
O O10 0.643226 0.072967 0.624269
O O11 0.553776 0.009007 0.325342
O O12 0.965056 0.049832 0.332007
O O13 0.276350 0.576848 0.538786
#
# Coordination Sequence:
#
# PCOD9250752 Si02
#       7
#     4   4   4   4   2   4   4
#     4  11  25  46  66 108 145 190 239 312 368 446
#     4  12  25  42  69 109 137 191 237 311 371 447
#     4  12  25  43  75 103 150 190 246 298 384 441
#     4  10  25  45  69 104 147 188 249 299 369 444
#     4  10  24  46  68 104 144 192 248 302 356 456
#     4  11  24  46  73 102 144 201 239 308 369 449
#     4  11  24  47  72 102 152 190 248 312 372 444
#
# _framework density 22.600349999999999
#
# number of rings (size 3 to 8) (size 9 to 14) (size 15 to 20)
#    0.000    0.923    3.077    2.769    6.462    4.308 
#    5.538    0.000    0.000    0.000    0.000    0.000 
#    0.000    0.000    0.000    0.000    0.000    0.000 
#
# Total GULP energy -144755.639730 kJ/mol
# GULP energy per Si atom -5567.524605 kJ/mol
# Density = 2.254891 g / cm^3
# Si number density = 22.600350 Si / 1000 Ang^3
#
#
#
# Elastic Constant Matrix: (Units=GPa)
#
#
# Indices 1 2 3 4 5 6 
#
# 1 43.7299 32.4766 19.4569 0.0000 -9.1044 0.0000
# 2 32.4766 92.3360 25.7956 0.0000 -14.5429 0.0000
# 3 19.4569 25.7956 53.7520 0.0000 -13.6884 0.0000
# 4 0.0000 0.0000 0.0000 38.4773 0.0000 -0.2985
# 5 -9.1044 -14.5429 -13.6884 0.0000 24.6004 0.0000
# 6 0.0000 0.0000 0.0000 -0.2985 0.0000 34.7019
#
#
#
# Elastic Compliance Matrix: (Units=1/GPa)
#
#
# Indices 1 2 3 4 5 6 
#
# 1 0.033531 -0.009401 -0.006852 0.000000 0.003039 0.000000
# 2 -0.009401 0.015632 -0.003066 0.000000 0.004056 0.000000
# 3 -0.006852 -0.003066 0.024989 0.000000 0.009556 0.000000
# 4 0.000000 0.000000 0.000000 0.025991 0.000000 0.000224
# 5 0.003039 0.004056 0.009556 0.000000 0.049490 0.000000
# 6 0.000000 0.000000 0.000000 0.000224 0.000000 0.028819
#
#
# Mechanical properties :
#
#
# Convention : Reuss Voigt Hill
#
# Bulk Modulus (GPa) = 28.15749 38.36400 33.26075
# Shear Modulus (GPa) = 21.84110 27.02851 24.43481
#
# Velocity S-wave (km/s) = 3.11208 3.46198 3.29168
# Velocity P-wave (km/s) = 5.03977 5.74388 5.40331
#
# Compressibility (1/GPa) = 0.03551453
#
# Stress axis : x y z
#
# Youngs Moduli (GPa) = 29.82358 63.97246 40.01724
#
# Poissons Ratio (x) = 0.60137 0.27419
# Poissons Ratio (y) = 0.28036 0.12270
# Poissons Ratio (z) = 0.20435 0.19614
#
# Static dielectric constant tensor:
#      x y z
#    x 1.916180 0.000000 0.056460 
#    y 0.000000 1.799790 0.000000 
#    z 0.056460 0.000000 1.796470 
# 
# From -- ./inp_files/10318.got.cif
#   From: 2010.05.17/outbox.cif.g08.bks.cpg/sg14_6_cif.got.tgz:10318.got - 2010.06.03 17:49:19.
