data_PCOD9250826
_publ_section_title
;
Structure prediction by ZEFSAII (Michael W. Deem and Ramdas Pophale) SiO2 
 PCOD9250826
Probable space group: P 21/C
;
_chemical_formula_sum "Si O2"
_cell_formula_units_Z 20
_cell_length_a 8.894203
_cell_length_b 6.532991
_cell_length_c 14.877850
_cell_angle_alpha 90.000000
_cell_angle_beta 70.767392
_cell_angle_gamma 90.000000
_cell_volume 816.240678
_symmetry_space_group_name_H-M "P 21/C"
_symmetry_group_IT_number 14
_symmetry_cell_setting 'monoclinic'
loop_
_space_group_symop_operation_xyz
x,y,z
-x,1/2+y,1/2-z
-x,-y,-z
x,1/2-y,1/2+z
loop_
_atom_site_type_symbol
_atom_site_label
_atom_site_fract_x
_atom_site_fract_y
_atom_site_fract_z
Si Si1 0.157511 0.764497 0.770965
Si Si2 0.962626 0.371946 0.396073
Si Si3 0.497814 0.176300 0.863806
Si Si4 0.634998 0.297983 0.528885
Si Si5 0.801300 0.927977 0.596883
O O1 0.078572 0.743615 0.688976
O O2 0.346589 0.760421 0.716120
O O3 0.136762 0.561066 0.832813
O O4 0.079614 0.947530 0.842311
O O5 0.788752 0.432660 0.467486
O O6 0.051207 0.224097 0.450058
O O7 0.526744 0.237677 0.962865
O O8 0.344023 0.278352 0.851427
O O9 0.465244 0.932337 0.880472
O O10 0.717477 0.090741 0.547039
#
# Coordination Sequence:
#
# PCOD9250826 Si02
#       5
#     4   4   4   4   4
#     4  11  25  44  67 100 138 180 227 278 339 401
#     4  11  24  46  68 100 138 180 229 278 333 405
#     4  10  25  45  69 100 138 176 223 283 340 407
#     4  10  24  47  69 101 137 176 225 281 341 405
#     4  12  24  40  73 101 132 181 223 282 337 410
#
# _framework density 24.502576999999999
#
# number of rings (size 3 to 8) (size 9 to 14) (size 15 to 20)
#    0.000    1.200    2.000    2.400    5.600    4.800 
#    3.600    0.000    0.000    0.000    0.000    0.000 
#    0.000    0.000    0.000    0.000    0.000    0.000 
#
# Total GULP energy -111757.407283 kJ/mol
# GULP energy per Si atom -5587.870364 kJ/mol
# Density = 2.444681 g / cm^3
# Si number density = 24.502577 Si / 1000 Ang^3
#
#
#
# Elastic Constant Matrix: (Units=GPa)
#
#
# Indices 1 2 3 4 5 6 
#
# 1 133.6003 57.5510 22.7655 0.0000 -6.5387 0.0000
# 2 57.5510 53.7212 17.7444 0.0000 1.8955 0.0000
# 3 22.7655 17.7444 60.3238 0.0000 6.1952 0.0000
# 4 0.0000 0.0000 0.0000 18.1696 0.0000 13.5171
# 5 -6.5387 1.8955 6.1952 0.0000 50.0365 0.0000
# 6 0.0000 0.0000 0.0000 13.5171 0.0000 58.0765
#
#
#
# Elastic Compliance Matrix: (Units=1/GPa)
#
#
# Indices 1 2 3 4 5 6 
#
# 1 0.014273 -0.014969 -0.001249 0.000000 0.002587 0.000000
# 2 -0.014969 0.036317 -0.004752 0.000000 -0.002744 0.000000
# 3 -0.001249 -0.004752 0.018682 0.000000 -0.002296 0.000000
# 4 0.000000 0.000000 0.000000 0.066562 0.000000 -0.015492
# 5 0.002587 -0.002744 -0.002296 0.000000 0.020712 0.000000
# 6 0.000000 0.000000 0.000000 -0.015492 0.000000 0.020824
#
#
# Mechanical properties :
#
#
# Convention : Reuss Voigt Hill
#
# Bulk Modulus (GPa) = 36.58651 49.30747 42.94699
# Shear Modulus (GPa) = 21.88952 35.22880 28.55916
#
# Velocity S-wave (km/s) = 2.99215 3.79589 3.41773
# Velocity P-wave (km/s) = 5.18665 6.27525 5.75674
#
# Compressibility (1/GPa) = 0.02733248
#
# Stress axis : x y z
#
# Youngs Moduli (GPa) = 70.06461 27.53534 53.52714
#
# Poissons Ratio (x) = 0.41217 0.06685
# Poissons Ratio (y) = 1.04878 0.25436
# Poissons Ratio (z) = 0.08750 0.13085
#
# Static dielectric constant tensor:
#      x y z
#    x 1.903940 0.000000 -0.004670 
#    y 0.000000 1.991880 0.000000 
#    z -0.004670 0.000000 1.963520 
# 
# From -- ./inp_files/53966.got.cif
#   From: 2010.05.17/outbox.cif.g08.bks.cpg/sg14_27_cif.got.tgz:53966.got - 2010.06.03 17:49:19.
