data_PCOD9250254
_publ_section_title
;
Structure prediction by ZEFSAII (Michael W. Deem and Ramdas Pophale) SiO2 
 PCOD9250254
Probable space group: P 21/C
;
_chemical_formula_sum "Si O2"
_cell_formula_units_Z 24
_cell_length_a 14.981169
_cell_length_b 8.021306
_cell_length_c 19.320864
_cell_angle_alpha 90.000000
_cell_angle_beta 150.136906
_cell_angle_gamma 90.000000
_cell_volume 1156.072212
_symmetry_space_group_name_H-M "P 21/C"
_symmetry_group_IT_number 14
_symmetry_cell_setting 'monoclinic'
loop_
_space_group_symop_operation_xyz
x,y,z
-x,1/2+y,1/2-z
-x,-y,-z
x,1/2-y,1/2+z
loop_
_atom_site_type_symbol
_atom_site_label
_atom_site_fract_x
_atom_site_fract_y
_atom_site_fract_z
Si Si1 0.435068 0.681219 0.282890
Si Si2 0.971119 0.505625 0.666339
Si Si3 0.141976 0.912418 0.145384
Si Si4 0.736651 0.747694 0.592157
Si Si5 0.444802 0.358488 0.907656
Si Si6 0.611484 0.324295 0.398869
O O1 0.248112 0.753262 0.186941
O O2 0.591595 0.768769 0.433660
O O3 0.482475 0.485888 0.320984
O O4 0.443010 0.730818 0.207834
O O5 0.869000 0.603941 0.657047
O O6 0.816178 0.387024 0.530567
O O7 0.045933 0.619796 0.654451
O O8 0.136714 0.404235 0.807904
O O9 0.289950 0.055535 0.258812
O O10 0.000000 0.000000 0.000000
O O11 0.632991 0.715685 0.594210
O O12 0.589420 0.287703 0.952279
O O13 0.500000 0.500000 0.000000
#
# Coordination Sequence:
#
# PCOD9250254 Si02
#       6
#     4   4   4   4   4   4
#     4  11  23  43  67  94 134 173 222 271 331 403
#     4  10  24  39  67  95 130 168 221 269 325 390
#     4  11  22  43  64  94 132 173 214 273 334 387
#     4  10  24  40  63  97 124 175 211 270 320 390
#     4  11  24  43  67  92 131 175 218 268 334 395
#     4  11  25  42  68  99 128 178 220 271 332 393
#
# _framework density 20.75995
#
# number of rings (size 3 to 8) (size 9 to 14) (size 15 to 20)
#    0.000    1.333    3.333    1.000    7.000    4.000 
#    0.000    0.833    0.000    0.000    0.000    0.000 
#    0.000    0.000    0.000    0.000    0.000    0.000 
#
# Total GULP energy -134023.841632 kJ/mol
# GULP energy per Si atom -5584.326735 kJ/mol
# Density = 2.071270 g / cm^3
# Si number density = 20.759950 Si / 1000 Ang^3
#
#
#
# Elastic Constant Matrix: (Units=GPa)
#
#
# Indices 1 2 3 4 5 6 
#
# 1 90.5294 16.1685 9.6245 0.0000 -7.9930 0.0000
# 2 16.1685 50.8637 28.0938 0.0000 -9.3703 0.0000
# 3 9.6245 28.0938 98.7046 0.0000 -3.8899 0.0000
# 4 0.0000 0.0000 0.0000 28.6107 0.0000 -0.7988
# 5 -7.9930 -9.3703 -3.8899 0.0000 32.2400 0.0000
# 6 0.0000 0.0000 0.0000 -0.7988 0.0000 37.5997
#
#
#
# Elastic Compliance Matrix: (Units=1/GPa)
#
#
# Indices 1 2 3 4 5 6 
#
# 1 0.011826 -0.003329 -0.000129 0.000000 0.001949 0.000000
# 2 -0.003329 0.025483 -0.006701 0.000000 0.005773 0.000000
# 3 -0.000129 -0.006701 0.012030 0.000000 -0.000528 0.000000
# 4 0.000000 0.000000 0.000000 0.034973 0.000000 0.000743
# 5 0.001949 0.005773 -0.000528 0.000000 0.033115 0.000000
# 6 0.000000 0.000000 0.000000 0.000743 0.000000 0.026612
#
#
# Mechanical properties :
#
#
# Convention : Reuss Voigt Hill
#
# Bulk Modulus (GPa) = 34.45668 38.65236 36.55452
# Shear Modulus (GPa) = 28.73046 32.10415 30.41730
#
# Velocity S-wave (km/s) = 3.72417 3.93675 3.83193
# Velocity P-wave (km/s) = 5.92674 6.27082 6.10121
#
# Compressibility (1/GPa) = 0.02902195
#
# Stress axis : x y z
#
# Youngs Moduli (GPa) = 84.55590 39.24127 83.12359
#
# Poissons Ratio (x) = 0.13064 0.01071
# Poissons Ratio (y) = 0.28151 0.55702
# Poissons Ratio (z) = 0.01089 0.26296
#
# Static dielectric constant tensor:
#      x y z
#    x 1.769940 0.000000 0.013390 
#    y 0.000000 1.781590 0.000000 
#    z 0.013390 0.000000 1.737220 
# 
# From -- ./inp_files/59136.got.cif
#   From: 2010.05.17/outbox.cif.g08.bks.cpg/sg14_30_cif.got.tgz:59136.got - 2010.06.03 17:49:19.
