data_PCOD9250442
_publ_section_title
;
Structure prediction by ZEFSAII (Michael W. Deem and Ramdas Pophale) SiO2 
 PCOD9250442
Probable space group: P 21/C
;
_chemical_formula_sum "Si O2"
_cell_formula_units_Z 28
_cell_length_a 7.556260
_cell_length_b 13.024997
_cell_length_c 13.046124
_cell_angle_alpha 90.000000
_cell_angle_beta 119.361898
_cell_angle_gamma 90.000000
_cell_volume 1119.060038
_symmetry_space_group_name_H-M "P 21/C"
_symmetry_group_IT_number 14
_symmetry_cell_setting 'monoclinic'
loop_
_space_group_symop_operation_xyz
x,y,z
-x,1/2+y,1/2-z
-x,-y,-z
x,1/2-y,1/2+z
loop_
_atom_site_type_symbol
_atom_site_label
_atom_site_fract_x
_atom_site_fract_y
_atom_site_fract_z
Si Si1 0.177439 0.957139 0.476187
Si Si2 0.915456 0.890329 0.706750
Si Si3 0.838436 0.689283 0.818784
Si Si4 0.635952 0.788483 0.946885
Si Si5 0.858109 0.989223 0.057316
Si Si6 0.306544 0.832744 0.688197
Si Si7 0.544831 0.339786 0.407522
O O1 0.333232 0.914254 0.603887
O O2 0.057077 0.863937 0.385225
O O3 0.000000 0.000000 0.500000
O O4 0.231788 0.044571 0.409648
O O5 0.093711 0.845959 0.685020
O O6 0.843112 0.797883 0.759315
O O7 0.019574 0.973291 0.810204
O O8 0.760264 0.709469 0.912499
O O9 0.659895 0.627453 0.710605
O O10 0.482044 0.839218 0.822044
O O11 0.786717 0.872912 0.034980
O O12 0.508087 0.763746 0.012288
O O13 0.667943 0.065283 0.987198
O O14 0.000000 0.000000 0.000000
O O15 0.324263 0.722681 0.637940
#
# Coordination Sequence:
#
# PCOD9250442 Si02
#       7
#     4   4   4   4   4   4   4
#     4  10  24  42  71  99 138 189 231 293 361 425
#     4  11  23  46  71 101 139 186 243 294 358 437
#     4  11  25  45  68 106 145 186 240 297 362 432
#     4  11  24  43  69 101 142 180 238 302 359 427
#     4  12  24  43  73 100 134 184 248 296 355 430
#     4  10  24  44  66  99 141 182 235 288 361 432
#     4  11  25  42  69 100 138 186 228 299 360 424
#
# _framework density 25.021000000000001
#
# number of rings (size 3 to 8) (size 9 to 14) (size 15 to 20)
#    0.000    1.143    2.857    2.143    8.000    1.143 
#    2.571    2.857    0.000    0.000    0.000    0.000 
#    0.000    0.000    0.000    0.000    0.000    0.000 
#
# Total GULP energy -156721.717431 kJ/mol
# GULP energy per Si atom -5597.204194 kJ/mol
# Density = 2.496405 g / cm^3
# Si number density = 25.021000 Si / 1000 Ang^3
#
#
#
# Elastic Constant Matrix: (Units=GPa)
#
#
# Indices 1 2 3 4 5 6 
#
# 1 68.5279 4.5905 24.4989 0.0000 -27.7509 0.0000
# 2 4.5905 36.9007 37.1828 0.0000 -3.9049 0.0000
# 3 24.4989 37.1828 153.3326 0.0000 -6.3394 0.0000
# 4 0.0000 0.0000 0.0000 57.3626 0.0000 -8.8327
# 5 -27.7509 -3.9049 -6.3394 0.0000 42.0089 0.0000
# 6 0.0000 0.0000 0.0000 -8.8327 0.0000 38.8050
#
#
#
# Elastic Compliance Matrix: (Units=1/GPa)
#
#
# Indices 1 2 3 4 5 6 
#
# 1 0.021190 0.002189 -0.003350 0.000000 0.013696 0.000000
# 2 0.002189 0.036263 -0.009000 0.000000 0.003459 0.000000
# 3 -0.003350 -0.009000 0.009171 0.000000 -0.001666 0.000000
# 4 0.000000 0.000000 0.000000 0.018066 0.000000 0.004112
# 5 0.013696 0.003459 -0.001666 0.000000 0.032922 0.000000
# 6 0.000000 0.000000 0.000000 0.004112 0.000000 0.026706
#
#
# Mechanical properties :
#
#
# Convention : Reuss Voigt Hill
#
# Bulk Modulus (GPa) = 21.59811 43.47837 32.53824
# Shear Modulus (GPa) = 27.76639 40.46791 34.11715
#
# Velocity S-wave (km/s) = 3.33487 4.02600 3.69662
# Velocity P-wave (km/s) = 4.84553 6.24708 5.59040
#
# Compressibility (1/GPa) = 0.04630035
#
# Stress axis : x y z
#
# Youngs Moduli (GPa) = 47.19219 27.57660 109.04226
#
# Poissons Ratio (x) = -0.06037 0.36532
# Poissons Ratio (y) = -0.10331 0.98142
# Poissons Ratio (z) = 0.15811 0.24820
#
# Static dielectric constant tensor:
#      x y z
#    x 2.120860 0.000000 -0.028370 
#    y 0.000000 2.031200 0.000000 
#    z -0.028370 0.000000 1.977250 
# 
# From -- ./inp_files/25294.got.cif
#   From: 2010.05.17/outbox.cif.g08.bks.cpg/sg14_13_cif.got.tgz:25294.got - 2010.06.03 17:49:19.
