data_PCOD9250666
_publ_section_title
;
Structure prediction by ZEFSAII (Michael W. Deem and Ramdas Pophale) SiO2 
 PCOD9250666
Probable space group: P 21/C
;
_chemical_formula_sum "Si O2"
_cell_formula_units_Z 20
_cell_length_a 25.779505
_cell_length_b 7.574535
_cell_length_c 14.232924
_cell_angle_alpha 90.000000
_cell_angle_beta 160.978570
_cell_angle_gamma 90.000000
_cell_volume 905.811985
_symmetry_space_group_name_H-M "P 21/C"
_symmetry_group_IT_number 14
_symmetry_cell_setting 'monoclinic'
loop_
_space_group_symop_operation_xyz
x,y,z
-x,1/2+y,1/2-z
-x,-y,-z
x,1/2-y,1/2+z
loop_
_atom_site_type_symbol
_atom_site_label
_atom_site_fract_x
_atom_site_fract_y
_atom_site_fract_z
Si Si1 0.647910 0.341865 0.880869
Si Si2 0.520291 0.690181 0.755107
Si Si3 0.128399 0.551232 0.890050
Si Si4 0.369856 0.659798 0.835360
Si Si5 0.211869 0.181129 0.127921
O O1 0.550639 0.510979 0.750156
O O2 0.638386 0.212248 0.953013
O O3 0.570105 0.236914 0.660442
O O4 0.810776 0.412207 0.112848
O O5 0.500550 0.836203 0.640234
O O6 0.664418 0.713084 0.074967
O O7 0.947507 0.601466 0.598396
O O8 0.236637 0.692898 0.131964
O O9 0.171588 0.357247 0.000997
O O10 0.282819 0.473829 0.683903
#
# Coordination Sequence:
#
# PCOD9250666 Si02
#       5
#     4   4   4   4   4
#     4  10  25  43  71 102 146 181 241 291 359 417
#     4  12  23  43  70 106 134 190 234 296 338 432
#     4  10  24  46  68 104 142 190 230 291 360 419
#     4  10  24  45  67 106 140 187 236 288 356 417
#     4  12  23  44  77 101 147 187 235 296 354 425
#
# _framework density 22.079637999999999
#
# number of rings (size 3 to 8) (size 9 to 14) (size 15 to 20)
#    1.200    0.000    4.000    1.800    2.800    3.200 
#    0.000    0.000    0.000    6.000    0.000    0.000 
#    0.000    0.000    0.000    0.000    0.000    0.000 
#
# Total GULP energy -111539.678392 kJ/mol
# GULP energy per Si atom -5576.983920 kJ/mol
# Density = 2.202938 g / cm^3
# Si number density = 22.079638 Si / 1000 Ang^3
#
#
#
# Elastic Constant Matrix: (Units=GPa)
#
#
# Indices 1 2 3 4 5 6 
#
# 1 164.6510 53.3978 47.8890 0.0000 7.6502 0.0000
# 2 53.3978 148.2269 46.3852 0.0000 25.3794 0.0000
# 3 47.8890 46.3852 66.1573 0.0000 6.4725 0.0000
# 4 0.0000 0.0000 0.0000 24.8985 0.0000 6.0739
# 5 7.6502 25.3794 6.4725 0.0000 24.2914 0.0000
# 6 0.0000 0.0000 0.0000 6.0739 0.0000 50.6442
#
#
#
# Elastic Compliance Matrix: (Units=1/GPa)
#
#
# Indices 1 2 3 4 5 6 
#
# 1 0.007901 -0.001397 -0.004763 0.000000 0.000240 0.000000
# 2 -0.001397 0.010520 -0.005475 0.000000 -0.009092 0.000000
# 3 -0.004763 -0.005475 0.022277 0.000000 0.001285 0.000000
# 4 0.000000 0.000000 0.000000 0.041373 0.000000 -0.004962
# 5 0.000240 -0.009092 0.001285 0.000000 0.050248 0.000000
# 6 0.000000 0.000000 0.000000 -0.004962 0.000000 0.020341
#
#
# Mechanical properties :
#
#
# Convention : Reuss Voigt Hill
#
# Bulk Modulus (GPa) = 57.38331 74.93102 66.15717
# Shear Modulus (GPa) = 27.51209 35.39105 31.45157
#
# Velocity S-wave (km/s) = 3.53376 4.00794 3.77830
# Velocity P-wave (km/s) = 6.53419 7.44503 7.00443
#
# Compressibility (1/GPa) = 0.01742667
#
# Stress axis : x y z
#
# Youngs Moduli (GPa) = 126.57193 95.05989 44.89034
#
# Poissons Ratio (x) = 0.13277 0.21382
# Poissons Ratio (y) = 0.17679 0.24578
# Poissons Ratio (z) = 0.60289 0.52047
#
# Static dielectric constant tensor:
#      x y z
#    x 1.833430 0.000000 0.015660 
#    y 0.000000 1.857920 0.000000 
#    z 0.015660 0.000000 1.836630 
# 
# From -- ./inp_files/51800.got.cif
#   From: 2010.05.17/outbox.cif.g08.bks.cpg/sg14_26_cif.got.tgz:51800.got - 2010.06.03 17:49:19.
