data_PCOD9250594
_publ_section_title
;
Structure prediction by ZEFSAII (Michael W. Deem and Ramdas Pophale) SiO2 
 PCOD9250594
Probable space group: P 21/C
;
_chemical_formula_sum "Si O2"
_cell_formula_units_Z 30
_cell_length_a 15.326021
_cell_length_b 11.256324
_cell_length_c 8.848624
_cell_angle_alpha 90.000000
_cell_angle_beta 129.154630
_cell_angle_gamma 90.000000
_cell_volume 1183.729817
_symmetry_space_group_name_H-M "P 21/C"
_symmetry_group_IT_number 14
_symmetry_cell_setting 'monoclinic'
loop_
_space_group_symop_operation_xyz
x,y,z
-x,1/2+y,1/2-z
-x,-y,-z
x,1/2-y,1/2+z
loop_
_atom_site_type_symbol
_atom_site_label
_atom_site_fract_x
_atom_site_fract_y
_atom_site_fract_z
Si Si1 0.760419 0.481005 0.906351
Si Si2 0.305918 0.118452 0.225043
Si Si3 0.444712 0.260497 0.136579
Si Si4 0.888237 0.794559 0.476530
Si Si5 0.990135 0.369302 0.186991
Si Si6 0.601680 0.152503 0.067075
Si Si7 0.754670 0.385116 0.227315
Si Si8 0.000000 0.500000 0.500000
O O1 0.805401 0.613941 0.965422
O O2 0.669776 0.466545 0.676223
O O3 0.720694 0.438529 0.026419
O O4 0.866947 0.395939 0.991026
O O5 0.355107 0.183030 0.132460
O O6 0.386143 0.156375 0.449584
O O7 0.183240 0.174446 0.132769
O O8 0.295096 0.977386 0.204921
O O9 0.524808 0.175377 0.128663
O O10 0.521484 0.334442 0.336519
O O11 0.928859 0.855723 0.367953
O O12 0.987302 0.750932 0.693730
O O13 0.012261 0.475079 0.330159
O O14 0.694489 0.258818 0.168983
O O15 0.889707 0.404957 0.380811
#
# Coordination Sequence:
#
# PCOD9250594 Si02
#       8
#     4   4   4   4   4   4   4   2
#     4  11  26  44  70 109 142 190 238 301 359 446
#     4  11  23  46  72 101 137 185 246 298 355 430
#     4  10  24  44  69 101 137 188 246 300 356 425
#     4  12  25  48  72 108 147 186 246 301 363 437
#     4  11  26  43  74 106 146 189 239 295 364 434
#     4  11  24  47  65 103 146 185 242 300 369 428
#     4  11  23  44  74 101 146 188 237 298 367 441
#     4  10  24  44  68 110 138 188 234 284 370 440
#
# _framework density 25.343620999999999
#
# number of rings (size 3 to 8) (size 9 to 14) (size 15 to 20)
#    0.000    1.067    2.667    2.800    5.600    3.200 
#    4.800    2.000    0.000    0.000    0.000    0.000 
#    0.000    0.000    0.000    0.000    0.000    0.000 
#
# Total GULP energy -167482.451461 kJ/mol
# GULP energy per Si atom -5582.748382 kJ/mol
# Density = 2.528594 g / cm^3
# Si number density = 25.343621 Si / 1000 Ang^3
#
#
#
# Elastic Constant Matrix: (Units=GPa)
#
#
# Indices 1 2 3 4 5 6 
#
# 1 78.1123 -0.4872 4.7571 0.0000 -21.2764 0.0000
# 2 -0.4872 65.6533 -5.7007 0.0000 -3.2513 0.0000
# 3 4.7571 -5.7007 78.6949 0.0000 -7.8509 0.0000
# 4 0.0000 0.0000 0.0000 35.1054 0.0000 8.4398
# 5 -21.2764 -3.2513 -7.8509 0.0000 33.6362 0.0000
# 6 0.0000 0.0000 0.0000 8.4398 0.0000 5.4074
#
#
#
# Elastic Compliance Matrix: (Units=1/GPa)
#
#
# Indices 1 2 3 4 5 6 
#
# 1 0.015491 0.000612 0.000094 0.000000 0.009880 0.000000
# 2 0.000612 0.015457 0.001301 0.000000 0.002185 0.000000
# 3 0.000094 0.001301 0.013120 0.000000 0.003247 0.000000
# 4 0.000000 0.000000 0.000000 0.045594 0.000000 -0.071162
# 5 0.009880 0.002185 0.003247 0.000000 0.036949 0.000000
# 6 0.000000 0.000000 0.000000 -0.071162 0.000000 0.295999
#
#
# Mechanical properties :
#
#
# Convention : Reuss Voigt Hill
#
# Bulk Modulus (GPa) = 20.79797 24.39989 22.59893
# Shear Modulus (GPa) = 11.50421 29.75590 20.63005
#
# Velocity S-wave (km/s) = 2.13287 3.43023 2.85619
# Velocity P-wave (km/s) = 3.78018 5.03360 4.45123
#
# Compressibility (1/GPa) = 0.04808161
#
# Stress axis : x y z
#
# Youngs Moduli (GPa) = 64.55230 64.69472 76.22061
#
# Poissons Ratio (x) = -0.03962 -0.00713
# Poissons Ratio (y) = -0.03953 -0.09914
# Poissons Ratio (z) = -0.00604 -0.08415
#
# Static dielectric constant tensor:
#      x y z
#    x 2.030530 0.000000 0.040690 
#    y 0.000000 2.016730 0.000000 
#    z 0.040690 0.000000 2.018680 
# 
# From -- ./inp_files/15924.got.cif
#   From: 2010.05.17/outbox.cif.g08.bks.cpg/sg14_8_cif.got.tgz:15924.got - 2010.06.03 17:49:19.
