data_PCOD9250943
_publ_section_title
;
Structure prediction by ZEFSAII (Michael W. Deem and Ramdas Pophale) SiO2 
 PCOD9250943
Probable space group: P 21/C
;
_chemical_formula_sum "Si O2"
_cell_formula_units_Z 28
_cell_length_a 15.208131
_cell_length_b 12.731970
_cell_length_c 8.446950
_cell_angle_alpha 90.000000
_cell_angle_beta 57.139145
_cell_angle_gamma 90.000000
_cell_volume 1373.870787
_symmetry_space_group_name_H-M "P 21/C"
_symmetry_group_IT_number 14
_symmetry_cell_setting 'monoclinic'
loop_
_space_group_symop_operation_xyz
x,y,z
-x,1/2+y,1/2-z
-x,-y,-z
x,1/2-y,1/2+z
loop_
_atom_site_type_symbol
_atom_site_label
_atom_site_fract_x
_atom_site_fract_y
_atom_site_fract_z
Si Si1 0.745799 0.375950 0.236372
Si Si2 0.241026 0.171750 0.642680
Si Si3 0.874667 0.256338 0.854499
Si Si4 0.703361 0.889295 0.770816
Si Si5 0.994734 0.876183 0.030701
Si Si6 0.448417 0.110692 0.589976
Si Si7 0.493817 0.828626 0.108344
O O1 0.786722 0.300746 0.335101
O O2 0.751888 0.499126 0.267905
O O3 0.625215 0.356228 0.311604
O O4 0.818402 0.342964 0.018062
O O5 0.260632 0.295326 0.650506
O O6 0.264507 0.139012 0.439643
O O7 0.324822 0.112023 0.672618
O O8 0.123742 0.149556 0.808605
O O9 0.962353 0.313100 0.663110
O O10 0.930201 0.167141 0.904385
O O11 0.577244 0.886865 0.912466
O O12 0.000000 0.000000 0.000000
O O13 0.491997 0.204514 0.437098
O O14 0.474678 0.141626 0.744109
O O15 0.500000 0.000000 0.500000
#
# Coordination Sequence:
#
# PCOD9250943 Si02
#       7
#     4   4   4   4   4   4   4
#     4  11  23  43  64  90 130 167 204 262 314 361
#     4  11  23  41  63  93 125 162 210 257 307 377
#     4  10  25  42  64  95 121 164 221 256 306 377
#     4  11  23  40  64  93 126 165 204 254 316 374
#     4  11  24  44  66  91 125 164 210 264 313 363
#     4  11  24  41  64  94 129 167 206 254 313 374
#     4  11  23  39  62  96 128 165 211 249 305 390
#
# _framework density 20.380374
#
# number of rings (size 3 to 8) (size 9 to 14) (size 15 to 20)
#    0.000    1.143    0.000    7.286    0.000    8.000 
#    0.000    3.571    0.000    0.000    0.000    0.000 
#    0.000    0.000    0.000    0.000    0.000    0.000 
#
# Total GULP energy -156634.528035 kJ/mol
# GULP energy per Si atom -5594.090287 kJ/mol
# Density = 2.033399 g / cm^3
# Si number density = 20.380374 Si / 1000 Ang^3
#
#
#
# Elastic Constant Matrix: (Units=GPa)
#
#
# Indices 1 2 3 4 5 6 
#
# 1 42.1428 11.2603 21.3356 0.0000 -13.8124 0.0000
# 2 11.2603 127.2762 38.4012 0.0000 3.8899 0.0000
# 3 21.3356 38.4012 89.1104 0.0000 -8.9142 0.0000
# 4 0.0000 0.0000 0.0000 6.2970 0.0000 -5.7569
# 5 -13.8124 3.8899 -8.9142 0.0000 28.0421 0.0000
# 6 0.0000 0.0000 0.0000 -5.7569 0.0000 24.0597
#
#
#
# Elastic Compliance Matrix: (Units=1/GPa)
#
#
# Indices 1 2 3 4 5 6 
#
# 1 0.031503 -0.001565 -0.005468 0.000000 0.013996 0.000000
# 2 -0.001565 0.009292 -0.003962 0.000000 -0.003319 0.000000
# 3 -0.005468 -0.003962 0.014485 0.000000 0.002461 0.000000
# 4 0.000000 0.000000 0.000000 0.203272 0.000000 0.048638
# 5 0.013996 -0.003319 0.002461 0.000000 0.043797 0.000000
# 6 0.000000 0.000000 0.000000 0.048638 0.000000 0.053201
#
#
# Mechanical properties :
#
#
# Convention : Reuss Voigt Hill
#
# Bulk Modulus (GPa) = 30.03931 44.50259 37.27095
# Shear Modulus (GPa) = 12.86554 24.18192 18.52373
#
# Velocity S-wave (km/s) = 2.51524 3.44834 3.01807
# Velocity P-wave (km/s) = 4.81732 6.14314 5.52018
#
# Compressibility (1/GPa) = 0.03328972
#
# Stress axis : x y z
#
# Youngs Moduli (GPa) = 31.74351 107.61799 69.03862
#
# Poissons Ratio (x) = 0.16842 0.37751
# Poissons Ratio (y) = 0.04968 0.27351
# Poissons Ratio (z) = 0.17358 0.42635
#
# Static dielectric constant tensor:
#      x y z
#    x 1.721400 0.000000 0.000940 
#    y 0.000000 1.686280 0.000000 
#    z 0.000940 0.000000 1.727750 
# 
# From -- ./inp_files/15682.got.cif
#   From: 2010.05.17/outbox.cif.g08.bks.cpg/sg14_8_cif.got.tgz:15682.got - 2010.06.03 17:49:19.
