data_PCOD9250138
_publ_section_title
;
Structure prediction by ZEFSAII (Michael W. Deem and Ramdas Pophale) SiO2 
 PCOD9250138
Probable space group: P 21/C
;
_chemical_formula_sum "Si O2"
_cell_formula_units_Z 26
_cell_length_a 28.023762
_cell_length_b 6.915367
_cell_length_c 14.155831
_cell_angle_alpha 90.000000
_cell_angle_beta 27.146429
_cell_angle_gamma 90.000000
_cell_volume 1251.685643
_symmetry_space_group_name_H-M "P 21/C"
_symmetry_group_IT_number 14
_symmetry_cell_setting 'monoclinic'
loop_
_space_group_symop_operation_xyz
x,y,z
-x,1/2+y,1/2-z
-x,-y,-z
x,1/2-y,1/2+z
loop_
_atom_site_type_symbol
_atom_site_label
_atom_site_fract_x
_atom_site_fract_y
_atom_site_fract_z
Si Si1 0.569839 0.217067 0.031549
Si Si2 0.797314 0.984918 0.386729
Si Si3 0.500000 0.000000 0.500000
Si Si4 0.191612 0.760830 0.454835
Si Si5 0.149096 0.071079 0.177228
Si Si6 0.570056 0.155392 0.745154
Si Si7 0.083153 0.765970 0.446679
O O1 0.517786 0.399680 0.072559
O O2 0.562775 0.248865 0.155672
O O3 0.511071 0.021048 0.107438
O O4 0.691539 0.211769 0.788536
O O5 0.831449 0.072900 0.427615
O O6 0.687330 0.077250 0.552225
O O7 0.882237 0.061820 0.160970
O O8 0.780629 0.755874 0.424195
O O9 0.547001 0.194884 0.368029
O O10 0.182190 0.559884 0.530024
O O11 0.116094 0.767315 0.497615
O O12 0.036771 0.171065 0.355393
O O13 0.142624 0.927776 0.278196
#
# Coordination Sequence:
#
# PCOD9250138 Si02
#       7
#     4   4   2   4   4   4   4
#     4  12  26  45  67 102 140 190 233 291 351 419
#     4  11  24  43  69 101 136 178 230 286 346 416
#     4  12  26  48  70  96 148 180 240 294 340 430
#     4  11  25  42  66 104 137 174 235 281 345 422
#     4  10  25  44  69 100 135 185 221 289 351 408
#     4  12  26  45  72 101 141 190 235 289 359 412
#     4  10  23  47  68  98 141 174 231 283 346 420
#
# _framework density 20.771989000000001
#
# number of rings (size 3 to 8) (size 9 to 14) (size 15 to 20)
#    0.000    0.923    4.615    0.923    4.308    2.462 
#    0.000    0.000    0.000    0.000    0.000    0.000 
#    0.000    0.000    0.000    0.000    0.000    0.000 
#
# Total GULP energy -144924.588138 kJ/mol
# GULP energy per Si atom -5574.022621 kJ/mol
# Density = 2.072471 g / cm^3
# Si number density = 20.771989 Si / 1000 Ang^3
#
#
#
# Elastic Constant Matrix: (Units=GPa)
#
#
# Indices 1 2 3 4 5 6 
#
# 1 101.2056 20.8788 18.7184 0.0000 21.7747 0.0000
# 2 20.8788 45.5910 16.9730 0.0000 -6.3428 0.0000
# 3 18.7184 16.9730 67.2618 0.0000 4.4145 0.0000
# 4 0.0000 0.0000 0.0000 21.3732 0.0000 8.1772
# 5 21.7747 -6.3428 4.4145 0.0000 31.2947 0.0000
# 6 0.0000 0.0000 0.0000 8.1772 0.0000 20.0903
#
#
#
# Elastic Compliance Matrix: (Units=1/GPa)
#
#
# Indices 1 2 3 4 5 6 
#
# 1 0.014061 -0.007507 -0.001289 0.000000 -0.011124 0.000000
# 2 -0.007507 0.029315 -0.006098 0.000000 0.012025 0.000000
# 3 -0.001289 -0.006098 0.016944 0.000000 -0.002729 0.000000
# 4 0.000000 0.000000 0.000000 0.055417 0.000000 -0.022556
# 5 -0.011124 0.012025 -0.002729 0.000000 0.042516 0.000000
# 6 0.000000 0.000000 0.000000 -0.022556 0.000000 0.058956
#
#
# Mechanical properties :
#
#
# Convention : Reuss Voigt Hill
#
# Bulk Modulus (GPa) = 32.75114 36.35541 34.55328
# Shear Modulus (GPa) = 19.44202 25.05084 22.24643
#
# Velocity S-wave (km/s) = 3.06269 3.47651 3.27614
# Velocity P-wave (km/s) = 5.32052 5.80129 5.56610
#
# Compressibility (1/GPa) = 0.03053329
#
# Stress axis : x y z
#
# Youngs Moduli (GPa) = 71.11744 34.11194 59.01898
#
# Poissons Ratio (x) = 0.25609 0.07606
# Poissons Ratio (y) = 0.53390 0.35987
# Poissons Ratio (z) = 0.09165 0.20800
#
# Static dielectric constant tensor:
#      x y z
#    x 1.725090 0.000000 -0.028690 
#    y 0.000000 1.726200 0.000000 
#    z -0.028690 0.000000 1.760820 
# 
# From -- ./inp_files/52158.got.cif
#   From: 2010.05.17/outbox.cif.g08.bks.cpg/sg14_27_cif.got.tgz:52158.got - 2010.06.03 17:49:19.
