data_PCOD9250150
_publ_section_title
;
Structure prediction by ZEFSAII (Michael W. Deem and Ramdas Pophale) SiO2 
 PCOD9250150
Probable space group: P 21/C
;
_chemical_formula_sum "Si O2"
_cell_formula_units_Z 14
_cell_length_a 11.697592
_cell_length_b 7.682624
_cell_length_c 8.718950
_cell_angle_alpha 90.000000
_cell_angle_beta 42.871005
_cell_angle_gamma 90.000000
_cell_volume 533.092620
_symmetry_space_group_name_H-M "P 21/C"
_symmetry_group_IT_number 14
_symmetry_cell_setting 'monoclinic'
loop_
_space_group_symop_operation_xyz
x,y,z
-x,1/2+y,1/2-z
-x,-y,-z
x,1/2-y,1/2+z
loop_
_atom_site_type_symbol
_atom_site_label
_atom_site_fract_x
_atom_site_fract_y
_atom_site_fract_z
Si Si1 0.614760 0.467171 0.237593
Si Si2 0.834012 0.119440 0.092030
Si Si3 0.044330 0.356698 0.082005
Si Si4 0.500000 0.000000 0.500000
O O1 0.500000 0.500000 0.500000
O O2 0.702670 0.281476 0.188942
O O3 0.759624 0.613798 0.082932
O O4 0.518468 0.461085 0.171318
O O5 0.704463 0.982004 0.286107
O O6 0.969700 0.181127 0.083736
O O7 0.930802 0.101704 0.839175
O O8 0.000000 0.500000 0.000000
#
# Coordination Sequence:
#
# PCOD9250150 Si02
#       4
#     4   4   4   2
#     4  11  26  48  74 112 151 194 251 319 376 453
#     4  11  23  49  72 109 151 196 253 313 382 452
#     4  10  23  47  71 103 155 195 253 310 378 454
#     4  12  24  44  82 108 144 196 254 310 384 438
#
# _framework density 26.261851
#
# number of rings (size 3 to 8) (size 9 to 14) (size 15 to 20)
#    0.000    1.143    2.857    3.429    0.000    3.429 
#   15.429    0.000    0.000    0.000    0.000    0.000 
#    0.000    0.000    0.000    0.000    0.000    0.000 
#
# Total GULP energy -77984.298747 kJ/mol
# GULP energy per Si atom -5570.307053 kJ/mol
# Density = 2.620208 g / cm^3
# Si number density = 26.261851 Si / 1000 Ang^3
#
#
#
# Elastic Constant Matrix: (Units=GPa)
#
#
# Indices 1 2 3 4 5 6 
#
# 1 177.3431 4.0605 66.2700 0.0000 15.4391 0.0000
# 2 4.0605 13.7183 -11.0490 0.0000 6.5739 0.0000
# 3 66.2700 -11.0490 276.4818 0.0000 20.6039 0.0000
# 4 0.0000 0.0000 0.0000 30.7961 0.0000 -0.2492
# 5 15.4391 6.5739 20.6039 0.0000 72.9520 0.0000
# 6 0.0000 0.0000 0.0000 -0.2492 0.0000 54.6425
#
#
#
# Elastic Compliance Matrix: (Units=1/GPa)
#
#
# Indices 1 2 3 4 5 6 
#
# 1 0.006354 -0.002855 -0.001589 0.000000 -0.000638 0.000000
# 2 -0.002855 0.081215 0.004526 0.000000 -0.007993 0.000000
# 3 -0.001589 0.004526 0.004274 0.000000 -0.001279 0.000000
# 4 0.000000 0.000000 0.000000 0.032473 0.000000 0.000148
# 5 -0.000638 -0.007993 -0.001279 0.000000 0.014924 0.000000
# 6 0.000000 0.000000 0.000000 0.000148 0.000000 0.018301
#
#
# Mechanical properties :
#
#
# Convention : Reuss Voigt Hill
#
# Bulk Modulus (GPa) = 10.86890 65.12290 37.99590
# Shear Modulus (GPa) = 26.58902 58.89556 42.74229
#
# Velocity S-wave (km/s) = 3.18537 4.74078 4.03866
# Velocity P-wave (km/s) = 4.20433 7.40392 6.02056
#
# Compressibility (1/GPa) = 0.09200562
#
# Stress axis : x y z
#
# Youngs Moduli (GPa) = 157.38923 12.31293 233.97432
#
# Poissons Ratio (x) = 0.03515 0.37188
# Poissons Ratio (y) = 0.44932 -1.05885
# Poissons Ratio (z) = 0.25016 -0.05572
#
# Static dielectric constant tensor:
#      x y z
#    x 1.987910 0.000000 -0.062990 
#    y 0.000000 2.236520 0.000000 
#    z -0.062990 0.000000 2.040990 
# 
# From -- ./inp_files/4883.got.cif
#   From: 2010.05.17/outbox.cif.g08.bks.cpg/sg14_3_cif.got.tgz:4883.got - 2010.06.03 17:49:19.
