data_PCOD9250108
_publ_section_title
;
Structure prediction by ZEFSAII (Michael W. Deem and Ramdas Pophale) SiO2 
 PCOD9250108
Probable space group: P 21/C
;
_chemical_formula_sum "Si O2"
_cell_formula_units_Z 28
_cell_length_a 8.688685
_cell_length_b 11.711954
_cell_length_c 13.267823
_cell_angle_alpha 90.000000
_cell_angle_beta 121.472767
_cell_angle_gamma 90.000000
_cell_volume 1151.530101
_symmetry_space_group_name_H-M "P 21/C"
_symmetry_group_IT_number 14
_symmetry_cell_setting 'monoclinic'
loop_
_space_group_symop_operation_xyz
x,y,z
-x,1/2+y,1/2-z
-x,-y,-z
x,1/2-y,1/2+z
loop_
_atom_site_type_symbol
_atom_site_label
_atom_site_fract_x
_atom_site_fract_y
_atom_site_fract_z
Si Si1 0.497891 0.614017 0.306408
Si Si2 0.361368 0.724400 0.463199
Si Si3 0.258586 0.986105 0.393278
Si Si4 0.187742 0.974482 0.005264
Si Si5 0.785604 0.509561 0.902789
Si Si6 0.133114 0.100572 0.781028
Si Si7 0.687419 0.705153 0.205468
O O1 0.406886 0.655457 0.377554
O O2 0.630937 0.506699 0.371251
O O3 0.335092 0.599953 0.169887
O O4 0.638240 0.703834 0.305861
O O5 0.208291 0.654997 0.472227
O O6 0.872060 0.737961 0.728662
O O7 0.538373 0.725777 0.592673
O O8 0.287735 0.044613 0.512684
O O9 0.323997 0.855826 0.422908
O O10 0.050454 0.967085 0.296740
O O11 0.326756 0.073883 0.333978
O O12 0.199936 0.055999 0.910943
O O13 0.000000 0.000000 0.000000
O O14 0.765242 0.575142 0.789958
O O15 0.000000 0.500000 0.000000
#
# Coordination Sequence:
#
# PCOD9250108 Si02
#       7
#     4   4   4   4   4   4   4
#     4  12  25  46  79 111 153 201 255 318 387 463
#     4  12  26  49  76 111 158 200 260 327 391 468
#     4  11  27  47  73 112 157 201 260 322 399 477
#     4  12  27  49  77 114 153 202 264 319 390 467
#     4  10  23  46  73 106 148 199 249 312 388 456
#     4  11  25  47  73 109 156 199 256 324 388 472
#     4  12  27  47  76 115 150 207 261 319 401 475
#
# _framework density 24.315473999999998
#
# number of rings (size 3 to 8) (size 9 to 14) (size 15 to 20)
#    0.000    0.571    4.286    2.571    6.000    2.286 
#    5.143    0.000    0.000    0.000    0.000    0.000 
#    0.000    0.000    0.000    0.000    0.000    0.000 
#
# Total GULP energy -156207.849223 kJ/mol
# GULP energy per Si atom -5578.851758 kJ/mol
# Density = 2.426013 g / cm^3
# Si number density = 24.315474 Si / 1000 Ang^3
#
#
#
# Elastic Constant Matrix: (Units=GPa)
#
#
# Indices 1 2 3 4 5 6 
#
# 1 113.4250 55.7298 32.2498 0.0000 -12.0301 0.0000
# 2 55.7298 92.9459 16.8230 0.0000 -7.7303 0.0000
# 3 32.2498 16.8230 116.0911 0.0000 -8.1181 0.0000
# 4 0.0000 0.0000 0.0000 37.2815 0.0000 -2.5308
# 5 -12.0301 -7.7303 -8.1181 0.0000 39.1741 0.0000
# 6 0.0000 0.0000 0.0000 -2.5308 0.0000 39.0895
#
#
#
# Elastic Compliance Matrix: (Units=1/GPa)
#
#
# Indices 1 2 3 4 5 6 
#
# 1 0.013388 -0.007398 -0.002498 0.000000 0.002134 0.000000
# 2 -0.007398 0.015274 -0.000108 0.000000 0.000720 0.000000
# 3 -0.002498 -0.000108 0.009405 0.000000 0.001161 0.000000
# 4 0.000000 0.000000 0.000000 0.026941 0.000000 0.001744
# 5 0.002134 0.000720 0.001161 0.000000 0.026565 0.000000
# 6 0.000000 0.000000 0.000000 0.001744 0.000000 0.025695
#
#
# Mechanical properties :
#
#
# Convention : Reuss Voigt Hill
#
# Bulk Modulus (GPa) = 55.37301 59.11859 57.24580
# Shear Modulus (GPa) = 34.89324 37.61964 36.25644
#
# Velocity S-wave (km/s) = 3.79228 3.93765 3.86565
# Velocity P-wave (km/s) = 6.48054 6.71114 6.59684
#
# Compressibility (1/GPa) = 0.01805934
#
# Stress axis : x y z
#
# Youngs Moduli (GPa) = 74.69596 65.47116 106.33071
#
# Poissons Ratio (x) = 0.48433 0.26560
# Poissons Ratio (y) = 0.55257 0.01148
# Poissons Ratio (z) = 0.18658 0.00707
#
# Static dielectric constant tensor:
#      x y z
#    x 1.947700 0.000000 0.031700 
#    y 0.000000 2.074100 0.000000 
#    z 0.031700 0.000000 1.949850 
# 
# From -- ./inp_files/25583.got.cif
#   From: 2010.05.17/outbox.cif.g08.bks.cpg/sg14_13_cif.got.tgz:25583.got - 2010.06.03 17:49:19.
