data_PCOD9250675
_publ_section_title
;
Structure prediction by ZEFSAII (Michael W. Deem and Ramdas Pophale) SiO2 
 PCOD9250675
Probable space group: P 21/C
;
_chemical_formula_sum "Si O2"
_cell_formula_units_Z 24
_cell_length_a 12.758792
_cell_length_b 23.429603
_cell_length_c 9.540887
_cell_angle_alpha 90.000000
_cell_angle_beta 155.791698
_cell_angle_gamma 90.000000
_cell_volume 1169.514352
_symmetry_space_group_name_H-M "P 21/C"
_symmetry_group_IT_number 14
_symmetry_cell_setting 'monoclinic'
loop_
_space_group_symop_operation_xyz
x,y,z
-x,1/2+y,1/2-z
-x,-y,-z
x,1/2-y,1/2+z
loop_
_atom_site_type_symbol
_atom_site_label
_atom_site_fract_x
_atom_site_fract_y
_atom_site_fract_z
Si Si1 0.196763 0.431984 0.112272
Si Si2 0.656012 0.747560 0.759178
Si Si3 0.979384 0.155754 0.145178
Si Si4 0.800548 0.069165 0.380371
Si Si5 0.626634 0.258761 0.337223
Si Si6 0.999880 0.843482 0.165054
O O1 0.196769 0.500572 0.104814
O O2 0.498173 0.414217 0.494288
O O3 0.071913 0.403374 0.823458
O O4 0.999161 0.415330 0.996795
O O5 0.627271 0.741400 0.558440
O O6 0.396433 0.734778 0.524678
O O7 0.840253 0.702333 0.056983
O O8 0.734199 0.813048 0.882559
O O9 0.711263 0.181814 0.871092
O O10 0.990378 0.153978 0.991400
O O11 0.920308 0.098794 0.663039
O O12 0.808316 0.204859 0.543434
#
# Coordination Sequence:
#
# PCOD9250675 Si02
#       6
#     4   4   4   4   4   4
#     4  10  24  45  68  94 124 165 213 262 319 376
#     4  11  23  39  58  89 130 166 205 255 314 377
#     4  11  24  37  61  93 123 166 211 259 313 373
#     4  10  24  45  68  94 124 165 213 262 319 376
#     4  11  23  39  58  89 130 166 205 255 314 377
#     4  11  24  37  61  93 123 166 211 259 313 373
#
# _framework density 20.521338
#
# number of rings (size 3 to 8) (size 9 to 14) (size 15 to 20)
#    0.000    1.333    3.333    1.000    9.333    0.667 
#    0.000    0.000    0.000    7.000    0.000    0.000 
#    0.000    0.000    0.000    0.000    0.000    0.000 
#
# Total GULP energy -133651.803340 kJ/mol
# GULP energy per Si atom -5568.825139 kJ/mol
# Density = 2.047463 g / cm^3
# Si number density = 20.521338 Si / 1000 Ang^3
#
#
#
# Elastic Constant Matrix: (Units=GPa)
#
#
# Indices 1 2 3 4 5 6 
#
# 1 103.5593 29.2743 44.0985 0.0000 -7.3632 0.0000
# 2 29.2743 34.2352 31.7144 0.0000 -5.3020 0.0000
# 3 44.0985 31.7144 99.3783 0.0000 -11.8949 0.0000
# 4 0.0000 0.0000 0.0000 34.6939 0.0000 -12.2871
# 5 -7.3632 -5.3020 -11.8949 0.0000 33.9089 0.0000
# 6 0.0000 0.0000 0.0000 -12.2871 0.0000 18.6229
#
#
#
# Elastic Compliance Matrix: (Units=1/GPa)
#
#
# Indices 1 2 3 4 5 6 
#
# 1 0.013447 -0.008447 -0.003215 0.000000 0.000471 0.000000
# 2 -0.008447 0.046896 -0.011022 0.000000 0.001632 0.000000
# 3 -0.003215 -0.011022 0.015362 0.000000 0.002967 0.000000
# 4 0.000000 0.000000 0.000000 0.037612 0.000000 0.024816
# 5 0.000471 0.001632 0.002967 0.000000 0.030889 0.000000
# 6 0.000000 0.000000 0.000000 0.024816 0.000000 0.070070
#
#
# Mechanical properties :
#
#
# Convention : Reuss Voigt Hill
#
# Bulk Modulus (GPa) = 32.96363 49.70526 41.33445
# Shear Modulus (GPa) = 18.53524 26.25085 22.39305
#
# Velocity S-wave (km/s) = 3.00862 3.58047 3.30693
# Velocity P-wave (km/s) = 5.30726 6.43171 5.89635
#
# Compressibility (1/GPa) = 0.03033646
#
# Stress axis : x y z
#
# Youngs Moduli (GPa) = 74.36847 21.32371 65.09686
#
# Poissons Ratio (x) = 0.18012 0.20927
# Poissons Ratio (y) = 0.62819 0.71751
# Poissons Ratio (z) = 0.23907 0.23503
#
# Static dielectric constant tensor:
#      x y z
#    x 1.773160 0.000000 0.118260 
#    y 0.000000 1.704240 0.000000 
#    z 0.118260 0.000000 1.874280 
# 
# From -- ./inp_files/6232.got.cif
#   From: 2010.05.17/outbox.cif.g08.bks.cpg/sg14_4_cif.got.tgz:6232.got - 2010.06.03 17:49:19.
