data_PCOD9250022
_publ_section_title
;
Structure prediction by ZEFSAII (Michael W. Deem and Ramdas Pophale) SiO2 
 PCOD9250022
Probable space group: P 21/C
;
_chemical_formula_sum "Si O2"
_cell_formula_units_Z 28
_cell_length_a 18.993758
_cell_length_b 8.892258
_cell_length_c 16.807844
_cell_angle_alpha 90.000000
_cell_angle_beta 157.275674
_cell_angle_gamma 90.000000
_cell_volume 1096.622300
_symmetry_space_group_name_H-M "P 21/C"
_symmetry_group_IT_number 14
_symmetry_cell_setting 'monoclinic'
loop_
_space_group_symop_operation_xyz
x,y,z
-x,1/2+y,1/2-z
-x,-y,-z
x,1/2-y,1/2+z
loop_
_atom_site_type_symbol
_atom_site_label
_atom_site_fract_x
_atom_site_fract_y
_atom_site_fract_z
Si Si1 0.471234 0.638758 0.530730
Si Si2 0.950099 0.100941 0.372653
Si Si3 0.176412 0.382716 0.392136
Si Si4 0.425150 0.850709 0.349334
Si Si5 0.118515 0.088039 0.020389
Si Si6 0.601556 0.429855 0.788406
Si Si7 0.776073 0.945159 0.618223
O O1 0.500000 0.500000 0.500000
O O2 0.260351 0.650707 0.335929
O O3 0.507737 0.783804 0.516473
O O4 0.591062 0.589469 0.730901
O O5 0.941417 0.997458 0.284640
O O6 0.000000 0.000000 0.500000
O O7 0.087208 0.241076 0.515084
O O8 0.144183 0.405471 0.451162
O O9 0.391521 0.407814 0.596874
O O10 0.145115 0.211411 0.332988
O O11 0.586254 0.915310 0.463773
O O12 0.350283 0.707072 0.220342
O O13 0.271288 0.971164 0.205817
O O14 0.923324 0.011402 0.830402
O O15 0.729917 0.442763 0.997778
#
# Coordination Sequence:
#
# PCOD9250022 Si02
#       7
#     4   4   4   4   4   4   4
#     4   9  21  45  73 100 144 203 241 296 380 451
#     4  11  27  49  73 105 151 197 252 304 382 468
#     4  10  23  45  72 110 144 194 255 307 384 447
#     4  10  23  45  71 108 152 192 254 314 377 453
#     4  12  26  44  76 113 143 198 253 319 383 437
#     4   9  20  42  77 105 150 196 250 308 383 459
#     4  11  24  42  74 108 147 189 249 318 366 457
#
# _framework density 25.532947
#
# number of rings (size 3 to 8) (size 9 to 14) (size 15 to 20)
#    0.000    1.714    1.429    1.714    6.000    5.143 
#    2.571    0.714    0.000    0.000    0.000    0.000 
#    0.000    0.000    0.000    0.000    0.000    0.000 
#
# Total GULP energy -157046.537292 kJ/mol
# GULP energy per Si atom -5608.804903 kJ/mol
# Density = 2.547483 g / cm^3
# Si number density = 25.532947 Si / 1000 Ang^3
#
#
#
# Elastic Constant Matrix: (Units=GPa)
#
#
# Indices 1 2 3 4 5 6 
#
# 1 88.5914 45.5943 10.7821 0.0000 -0.1194 0.0000
# 2 45.5943 164.0257 72.4539 0.0000 -1.1969 0.0000
# 3 10.7821 72.4539 99.3885 0.0000 7.0625 0.0000
# 4 0.0000 0.0000 0.0000 50.1914 0.0000 -3.7818
# 5 -0.1194 -1.1969 7.0625 0.0000 32.1414 0.0000
# 6 0.0000 0.0000 0.0000 -3.7818 0.0000 43.7212
#
#
#
# Elastic Compliance Matrix: (Units=1/GPa)
#
#
# Indices 1 2 3 4 5 6 
#
# 1 0.013411 -0.004581 0.001924 0.000000 -0.000543 0.000000
# 2 -0.004581 0.010661 -0.007418 0.000000 0.002010 0.000000
# 3 0.001924 -0.007418 0.015522 0.000000 -0.003680 0.000000
# 4 0.000000 0.000000 0.000000 0.020054 0.000000 0.001735
# 5 -0.000543 0.002010 -0.003680 0.000000 0.031994 0.000000
# 6 0.000000 0.000000 0.000000 0.001735 0.000000 0.023022
#
#
# Mechanical properties :
#
#
# Convention : Reuss Voigt Hill
#
# Bulk Modulus (GPa) = 51.43334 67.74068 59.58701
# Shear Modulus (GPa) = 35.38632 40.08915 37.73773
#
# Velocity S-wave (km/s) = 3.72682 3.96674 3.84865
# Velocity P-wave (km/s) = 6.22146 6.89698 6.56791
#
# Compressibility (1/GPa) = 0.01944264
#
# Stress axis : x y z
#
# Youngs Moduli (GPa) = 74.56662 93.79550 64.42459
#
# Poissons Ratio (x) = 0.42972 -0.12393
# Poissons Ratio (y) = 0.34163 0.47790
# Poissons Ratio (z) = -0.14344 0.69577
#
# Static dielectric constant tensor:
#      x y z
#    x 2.000380 0.000000 0.002090 
#    y 0.000000 1.992940 0.000000 
#    z 0.002090 0.000000 1.978760 
# 
# From -- ./inp_files/70224.got.cif
#   From: 2010.05.17/outbox.cif.g08.bks.cpg/sg14_36_cif.got.tgz:70224.got - 2010.06.03 17:49:19.
