data_PCOD9250437
_publ_section_title
;
Structure prediction by ZEFSAII (Michael W. Deem and Ramdas Pophale) SiO2 
 PCOD9250437
Probable space group: P 21/C
;
_chemical_formula_sum "Si O2"
_cell_formula_units_Z 20
_cell_length_a 8.769966
_cell_length_b 4.993783
_cell_length_c 20.302116
_cell_angle_alpha 90.000000
_cell_angle_beta 55.982281
_cell_angle_gamma 90.000000
_cell_volume 736.974520
_symmetry_space_group_name_H-M "P 21/C"
_symmetry_group_IT_number 14
_symmetry_cell_setting 'monoclinic'
loop_
_space_group_symop_operation_xyz
x,y,z
-x,1/2+y,1/2-z
-x,-y,-z
x,1/2-y,1/2+z
loop_
_atom_site_type_symbol
_atom_site_label
_atom_site_fract_x
_atom_site_fract_y
_atom_site_fract_z
Si Si1 0.392196 0.780772 0.760162
Si Si2 0.588339 0.477589 0.381517
Si Si3 0.984495 0.452997 0.113935
Si Si4 0.215447 0.935317 0.030501
Si Si5 0.937234 0.768615 0.266322
O O1 0.564432 0.588007 0.736862
O O2 0.374097 0.722181 0.687024
O O3 0.221629 0.654111 0.841742
O O4 0.666251 0.364560 0.431713
O O5 0.377044 0.556776 0.437809
O O6 0.722307 0.723059 0.332065
O O7 0.054096 0.719523 0.060952
O O8 0.995804 0.519979 0.191725
O O9 0.130728 0.229773 0.057526
O O10 0.974569 0.023233 0.209452
#
# Coordination Sequence:
#
# PCOD9250437 Si02
#       5
#     4   4   4   4   4
#     4  12  28  43  65  94 131 180 219 266 306 390
#     4  10  24  43  68 100 137 158 225 258 340 379
#     4  11  23  42  65  97 132 163 228 255 339 373
#     4  10  24  42  71 101 126 171 198 294 328 380
#     4  11  21  34  66  99 125 162 203 284 323 368
#
# _framework density 27.137979000000001
#
# number of rings (size 3 to 8) (size 9 to 14) (size 15 to 20)
#    0.000    1.200    2.000    3.600    2.800   12.000 
#    0.000    6.000    0.000    0.000    0.000    0.000 
#    0.000    0.000    0.000    0.000    0.000    0.000 
#
# Total GULP energy -111874.501128 kJ/mol
# GULP energy per Si atom -5593.725056 kJ/mol
# Density = 2.707621 g / cm^3
# Si number density = 27.137979 Si / 1000 Ang^3
#
#
#
# Elastic Constant Matrix: (Units=GPa)
#
#
# Indices 1 2 3 4 5 6 
#
# 1 51.8807 11.8542 22.3795 0.0000 -6.1490 0.0000
# 2 11.8542 185.1663 47.9279 0.0000 -8.3562 0.0000
# 3 22.3795 47.9279 169.7058 0.0000 -56.1667 0.0000
# 4 0.0000 0.0000 0.0000 28.4511 0.0000 -14.9809
# 5 -6.1490 -8.3562 -56.1667 0.0000 44.2793 0.0000
# 6 0.0000 0.0000 0.0000 -14.9809 0.0000 45.0459
#
#
#
# Elastic Compliance Matrix: (Units=1/GPa)
#
#
# Indices 1 2 3 4 5 6 
#
# 1 0.020530 -0.000626 -0.002803 0.000000 -0.000822 0.000000
# 2 -0.000626 0.005921 -0.002152 0.000000 -0.001699 0.000000
# 3 -0.002803 -0.002152 0.011387 0.000000 0.013649 0.000000
# 4 0.000000 0.000000 0.000000 0.042609 0.000000 0.014171
# 5 -0.000822 -0.001699 0.013649 0.000000 0.039462 0.000000
# 6 0.000000 0.000000 0.000000 0.014171 0.000000 0.026912
#
#
# Mechanical properties :
#
#
# Convention : Reuss Voigt Hill
#
# Bulk Modulus (GPa) = 37.48624 63.45289 50.46956
# Shear Modulus (GPa) = 29.96248 45.19468 37.57858
#
# Velocity S-wave (km/s) = 3.32637 4.08532 3.72522
# Velocity P-wave (km/s) = 5.34754 6.75910 6.09433
#
# Compressibility (1/GPa) = 0.02667645
#
# Stress axis : x y z
#
# Youngs Moduli (GPa) = 48.71032 168.89119 87.81733
#
# Poissons Ratio (x) = 0.10572 0.24612
# Poissons Ratio (y) = 0.03049 0.18899
# Poissons Ratio (z) = 0.13652 0.36347
#
# Static dielectric constant tensor:
#      x y z
#    x 2.339630 0.000000 0.011280 
#    y 0.000000 2.110280 0.000000 
#    z 0.011280 0.000000 2.129140 
# 
# From -- ./inp_files/76823.got.cif
#   From: 2010.05.17/outbox.cif.g08.bks.cpg/sg14_39_cif.got.tgz:76823.got - 2010.06.03 17:49:19.
