data_PCOD9250958
_publ_section_title
;
Structure prediction by ZEFSAII (Michael W. Deem and Ramdas Pophale) SiO2 
 PCOD9250958
Probable space group: P 21/C
;
_chemical_formula_sum "Si O2"
_cell_formula_units_Z 20
_cell_length_a 5.231651
_cell_length_b 21.902052
_cell_length_c 9.385377
_cell_angle_alpha 90.000000
_cell_angle_beta 134.500687
_cell_angle_gamma 90.000000
_cell_volume 767.029786
_symmetry_space_group_name_H-M "P 21/C"
_symmetry_group_IT_number 14
_symmetry_cell_setting 'monoclinic'
loop_
_space_group_symop_operation_xyz
x,y,z
-x,1/2+y,1/2-z
-x,-y,-z
x,1/2-y,1/2+z
loop_
_atom_site_type_symbol
_atom_site_label
_atom_site_fract_x
_atom_site_fract_y
_atom_site_fract_z
Si Si1 0.287891 0.145783 0.142869
Si Si2 0.142420 0.059421 0.474326
Si Si3 0.270916 0.780481 0.914964
Si Si4 0.225417 0.021907 0.221302
Si Si5 0.578739 0.330794 0.226939
O O1 0.548708 0.180429 0.139604
O O2 0.451374 0.082489 0.262645
O O3 0.112242 0.188218 0.197007
O O4 0.935389 0.132067 0.910047
O O5 0.993203 0.052277 0.256436
O O6 0.229525 0.127226 0.565096
O O7 0.560735 0.035096 0.632297
O O8 0.000000 0.000000 0.500000
O O9 0.306865 0.713162 0.859691
O O10 0.463483 0.791508 0.143219
O O11 0.000000 0.000000 0.000000
#
# Coordination Sequence:
#
# PCOD9250958 Si02
#       5
#     4   4   4   4   4
#     4  10  25  44  74 106 143 199 243 310 371 457
#     4  11  27  45  74 113 148 200 257 317 376 458
#     4  10  25  42  73 104 144 192 250 306 379 445
#     4  11  24  46  71 105 150 200 246 306 382 448
#     4  10  25  46  71 107 150 197 252 314 380 457
#
# _framework density 26.074604999999998
#
# number of rings (size 3 to 8) (size 9 to 14) (size 15 to 20)
#    1.200    0.400    2.000    0.000   11.200    0.800 
#    0.000    0.000    0.000    0.000    0.000    0.000 
#    0.000    0.000    0.000    0.000    0.000    0.000 
#
# Total GULP energy -111384.120502 kJ/mol
# GULP energy per Si atom -5569.206025 kJ/mol
# Density = 2.601526 g / cm^3
# Si number density = 26.074605 Si / 1000 Ang^3
#
#
#
# Elastic Constant Matrix: (Units=GPa)
#
#
# Indices 1 2 3 4 5 6 
#
# 1 88.4268 21.9711 0.5510 0.0000 -37.9113 0.0000
# 2 21.9711 134.0976 43.5331 0.0000 -11.1978 0.0000
# 3 0.5510 43.5331 108.1185 0.0000 -28.6629 0.0000
# 4 0.0000 0.0000 0.0000 50.0119 0.0000 3.3915
# 5 -37.9113 -11.1978 -28.6629 0.0000 42.7305 0.0000
# 6 0.0000 0.0000 0.0000 3.3915 0.0000 50.3155
#
#
#
# Elastic Compliance Matrix: (Units=1/GPa)
#
#
# Indices 1 2 3 4 5 6 
#
# 1 0.022919 -0.004349 0.008177 0.000000 0.024680 0.000000
# 2 -0.004349 0.009404 -0.005028 0.000000 -0.004767 0.000000
# 3 0.008177 -0.005028 0.015576 0.000000 0.016385 0.000000
# 4 0.000000 0.000000 0.000000 0.020087 0.000000 -0.001354
# 5 0.024680 -0.004767 0.016385 0.000000 0.055041 0.000000
# 6 0.000000 0.000000 0.000000 -0.001354 0.000000 0.019966
#
#
# Mechanical properties :
#
#
# Convention : Reuss Voigt Hill
#
# Bulk Modulus (GPa) = 21.97831 51.41703 36.69767
# Shear Modulus (GPa) = 31.14126 46.25075 38.69601
#
# Velocity S-wave (km/s) = 3.45963 4.21620 3.85652
# Velocity P-wave (km/s) = 4.94025 6.59271 5.82537
#
# Compressibility (1/GPa) = 0.04549941
#
# Stress axis : x y z
#
# Youngs Moduli (GPa) = 43.63122 106.33753 64.20260
#
# Poissons Ratio (x) = 0.46245 -0.52498
# Poissons Ratio (y) = 0.18975 0.32281
# Poissons Ratio (z) = -0.35677 0.53466
#
# Static dielectric constant tensor:
#      x y z
#    x 2.339640 0.000000 0.120700 
#    y 0.000000 2.188390 0.000000 
#    z 0.120700 0.000000 2.101400 
# 
# From -- ./inp_files/6197.got.cif
#   From: 2010.05.17/outbox.cif.g08.bks.cpg/sg14_4_cif.got.tgz:6197.got - 2010.06.03 17:49:19.
