data_PCOD9250162
_publ_section_title
;
Structure prediction by ZEFSAII (Michael W. Deem and Ramdas Pophale) SiO2 
 PCOD9250162
Probable space group: P 21/C
;
_chemical_formula_sum "Si O2"
_cell_formula_units_Z 20
_cell_length_a 5.268263
_cell_length_b 10.609576
_cell_length_c 14.276378
_cell_angle_alpha 90.000000
_cell_angle_beta 103.408633
_cell_angle_gamma 90.000000
_cell_volume 776.212643
_symmetry_space_group_name_H-M "P 21/C"
_symmetry_group_IT_number 14
_symmetry_cell_setting 'monoclinic'
loop_
_space_group_symop_operation_xyz
x,y,z
-x,1/2+y,1/2-z
-x,-y,-z
x,1/2-y,1/2+z
loop_
_atom_site_type_symbol
_atom_site_label
_atom_site_fract_x
_atom_site_fract_y
_atom_site_fract_z
Si Si1 0.722260 0.442328 0.454254
Si Si2 0.351785 0.399252 0.088183
Si Si3 0.173924 0.263679 0.741219
Si Si4 0.169061 0.538244 0.739536
Si Si5 0.395196 0.668586 0.079437
O O1 0.500000 0.500000 0.500000
O O2 0.662325 0.470787 0.340585
O O3 0.749138 0.292574 0.466097
O O4 0.000000 0.500000 0.500000
O O5 0.217050 0.297091 0.142858
O O6 0.638339 0.426033 0.159181
O O7 0.234516 0.540553 0.080100
O O8 0.398307 0.357816 0.986342
O O9 0.037036 0.400321 0.734190
O O10 0.449031 0.295470 0.813597
O O11 0.030243 0.153651 0.785868
#
# Coordination Sequence:
#
# PCOD9250162 Si02
#       5
#     4   4   4   4   4
#     4  12  26  45  74 109 152 195 254 316 380 452
#     4  10  23  47  72 102 149 200 253 317 386 466
#     4  11  24  45  70 106 148 195 257 312 385 455
#     4  11  26  42  73 105 146 200 250 320 381 462
#     4  10  23  47  73 106 147 198 257 312 391 458
#
# _framework density 25.766135999999999
#
# number of rings (size 3 to 8) (size 9 to 14) (size 15 to 20)
#    0.000    1.200    2.000    2.400    5.600    0.000 
#    0.000    3.000    0.000    0.000    0.000    0.000 
#    0.000    0.000    0.000    0.000    0.000    0.000 
#
# Total GULP energy -112076.795014 kJ/mol
# GULP energy per Si atom -5603.839751 kJ/mol
# Density = 2.570749 g / cm^3
# Si number density = 25.766136 Si / 1000 Ang^3
#
#
#
# Elastic Constant Matrix: (Units=GPa)
#
#
# Indices 1 2 3 4 5 6 
#
# 1 77.0509 43.1737 23.6034 0.0000 -1.4945 0.0000
# 2 43.1737 228.7884 18.4964 0.0000 2.9922 0.0000
# 3 23.6034 18.4964 112.1519 0.0000 -22.7549 0.0000
# 4 0.0000 0.0000 0.0000 44.9355 0.0000 -2.8863
# 5 -1.4945 2.9922 -22.7549 0.0000 39.1515 0.0000
# 6 0.0000 0.0000 0.0000 -2.8863 0.0000 42.3605
#
#
#
# Elastic Compliance Matrix: (Units=1/GPa)
#
#
# Indices 1 2 3 4 5 6 
#
# 1 0.015357 -0.002644 -0.002988 0.000000 -0.000949 0.000000
# 2 -0.002644 0.004911 -0.000397 0.000000 -0.000707 0.000000
# 3 -0.002988 -0.000397 0.010876 0.000000 0.006238 0.000000
# 4 0.000000 0.000000 0.000000 0.022352 0.000000 0.001523
# 5 -0.000949 -0.000707 0.006238 0.000000 0.029185 0.000000
# 6 0.000000 0.000000 0.000000 0.001523 0.000000 0.023711
#
#
# Mechanical properties :
#
#
# Convention : Reuss Voigt Hill
#
# Bulk Modulus (GPa) = 52.39470 65.39313 58.89391
# Shear Modulus (GPa) = 40.05999 47.47068 43.76533
#
# Velocity S-wave (km/s) = 3.94731 4.29694 4.12583
# Velocity P-wave (km/s) = 6.41513 7.07480 6.75303
#
# Compressibility (1/GPa) = 0.01908590
#
# Stress axis : x y z
#
# Youngs Moduli (GPa) = 65.11706 203.61970 91.94147
#
# Poissons Ratio (x) = 0.53836 0.27476
# Poissons Ratio (y) = 0.17217 0.03650
# Poissons Ratio (z) = 0.19460 0.08083
#
# Static dielectric constant tensor:
#      x y z
#    x 1.986250 0.000000 0.009910 
#    y 0.000000 2.071970 0.000000 
#    z 0.009910 0.000000 2.020170 
# 
# From -- ./inp_files/36911.got.cif
#   From: 2010.05.17/outbox.cif.g08.bks.cpg/sg14_19_cif.got.tgz:36911.got - 2010.06.03 17:49:19.
