data_PCOD9250272
_publ_section_title
;
Structure prediction by ZEFSAII (Michael W. Deem and Ramdas Pophale) SiO2 
 PCOD9250272
Probable space group: P 21/C
;
_chemical_formula_sum "Si O2"
_cell_formula_units_Z 28
_cell_length_a 29.275375
_cell_length_b 7.695094
_cell_length_c 28.901143
_cell_angle_alpha 90.000000
_cell_angle_beta 169.963036
_cell_angle_gamma 90.000000
_cell_volume 1134.717225
_symmetry_space_group_name_H-M "P 21/C"
_symmetry_group_IT_number 14
_symmetry_cell_setting 'monoclinic'
loop_
_space_group_symop_operation_xyz
x,y,z
-x,1/2+y,1/2-z
-x,-y,-z
x,1/2-y,1/2+z
loop_
_atom_site_type_symbol
_atom_site_label
_atom_site_fract_x
_atom_site_fract_y
_atom_site_fract_z
Si Si1 0.424372 0.904080 0.358482
Si Si2 0.924770 0.774606 0.902935
Si Si3 0.013222 0.383888 0.728064
Si Si4 0.489576 0.768134 0.328884
Si Si5 0.513668 0.096000 0.798144
Si Si6 0.520838 0.761056 0.142309
Si Si7 0.979350 0.089108 0.405108
O O1 0.638190 0.852206 0.609753
O O2 0.451043 0.758815 0.345105
O O3 0.474226 0.080288 0.380127
O O4 0.141028 0.903332 0.098585
O O5 0.955436 0.602443 0.901845
O O6 0.987886 0.711512 0.017284
O O7 0.763955 0.368976 0.443473
O O8 0.793965 0.395156 0.552179
O O9 0.229398 0.352735 0.902117
O O10 0.263569 0.395002 0.014856
O O11 0.495024 0.585024 0.307139
O O12 0.498663 0.247727 0.821551
O O13 0.777751 0.868568 0.385377
O O14 0.273133 0.862901 0.875967
#
# Coordination Sequence:
#
# PCOD9250272 Si02
#       7
#     4   4   4   4   4   4   4
#     4  12  26  42  66  99 134 169 212 270 325 378
#     4  11  24  44  69  95 128 173 220 263 317 389
#     4  10  24  40  64  94 122 160 214 268 314 362
#     4  11  23  42  67  93 128 172 215 261 318 387
#     4  11  23  42  67  93 128 172 215 261 318 387
#     4  12  26  42  66  99 134 169 212 270 325 378
#     4  11  24  44  69  95 128 173 220 263 317 389
#
# _framework density 24.675753
#
# number of rings (size 3 to 8) (size 9 to 14) (size 15 to 20)
#    0.000    0.857    0.000    6.857    0.000   12.571 
#    0.000    0.000    0.000    0.000    0.000    0.000 
#    0.000    0.000    0.000    0.000    0.000    0.000 
#
# Total GULP energy -156010.603214 kJ/mol
# GULP energy per Si atom -5571.807258 kJ/mol
# Density = 2.461959 g / cm^3
# Si number density = 24.675753 Si / 1000 Ang^3
#
#
#
# Elastic Constant Matrix: (Units=GPa)
#
#
# Indices 1 2 3 4 5 6 
#
# 1 64.2817 -12.1302 -69.9652 0.0000 63.5791 0.0000
# 2 -12.1302 77.3874 -13.0612 0.0000 15.9587 0.0000
# 3 -69.9652 -13.0612 -346.2659 0.0000 333.0707 0.0000
# 4 0.0000 0.0000 0.0000 33.5372 0.0000 3.5899
# 5 63.5791 15.9587 333.0707 0.0000 -123.4887 0.0000
# 6 0.0000 0.0000 0.0000 3.5899 0.0000 20.2754
#
#
#
# Elastic Compliance Matrix: (Units=1/GPa)
#
#
# Indices 1 2 3 4 5 6 
#
# 1 0.012952 0.001569 -0.002467 0.000000 0.000218 0.000000
# 2 0.001569 0.013040 -0.000997 0.000000 -0.000195 0.000000
# 3 -0.002467 -0.000997 0.002319 0.000000 0.004856 0.000000
# 4 0.000000 0.000000 0.000000 0.030394 0.000000 -0.005382
# 5 0.000218 -0.000195 0.004856 0.000000 0.005086 0.000000
# 6 0.000000 0.000000 0.000000 -0.005382 0.000000 0.050274
#
#
# Mechanical properties :
#
#
# Convention : Reuss Voigt Hill
#
# Bulk Modulus (GPa) = 40.77944 -43.87889 -1.54973
# Shear Modulus (GPa) = 39.67354 -21.23126 9.22114
#
# Velocity S-wave (km/s) = 4.01408 -2.93646 1.93521
# Velocity P-wave (km/s) = 6.16813 5.41459 2.08901
#
# Compressibility (1/GPa) = 0.02452216
#
# Stress axis : x y z
#
# Youngs Moduli (GPa) = 77.20632 76.68724 431.20765
#
# Poissons Ratio (x) = -0.12032 1.06375
# Poissons Ratio (y) = -0.12114 0.42977
# Poissons Ratio (z) = 0.19046 0.07643
#
# Static dielectric constant tensor:
#      x y z
#    x 2.017320 0.000000 -0.006720 
#    y 0.000000 2.075900 0.000000 
#    z -0.006720 0.000000 1.835980 
# 
# From -- ./inp_files/80994.got.cif
#   From: 2010.05.17/outbox.cif.g08.bks.cpg/sg14_41_cif.got.tgz:80994.got - 2010.06.03 17:49:19.
