data_PCOD9250881
_publ_section_title
;
Structure prediction by ZEFSAII (Michael W. Deem and Ramdas Pophale) SiO2 
 PCOD9250881
Probable space group: P 21/C
;
_chemical_formula_sum "Si O2"
_cell_formula_units_Z 28
_cell_length_a 8.694681
_cell_length_b 5.570985
_cell_length_c 23.010166
_cell_angle_alpha 90.000000
_cell_angle_beta 98.964631
_cell_angle_gamma 90.000000
_cell_volume 1100.950258
_symmetry_space_group_name_H-M "P 21/C"
_symmetry_group_IT_number 14
_symmetry_cell_setting 'monoclinic'
loop_
_space_group_symop_operation_xyz
x,y,z
-x,1/2+y,1/2-z
-x,-y,-z
x,1/2-y,1/2+z
loop_
_atom_site_type_symbol
_atom_site_label
_atom_site_fract_x
_atom_site_fract_y
_atom_site_fract_z
Si Si1 0.636993 0.988203 0.555931
Si Si2 0.973499 0.541550 0.089530
Si Si3 0.525326 0.011384 0.071019
Si Si4 0.834824 0.301951 0.195731
Si Si5 0.257461 0.253652 0.126563
Si Si6 0.963156 0.419025 0.325710
Si Si7 0.492810 0.503684 0.784018
O O1 0.814366 0.961024 0.544452
O O2 0.630411 0.251053 0.584439
O O3 0.500000 0.000000 0.500000
O O4 0.595801 0.748375 0.589648
O O5 0.917270 0.462219 0.151293
O O6 0.116498 0.372112 0.082096
O O7 0.037254 0.799782 0.110613
O O8 0.369223 0.079847 0.096447
O O9 0.500000 0.000000 0.000000
O O10 0.916944 0.290053 0.263707
O O11 0.669025 0.414395 0.198059
O O12 0.867951 0.035058 0.174402
O O13 0.366192 0.457470 0.162088
O O14 0.172071 0.117579 0.174047
O O15 0.485680 0.228948 0.760758
#
# Coordination Sequence:
#
# PCOD9250881 Si02
#       7
#     4   4   4   4   4   4   4
#     4  10  24  48  75 102 135 181 240 296 370 435
#     4  11  25  42  71 100 142 192 237 298 361 428
#     4  10  24  49  76 101 136 181 234 305 366 429
#     4  11  23  40  63  94 144 193 238 278 349 426
#     4  11  26  43  67 106 144 183 249 296 360 432
#     4  11  23  41  64  98 145 190 236 290 346 428
#     4  12  27  41  64 100 144 193 238 289 347 424
#
# _framework density 25.432576000000001
#
# number of rings (size 3 to 8) (size 9 to 14) (size 15 to 20)
#    0.000    1.143    2.857    1.714   12.000    0.000 
#    0.000    5.714    0.000    0.000    0.000    0.000 
#    0.000    0.000    0.000    0.000    0.000    0.000 
#
# Total GULP energy -156356.871194 kJ/mol
# GULP energy per Si atom -5584.173971 kJ/mol
# Density = 2.537469 g / cm^3
# Si number density = 25.432576 Si / 1000 Ang^3
#
#
#
# Elastic Constant Matrix: (Units=GPa)
#
#
# Indices 1 2 3 4 5 6 
#
# 1 139.4147 33.9724 27.9758 0.0000 15.7382 0.0000
# 2 33.9724 116.1054 9.7658 0.0000 0.3674 0.0000
# 3 27.9758 9.7658 85.7478 0.0000 3.7775 0.0000
# 4 0.0000 0.0000 0.0000 26.8107 0.0000 2.4076
# 5 15.7382 0.3674 3.7775 0.0000 43.2097 0.0000
# 6 0.0000 0.0000 0.0000 2.4076 0.0000 40.5279
#
#
#
# Elastic Compliance Matrix: (Units=1/GPa)
#
#
# Indices 1 2 3 4 5 6 
#
# 1 0.008536 -0.002287 -0.002398 0.000000 -0.002880 0.000000
# 2 -0.002287 0.009309 -0.000349 0.000000 0.000784 0.000000
# 3 -0.002398 -0.000349 0.012494 0.000000 -0.000216 0.000000
# 4 0.000000 0.000000 0.000000 0.037499 0.000000 -0.002228
# 5 -0.002880 0.000784 -0.000216 0.000000 0.024204 0.000000
# 6 0.000000 0.000000 0.000000 -0.002228 0.000000 0.024807
#
#
# Mechanical properties :
#
#
# Convention : Reuss Voigt Hill
#
# Bulk Modulus (GPa) = 49.32836 53.85509 51.59173
# Shear Modulus (GPa) = 37.40489 40.07991 38.74240
#
# Velocity S-wave (km/s) = 3.83919 3.97410 3.90723
# Velocity P-wave (km/s) = 6.25223 6.50228 6.37848
#
# Compressibility (1/GPa) = 0.02027231
#
# Stress axis : x y z
#
# Youngs Moduli (GPa) = 117.14546 107.42443 80.04101
#
# Poissons Ratio (x) = 0.24568 0.19192
# Poissons Ratio (y) = 0.26791 0.02790
# Poissons Ratio (z) = 0.28088 0.03745
#
# Static dielectric constant tensor:
#      x y z
#    x 1.498820 0.000000 -0.574050 
#    y 0.000000 2.184930 0.000000 
#    z -0.574050 0.000000 1.288790 
# 
# From -- ./inp_files/76067.got.cif
#   From: 2010.05.17/outbox.cif.g08.bks.cpg/sg14_39_cif.got.tgz:76067.got - 2010.06.03 17:49:19.
