data_PCOD9250519
_publ_section_title
;
Structure prediction by ZEFSAII (Michael W. Deem and Ramdas Pophale) SiO2 
 PCOD9250519
Probable space group: P 21/C
;
_chemical_formula_sum "Si O2"
_cell_formula_units_Z 20
_cell_length_a 10.229258
_cell_length_b 9.641829
_cell_length_c 8.920010
_cell_angle_alpha 90.000000
_cell_angle_beta 102.743209
_cell_angle_gamma 90.000000
_cell_volume 858.099427
_symmetry_space_group_name_H-M "P 21/C"
_symmetry_group_IT_number 14
_symmetry_cell_setting 'monoclinic'
loop_
_space_group_symop_operation_xyz
x,y,z
-x,1/2+y,1/2-z
-x,-y,-z
x,1/2-y,1/2+z
loop_
_atom_site_type_symbol
_atom_site_label
_atom_site_fract_x
_atom_site_fract_y
_atom_site_fract_z
Si Si1 0.992315 0.873423 0.111381
Si Si2 0.110599 0.387845 0.092461
Si Si3 0.645768 0.796136 0.809580
Si Si4 0.716270 0.096057 0.777342
Si Si5 0.445026 0.728573 0.497226
O O1 0.138305 0.841802 0.215190
O O2 0.899621 0.899829 0.230872
O O3 0.947677 0.746554 0.001216
O O4 0.000000 0.000000 0.000000
O O5 0.271062 0.341357 0.116619
O O6 0.000000 0.500000 0.000000
O O7 0.561436 0.768246 0.640658
O O8 0.531145 0.851860 0.894564
O O9 0.733688 0.930828 0.793918
O O10 0.621781 0.148062 0.617907
O O11 0.662512 0.153695 0.923332
#
# Coordination Sequence:
#
# PCOD9250519 Si02
#       5
#     4   4   4   4   4
#     4  12  25  47  73 106 150 195 251 311 376 446
#     4  12  27  46  74 109 146 201 249 310 379 446
#     4  11  23  44  72 103 148 185 247 302 371 444
#     4  11  23  45  71 101 150 182 250 301 374 440
#     4  10  24  43  70 110 135 199 239 312 370 440
#
# _framework density 23.307321999999999
#
# number of rings (size 3 to 8) (size 9 to 14) (size 15 to 20)
#    0.000    0.800    2.000    4.800    2.800    0.000 
#   14.400    0.000    0.000    0.000    0.000    0.000 
#    0.000    0.000    0.000    0.000    0.000    0.000 
#
# Total GULP energy -111399.378218 kJ/mol
# GULP energy per Si atom -5569.968911 kJ/mol
# Density = 2.325427 g / cm^3
# Si number density = 23.307322 Si / 1000 Ang^3
#
#
#
# Elastic Constant Matrix: (Units=GPa)
#
#
# Indices 1 2 3 4 5 6 
#
# 1 84.1115 -5.1673 -4.0703 0.0000 15.6742 0.0000
# 2 -5.1673 56.9624 37.3198 0.0000 12.0105 0.0000
# 3 -4.0703 37.3198 79.9075 0.0000 3.1839 0.0000
# 4 0.0000 0.0000 0.0000 26.0309 0.0000 10.8546
# 5 15.6742 12.0105 3.1839 0.0000 49.5015 0.0000
# 6 0.0000 0.0000 0.0000 10.8546 0.0000 29.3585
#
#
#
# Elastic Compliance Matrix: (Units=1/GPa)
#
#
# Indices 1 2 3 4 5 6 
#
# 1 0.012880 0.002294 -0.000231 0.000000 -0.004620 0.000000
# 2 0.002294 0.027226 -0.012338 0.000000 -0.006539 0.000000
# 3 -0.000231 -0.012338 0.018189 0.000000 0.001897 0.000000
# 4 0.000000 0.000000 0.000000 0.045418 0.000000 -0.016792
# 5 -0.004620 -0.006539 0.001897 0.000000 0.023129 0.000000
# 6 0.000000 0.000000 0.000000 -0.016792 0.000000 0.040270
#
#
# Mechanical properties :
#
#
# Convention : Reuss Voigt Hill
#
# Bulk Modulus (GPa) = 26.49418 30.79398 28.64408
# Shear Modulus (GPa) = 24.96957 33.83813 29.40385
#
# Velocity S-wave (km/s) = 3.27665 3.81441 3.55571
# Velocity P-wave (km/s) = 5.07023 5.71319 5.40129
#
# Compressibility (1/GPa) = 0.03774414
#
# Stress axis : x y z
#
# Youngs Moduli (GPa) = 77.64190 36.73012 54.97701
#
# Poissons Ratio (x) = -0.08426 0.01271
# Poissons Ratio (y) = -0.17811 0.67831
# Poissons Ratio (z) = 0.01795 0.45318
#
# Static dielectric constant tensor:
#      x y z
#    x 1.892270 0.000000 0.071320 
#    y 0.000000 1.893670 0.000000 
#    z 0.071320 0.000000 2.046970 
# 
# From -- ./inp_files/11888.got.cif
#   From: 2010.05.17/outbox.cif.g08.bks.cpg/sg14_6_cif.got.tgz:11888.got - 2010.06.03 17:49:19.
