data_PCOD9250191
_publ_section_title
;
Structure prediction by ZEFSAII (Michael W. Deem and Ramdas Pophale) SiO2 
 PCOD9250191
Probable space group: P 21/C
;
_chemical_formula_sum "Si O2"
_cell_formula_units_Z 20
_cell_length_a 4.994293
_cell_length_b 9.954746
_cell_length_c 14.923013
_cell_angle_alpha 90.000000
_cell_angle_beta 88.654623
_cell_angle_gamma 90.000000
_cell_volume 741.721689
_symmetry_space_group_name_H-M "P 21/C"
_symmetry_group_IT_number 14
_symmetry_cell_setting 'monoclinic'
loop_
_space_group_symop_operation_xyz
x,y,z
-x,1/2+y,1/2-z
-x,-y,-z
x,1/2-y,1/2+z
loop_
_atom_site_type_symbol
_atom_site_label
_atom_site_fract_x
_atom_site_fract_y
_atom_site_fract_z
Si Si1 0.397457 0.313011 0.857937
Si Si2 0.856514 0.150654 0.909906
Si Si3 0.103666 0.374547 0.152119
Si Si4 0.632015 0.153796 0.538218
Si Si5 0.933101 0.583829 0.292244
O O1 0.626336 0.202026 0.843045
O O2 0.524388 0.394390 0.941074
O O3 0.324557 0.394143 0.770242
O O4 0.127323 0.236744 0.892671
O O5 0.734465 0.197372 0.005375
O O6 0.107141 0.003236 0.115504
O O7 0.386930 0.337262 0.107667
O O8 0.983150 0.235428 0.190266
O O9 0.890409 0.416658 0.078296
O O10 0.112548 0.486869 0.228487
#
# Coordination Sequence:
#
# PCOD9250191 Si02
#       5
#     4   4   4   4   4
#     4  10  23  48  72 109 147 193 243 314 356 453
#     4  10  23  48  72 109 147 193 243 314 356 453
#     4  12  28  46  78 108 148 202 242 314 366 448
#     4  10  24  50  72 110 146 200 248 300 376 436
#     4  12  28  48  78 112 156 190 260 300 386 428
#
# _framework density 26.964292
#
# number of rings (size 3 to 8) (size 9 to 14) (size 15 to 20)
#    1.200    0.000    4.000    0.000    2.800    9.600 
#    0.000    0.000    0.000    0.000    0.000    0.000 
#    0.000    0.000    0.000    0.000    0.000    0.000 
#
# Total GULP energy -111939.288431 kJ/mol
# GULP energy per Si atom -5596.964422 kJ/mol
# Density = 2.690292 g / cm^3
# Si number density = 26.964292 Si / 1000 Ang^3
#
#
#
# Elastic Constant Matrix: (Units=GPa)
#
#
# Indices 1 2 3 4 5 6 
#
# 1 169.9227 39.9752 31.8154 0.0000 -7.6551 0.0000
# 2 39.9752 140.7564 44.2353 0.0000 -17.0686 0.0000
# 3 31.8154 44.2353 82.1106 0.0000 2.0816 0.0000
# 4 0.0000 0.0000 0.0000 43.3730 0.0000 10.7132
# 5 -7.6551 -17.0686 2.0816 0.0000 49.1544 0.0000
# 6 0.0000 0.0000 0.0000 10.7132 0.0000 35.0180
#
#
#
# Elastic Compliance Matrix: (Units=1/GPa)
#
#
# Indices 1 2 3 4 5 6 
#
# 1 0.006552 -0.001172 -0.001925 0.000000 0.000695 0.000000
# 2 -0.001172 0.009285 -0.004630 0.000000 0.003238 0.000000
# 3 -0.001925 -0.004630 0.015484 0.000000 -0.002563 0.000000
# 4 0.000000 0.000000 0.000000 0.024940 0.000000 -0.007630
# 5 0.000695 0.003238 -0.002563 0.000000 0.021685 0.000000
# 6 0.000000 0.000000 0.000000 -0.007630 0.000000 0.030891
#
#
# Mechanical properties :
#
#
# Convention : Reuss Voigt Hill
#
# Bulk Modulus (GPa) = 63.02267 69.42685 66.22476
# Shear Modulus (GPa) = 38.58571 43.95999 41.27285
#
# Velocity S-wave (km/s) = 3.78695 4.04208 3.91659
# Velocity P-wave (km/s) = 6.52263 6.89842 6.71315
#
# Compressibility (1/GPa) = 0.01586731
#
# Stress axis : x y z
#
# Youngs Moduli (GPa) = 152.61469 107.70121 64.58224
#
# Poissons Ratio (x) = 0.12618 0.12434
# Poissons Ratio (y) = 0.17879 0.29903
# Poissons Ratio (z) = 0.29384 0.49868
#
# Static dielectric constant tensor:
#      x y z
#    x 2.095310 0.000000 0.006280 
#    y 0.000000 2.326000 0.000000 
#    z 0.006280 0.000000 2.135530 
# 
# From -- ./inp_files/36872.got.cif
#   From: 2010.05.17/outbox.cif.g08.bks.cpg/sg14_19_cif.got.tgz:36872.got - 2010.06.03 17:49:19.
