data_PCOD9250819
_publ_section_title
;
Structure prediction by ZEFSAII (Michael W. Deem and Ramdas Pophale) SiO2 
 PCOD9250819
Probable space group: P 21/C
;
_chemical_formula_sum "Si O2"
_cell_formula_units_Z 24
_cell_length_a 10.689515
_cell_length_b 13.374170
_cell_length_c 12.938615
_cell_angle_alpha 90.000000
_cell_angle_beta 33.485915
_cell_angle_gamma 90.000000
_cell_volume 1020.565268
_symmetry_space_group_name_H-M "P 21/C"
_symmetry_group_IT_number 14
_symmetry_cell_setting 'monoclinic'
loop_
_space_group_symop_operation_xyz
x,y,z
-x,1/2+y,1/2-z
-x,-y,-z
x,1/2-y,1/2+z
loop_
_atom_site_type_symbol
_atom_site_label
_atom_site_fract_x
_atom_site_fract_y
_atom_site_fract_z
Si Si1 0.322050 0.873404 0.478165
Si Si2 0.758395 0.427358 0.278059
Si Si3 0.668530 0.805483 0.382517
Si Si4 0.068002 0.351598 0.898137
Si Si5 0.021632 0.024055 0.779583
Si Si6 0.663531 0.857323 0.052752
O O1 0.417446 0.839400 0.522826
O O2 0.106390 0.821339 0.573653
O O3 0.220485 0.984360 0.565529
O O4 0.518514 0.866109 0.257199
O O5 0.504255 0.408227 0.417191
O O6 0.835277 0.537866 0.188499
O O7 0.827656 0.418897 0.348782
O O8 0.920243 0.352825 0.102381
O O9 0.841464 0.897489 0.247182
O O10 0.691531 0.751732 0.478968
O O11 0.730815 0.724208 0.252803
O O12 0.890421 0.924442 0.908494
#
# Coordination Sequence:
#
# PCOD9250819 Si02
#       6
#     4   4   4   4   4   4
#     4  10  24  47  60  95 142 164 227 276 329 390
#     4   9  19  40  66  91 131 164 219 273 312 380
#     4  12  25  40  70 101 130 181 220 271 335 402
#     4   9  20  40  64  95 125 169 215 276 317 379
#     4  11  24  45  65  98 139 172 220 278 327 396
#     4  11  24  44  70  99 128 185 220 266 340 387
#
# _framework density 23.516379000000001
#
# number of rings (size 3 to 8) (size 9 to 14) (size 15 to 20)
#    0.000    1.667    3.333    2.000    4.667    0.667 
#    9.000    0.000    0.000    0.000    0.000    0.000 
#    0.000    0.000    0.000    0.000    0.000    0.000 
#
# Total GULP energy -133809.895229 kJ/mol
# GULP energy per Si atom -5575.412301 kJ/mol
# Density = 2.346285 g / cm^3
# Si number density = 23.516379 Si / 1000 Ang^3
#
#
#
# Elastic Constant Matrix: (Units=GPa)
#
#
# Indices 1 2 3 4 5 6 
#
# 1 57.7104 29.7291 -0.8407 0.0000 -19.5471 0.0000
# 2 29.7291 62.8825 18.6834 0.0000 -13.3866 0.0000
# 3 -0.8407 18.6834 89.3370 0.0000 2.7104 0.0000
# 4 0.0000 0.0000 0.0000 10.8411 0.0000 -13.6379
# 5 -19.5471 -13.3866 2.7104 0.0000 34.2026 0.0000
# 6 0.0000 0.0000 0.0000 -13.6379 0.0000 35.5518
#
#
#
# Elastic Compliance Matrix: (Units=1/GPa)
#
#
# Indices 1 2 3 4 5 6 
#
# 1 0.026658 -0.010971 0.002219 0.000000 0.010766 0.000000
# 2 -0.010971 0.023287 -0.005072 0.000000 0.003247 0.000000
# 3 0.002219 -0.005072 0.012327 0.000000 -0.001694 0.000000
# 4 0.000000 0.000000 0.000000 0.178268 0.000000 0.068385
# 5 0.010766 0.003247 -0.001694 0.000000 0.036795 0.000000
# 6 0.000000 0.000000 0.000000 0.068385 0.000000 0.054361
#
#
# Mechanical properties :
#
#
# Convention : Reuss Voigt Hill
#
# Bulk Modulus (GPa) = 28.88153 33.89706 31.38929
# Shear Modulus (GPa) = 13.48124 26.94297 20.21211
#
# Velocity S-wave (km/s) = 2.39690 3.38851 2.93489
# Velocity P-wave (km/s) = 4.46859 5.45480 4.98614
#
# Compressibility (1/GPa) = 0.03462420
#
# Stress axis : x y z
#
# Youngs Moduli (GPa) = 37.51200 42.94178 81.12572
#
# Poissons Ratio (x) = 0.47110 -0.17998
# Poissons Ratio (y) = 0.41153 0.41146
# Poissons Ratio (z) = -0.08322 0.21780
#
# Static dielectric constant tensor:
#      x y z
#    x 1.970710 0.000000 0.024590 
#    y 0.000000 1.963780 0.000000 
#    z 0.024590 0.000000 1.877310 
# 
# From -- ./inp_files/44883.got.cif
#   From: 2010.05.17/outbox.cif.g08.bks.cpg/sg14_23_cif.got.tgz:44883.got - 2010.06.03 17:49:19.
