data_PCOD9250745
_publ_section_title
;
Structure prediction by ZEFSAII (Michael W. Deem and Ramdas Pophale) SiO2 
 PCOD9250745
Probable space group: P 21/C
;
_chemical_formula_sum "Si O2"
_cell_formula_units_Z 28
_cell_length_a 17.716273
_cell_length_b 5.150948
_cell_length_c 13.561879
_cell_angle_alpha 90.000000
_cell_angle_beta 62.197027
_cell_angle_gamma 90.000000
_cell_volume 1094.725180
_symmetry_space_group_name_H-M "P 21/C"
_symmetry_group_IT_number 14
_symmetry_cell_setting 'monoclinic'
loop_
_space_group_symop_operation_xyz
x,y,z
-x,1/2+y,1/2-z
-x,-y,-z
x,1/2-y,1/2+z
loop_
_atom_site_type_symbol
_atom_site_label
_atom_site_fract_x
_atom_site_fract_y
_atom_site_fract_z
Si Si1 0.749472 0.821210 0.620254
Si Si2 0.513011 0.081328 0.678385
Si Si3 0.362059 0.253195 0.637817
Si Si4 0.661430 0.058075 0.030292
Si Si5 0.955366 0.577389 0.789529
Si Si6 0.224411 0.582001 0.110612
Si Si7 0.056816 0.248802 0.988848
O O1 0.686943 0.916987 0.746109
O O2 0.695453 0.580208 0.607462
O O3 0.844027 0.760521 0.604902
O O4 0.766970 0.987860 0.509716
O O5 0.487006 0.292548 0.778516
O O6 0.443126 0.115822 0.636549
O O7 0.604183 0.191734 0.588853
O O8 0.389675 0.400680 0.521582
O O9 0.291991 0.052020 0.640403
O O10 0.748398 0.121512 0.917358
O O11 0.869372 0.471054 0.794706
O O12 0.934132 0.744712 0.898645
O O13 0.000699 0.310490 0.796565
O O14 0.000000 0.500000 0.000000
O O15 0.000000 0.000000 0.000000
#
# Coordination Sequence:
#
# PCOD9250745 Si02
#       7
#     4   4   4   4   4   4   4
#     4  10  24  46  67 100 147 186 242 300 363 428
#     4  12  27  49  77 111 152 193 239 297 371 432
#     4  11  25  45  73 108 140 194 240 303 358 437
#     4  11  25  46  75 104 146 194 244 304 359 442
#     4  11  26  45  71 103 148 188 240 306 363 429
#     4  10  26  43  72 104 143 191 247 296 369 433
#     4  11  26  44  69 104 139 191 243 298 361 433
#
# _framework density 25.577193999999999
#
# number of rings (size 3 to 8) (size 9 to 14) (size 15 to 20)
#    0.000    1.143    1.429    2.143   18.000    1.714 
#    0.000    0.000    0.000    0.000    0.000    0.000 
#    0.000    0.000    0.000    0.000    0.000    0.000 
#
# Total GULP energy -156490.152926 kJ/mol
# GULP energy per Si atom -5588.934033 kJ/mol
# Density = 2.551898 g / cm^3
# Si number density = 25.577194 Si / 1000 Ang^3
#
#
#
# Elastic Constant Matrix: (Units=GPa)
#
#
# Indices 1 2 3 4 5 6 
#
# 1 156.2791 19.6774 39.2730 0.0000 -16.2954 0.0000
# 2 19.6774 69.6909 23.4772 0.0000 -6.4497 0.0000
# 3 39.2730 23.4772 77.1854 0.0000 1.3548 0.0000
# 4 0.0000 0.0000 0.0000 38.8243 0.0000 -7.1128
# 5 -16.2954 -6.4497 1.3548 0.0000 41.3944 0.0000
# 6 0.0000 0.0000 0.0000 -7.1128 0.0000 25.6969
#
#
#
# Elastic Compliance Matrix: (Units=1/GPa)
#
#
# Indices 1 2 3 4 5 6 
#
# 1 0.007756 -0.000621 -0.003812 0.000000 0.003081 0.000000
# 2 -0.000621 0.016333 -0.004695 0.000000 0.002454 0.000000
# 3 -0.003812 -0.004695 0.016372 0.000000 -0.002768 0.000000
# 4 0.000000 0.000000 0.000000 0.027133 0.000000 0.007510
# 5 0.003081 0.002454 -0.002768 0.000000 0.025844 0.000000
# 6 0.000000 0.000000 0.000000 0.007510 0.000000 0.040994
#
#
# Mechanical properties :
#
#
# Convention : Reuss Voigt Hill
#
# Bulk Modulus (GPa) = 45.03298 52.00116 48.51707
# Shear Modulus (GPa) = 31.23251 35.89831 33.56541
#
# Velocity S-wave (km/s) = 3.49823 3.75043 3.62652
# Velocity P-wave (km/s) = 5.82767 6.25536 6.04530
#
# Compressibility (1/GPa) = 0.02220595
#
# Stress axis : x y z
#
# Youngs Moduli (GPa) = 128.92999 61.22503 61.07984
#
# Poissons Ratio (x) = 0.03800 0.23282
# Poissons Ratio (y) = 0.08003 0.28679
# Poissons Ratio (z) = 0.49145 0.28747
#
# Static dielectric constant tensor:
#      x y z
#    x 1.994770 0.000000 -0.058400 
#    y 0.000000 2.088080 0.000000 
#    z -0.058400 0.000000 2.218630 
# 
# From -- ./inp_files/47918.got.cif
#   From: 2010.05.17/outbox.cif.g08.bks.cpg/sg14_24_cif.got.tgz:47918.got - 2010.06.03 17:49:19.
