data_PCOD9250671
_publ_section_title
;
Structure prediction by ZEFSAII (Michael W. Deem and Ramdas Pophale) SiO2 
 PCOD9250671
Probable space group: P 21/C
;
_chemical_formula_sum "Si O2"
_cell_formula_units_Z 32
_cell_length_a 12.569524
_cell_length_b 12.244160
_cell_length_c 8.990173
_cell_angle_alpha 90.000000
_cell_angle_beta 112.159432
_cell_angle_gamma 90.000000
_cell_volume 1281.420079
_symmetry_space_group_name_H-M "P 21/C"
_symmetry_group_IT_number 14
_symmetry_cell_setting 'monoclinic'
loop_
_space_group_symop_operation_xyz
x,y,z
-x,1/2+y,1/2-z
-x,-y,-z
x,1/2-y,1/2+z
loop_
_atom_site_type_symbol
_atom_site_label
_atom_site_fract_x
_atom_site_fract_y
_atom_site_fract_z
Si Si1 0.681374 0.834582 0.650966
Si Si2 0.033279 0.983310 0.848481
Si Si3 0.648982 0.997513 0.378112
Si Si4 0.917734 0.273414 0.820787
Si Si5 0.827743 0.670171 0.523996
Si Si6 0.513131 0.167589 0.852409
Si Si7 0.890267 0.453561 0.022286
Si Si8 0.339882 0.781930 0.789459
O O1 0.638999 0.941823 0.536880
O O2 0.746189 0.752939 0.570107
O O3 0.574233 0.767722 0.661589
O O4 0.770428 0.851984 0.833567
O O5 0.148165 0.054640 0.883358
O O6 0.921686 0.032668 0.708026
O O7 0.056856 0.865221 0.792020
O O8 0.000000 0.000000 0.000000
O O9 0.564577 0.937334 0.221470
O O10 0.783270 0.975011 0.418729
O O11 0.650666 0.126238 0.338720
O O12 0.785214 0.237118 0.727560
O O13 0.041248 0.216669 0.908505
O O14 0.892608 0.331390 0.967020
O O15 0.584095 0.186469 0.739184
O O16 0.599190 0.164012 0.036177
O O17 0.000000 0.500000 0.000000
#
# Coordination Sequence:
#
# PCOD9250671 Si02
#       8
#     4   4   4   4   4   4   4   4
#     4  12  24  42  73 108 144 180 248 304 369 441
#     4  11  23  38  64 108 147 180 233 287 361 447
#     4  11  23  45  74 101 143 192 245 308 377 429
#     4  10  24  45  68 101 142 196 233 289 376 436
#     4  12  24  41  74 105 149 185 232 307 371 447
#     4  12  25  49  70 107 140 193 260 301 368 441
#     4   9  19  37  64  94 138 181 223 280 362 440
#     4  11  27  49  76 101 147 198 253 313 366 446
#
# _framework density 24.972296
#
# number of rings (size 3 to 8) (size 9 to 14) (size 15 to 20)
#    0.000    1.000    2.500    4.125    5.250    4.500 
#    2.250    0.000    0.000    0.000    0.000    0.000 
#    0.000    0.000    0.000    0.000    0.000    0.000 
#
# Total GULP energy -178695.033227 kJ/mol
# GULP energy per Si atom -5584.219788 kJ/mol
# Density = 2.491546 g / cm^3
# Si number density = 24.972296 Si / 1000 Ang^3
#
#
#
# Elastic Constant Matrix: (Units=GPa)
#
#
# Indices 1 2 3 4 5 6 
#
# 1 134.4125 14.5454 40.3260 0.0000 14.3801 0.0000
# 2 14.5454 46.3756 25.5234 0.0000 -0.5696 0.0000
# 3 40.3260 25.5234 141.4235 0.0000 6.0720 0.0000
# 4 0.0000 0.0000 0.0000 33.3040 0.0000 7.0702
# 5 14.3801 -0.5696 6.0720 0.0000 38.0826 0.0000
# 6 0.0000 0.0000 0.0000 7.0702 0.0000 31.5480
#
#
#
# Elastic Compliance Matrix: (Units=1/GPa)
#
#
# Indices 1 2 3 4 5 6 
#
# 1 0.008531 -0.001601 -0.002018 0.000000 -0.002924 0.000000
# 2 -0.001601 0.024284 -0.003995 0.000000 0.001605 0.000000
# 3 -0.002018 -0.003995 0.008395 0.000000 -0.000636 0.000000
# 4 0.000000 0.000000 0.000000 0.031526 0.000000 -0.007065
# 5 -0.002924 0.001605 -0.000636 0.000000 0.027488 0.000000
# 6 0.000000 0.000000 0.000000 -0.007065 0.000000 0.033281
#
#
# Mechanical properties :
#
#
# Convention : Reuss Voigt Hill
#
# Bulk Modulus (GPa) = 38.48910 53.66680 46.07795
# Shear Modulus (GPa) = 31.76744 36.70805 34.23775
#
# Velocity S-wave (km/s) = 3.57053 3.83815 3.70676
# Velocity P-wave (km/s) = 5.69600 6.41709 6.06727
#
# Compressibility (1/GPa) = 0.02598138
#
# Stress axis : x y z
#
# Youngs Moduli (GPa) = 117.21543 41.18007 119.12216
#
# Poissons Ratio (x) = 0.06593 0.24041
# Poissons Ratio (y) = 0.18766 0.47589
# Poissons Ratio (z) = 0.23656 0.16451
#
# Static dielectric constant tensor:
#      x y z
#    x 1.974990 0.000000 0.025100 
#    y 0.000000 2.100230 0.000000 
#    z 0.025100 0.000000 2.107020 
# 
# From -- ./inp_files/13392.got.cif
#   From: 2010.05.17/outbox.cif.g08.bks.cpg/sg14_7_cif.got.tgz:13392.got - 2010.06.03 17:49:19.
