data_PCOD9250148
_publ_section_title
;
Structure prediction by ZEFSAII (Michael W. Deem and Ramdas Pophale) SiO2 
 PCOD9250148
Probable space group: P 21/C
;
_chemical_formula_sum "Si O2"
_cell_formula_units_Z 24
_cell_length_a 25.144531
_cell_length_b 5.227547
_cell_length_c 13.135007
_cell_angle_alpha 90.000000
_cell_angle_beta 146.583281
_cell_angle_gamma 90.000000
_cell_volume 950.836960
_symmetry_space_group_name_H-M "P 21/C"
_symmetry_group_IT_number 14
_symmetry_cell_setting 'monoclinic'
loop_
_space_group_symop_operation_xyz
x,y,z
-x,1/2+y,1/2-z
-x,-y,-z
x,1/2-y,1/2+z
loop_
_atom_site_type_symbol
_atom_site_label
_atom_site_fract_x
_atom_site_fract_y
_atom_site_fract_z
Si Si1 0.442887 0.635101 0.627943
Si Si2 0.652972 0.895548 0.206115
Si Si3 0.825192 0.231925 0.014626
Si Si4 0.702864 0.866649 0.962019
Si Si5 0.010136 0.248106 0.444844
Si Si6 0.213091 0.100634 0.223466
O O1 0.518098 0.413504 0.781754
O O2 0.414531 0.582728 0.465272
O O3 0.347105 0.566844 0.541124
O O4 0.748060 0.043266 0.395295
O O5 0.621373 0.747056 0.256375
O O6 0.693924 0.692064 0.190993
O O7 0.929763 0.274536 0.228756
O O8 0.780007 0.008939 0.014177
O O9 0.821626 0.151096 0.890178
O O10 0.752491 0.643126 0.107053
O O11 0.000000 0.500000 0.500000
O O12 0.115716 0.233269 0.563036
O O13 0.000000 0.000000 0.500000
#
# Coordination Sequence:
#
# PCOD9250148 Si02
#       6
#     4   4   4   4   4   4
#     4  11  28  47  73 107 140 178 234 300 363 428
#     4  10  25  44  73 101 137 190 236 286 362 424
#     4  11  25  42  74 101 142 196 238 289 354 417
#     4  10  23  47  71 100 143 184 234 290 360 427
#     4  12  27  44  70 104 144 190 244 289 344 408
#     4  10  24  43  67 101 144 186 239 290 345 410
#
# _framework density 25.240918000000001
#
# number of rings (size 3 to 8) (size 9 to 14) (size 15 to 20)
#    0.000    1.333    1.667    1.000   16.333    2.667 
#    0.000    0.000    0.000    0.000    0.000    0.000 
#    0.000    0.000    0.000    0.000    0.000    0.000 
#
# Total GULP energy -134257.958722 kJ/mol
# GULP energy per Si atom -5594.081613 kJ/mol
# Density = 2.518347 g / cm^3
# Si number density = 25.240918 Si / 1000 Ang^3
#
#
#
# Elastic Constant Matrix: (Units=GPa)
#
#
# Indices 1 2 3 4 5 6 
#
# 1 41.8459 0.0962 20.3945 0.0000 -5.0375 0.0000
# 2 0.0962 89.1866 16.0531 0.0000 -6.2822 0.0000
# 3 20.3945 16.0531 136.2468 0.0000 -4.2171 0.0000
# 4 0.0000 0.0000 0.0000 40.1875 0.0000 0.4692
# 5 -5.0375 -6.2822 -4.2171 0.0000 40.0371 0.0000
# 6 0.0000 0.0000 0.0000 0.4692 0.0000 36.6448
#
#
#
# Elastic Compliance Matrix: (Units=1/GPa)
#
#
# Indices 1 2 3 4 5 6 
#
# 1 0.026174 0.000892 -0.003930 0.000000 0.003019 0.000000
# 2 0.000892 0.011597 -0.001445 0.000000 0.001780 0.000000
# 3 -0.003930 -0.001445 0.008102 0.000000 0.000132 0.000000
# 4 0.000000 0.000000 0.000000 0.024887 0.000000 -0.000319
# 5 0.003019 0.001780 0.000132 0.000000 0.025650 0.000000
# 6 0.000000 0.000000 0.000000 -0.000319 0.000000 0.027293
#
#
# Mechanical properties :
#
#
# Convention : Reuss Voigt Hill
#
# Bulk Modulus (GPa) = 27.09465 37.81854 32.45660
# Shear Modulus (GPa) = 34.48979 38.75627 36.62303
#
# Velocity S-wave (km/s) = 3.70053 3.92274 3.81325
# Velocity P-wave (km/s) = 5.38667 5.96093 5.68106
#
# Compressibility (1/GPa) = 0.03690765
#
# Stress axis : x y z
#
# Youngs Moduli (GPa) = 38.20626 86.22998 123.42404
#
# Poissons Ratio (x) = -0.07690 0.48500
# Poissons Ratio (y) = -0.03407 0.17832
# Poissons Ratio (z) = 0.15013 0.12458
#
# Static dielectric constant tensor:
#      x y z
#    x 2.045900 0.000000 -0.015800 
#    y 0.000000 2.064540 0.000000 
#    z -0.015800 0.000000 1.981150 
# 
# From -- ./inp_files/52178.got.cif
#   From: 2010.05.17/outbox.cif.g08.bks.cpg/sg14_27_cif.got.tgz:52178.got - 2010.06.03 17:49:19.
