data_PCOD9250504
_publ_section_title
;
Structure prediction by ZEFSAII (Michael W. Deem and Ramdas Pophale) SiO2 
 PCOD9250504
Probable space group: P 21/C
;
_chemical_formula_sum "Si O2"
_cell_formula_units_Z 24
_cell_length_a 12.288469
_cell_length_b 12.032826
_cell_length_c 7.914095
_cell_angle_alpha 90.000000
_cell_angle_beta 105.923381
_cell_angle_gamma 90.000000
_cell_volume 1125.315813
_symmetry_space_group_name_H-M "P 21/C"
_symmetry_group_IT_number 14
_symmetry_cell_setting 'monoclinic'
loop_
_space_group_symop_operation_xyz
x,y,z
-x,1/2+y,1/2-z
-x,-y,-z
x,1/2-y,1/2+z
loop_
_atom_site_type_symbol
_atom_site_label
_atom_site_fract_x
_atom_site_fract_y
_atom_site_fract_z
Si Si1 0.331246 0.096920 0.721570
Si Si2 0.937931 0.973331 0.797891
Si Si3 0.219946 0.840649 0.188100
Si Si4 0.719946 0.840647 0.688102
Si Si5 0.562068 0.026667 0.702110
Si Si6 0.168752 0.596922 0.278427
O O1 0.308165 0.212400 0.805076
O O2 0.301820 0.122043 0.513279
O O3 0.461999 0.058851 0.785843
O O4 0.249998 1.000000 0.749996
O O5 0.849111 0.873102 0.783188
O O6 0.037998 0.941146 0.714156
O O7 0.861033 0.081887 0.729816
O O8 0.000000 0.000000 0.000000
O O9 0.349112 0.873103 0.283185
O O10 0.191835 0.712402 0.194923
O O11 0.198181 0.877958 0.986719
O O12 0.638966 0.918111 0.770184
O O13 0.500000 0.000000 0.500000
#
# Coordination Sequence:
#
# PCOD9250504 Si02
#       6
#     4   4   4   4   4   4
#     4  11  26  41  69  99 131 175 222 270 333 389
#     4   9  22  44  66  93 131 173 219 268 328 382
#     4  10  24  43  68  95 137 171 222 273 324 394
#     4  10  24  43  68  95 137 171 222 273 324 394
#     4   9  22  44  66  93 131 173 219 268 328 382
#     4  11  26  41  69  99 131 175 222 270 333 389
#
# _framework density 21.327345999999999
#
# number of rings (size 3 to 8) (size 9 to 14) (size 15 to 20)
#    0.000    2.000    0.000    0.000   18.667    4.000 
#    0.000    0.000    0.000    0.000    0.000    0.000 
#    0.000    0.000    0.000    0.000    0.000    0.000 
#
# Total GULP energy -134123.526964 kJ/mol
# GULP energy per Si atom -5588.480290 kJ/mol
# Density = 2.127880 g / cm^3
# Si number density = 21.327346 Si / 1000 Ang^3
#
#
#
# Elastic Constant Matrix: (Units=GPa)
#
#
# Indices 1 2 3 4 5 6 
#
# 1 230.5555 131.6960 27.8655 0.0000 10.4189 0.0000
# 2 131.6960 206.1285 23.7555 0.0000 -22.5212 0.0000
# 3 27.8655 23.7555 60.2472 0.0000 0.7055 0.0000
# 4 0.0000 0.0000 0.0000 34.8603 0.0000 -11.0507
# 5 10.4189 -22.5212 0.7055 0.0000 21.1027 0.0000
# 6 0.0000 0.0000 0.0000 -11.0507 0.0000 38.3442
#
#
#
# Elastic Compliance Matrix: (Units=1/GPa)
#
#
# Indices 1 2 3 4 5 6 
#
# 1 0.008913 -0.006816 -0.001299 0.000000 -0.011631 0.000000
# 2 -0.006816 0.011022 -0.001371 0.000000 0.015174 0.000000
# 3 -0.001299 -0.001371 0.017756 0.000000 -0.001416 0.000000
# 4 0.000000 0.000000 0.000000 0.031570 0.000000 0.009098
# 5 -0.011631 0.015174 -0.001416 0.000000 0.069371 0.000000
# 6 0.000000 0.000000 0.000000 0.009098 0.000000 0.028702
#
#
# Mechanical properties :
#
#
# Convention : Reuss Voigt Hill
#
# Bulk Modulus (GPa) = 53.41973 95.95169 74.68571
# Shear Modulus (GPa) = 25.96787 39.76904 32.86845
#
# Velocity S-wave (km/s) = 3.49318 4.32290 3.93000
# Velocity P-wave (km/s) = 6.43208 8.36685 7.46244
#
# Compressibility (1/GPa) = 0.01871967
#
# Stress axis : x y z
#
# Youngs Moduli (GPa) = 112.19306 90.72908 56.31815
#
# Poissons Ratio (x) = 0.61839 0.07315
# Poissons Ratio (y) = 0.76468 0.07722
# Poissons Ratio (z) = 0.14572 0.12440
#
# Static dielectric constant tensor:
#      x y z
#    x 1.793430 0.000000 -0.017340 
#    y 0.000000 1.745160 0.000000 
#    z -0.017340 0.000000 1.815390 
# 
# From -- ./inp_files/12932.got.cif
#   From: 2010.05.17/outbox.cif.g08.bks.cpg/sg14_7_cif.got.tgz:12932.got - 2010.06.03 17:49:19.
