data_PCOD9250126
_publ_section_title
;
Structure prediction by ZEFSAII (Michael W. Deem and Ramdas Pophale) SiO2 
 PCOD9250126
Probable space group: P 21/C
;
_chemical_formula_sum "Si O2"
_cell_formula_units_Z 24
_cell_length_a 11.714812
_cell_length_b 11.028359
_cell_length_c 21.780196
_cell_angle_alpha 90.000000
_cell_angle_beta 156.863294
_cell_angle_gamma 90.000000
_cell_volume 1105.653673
_symmetry_space_group_name_H-M "P 21/C"
_symmetry_group_IT_number 14
_symmetry_cell_setting 'monoclinic'
loop_
_space_group_symop_operation_xyz
x,y,z
-x,1/2+y,1/2-z
-x,-y,-z
x,1/2-y,1/2+z
loop_
_atom_site_type_symbol
_atom_site_label
_atom_site_fract_x
_atom_site_fract_y
_atom_site_fract_z
Si Si1 0.737235 0.508102 0.968928
Si Si2 0.160740 0.270874 0.063593
Si Si3 0.762341 0.073565 0.202999
Si Si4 0.729203 0.393779 0.541480
Si Si5 0.685737 0.290769 0.248216
Si Si6 0.318872 0.204544 0.273327
O O1 0.981528 0.491856 0.141370
O O2 0.865946 0.592547 0.977881
O O3 0.476611 0.597146 0.862656
O O4 0.563619 0.387416 0.868160
O O5 0.442637 0.222502 0.167720
O O6 0.201756 0.275575 0.155904
O O7 0.913553 0.183631 0.914702
O O8 0.810493 0.202644 0.259160
O O9 0.449191 0.015664 0.064563
O O10 0.778491 0.091851 0.138497
O O11 0.496408 0.288597 0.408621
O O12 0.037416 0.362662 0.662677
#
# Coordination Sequence:
#
# PCOD9250126 Si02
#       6
#     4   4   4   4   4   4
#     4   9  23  42  68  96 127 173 216 273 316 391
#     4   9  21  39  63  97 126 165 214 265 324 388
#     4  10  23  47  62  94 130 173 225 260 331 378
#     4  11  27  40  67  96 133 174 212 280 314 394
#     4   9  20  40  67  92 125 173 213 272 317 390
#     4  12  24  44  66 101 133 170 219 265 337 379
#
# _framework density 21.706614999999999
#
# number of rings (size 3 to 8) (size 9 to 14) (size 15 to 20)
#    1.000    1.000    0.000    2.000    4.667    2.667 
#    3.000    4.167    0.000    0.000    0.000    0.000 
#    0.000    0.000    0.000    0.000    0.000    0.000 
#
# Total GULP energy -133666.349339 kJ/mol
# GULP energy per Si atom -5569.431222 kJ/mol
# Density = 2.165721 g / cm^3
# Si number density = 21.706615 Si / 1000 Ang^3
#
#
#
# Elastic Constant Matrix: (Units=GPa)
#
#
# Indices 1 2 3 4 5 6 
#
# 1 92.6281 25.3436 50.9859 0.0000 -22.8454 0.0000
# 2 25.3436 54.8449 14.6575 0.0000 -19.0162 0.0000
# 3 50.9859 14.6575 134.3384 0.0000 -26.0099 0.0000
# 4 0.0000 0.0000 0.0000 33.6184 0.0000 6.7829
# 5 -22.8454 -19.0162 -26.0099 0.0000 31.2376 0.0000
# 6 0.0000 0.0000 0.0000 6.7829 0.0000 21.9019
#
#
#
# Elastic Compliance Matrix: (Units=1/GPa)
#
#
# Indices 1 2 3 4 5 6 
#
# 1 0.015711 -0.004275 -0.004501 0.000000 0.005140 0.000000
# 2 -0.004275 0.024281 0.001466 0.000000 0.012876 0.000000
# 3 -0.004501 0.001466 0.010167 0.000000 0.006066 0.000000
# 4 0.000000 0.000000 0.000000 0.031728 0.000000 -0.009826
# 5 0.005140 0.012876 0.006066 0.000000 0.048661 0.000000
# 6 0.000000 0.000000 0.000000 -0.009826 0.000000 0.048701
#
#
# Mechanical properties :
#
#
# Convention : Reuss Voigt Hill
#
# Bulk Modulus (GPa) = 28.13832 51.53169 39.83500
# Shear Modulus (GPa) = 24.30550 30.07319 27.18935
#
# Velocity S-wave (km/s) = 3.34986 3.72619 3.54303
# Velocity P-wave (km/s) = 5.28709 6.50417 5.92695
#
# Compressibility (1/GPa) = 0.03553873
#
# Stress axis : x y z
#
# Youngs Moduli (GPa) = 63.65076 41.18416 98.36014
#
# Poissons Ratio (x) = 0.17606 0.44274
# Poissons Ratio (y) = 0.27210 -0.14420
# Poissons Ratio (z) = 0.28651 -0.06038
#
# Static dielectric constant tensor:
#      x y z
#    x 1.738550 0.000000 -0.025370 
#    y 0.000000 1.854180 0.000000 
#    z -0.025370 0.000000 1.725170 
# 
# From -- ./inp_files/73324.got.cif
#   From: 2010.05.17/outbox.cif.g08.bks.cpg/sg14_37_cif.got.tgz:73324.got - 2010.06.03 17:49:19.
