data_PCOD9250118
_publ_section_title
;
Structure prediction by ZEFSAII (Michael W. Deem and Ramdas Pophale) SiO2 
 PCOD9250118
Probable space group: P 21/C
;
_chemical_formula_sum "Si O2"
_cell_formula_units_Z 24
_cell_length_a 7.627713
_cell_length_b 22.714620
_cell_length_c 7.531935
_cell_angle_alpha 90.000000
_cell_angle_beta 47.836757
_cell_angle_gamma 90.000000
_cell_volume 967.302966
_symmetry_space_group_name_H-M "P 21/C"
_symmetry_group_IT_number 14
_symmetry_cell_setting 'monoclinic'
loop_
_space_group_symop_operation_xyz
x,y,z
-x,1/2+y,1/2-z
-x,-y,-z
x,1/2-y,1/2+z
loop_
_atom_site_type_symbol
_atom_site_label
_atom_site_fract_x
_atom_site_fract_y
_atom_site_fract_z
Si Si1 0.345932 0.317517 0.607377
Si Si2 0.563048 0.019417 0.760591
Si Si3 0.415780 0.891915 0.787519
Si Si4 0.919621 0.565909 0.512029
Si Si5 0.532473 0.685575 0.867586
Si Si6 0.912491 0.118303 0.468032
O O1 0.540072 0.362287 0.551769
O O2 0.428628 0.252187 0.597146
O O3 0.126237 0.339600 0.877817
O O4 0.303007 0.321023 0.422703
O O5 0.789742 0.060799 0.633032
O O6 0.366425 0.059224 0.792065
O O7 0.500000 0.000000 0.000000
O O8 0.548622 0.955229 0.677939
O O9 0.524666 0.852114 0.555287
O O10 0.128551 0.897744 0.969113
O O11 0.971395 0.584447 0.277161
O O12 0.000000 0.500000 0.500000
O O13 0.283450 0.665867 0.953972
#
# Coordination Sequence:
#
# PCOD9250118 Si02
#       6
#     4   4   4   4   4   4
#     4  12  25  49  72 105 145 194 251 309 372 448
#     4  11  23  45  75 112 156 196 249 308 384 453
#     4  10  23  46  76 109 146 196 245 310 378 444
#     4   9  21  41  68 103 144 186 233 296 366 440
#     4  11  25  48  72 105 143 195 252 306 371 448
#     4  11  25  43  71 107 145 186 246 306 368 449
#
# _framework density 24.811256
#
# number of rings (size 3 to 8) (size 9 to 14) (size 15 to 20)
#    0.000    1.333    1.667    3.000    0.000   11.333 
#    3.000   10.000    0.000    3.000    0.000    0.000 
#    0.000    0.000    0.000    0.000    0.000    0.000 
#
# Total GULP energy -133643.076159 kJ/mol
# GULP energy per Si atom -5568.461507 kJ/mol
# Density = 2.475478 g / cm^3
# Si number density = 24.811256 Si / 1000 Ang^3
#
#
#
# Elastic Constant Matrix: (Units=GPa)
#
#
# Indices 1 2 3 4 5 6 
#
# 1 80.5368 40.0909 22.3498 0.0000 -0.5354 0.0000
# 2 40.0909 197.5312 60.3524 0.0000 -9.3297 0.0000
# 3 22.3498 60.3524 80.7777 0.0000 10.4425 0.0000
# 4 0.0000 0.0000 0.0000 40.0413 0.0000 -1.8028
# 5 -0.5354 -9.3297 10.4425 0.0000 26.2971 0.0000
# 6 0.0000 0.0000 0.0000 -1.8028 0.0000 34.5876
#
#
#
# Elastic Compliance Matrix: (Units=1/GPa)
#
#
# Indices 1 2 3 4 5 6 
#
# 1 0.014137 -0.002114 -0.002395 0.000000 0.000489 0.000000
# 2 -0.002114 0.007425 -0.005584 0.000000 0.004809 0.000000
# 3 -0.002395 -0.005584 0.018422 0.000000 -0.009345 0.000000
# 4 0.000000 0.000000 0.000000 0.025033 0.000000 0.001305
# 5 0.000489 0.004809 -0.009345 0.000000 0.043454 0.000000
# 6 0.000000 0.000000 0.000000 0.001305 0.000000 0.028980
#
#
# Mechanical properties :
#
#
# Convention : Reuss Voigt Hill
#
# Bulk Modulus (GPa) = 50.51083 67.15910 58.83496
# Shear Modulus (GPa) = 30.44375 35.92205 33.18290
#
# Velocity S-wave (km/s) = 3.50668 3.80914 3.66103
# Velocity P-wave (km/s) = 6.06613 6.81710 6.45255
#
# Compressibility (1/GPa) = 0.01979774
#
# Stress axis : x y z
#
# Youngs Moduli (GPa) = 70.73587 134.68273 54.28165
#
# Poissons Ratio (x) = 0.28478 0.13000
# Poissons Ratio (y) = 0.14957 0.30311
# Poissons Ratio (z) = 0.16940 0.75207
#
# Static dielectric constant tensor:
#      x y z
#    x 2.217940 0.000000 -0.196800 
#    y 0.000000 3.371580 0.000000 
#    z -0.196800 0.000000 2.217070 
# 
# From -- ./inp_files/9831.got.cif
#   From: 2010.05.17/outbox.cif.g08.bks.cpg/sg14_5_cif.got.tgz:9831.got - 2010.06.03 17:49:19.
