data_PCOD9250133
_publ_section_title
;
Structure prediction by ZEFSAII (Michael W. Deem and Ramdas Pophale) SiO2 
 PCOD9250133
Probable space group: P 21/C
;
_chemical_formula_sum "Si O2"
_cell_formula_units_Z 30
_cell_length_a 10.413975
_cell_length_b 6.374132
_cell_length_c 18.836355
_cell_angle_alpha 90.000000
_cell_angle_beta 104.819491
_cell_angle_gamma 90.000000
_cell_volume 1208.766839
_symmetry_space_group_name_H-M "P 21/C"
_symmetry_group_IT_number 14
_symmetry_cell_setting 'monoclinic'
loop_
_space_group_symop_operation_xyz
x,y,z
-x,1/2+y,1/2-z
-x,-y,-z
x,1/2-y,1/2+z
loop_
_atom_site_type_symbol
_atom_site_label
_atom_site_fract_x
_atom_site_fract_y
_atom_site_fract_z
Si Si1 0.994935 0.242059 0.844462
Si Si2 0.664666 0.203791 0.439965
Si Si3 0.500000 0.000000 0.000000
Si Si4 0.672720 0.672557 0.259346
Si Si5 0.100684 0.647295 0.438702
Si Si6 0.831188 0.405343 0.187657
Si Si7 0.157499 0.106049 0.602684
Si Si8 0.512664 0.981323 0.163120
O O1 0.885475 0.397903 0.860938
O O2 0.121384 0.382766 0.843896
O O3 0.940298 0.149974 0.762985
O O4 0.037819 0.071061 0.907495
O O5 0.547156 0.260493 0.477822
O O6 0.783337 0.352291 0.487120
O O7 0.731500 0.977583 0.436668
O O8 0.601955 0.299556 0.359816
O O9 0.480510 0.931950 0.914804
O O10 0.703928 0.473166 0.214738
O O11 0.542986 0.640452 0.287989
O O12 0.786533 0.728024 0.332366
O O13 0.647369 0.873364 0.206661
O O14 0.164854 0.737610 0.374634
O O15 0.979464 0.796985 0.445337
#
# Coordination Sequence:
#
# PCOD9250133 Si02
#       8
#     4   4   2   4   4   4   4   4
#     4  11  21  40  64 104 145 174 228 287 356 430
#     4  10  23  47  67  97 145 187 237 290 362 436
#     4   8  24  46  68  98 136 188 240 286 372 404
#     4  12  24  46  74 102 140 182 252 303 345 433
#     4  11  24  41  68 105 144 187 223 295 368 439
#     4  11  22  38  67 105 135 181 232 285 357 422
#     4  11  24  42  69 107 135 183 241 292 365 430
#     4  10  25  47  69 102 134 194 239 304 361 412
#
# _framework density 24.818680000000001
#
# number of rings (size 3 to 8) (size 9 to 14) (size 15 to 20)
#    0.800    0.533    2.667    2.800    1.867    1.600 
#    7.200    1.333    0.000    0.000    0.000    0.000 
#    0.000    0.000    0.000    0.000    0.000    0.000 
#
# Total GULP energy -167172.183060 kJ/mol
# GULP energy per Si atom -5572.406102 kJ/mol
# Density = 2.476219 g / cm^3
# Si number density = 24.818680 Si / 1000 Ang^3
#
#
#
# Elastic Constant Matrix: (Units=GPa)
#
#
# Indices 1 2 3 4 5 6 
#
# 1 37.7036 6.7842 21.7474 0.0000 -19.6340 0.0000
# 2 6.7842 46.3443 7.1910 0.0000 -12.4512 0.0000
# 3 21.7474 7.1910 108.7614 0.0000 -9.0030 0.0000
# 4 0.0000 0.0000 0.0000 30.3090 0.0000 -9.5551
# 5 -19.6340 -12.4512 -9.0030 0.0000 47.4556 0.0000
# 6 0.0000 0.0000 0.0000 -9.5551 0.0000 44.9341
#
#
#
# Elastic Compliance Matrix: (Units=1/GPa)
#
#
# Indices 1 2 3 4 5 6 
#
# 1 0.037692 -0.000721 -0.006313 0.000000 0.014208 0.000000
# 2 -0.000721 0.023346 -0.000932 0.000000 0.005650 0.000000
# 3 -0.006313 -0.000932 0.010446 0.000000 -0.000875 0.000000
# 4 0.000000 0.000000 0.000000 0.035364 0.000000 0.007520
# 5 0.014208 0.005650 -0.000875 0.000000 0.028267 0.000000
# 6 0.000000 0.000000 0.000000 0.007520 0.000000 0.023854
#
#
# Mechanical properties :
#
#
# Convention : Reuss Voigt Hill
#
# Bulk Modulus (GPa) = 18.00085 29.36161 23.68123
# Shear Modulus (GPa) = 25.85066 35.01217 30.43142
#
# Velocity S-wave (km/s) = 3.23085 3.76003 3.50544
# Velocity P-wave (km/s) = 4.60289 5.54135 5.09378
#
# Compressibility (1/GPa) = 0.05555294
#
# Stress axis : x y z
#
# Youngs Moduli (GPa) = 26.53049 42.83430 95.73074
#
# Poissons Ratio (x) = 0.03088 0.60435
# Poissons Ratio (y) = 0.01913 0.08919
# Poissons Ratio (z) = 0.16749 0.03991
#
# Static dielectric constant tensor:
#      x y z
#    x 2.055970 0.000000 -0.044630 
#    y 0.000000 2.022180 0.000000 
#    z -0.044630 0.000000 1.933860 
# 
# From -- ./inp_files/66528.got.cif
#   From: 2010.05.17/outbox.cif.g08.bks.cpg/sg14_34_cif.got.tgz:66528.got - 2010.06.03 17:49:19.
