data_PCOD9250628
_publ_section_title
;
Structure prediction by ZEFSAII (Michael W. Deem and Ramdas Pophale) SiO2 
 PCOD9250628
Probable space group: P 21/C
;
_chemical_formula_sum "Si O2"
_cell_formula_units_Z 30
_cell_length_a 14.216243
_cell_length_b 8.262288
_cell_length_c 22.303848
_cell_angle_alpha 90.000000
_cell_angle_beta 154.199944
_cell_angle_gamma 90.000000
_cell_volume 1140.212407
_symmetry_space_group_name_H-M "P 21/C"
_symmetry_group_IT_number 14
_symmetry_cell_setting 'monoclinic'
loop_
_space_group_symop_operation_xyz
x,y,z
-x,1/2+y,1/2-z
-x,-y,-z
x,1/2-y,1/2+z
loop_
_atom_site_type_symbol
_atom_site_label
_atom_site_fract_x
_atom_site_fract_y
_atom_site_fract_z
Si Si1 0.489061 0.538071 0.282674
Si Si2 0.218307 0.741331 0.046092
Si Si3 0.827369 0.956042 0.141715
Si Si4 0.732613 0.230473 0.754255
Si Si5 0.526671 0.249315 0.506752
Si Si6 0.808387 0.738660 0.511110
Si Si7 0.258762 0.540749 0.958879
Si Si8 0.000000 0.500000 0.500000
O O1 0.300743 0.584493 0.129953
O O2 0.569046 0.357812 0.333773
O O3 0.415791 0.631628 0.300182
O O4 0.716345 0.636930 0.401420
O O5 0.174119 0.679135 0.954899
O O6 0.037891 0.845577 0.975628
O O7 0.851000 0.893338 0.087499
O O8 0.057644 0.000352 0.301091
O O9 0.664028 0.104241 0.056270
O O10 0.708875 0.813223 0.111099
O O11 0.646025 0.205722 0.637385
O O12 0.966042 0.314536 0.877774
O O13 0.804941 0.086166 0.841155
O O14 0.549910 0.109405 0.471654
O O15 0.675915 0.885345 0.464363
#
# Coordination Sequence:
#
# PCOD9250628 Si02
#       8
#     4   4   4   4   4   4   4   2
#     4  11  24  47  70  97 132 184 231 290 351 417
#     4  11  25  47  68  99 138 182 237 293 354 424
#     4  11  23  43  68 101 139 189 226 288 352 418
#     4  11  22  43  73  99 136 181 236 285 356 416
#     4  11  24  42  69 101 138 183 236 280 354 427
#     4  12  23  42  67  99 142 178 232 291 346 424
#     4  12  25  41  66 106 140 184 228 290 357 421
#     4  10  24  44  72 100 130 192 234 294 352 410
#
# _framework density 26.310887000000001
#
# number of rings (size 3 to 8) (size 9 to 14) (size 15 to 20)
#    0.000    0.800    5.333    1.600    1.867    1.600 
#    9.600    2.000    0.000    0.000    0.000    0.000 
#    0.000    0.000    0.000    0.000    0.000    0.000 
#
# Total GULP energy -167479.040930 kJ/mol
# GULP energy per Si atom -5582.634698 kJ/mol
# Density = 2.625100 g / cm^3
# Si number density = 26.310887 Si / 1000 Ang^3
#
#
#
# Elastic Constant Matrix: (Units=GPa)
#
#
# Indices 1 2 3 4 5 6 
#
# 1 62.8353 30.2609 -4.9054 0.0000 -28.4459 0.0000
# 2 30.2609 99.6111 27.3302 0.0000 -13.9591 0.0000
# 3 -4.9054 27.3302 41.1220 0.0000 -10.6273 0.0000
# 4 0.0000 0.0000 0.0000 36.6712 0.0000 -3.8589
# 5 -28.4459 -13.9591 -10.6273 0.0000 35.4965 0.0000
# 6 0.0000 0.0000 0.0000 -3.8589 0.0000 45.3527
#
#
#
# Elastic Compliance Matrix: (Units=1/GPa)
#
#
# Indices 1 2 3 4 5 6 
#
# 1 0.038463 -0.013109 0.021606 0.000000 0.032136 0.000000
# 2 -0.013109 0.016969 -0.014992 0.000000 -0.008321 0.000000
# 3 0.021606 -0.014992 0.043148 0.000000 0.024337 0.000000
# 4 0.000000 0.000000 0.000000 0.027516 0.000000 0.002341
# 5 0.032136 -0.008321 0.024337 0.000000 0.057939 0.000000
# 6 0.000000 0.000000 0.000000 0.002341 0.000000 0.022249
#
#
# Mechanical properties :
#
#
# Convention : Reuss Voigt Hill
#
# Bulk Modulus (GPa) = 11.68361 34.32662 23.00511
# Shear Modulus (GPa) = 20.17728 33.56292 26.87010
#
# Velocity S-wave (km/s) = 2.77226 3.57547 3.19917
# Velocity P-wave (km/s) = 3.83373 5.48818 4.73380
#
# Compressibility (1/GPa) = 0.08559001
#
# Stress axis : x y z
#
# Youngs Moduli (GPa) = 25.99912 58.93203 23.17580
#
# Poissons Ratio (x) = 0.77255 -0.50073
# Poissons Ratio (y) = 0.34083 0.34745
# Poissons Ratio (z) = -0.56173 0.88349
#
# Static dielectric constant tensor:
#      x y z
#    x 1.107040 0.000000 -0.606330 
#    y 0.000000 2.054510 0.000000 
#    z -0.606330 0.000000 1.648580 
# 
# From -- ./inp_files/73752.got.cif
#   From: 2010.05.17/outbox.cif.g08.bks.cpg/sg14_37_cif.got.tgz:73752.got - 2010.06.03 17:49:19.
