data_PCOD9250740
_publ_section_title
;
Structure prediction by ZEFSAII (Michael W. Deem and Ramdas Pophale) SiO2 
 PCOD9250740
Probable space group: P 21/C
;
_chemical_formula_sum "Si O2"
_cell_formula_units_Z 28
_cell_length_a 5.102868
_cell_length_b 19.722008
_cell_length_c 14.377102
_cell_angle_alpha 90.000000
_cell_angle_beta 123.417699
_cell_angle_gamma 90.000000
_cell_volume 1207.690554
_symmetry_space_group_name_H-M "P 21/C"
_symmetry_group_IT_number 14
_symmetry_cell_setting 'monoclinic'
loop_
_space_group_symop_operation_xyz
x,y,z
-x,1/2+y,1/2-z
-x,-y,-z
x,1/2-y,1/2+z
loop_
_atom_site_type_symbol
_atom_site_label
_atom_site_fract_x
_atom_site_fract_y
_atom_site_fract_z
Si Si1 0.508789 0.330862 0.104336
Si Si2 0.157848 0.984183 0.890730
Si Si3 0.770919 0.758420 0.109128
Si Si4 0.532561 0.578409 0.301014
Si Si5 0.496207 0.769514 0.741738
Si Si6 0.854954 0.612344 0.718682
Si Si7 0.716250 0.971538 0.381618
O O1 0.380985 0.290989 0.169339
O O2 0.409572 0.409533 0.079190
O O3 0.874457 0.338438 0.193915
O O4 0.430629 0.281991 0.004994
O O5 0.261249 0.943180 0.819437
O O6 0.887103 0.946297 0.895244
O O7 0.021035 0.055935 0.828928
O O8 0.500000 0.000000 0.000000
O O9 0.706203 0.720625 0.192642
O O10 0.659900 0.835256 0.115188
O O11 0.133766 0.750591 0.148438
O O12 0.510233 0.658595 0.293753
O O13 0.466400 0.538826 0.190194
O O14 0.753603 0.569245 0.789548
O O15 0.000000 0.000000 0.500000
#
# Coordination Sequence:
#
# PCOD9250740 Si02
#       7
#     4   4   4   4   4   4   4
#     4  11  24  44  71 100 142 191 236 295 366 424
#     4  11  24  44  70  98 137 186 237 291 366 412
#     4  11  25  42  73  96 144 187 233 287 367 418
#     4  11  24  44  67 103 139 177 240 302 340 434
#     4  11  25  46  66 105 141 178 240 294 351 436
#     4  10  24  46  65 103 143 180 241 302 347 438
#     4  11  23  42  71 103 143 188 235 297 364 422
#
# _framework density 23.184746000000001
#
# number of rings (size 3 to 8) (size 9 to 14) (size 15 to 20)
#    0.000    1.143    2.857    2.143    6.000    1.714 
#    2.571    0.000    0.000    0.000    0.000    0.000 
#    0.000    0.000    0.000    0.000    0.000    0.000 
#
# Total GULP energy -156017.424067 kJ/mol
# GULP energy per Si atom -5572.050860 kJ/mol
# Density = 2.313198 g / cm^3
# Si number density = 23.184746 Si / 1000 Ang^3
#
#
#
# Elastic Constant Matrix: (Units=GPa)
#
#
# Indices 1 2 3 4 5 6 
#
# 1 71.7708 17.8870 5.0013 0.0000 1.7139 0.0000
# 2 17.8870 95.4658 15.2347 0.0000 11.1872 0.0000
# 3 5.0013 15.2347 42.6492 0.0000 7.2919 0.0000
# 4 0.0000 0.0000 0.0000 34.1181 0.0000 2.3891
# 5 1.7139 11.1872 7.2919 0.0000 23.4674 0.0000
# 6 0.0000 0.0000 0.0000 2.3891 0.0000 34.6324
#
#
#
# Elastic Compliance Matrix: (Units=1/GPa)
#
#
# Indices 1 2 3 4 5 6 
#
# 1 0.014645 -0.002663 -0.000845 0.000000 0.000463 0.000000
# 2 -0.002663 0.012017 -0.003204 0.000000 -0.004539 0.000000
# 3 -0.000845 -0.003204 0.025789 0.000000 -0.006424 0.000000
# 4 0.000000 0.000000 0.000000 0.029452 0.000000 -0.002032
# 5 0.000463 -0.004539 -0.006424 0.000000 0.046738 0.000000
# 6 0.000000 0.000000 0.000000 -0.002032 0.000000 0.029015
#
#
# Mechanical properties :
#
#
# Convention : Reuss Voigt Hill
#
# Bulk Modulus (GPa) = 25.62412 31.79243 28.70827
# Shear Modulus (GPa) = 27.16053 29.89444 28.52748
#
# Velocity S-wave (km/s) = 3.42641 3.59472 3.51157
# Velocity P-wave (km/s) = 5.17009 5.56523 5.37129
#
# Compressibility (1/GPa) = 0.03902573
#
# Stress axis : x y z
#
# Youngs Moduli (GPa) = 68.28339 83.21422 38.77594
#
# Poissons Ratio (x) = 0.22162 0.03277
# Poissons Ratio (y) = 0.18186 0.12425
# Poissons Ratio (z) = 0.05771 0.26665
#
# Static dielectric constant tensor:
#      x y z
#    x 1.929780 0.000000 -0.039070 
#    y 0.000000 1.941840 0.000000 
#    z -0.039070 0.000000 2.021160 
# 
# From -- ./inp_files/38115.got.cif
#   From: 2010.05.17/outbox.cif.g08.bks.cpg/sg14_20_cif.got.tgz:38115.got - 2010.06.03 17:49:19.
