data_PCOD9250368
_publ_section_title
;
Structure prediction by ZEFSAII (Michael W. Deem and Ramdas Pophale) SiO2 
 PCOD9250368
Probable space group: P 21/C
;
_chemical_formula_sum "Si O2"
_cell_formula_units_Z 24
_cell_length_a 14.822188
_cell_length_b 17.136241
_cell_length_c 8.198104
_cell_angle_alpha 90.000000
_cell_angle_beta 145.358869
_cell_angle_gamma 90.000000
_cell_volume 1183.645727
_symmetry_space_group_name_H-M "P 21/C"
_symmetry_group_IT_number 14
_symmetry_cell_setting 'monoclinic'
loop_
_space_group_symop_operation_xyz
x,y,z
-x,1/2+y,1/2-z
-x,-y,-z
x,1/2-y,1/2+z
loop_
_atom_site_type_symbol
_atom_site_label
_atom_site_fract_x
_atom_site_fract_y
_atom_site_fract_z
Si Si1 0.053267 0.083481 0.646049
Si Si2 0.478672 0.080783 0.778410
Si Si3 0.164881 0.017926 0.151670
Si Si4 0.695820 0.350876 0.080110
Si Si5 0.752557 0.316370 0.780475
Si Si6 0.384733 0.415528 0.517701
O O1 0.908236 0.142708 0.439631
O O2 0.117940 0.063659 0.920805
O O3 0.204636 0.109876 0.767552
O O4 0.000000 0.000000 0.500000
O O5 0.306634 0.069347 0.441876
O O6 0.582433 0.005103 0.879387
O O7 0.599177 0.153276 0.949316
O O8 0.436955 0.080691 0.908098
O O9 0.238276 0.931169 0.247832
O O10 0.000000 0.000000 0.000000
O O11 0.755183 0.276183 0.265290
O O12 0.741514 0.342063 0.955046
O O13 0.505353 0.360478 0.794215
#
# Coordination Sequence:
#
# PCOD9250368 Si02
#       6
#     4   4   4   4   4   4
#     4  12  23  38  67  99 124 162 222 265 309 376
#     4   9  19  40  66  83 126 163 204 252 314 379
#     4  11  22  41  66  94 123 167 218 259 310 375
#     4  10  24  42  63  89 130 171 205 261 324 375
#     4  11  23  43  62  93 130 166 208 265 326 369
#     4   9  19  39  63  93 118 164 207 252 309 378
#
# _framework density 20.276336000000001
#
# number of rings (size 3 to 8) (size 9 to 14) (size 15 to 20)
#    0.000    1.667    3.333    2.000    2.333    4.000 
#    3.000    1.667    0.000    0.000    0.000    0.000 
#    0.000    0.000    0.000    0.000    0.000    0.000 
#
# Total GULP energy -133863.384794 kJ/mol
# GULP energy per Si atom -5577.641033 kJ/mol
# Density = 2.023019 g / cm^3
# Si number density = 20.276336 Si / 1000 Ang^3
#
#
#
# Elastic Constant Matrix: (Units=GPa)
#
#
# Indices 1 2 3 4 5 6 
#
# 1 40.1105 10.1663 13.0234 0.0000 28.2961 0.0000
# 2 10.1663 78.5532 34.1335 0.0000 5.9130 0.0000
# 3 13.0234 34.1335 110.1274 0.0000 17.9009 0.0000
# 4 0.0000 0.0000 0.0000 35.0364 0.0000 -2.6831
# 5 28.2961 5.9130 17.9009 0.0000 40.6757 0.0000
# 6 0.0000 0.0000 0.0000 -2.6831 0.0000 16.9901
#
#
#
# Elastic Compliance Matrix: (Units=1/GPa)
#
#
# Indices 1 2 3 4 5 6 
#
# 1 0.050213 -0.004342 0.001059 0.000000 -0.034766 0.000000
# 2 -0.004342 0.015088 -0.004628 0.000000 0.002864 0.000000
# 3 0.001059 -0.004628 0.011201 0.000000 -0.004993 0.000000
# 4 0.000000 0.000000 0.000000 0.028891 0.000000 0.004562
# 5 -0.034766 0.002864 -0.004993 0.000000 0.050550 0.000000
# 6 0.000000 0.000000 0.000000 0.004562 0.000000 0.059578
#
#
# Mechanical properties :
#
#
# Convention : Reuss Voigt Hill
#
# Bulk Modulus (GPa) = 16.48005 38.15973 27.31989
# Shear Modulus (GPa) = 19.87507 29.97166 24.92336
#
# Velocity S-wave (km/s) = 3.13423 3.84885 3.50978
# Velocity P-wave (km/s) = 4.60904 6.21388 5.47063
#
# Compressibility (1/GPa) = 0.06067943
#
# Stress axis : x y z
#
# Youngs Moduli (GPa) = 19.91507 66.27905 89.27451
#
# Poissons Ratio (x) = 0.28776 -0.09451
# Poissons Ratio (y) = 0.08646 0.41320
# Poissons Ratio (z) = -0.02108 0.30677
#
# Static dielectric constant tensor:
#      x y z
#    x 1.770950 0.000000 -0.011100 
#    y 0.000000 1.682780 0.000000 
#    z -0.011100 0.000000 1.765420 
# 
# From -- ./inp_files/16708.got.cif
#   From: 2010.05.17/outbox.cif.g08.bks.cpg/sg14_9_cif.got.tgz:16708.got - 2010.06.03 17:49:19.
