data_PCOD9250330
_publ_section_title
;
Structure prediction by ZEFSAII (Michael W. Deem and Ramdas Pophale) SiO2 
 PCOD9250330
Probable space group: P 21/C
;
_chemical_formula_sum "Si O2"
_cell_formula_units_Z 32
_cell_length_a 20.617244
_cell_length_b 8.652056
_cell_length_c 12.392049
_cell_angle_alpha 90.000000
_cell_angle_beta 135.430431
_cell_angle_gamma 90.000000
_cell_volume 1551.282211
_symmetry_space_group_name_H-M "P 21/C"
_symmetry_group_IT_number 14
_symmetry_cell_setting 'monoclinic'
loop_
_space_group_symop_operation_xyz
x,y,z
-x,1/2+y,1/2-z
-x,-y,-z
x,1/2-y,1/2+z
loop_
_atom_site_type_symbol
_atom_site_label
_atom_site_fract_x
_atom_site_fract_y
_atom_site_fract_z
Si Si1 0.068799 0.962120 0.423471
Si Si2 0.445850 0.374269 0.010925
Si Si3 0.960603 0.762572 0.458693
Si Si4 0.700623 0.091280 0.591397
Si Si5 0.739315 0.282866 0.846746
Si Si6 0.388646 0.644103 0.625435
Si Si7 0.896862 0.036822 0.770592
Si Si8 0.602390 0.962938 0.082807
O O1 0.158405 0.852461 0.526761
O O2 0.049487 0.999707 0.276269
O O3 0.988956 0.867897 0.390321
O O4 0.083820 0.119914 0.508245
O O5 0.520424 0.348757 0.194124
O O6 0.405168 0.220518 0.907387
O O7 0.500000 0.500000 0.000000
O O8 0.352389 0.437061 0.950880
O O9 0.903079 0.612871 0.354583
O O10 0.053156 0.685321 0.618584
O O11 0.738026 0.167967 0.743884
O O12 0.619604 0.203275 0.455911
O O13 0.789335 0.069874 0.622159
O O14 0.696954 0.177681 0.893480
O O15 0.671707 0.427972 0.734361
O O16 0.383929 0.508503 0.529061
O O17 0.500000 0.000000 0.000000
#
# Coordination Sequence:
#
# PCOD9250330 Si02
#       8
#     4   4   4   4   4   4   4   4
#     4  11  22  42  70  93 130 174 218 272 340 411
#     4  12  23  41  65  92 130 174 222 276 325 392
#     4  10  24  41  67  98 131 168 222 275 340 412
#     4  11  23  40  65  92 134 171 219 275 337 392
#     4  11  22  42  63  96 127 175 217 276 327 403
#     4  11  22  43  63  92 127 175 219 265 338 389
#     4  11  22  42  65  98 132 172 215 279 343 401
#     4  11  24  41  63  91 130 169 224 273 326 396
#
# _framework density 20.628095999999999
#
# number of rings (size 3 to 8) (size 9 to 14) (size 15 to 20)
#    0.000    1.000    5.000    2.250    1.750    0.000 
#    0.000    1.250    0.000    0.000    0.000    0.000 
#    0.000    0.000    0.000    0.000    0.000    0.000 
#
# Total GULP energy -178267.973099 kJ/mol
# GULP energy per Si atom -5570.874159 kJ/mol
# Density = 2.058115 g / cm^3
# Si number density = 20.628096 Si / 1000 Ang^3
#
#
#
# Elastic Constant Matrix: (Units=GPa)
#
#
# Indices 1 2 3 4 5 6 
#
# 1 81.1692 21.0080 5.6941 0.0000 -11.8560 0.0000
# 2 21.0080 58.1443 -2.8289 0.0000 -6.9971 0.0000
# 3 5.6941 -2.8289 31.6723 0.0000 -0.4225 0.0000
# 4 0.0000 0.0000 0.0000 13.2917 0.0000 -3.7057
# 5 -11.8560 -6.9971 -0.4225 0.0000 34.0649 0.0000
# 6 0.0000 0.0000 0.0000 -3.7057 0.0000 32.9718
#
#
#
# Elastic Compliance Matrix: (Units=1/GPa)
#
#
# Indices 1 2 3 4 5 6 
#
# 1 0.014364 -0.004857 -0.002963 0.000000 0.003965 0.000000
# 2 -0.004857 0.019361 0.002633 0.000000 0.002319 0.000000
# 3 -0.002963 0.002633 0.032340 0.000000 -0.000089 0.000000
# 4 0.000000 0.000000 0.000000 0.077669 0.000000 0.008729
# 5 0.003965 0.002319 -0.000089 0.000000 0.031211 0.000000
# 6 0.000000 0.000000 0.000000 0.008729 0.000000 0.031310
#
#
# Mechanical properties :
#
#
# Convention : Reuss Voigt Hill
#
# Bulk Modulus (GPa) = 17.95619 24.30357 21.12988
# Shear Modulus (GPa) = 21.25928 25.87320 23.56624
#
# Velocity S-wave (km/s) = 3.21378 3.54541 3.38366
# Velocity P-wave (km/s) = 4.74286 5.34483 5.05282
#
# Compressibility (1/GPa) = 0.05569110
#
# Stress axis : x y z
#
# Youngs Moduli (GPa) = 69.61855 51.65124 30.92137
#
# Poissons Ratio (x) = 0.25086 0.09163
# Poissons Ratio (y) = 0.33813 -0.08143
# Poissons Ratio (z) = 0.20630 -0.13602
#
# Static dielectric constant tensor:
#      x y z
#    x 1.755300 0.000000 -0.043130 
#    y 0.000000 1.724670 0.000000 
#    z -0.043130 0.000000 1.760210 
# 
# From -- ./inp_files/34975.got.cif
#   From: 2010.05.17/outbox.cif.g08.bks.cpg/sg14_18_cif.got.tgz:34975.got - 2010.06.03 17:49:19.
