data_PCOD9250774
_publ_section_title
;
Structure prediction by ZEFSAII (Michael W. Deem and Ramdas Pophale) SiO2 
 PCOD9250774
Probable space group: P 21/C
;
_chemical_formula_sum "Si O2"
_cell_formula_units_Z 32
_cell_length_a 11.850314
_cell_length_b 13.709442
_cell_length_c 8.557733
_cell_angle_alpha 90.000000
_cell_angle_beta 83.647790
_cell_angle_gamma 90.000000
_cell_volume 1381.763832
_symmetry_space_group_name_H-M "P 21/C"
_symmetry_group_IT_number 14
_symmetry_cell_setting 'monoclinic'
loop_
_space_group_symop_operation_xyz
x,y,z
-x,1/2+y,1/2-z
-x,-y,-z
x,1/2-y,1/2+z
loop_
_atom_site_type_symbol
_atom_site_label
_atom_site_fract_x
_atom_site_fract_y
_atom_site_fract_z
Si Si1 0.533392 0.568421 0.640747
Si Si2 0.325933 0.598697 0.868685
Si Si3 0.582698 0.377678 0.809002
Si Si4 0.814392 0.141911 0.138539
Si Si5 0.109271 0.827240 0.230080
Si Si6 0.321714 0.132886 0.356944
Si Si7 0.744496 0.813455 0.972535
Si Si8 0.917057 0.942364 0.131974
O O1 0.500000 0.500000 0.500000
O O2 0.420017 0.619318 0.721037
O O3 0.572571 0.493244 0.769474
O O4 0.633712 0.637383 0.569515
O O5 0.202973 0.633913 0.835912
O O6 0.318140 0.481650 0.884985
O O7 0.372871 0.638188 0.023733
O O8 0.681473 0.335857 0.684328
O O9 0.454607 0.340694 0.810235
O O10 0.894132 0.213303 0.227380
O O11 0.834276 0.030680 0.191739
O O12 0.843900 0.156457 0.952567
O O13 0.992869 0.888077 0.249396
O O14 0.269632 0.198560 0.500838
O O15 0.256523 0.157817 0.207531
O O16 0.850011 0.860438 0.045996
O O17 0.000000 0.000000 0.000000
#
# Coordination Sequence:
#
# PCOD9250774 Si02
#       8
#     4   4   4   4   4   4   4   4
#     4  11  20  40  66  91 135 179 218 273 344 394
#     4  11  24  43  65 100 140 177 227 280 333 407
#     4  11  23  41  67  97 138 178 220 278 337 409
#     4  11  23  44  69  99 129 177 230 275 341 400
#     4  11  25  43  71  98 131 178 229 288 328 398
#     4  11  26  39  63 100 140 175 219 270 341 407
#     4  12  25  41  66 100 134 184 218 277 337 408
#     4  10  24  46  71  92 133 178 229 280 337 396
#
# _framework density 23.158805999999998
#
# number of rings (size 3 to 8) (size 9 to 14) (size 15 to 20)
#    0.000    1.000    3.750    4.500    5.250    3.000 
#    0.000    2.500    0.000    0.000    0.000    0.000 
#    0.000    0.000    0.000    0.000    0.000    0.000 
#
# Total GULP energy -179131.593546 kJ/mol
# GULP energy per Si atom -5597.862298 kJ/mol
# Density = 2.310610 g / cm^3
# Si number density = 23.158806 Si / 1000 Ang^3
#
#
#
# Elastic Constant Matrix: (Units=GPa)
#
#
# Indices 1 2 3 4 5 6 
#
# 1 88.1947 13.8891 8.4074 0.0000 25.3606 0.0000
# 2 13.8891 58.0804 -10.5211 0.0000 2.3273 0.0000
# 3 8.4074 -10.5211 65.4486 0.0000 19.8724 0.0000
# 4 0.0000 0.0000 0.0000 26.4834 0.0000 2.0469
# 5 25.3606 2.3273 19.8724 0.0000 36.0816 0.0000
# 6 0.0000 0.0000 0.0000 2.0469 0.0000 33.0627
#
#
#
# Elastic Compliance Matrix: (Units=1/GPa)
#
#
# Indices 1 2 3 4 5 6 
#
# 1 0.014793 -0.002952 0.000870 0.000000 -0.010687 0.000000
# 2 -0.002952 0.018648 0.003737 0.000000 -0.001186 0.000000
# 3 0.000870 0.003737 0.019245 0.000000 -0.011452 0.000000
# 4 0.000000 0.000000 0.000000 0.037941 0.000000 -0.002349
# 5 -0.010687 -0.001186 -0.011452 0.000000 0.041610 0.000000
# 6 0.000000 0.000000 0.000000 -0.002349 0.000000 0.030391
#
#
# Mechanical properties :
#
#
# Convention : Reuss Voigt Hill
#
# Bulk Modulus (GPa) = 17.85804 26.14162 21.99983
# Shear Modulus (GPa) = 28.09237 32.45542 30.27390
#
# Velocity S-wave (km/s) = 3.48664 3.74763 3.61949
# Velocity P-wave (km/s) = 4.89252 5.48076 5.19497
#
# Compressibility (1/GPa) = 0.05599719
#
# Stress axis : x y z
#
# Youngs Moduli (GPa) = 67.59749 53.62529 51.96038
#
# Poissons Ratio (x) = 0.15829 -0.04520
# Poissons Ratio (y) = 0.19954 -0.19418
# Poissons Ratio (z) = -0.05881 -0.20040
#
# Static dielectric constant tensor:
#      x y z
#    x 1.879790 0.000000 -0.039330 
#    y 0.000000 1.946390 0.000000 
#    z -0.039330 0.000000 1.844200 
# 
# From -- ./inp_files/13107.got.cif
#   From: 2010.05.17/outbox.cif.g08.bks.cpg/sg14_7_cif.got.tgz:13107.got - 2010.06.03 17:49:19.
