data_PCOD9250314
_publ_section_title
;
Structure prediction by ZEFSAII (Michael W. Deem and Ramdas Pophale) SiO2 
 PCOD9250314
Probable space group: P 21/C
;
_chemical_formula_sum "Si O2"
_cell_formula_units_Z 28
_cell_length_a 7.400298
_cell_length_b 9.178834
_cell_length_c 21.794238
_cell_angle_alpha 90.000000
_cell_angle_beta 136.723424
_cell_angle_gamma 90.000000
_cell_volume 1014.843389
_symmetry_space_group_name_H-M "P 21/C"
_symmetry_group_IT_number 14
_symmetry_cell_setting 'monoclinic'
loop_
_space_group_symop_operation_xyz
x,y,z
-x,1/2+y,1/2-z
-x,-y,-z
x,1/2-y,1/2+z
loop_
_atom_site_type_symbol
_atom_site_label
_atom_site_fract_x
_atom_site_fract_y
_atom_site_fract_z
Si Si1 0.803390 0.098459 0.019044
Si Si2 0.315212 0.247986 0.869862
Si Si3 0.995779 0.326657 0.147490
Si Si4 0.900355 0.881042 0.562473
Si Si5 0.594950 0.277938 0.259131
Si Si6 0.110979 0.979354 0.252528
Si Si7 0.670378 0.831972 0.919068
O O1 0.848926 0.177099 0.094853
O O2 0.094822 0.102240 0.063869
O O3 0.614596 0.204917 0.933313
O O4 0.678130 0.940236 0.979039
O O5 0.173622 0.356498 0.787336
O O6 0.283562 0.327150 0.927006
O O7 0.162969 0.094502 0.835019
O O8 0.939942 0.447856 0.080935
O O9 0.313904 0.306199 0.221356
O O10 0.869957 0.395784 0.177082
O O11 0.178183 0.798175 0.644851
O O12 0.762151 0.824562 0.466905
O O13 0.697277 0.428892 0.254754
O O14 0.560832 0.181486 0.187782
#
# Coordination Sequence:
#
# PCOD9250314 Si02
#       7
#     4   4   4   4   4   4   4
#     4  10  24  41  65  96 128 172 221 262 342 390
#     4  10  24  41  64  96 129 171 219 270 333 391
#     4  10  24  41  66  95 127 173 222 269 331 392
#     4  10  24  42  65  97 131 169 222 272 326 393
#     4  10  24  42  66  98 131 174 223 268 334 393
#     4  10  24  41  63  97 130 171 217 274 327 392
#     4  10  24  42  66  95 135 171 216 275 326 393
#
# _framework density 27.590463
#
# number of rings (size 3 to 8) (size 9 to 14) (size 15 to 20)
#    0.000    2.000    0.000    0.000   14.000    7.429 
#    0.000    0.000    0.000    0.000    0.000    0.000 
#    0.000    0.000    0.000    0.000    0.000    0.000 
#
# Total GULP energy -156739.126283 kJ/mol
# GULP energy per Si atom -5597.825939 kJ/mol
# Density = 2.752767 g / cm^3
# Si number density = 27.590463 Si / 1000 Ang^3
#
#
#
# Elastic Constant Matrix: (Units=GPa)
#
#
# Indices 1 2 3 4 5 6 
#
# 1 98.0921 39.8946 30.4645 0.0000 2.2641 0.0000
# 2 39.8946 124.8305 15.9254 0.0000 5.8336 0.0000
# 3 30.4645 15.9254 97.5971 0.0000 5.6584 0.0000
# 4 0.0000 0.0000 0.0000 45.7102 0.0000 -15.5168
# 5 2.2641 5.8336 5.6584 0.0000 45.4426 0.0000
# 6 0.0000 0.0000 0.0000 -15.5168 0.0000 29.2032
#
#
#
# Elastic Compliance Matrix: (Units=1/GPa)
#
#
# Indices 1 2 3 4 5 6 
#
# 1 0.012725 -0.003646 -0.003392 0.000000 0.000256 0.000000
# 2 -0.003646 0.009262 -0.000317 0.000000 -0.000968 0.000000
# 3 -0.003392 -0.000317 0.011427 0.000000 -0.001213 0.000000
# 4 0.000000 0.000000 0.000000 0.026691 0.000000 0.014182
# 5 0.000256 -0.000968 -0.001213 0.000000 0.022268 0.000000
# 6 0.000000 0.000000 0.000000 0.014182 0.000000 0.041778
#
#
# Mechanical properties :
#
#
# Convention : Reuss Voigt Hill
#
# Bulk Modulus (GPa) = 53.46552 54.78761 54.12657
# Shear Modulus (GPa) = 34.45989 39.68687 37.07338
#
# Velocity S-wave (km/s) = 3.53792 3.79677 3.66963
# Velocity P-wave (km/s) = 6.00912 6.25470 6.13314
#
# Compressibility (1/GPa) = 0.01870364
#
# Stress axis : x y z
#
# Youngs Moduli (GPa) = 78.58634 107.97078 87.51159
#
# Poissons Ratio (x) = 0.39366 0.29683
# Poissons Ratio (y) = 0.28652 0.02775
# Poissons Ratio (z) = 0.26656 0.03424
#
# Static dielectric constant tensor:
#      x y z
#    x 2.095970 0.000000 -0.030200 
#    y 0.000000 2.157740 0.000000 
#    z -0.030200 0.000000 2.188510 
# 
# From -- ./inp_files/76515.got.cif
#   From: 2010.05.17/outbox.cif.g08.bks.cpg/sg14_39_cif.got.tgz:76515.got - 2010.06.03 17:49:19.
