data_PCOD9250249
_publ_section_title
;
Structure prediction by ZEFSAII (Michael W. Deem and Ramdas Pophale) SiO2 
 PCOD9250249
Probable space group: P 21/C
;
_chemical_formula_sum "Si O2"
_cell_formula_units_Z 24
_cell_length_a 5.761386
_cell_length_b 23.818231
_cell_length_c 7.409620
_cell_angle_alpha 90.000000
_cell_angle_beta 108.770669
_cell_angle_gamma 90.000000
_cell_volume 962.713659
_symmetry_space_group_name_H-M "P 21/C"
_symmetry_group_IT_number 14
_symmetry_cell_setting 'monoclinic'
loop_
_space_group_symop_operation_xyz
x,y,z
-x,1/2+y,1/2-z
-x,-y,-z
x,1/2-y,1/2+z
loop_
_atom_site_type_symbol
_atom_site_label
_atom_site_fract_x
_atom_site_fract_y
_atom_site_fract_z
Si Si1 0.011409 0.875759 0.013278
Si Si2 0.342501 0.715033 0.715897
Si Si3 0.709943 0.481705 0.408665
Si Si4 0.751059 0.864586 0.312026
Si Si5 0.621899 0.922292 0.636102
Si Si6 0.749088 0.332113 0.915067
O O1 0.106957 0.812156 0.057663
O O2 0.874172 0.891111 0.165798
O O3 0.253906 0.914826 0.069699
O O4 0.836195 0.889765 0.803066
O O5 0.330838 0.781400 0.730557
O O6 0.582621 0.685896 0.696386
O O7 0.347781 0.689009 0.916113
O O8 0.500000 0.500000 0.500000
O O9 0.640252 0.514123 0.207819
O O10 0.000000 0.500000 0.500000
O O11 0.964289 0.836065 0.484171
O O12 0.650586 0.909922 0.430985
O O13 0.373348 0.892313 0.643851
#
# Coordination Sequence:
#
# PCOD9250249 Si02
#       6
#     4   4   4   4   4   4
#     4  10  24  42  69  95 133 178 225 286 336 408
#     4  10  24  39  63  96 130 177 224 281 338 410
#     4  10  24  43  71 107 132 181 237 279 345 414
#     4  10  24  43  60 100 134 171 236 270 350 406
#     4  10  24  42  69  95 133 178 225 286 336 408
#     4  10  24  39  63  96 130 177 224 281 338 410
#
# _framework density 24.929532999999999
#
# number of rings (size 3 to 8) (size 9 to 14) (size 15 to 20)
#    0.000    2.000    0.000    0.000   16.333    3.333 
#    0.000    7.500    0.000    0.000    0.000    0.000 
#    0.000    0.000    0.000    0.000    0.000    0.000 
#
# Total GULP energy -134055.155057 kJ/mol
# GULP energy per Si atom -5585.631461 kJ/mol
# Density = 2.487279 g / cm^3
# Si number density = 24.929533 Si / 1000 Ang^3
#
#
#
# Elastic Constant Matrix: (Units=GPa)
#
#
# Indices 1 2 3 4 5 6 
#
# 1 96.9127 19.3594 32.8056 0.0000 -2.6713 0.0000
# 2 19.3594 58.0422 -2.8466 0.0000 0.7415 0.0000
# 3 32.8056 -2.8466 102.7095 0.0000 -2.4917 0.0000
# 4 0.0000 0.0000 0.0000 39.6868 0.0000 2.8501
# 5 -2.6713 0.7415 -2.4917 0.0000 51.5192 0.0000
# 6 0.0000 0.0000 0.0000 2.8501 0.0000 -0.1460
#
#
#
# Elastic Compliance Matrix: (Units=1/GPa)
#
#
# Indices 1 2 3 4 5 6 
#
# 1 0.012617 -0.004418 -0.004140 0.000000 0.000518 0.000000
# 2 -0.004418 0.018802 0.001922 0.000000 -0.000407 0.000000
# 3 -0.004140 0.001922 0.011119 0.000000 0.000295 0.000000
# 4 0.000000 0.000000 0.000000 0.010490 0.000000 0.204801
# 5 0.000518 -0.000407 0.000295 0.000000 0.019457 0.000000
# 6 0.000000 0.000000 0.000000 0.204801 0.000000 -2.851819
#
#
# Mechanical properties :
#
#
# Convention : Reuss Voigt Hill
#
# Bulk Modulus (GPa) = 34.16820 39.58901 36.87861
# Shear Modulus (GPa) = -1.81402 32.10173 15.14385
#
# Velocity S-wave (km/s) = -0.85395 3.59234 2.46736
# Velocity P-wave (km/s) = 3.57258 5.75512 4.78982
#
# Compressibility (1/GPa) = 0.02926698
#
# Stress axis : x y z
#
# Youngs Moduli (GPa) = 79.26047 53.18633 89.93733
#
# Poissons Ratio (x) = 0.23497 0.37231
# Poissons Ratio (y) = 0.35016 -0.17288
# Poissons Ratio (z) = 0.32811 -0.10224
#
# Static dielectric constant tensor:
#      x y z
#    x 2.066300 0.000000 -0.022530 
#    y 0.000000 2.080310 0.000000 
#    z -0.022530 0.000000 1.972220 
# 
# From -- ./inp_files/6311.got.cif
#   From: 2010.05.17/outbox.cif.g08.bks.cpg/sg14_4_cif.got.tgz:6311.got - 2010.06.03 17:49:19.
