data_PCOD9250482
_publ_section_title
;
Structure prediction by ZEFSAII (Michael W. Deem and Ramdas Pophale) SiO2 
 PCOD9250482
Probable space group: P 21/C
;
_chemical_formula_sum "Si O2"
_cell_formula_units_Z 28
_cell_length_a 16.048978
_cell_length_b 15.459432
_cell_length_c 13.488578
_cell_angle_alpha 90.000000
_cell_angle_beta 156.612727
_cell_angle_gamma 90.000000
_cell_volume 1328.422884
_symmetry_space_group_name_H-M "P 21/C"
_symmetry_group_IT_number 14
_symmetry_cell_setting 'monoclinic'
loop_
_space_group_symop_operation_xyz
x,y,z
-x,1/2+y,1/2-z
-x,-y,-z
x,1/2-y,1/2+z
loop_
_atom_site_type_symbol
_atom_site_label
_atom_site_fract_x
_atom_site_fract_y
_atom_site_fract_z
Si Si1 0.959537 0.006656 0.791737
Si Si2 0.153958 0.871043 0.147004
Si Si3 0.265848 0.591616 0.306960
Si Si4 0.581168 0.039314 0.244128
Si Si5 0.261651 0.359022 0.516101
Si Si6 0.103860 0.304625 0.139415
Si Si7 0.531650 0.755095 0.590695
O O1 0.875040 0.065998 0.790541
O O2 0.763749 0.990825 0.504544
O O3 0.136928 0.061871 0.929162
O O4 0.066782 0.922969 0.957377
O O5 0.391304 0.835316 0.399184
O O6 0.016177 0.784918 0.009857
O O7 0.319004 0.573185 0.249411
O O8 0.377690 0.517210 0.491260
O O9 0.379116 0.680394 0.462751
O O10 0.019916 0.614441 0.044262
O O11 0.481617 0.111503 0.207050
O O12 0.120663 0.321532 0.274210
O O13 0.314123 0.289642 0.657008
O O14 0.332364 0.290714 0.344960
#
# Coordination Sequence:
#
# PCOD9250482 Si02
#       7
#     4   4   4   4   4   4   4
#     4  11  23  43  65  97 131 175 225 273 328 404
#     4  10  24  43  66  92 134 173 220 276 334 389
#     4  10  24  43  66  92 134 173 220 276 334 389
#     4  11  23  43  65  97 131 175 225 273 328 404
#     4  12  24  40  66  96 132 176 220 272 340 388
#     4  11  23  43  67  97 131 173 219 279 330 401
#     4  11  23  43  67  97 131 173 219 279 330 401
#
# _framework density 21.077625000000001
#
# number of rings (size 3 to 8) (size 9 to 14) (size 15 to 20)
#    0.000    1.143    5.714    0.000    2.000    3.429 
#    0.000    0.000    0.000    0.000    0.000    0.000 
#    0.000    0.000    0.000    0.000    0.000    0.000 
#
# Total GULP energy -156437.776277 kJ/mol
# GULP energy per Si atom -5587.063438 kJ/mol
# Density = 2.102965 g / cm^3
# Si number density = 21.077625 Si / 1000 Ang^3
#
#
#
# Elastic Constant Matrix: (Units=GPa)
#
#
# Indices 1 2 3 4 5 6 
#
# 1 57.4845 1.4445 10.5982 0.0000 -1.1372 0.0000
# 2 1.4445 36.4690 3.2420 0.0000 -1.6218 0.0000
# 3 10.5982 3.2420 88.1639 0.0000 -11.5865 0.0000
# 4 0.0000 0.0000 0.0000 41.3389 0.0000 -3.4504
# 5 -1.1372 -1.6218 -11.5865 0.0000 32.6556 0.0000
# 6 0.0000 0.0000 0.0000 -3.4504 0.0000 24.8031
#
#
#
# Elastic Compliance Matrix: (Units=1/GPa)
#
#
# Indices 1 2 3 4 5 6 
#
# 1 0.017801 -0.000522 -0.002142 0.000000 -0.000166 0.000000
# 2 -0.000522 0.027561 -0.000811 0.000000 0.001063 0.000000
# 3 -0.002142 -0.000811 0.012183 0.000000 0.004208 0.000000
# 4 0.000000 0.000000 0.000000 0.024474 0.000000 0.003405
# 5 -0.000166 0.001063 0.004208 0.000000 0.032163 0.000000
# 6 0.000000 0.000000 0.000000 0.003405 0.000000 0.040791
#
#
# Mechanical properties :
#
#
# Convention : Reuss Voigt Hill
#
# Bulk Modulus (GPa) = 19.76548 23.63185 21.69867
# Shear Modulus (GPa) = 27.96609 30.88169 29.42389
#
# Velocity S-wave (km/s) = 3.64650 3.83187 3.74033
# Velocity P-wave (km/s) = 5.20837 5.55102 5.38242
#
# Compressibility (1/GPa) = 0.05059325
#
# Stress axis : x y z
#
# Youngs Moduli (GPa) = 56.17714 36.28368 82.08258
#
# Poissons Ratio (x) = 0.01894 0.17586
# Poissons Ratio (y) = 0.02932 0.06657
# Poissons Ratio (z) = 0.12036 0.02943
#
# Static dielectric constant tensor:
#      x y z
#    x 1.744960 0.000000 0.028050 
#    y 0.000000 1.738540 0.000000 
#    z 0.028050 0.000000 1.795460 
# 
# From -- ./inp_files/49252.got.cif
#   From: 2010.05.17/outbox.cif.g08.bks.cpg/sg14_25_cif.got.tgz:49252.got - 2010.06.03 17:49:19.
