data_PCOD9250967
_publ_section_title
;
Structure prediction by ZEFSAII (Michael W. Deem and Ramdas Pophale) SiO2 
 PCOD9250967
Probable space group: P 21/C
;
_chemical_formula_sum "Si O2"
_cell_formula_units_Z 32
_cell_length_a 27.124898
_cell_length_b 9.159336
_cell_length_c 10.187706
_cell_angle_alpha 90.000000
_cell_angle_beta 150.661429
_cell_angle_gamma 90.000000
_cell_volume 1240.159301
_symmetry_space_group_name_H-M "P 21/C"
_symmetry_group_IT_number 14
_symmetry_cell_setting 'monoclinic'
loop_
_space_group_symop_operation_xyz
x,y,z
-x,1/2+y,1/2-z
-x,-y,-z
x,1/2-y,1/2+z
loop_
_atom_site_type_symbol
_atom_site_label
_atom_site_fract_x
_atom_site_fract_y
_atom_site_fract_z
Si Si1 0.373100 0.970011 0.649126
Si Si2 0.171269 0.603209 0.538381
Si Si3 0.463642 0.073612 0.622354
Si Si4 0.987797 0.627987 0.275620
Si Si5 0.308311 0.180539 0.718317
Si Si6 0.193770 0.572825 0.107887
Si Si7 0.900470 0.659309 0.788323
Si Si8 0.634735 0.357414 0.318140
O O1 0.374580 0.815367 0.727124
O O2 0.467715 0.999190 0.774073
O O3 0.349062 0.107582 0.681773
O O4 0.279148 0.957347 0.330026
O O5 0.188684 0.768083 0.531752
O O6 0.112285 0.502676 0.299300
O O7 0.104367 0.601693 0.516966
O O8 0.395467 0.218446 0.480029
O O9 0.567251 0.115337 0.792379
O O10 0.410283 0.959842 0.398413
O O11 0.961949 0.745593 0.325520
O O12 0.919471 0.487008 0.147181
O O13 0.946493 0.676910 0.038012
O O14 0.212770 0.280927 0.466839
O O15 0.260582 0.051151 0.694262
O O16 0.251323 0.601242 0.379142
#
# Coordination Sequence:
#
# PCOD9250967 Si02
#       8
#     4   4   4   4   4   4   4   4
#     4  11  26  44  70 101 140 176 232 288 346 416
#     4  11  23  43  68 100 137 181 231 288 350 414
#     4  11  25  46  71 102 137 183 231 282 349 422
#     4  11  24  43  70 103 139 188 232 292 352 429
#     4  11  25  41  68  98 136 183 227 285 349 410
#     4  10  25  43  67 101 139 178 233 288 348 414
#     4  11  23  43  68  99 140 184 235 288 355 418
#     4  10  26  45  71  99 138 179 230 287 348 412
#
# _framework density 25.803135999999999
#
# number of rings (size 3 to 8) (size 9 to 14) (size 15 to 20)
#    0.000    1.250    1.250    2.625    8.750    3.500 
#    0.000    3.125    0.000    0.000    0.000    0.000 
#    0.000    0.000    0.000    0.000    0.000    0.000 
#
# Total GULP energy -179561.563607 kJ/mol
# GULP energy per Si atom -5611.298863 kJ/mol
# Density = 2.574441 g / cm^3
# Si number density = 25.803136 Si / 1000 Ang^3
#
#
#
# Elastic Constant Matrix: (Units=GPa)
#
#
# Indices 1 2 3 4 5 6 
#
# 1 119.4632 41.8262 1.8320 0.0000 15.4057 0.0000
# 2 41.8262 143.4128 23.9939 0.0000 -8.3788 0.0000
# 3 1.8320 23.9939 64.1579 0.0000 14.2471 0.0000
# 4 0.0000 0.0000 0.0000 33.0486 0.0000 9.6391
# 5 15.4057 -8.3788 14.2471 0.0000 38.4995 0.0000
# 6 0.0000 0.0000 0.0000 9.6391 0.0000 20.0786
#
#
#
# Elastic Compliance Matrix: (Units=1/GPa)
#
#
# Indices 1 2 3 4 5 6 
#
# 1 0.010420 -0.003790 0.002428 0.000000 -0.005893 0.000000
# 2 -0.003790 0.009123 -0.004447 0.000000 0.005147 0.000000
# 3 0.002428 -0.004447 0.019188 0.000000 -0.009040 0.000000
# 4 0.000000 0.000000 0.000000 0.035185 0.000000 -0.016891
# 5 -0.005893 0.005147 -0.009040 0.000000 0.032798 0.000000
# 6 0.000000 0.000000 0.000000 -0.016891 0.000000 0.057913
#
#
# Mechanical properties :
#
#
# Convention : Reuss Voigt Hill
#
# Bulk Modulus (GPa) = 36.88000 51.37090 44.12545
# Shear Modulus (GPa) = 26.98602 35.61747 31.30174
#
# Velocity S-wave (km/s) = 3.23746 3.71934 3.48673
# Velocity P-wave (km/s) = 5.31965 6.19651 5.77475
#
# Compressibility (1/GPa) = 0.02711497
#
# Stress axis : x y z
#
# Youngs Moduli (GPa) = 95.96625 109.61543 52.11694
#
# Poissons Ratio (x) = 0.41541 -0.12656
# Poissons Ratio (y) = 0.36368 0.23174
# Poissons Ratio (z) = -0.23304 0.48742
#
# Static dielectric constant tensor:
#      x y z
#    x 2.020790 0.000000 0.029990 
#    y 0.000000 1.975360 0.000000 
#    z 0.029990 0.000000 2.023540 
# 
# From -- ./inp_files/36497.got.cif
#   From: 2010.05.17/outbox.cif.g08.bks.cpg/sg14_19_cif.got.tgz:36497.got - 2010.06.03 17:49:19.
