data_PCOD9250936
_publ_section_title
;
Structure prediction by ZEFSAII (Michael W. Deem and Ramdas Pophale) SiO2 
 PCOD9250936
Probable space group: P 21/C
;
_chemical_formula_sum "Si O2"
_cell_formula_units_Z 24
_cell_length_a 14.766172
_cell_length_b 9.860872
_cell_length_c 13.317420
_cell_angle_alpha 90.000000
_cell_angle_beta 149.275681
_cell_angle_gamma 90.000000
_cell_volume 990.708530
_symmetry_space_group_name_H-M "P 21/C"
_symmetry_group_IT_number 14
_symmetry_cell_setting 'monoclinic'
loop_
_space_group_symop_operation_xyz
x,y,z
-x,1/2+y,1/2-z
-x,-y,-z
x,1/2-y,1/2+z
loop_
_atom_site_type_symbol
_atom_site_label
_atom_site_fract_x
_atom_site_fract_y
_atom_site_fract_z
Si Si1 0.846517 0.583834 0.569710
Si Si2 0.782378 0.495180 0.014339
Si Si3 0.653181 0.401994 0.684690
Si Si4 0.645205 0.728236 0.017674
Si Si5 0.153582 0.711906 0.771869
Si Si6 0.704052 0.978364 0.726567
O O1 0.739588 0.640997 0.560766
O O2 0.953390 0.709478 0.619899
O O3 0.729446 0.525227 0.369132
O O4 0.010782 0.489116 0.757737
O O5 0.664075 0.612053 0.950945
O O6 0.737474 0.352713 0.030364
O O7 0.758136 0.473780 0.874101
O O8 0.548968 0.273911 0.633898
O O9 0.743794 0.835623 0.708372
O O10 0.770411 0.344812 0.705884
O O11 0.500000 0.000000 0.000000
O O12 0.174549 0.592714 0.708523
O O13 0.500000 0.000000 0.500000
#
# Coordination Sequence:
#
# PCOD9250936 Si02
#       6
#     4   4   4   4   4   4
#     4  10  25  40  72 103 135 179 229 284 348 409
#     4   9  26  44  69 101 136 184 229 274 357 401
#     4  12  27  43  71 104 141 184 234 287 346 403
#     4  11  26  43  70  99 138 177 232 285 346 411
#     4   9  23  46  66  98 139 180 230 280 340 418
#     4  11  22  44  73  98 131 184 235 276 344 419
#
# _framework density 24.225086000000001
#
# number of rings (size 3 to 8) (size 9 to 14) (size 15 to 20)
#    1.000    0.667    1.667    0.500   11.667    1.333 
#    0.000    1.667    0.000    0.000    0.000    0.000 
#    0.000    0.000    0.000    0.000    0.000    0.000 
#
# Total GULP energy -134141.781093 kJ/mol
# GULP energy per Si atom -5589.240879 kJ/mol
# Density = 2.416995 g / cm^3
# Si number density = 24.225086 Si / 1000 Ang^3
#
#
#
# Elastic Constant Matrix: (Units=GPa)
#
#
# Indices 1 2 3 4 5 6 
#
# 1 87.1421 23.9815 31.9628 0.0000 12.4295 0.0000
# 2 23.9815 57.1534 26.2213 0.0000 -16.7979 0.0000
# 3 31.9628 26.2213 102.0603 0.0000 -22.5148 0.0000
# 4 0.0000 0.0000 0.0000 20.0113 0.0000 1.2259
# 5 12.4295 -16.7979 -22.5148 0.0000 42.3804 0.0000
# 6 0.0000 0.0000 0.0000 1.2259 0.0000 54.1767
#
#
#
# Elastic Compliance Matrix: (Units=1/GPa)
#
#
# Indices 1 2 3 4 5 6 
#
# 1 0.017487 -0.007971 -0.005955 0.000000 -0.011451 0.000000
# 2 -0.007971 0.024831 -0.001355 0.000000 0.011460 0.000000
# 3 -0.005955 -0.001355 0.013908 0.000000 0.008598 0.000000
# 4 0.000000 0.000000 0.000000 0.050041 0.000000 -0.001132
# 5 -0.011451 0.011460 0.008598 0.000000 0.036064 0.000000
# 6 0.000000 0.000000 0.000000 -0.001132 0.000000 0.018484
#
#
# Mechanical properties :
#
#
# Convention : Reuss Voigt Hill
#
# Bulk Modulus (GPa) = 38.96517 45.63188 42.29853
# Shear Modulus (GPa) = 25.00855 34.25969 29.63412
#
# Velocity S-wave (km/s) = 3.21649 3.76470 3.50134
# Velocity P-wave (km/s) = 5.46937 6.14612 5.81759
#
# Compressibility (1/GPa) = 0.02566394
#
# Stress axis : x y z
#
# Youngs Moduli (GPa) = 57.18656 40.27159 71.90164
#
# Poissons Ratio (x) = 0.32101 0.42815
# Poissons Ratio (y) = 0.45584 0.09744
# Poissons Ratio (z) = 0.34053 0.05458
#
# Static dielectric constant tensor:
#      x y z
#    x 1.913670 0.000000 0.021880 
#    y 0.000000 2.033520 0.000000 
#    z 0.021880 0.000000 1.896100 
# 
# From -- ./inp_files/47194.got.cif
#   From: 2010.05.17/outbox.cif.g08.bks.cpg/sg14_24_cif.got.tgz:47194.got - 2010.06.03 17:49:19.
