data_PCOD9250548
_publ_section_title
;
Structure prediction by ZEFSAII (Michael W. Deem and Ramdas Pophale) SiO2 
 PCOD9250548
Probable space group: P 21/C
;
_chemical_formula_sum "Si O2"
_cell_formula_units_Z 12
_cell_length_a 6.514586
_cell_length_b 7.047345
_cell_length_c 10.060708
_cell_angle_alpha 90.000000
_cell_angle_beta 107.863662
_cell_angle_gamma 90.000000
_cell_volume 439.624255
_symmetry_space_group_name_H-M "P 21/C"
_symmetry_group_IT_number 14
_symmetry_cell_setting 'monoclinic'
loop_
_space_group_symop_operation_xyz
x,y,z
-x,1/2+y,1/2-z
-x,-y,-z
x,1/2-y,1/2+z
loop_
_atom_site_type_symbol
_atom_site_label
_atom_site_fract_x
_atom_site_fract_y
_atom_site_fract_z
Si Si1 0.759915 0.063417 0.494143
Si Si2 0.163585 0.875586 0.192448
Si Si3 0.683421 0.858825 0.982851
O O1 0.714556 0.215569 0.370341
O O2 0.798906 0.151901 0.646262
O O3 0.367998 0.135473 0.524539
O O4 0.000000 0.000000 0.500000
O O5 0.907932 0.878183 0.109431
O O6 0.255831 0.072495 0.153359
O O7 0.500000 0.000000 0.000000
#
# Coordination Sequence:
#
# PCOD9250548 Si02
#       3
#     4   4   4
#     4  10  24  43  80 107 152 199 250 311 386 452
#     4  10  24  46  73 111 148 197 248 314 389 450
#     4  10  24  45  72 109 148 197 253 307 376 456
#
# _framework density 27.296039
#
# number of rings (size 3 to 8) (size 9 to 14) (size 15 to 20)
#    0.000    2.000    0.000    0.000   28.000    1.333 
#    6.000    0.000    0.000    0.000    0.000    0.000 
#    0.000    0.000    0.000    0.000    0.000    0.000 
#
# Total GULP energy -67326.327601 kJ/mol
# GULP energy per Si atom -5610.527300 kJ/mol
# Density = 2.723391 g / cm^3
# Si number density = 27.296039 Si / 1000 Ang^3
#
#
#
# Elastic Constant Matrix: (Units=GPa)
#
#
# Indices 1 2 3 4 5 6 
#
# 1 138.5327 62.8301 70.6678 0.0000 18.9380 0.0000
# 2 62.8301 238.7253 81.7165 0.0000 -26.2365 0.0000
# 3 70.6678 81.7165 196.2547 0.0000 -42.4334 0.0000
# 4 0.0000 0.0000 0.0000 41.9139 0.0000 -18.4491
# 5 18.9380 -26.2365 -42.4334 0.0000 48.6085 0.0000
# 6 0.0000 0.0000 0.0000 -18.4491 0.0000 80.2193
#
#
#
# Elastic Compliance Matrix: (Units=1/GPa)
#
#
# Indices 1 2 3 4 5 6 
#
# 1 0.013303 -0.002678 -0.006296 0.000000 -0.012125 0.000000
# 2 -0.002678 0.005469 -0.000553 0.000000 0.003512 0.000000
# 3 -0.006296 -0.000553 0.009934 0.000000 0.010826 0.000000
# 4 0.000000 0.000000 0.000000 0.026546 0.000000 0.006105
# 5 -0.012125 0.003512 0.010826 0.000000 0.036643 0.000000
# 6 0.000000 0.000000 0.000000 0.006105 0.000000 0.013870
#
#
# Mechanical properties :
#
#
# Convention : Reuss Voigt Hill
#
# Bulk Modulus (GPa) = 103.63340 111.54906 107.59123
# Shear Modulus (GPa) = 39.05093 58.03489 48.54291
#
# Velocity S-wave (km/s) = 3.78649 4.61600 4.22167
# Velocity P-wave (km/s) = 7.56079 8.32857 7.95395
#
# Compressibility (1/GPa) = 0.00964940
#
# Stress axis : x y z
#
# Youngs Moduli (GPa) = 75.17244 182.83833 100.66524
#
# Poissons Ratio (x) = 0.48972 0.63383
# Poissons Ratio (y) = 0.20134 0.05571
# Poissons Ratio (z) = 0.47332 0.10118
#
# Static dielectric constant tensor:
#      x y z
#    x 2.240820 0.000000 -0.026440 
#    y 0.000000 2.215780 0.000000 
#    z -0.026440 0.000000 2.038100 
# 
# From -- ./inp_files/20155.got.cif
#   From: 2010.05.17/outbox.cif.g08.bks.cpg/sg14_11_cif.got.tgz:20155.got - 2010.06.03 17:49:19.
