data_PCOD9250063
_publ_section_title
;
Structure prediction by ZEFSAII (Michael W. Deem and Ramdas Pophale) SiO2 
 PCOD9250063
Probable space group: P 21/C
;
_chemical_formula_sum "Si O2"
_cell_formula_units_Z 28
_cell_length_a 9.781502
_cell_length_b 11.669322
_cell_length_c 14.336704
_cell_angle_alpha 90.000000
_cell_angle_beta 123.083889
_cell_angle_gamma 90.000000
_cell_volume 1371.128927
_symmetry_space_group_name_H-M "P 21/C"
_symmetry_group_IT_number 14
_symmetry_cell_setting 'monoclinic'
loop_
_space_group_symop_operation_xyz
x,y,z
-x,1/2+y,1/2-z
-x,-y,-z
x,1/2-y,1/2+z
loop_
_atom_site_type_symbol
_atom_site_label
_atom_site_fract_x
_atom_site_fract_y
_atom_site_fract_z
Si Si1 0.400381 0.775273 0.121233
Si Si2 0.094833 0.147013 0.465740
Si Si3 0.145536 0.611452 0.954641
Si Si4 0.013835 0.354972 0.296537
Si Si5 0.828033 0.473786 0.386157
Si Si6 0.381064 0.106133 0.941898
Si Si7 0.367386 0.200603 0.139414
O O1 0.270969 0.875753 0.095172
O O2 0.553626 0.825367 0.122253
O O3 0.471441 0.728208 0.243944
O O4 0.315810 0.676173 0.029648
O O5 0.049194 0.239648 0.369438
O O6 0.237983 0.196626 0.584737
O O7 0.943664 0.131083 0.479376
O O8 0.147850 0.025527 0.443294
O O9 0.047652 0.663681 0.830934
O O10 0.188883 0.419637 0.360584
O O11 0.879240 0.426434 0.304118
O O12 0.721383 0.588986 0.350390
O O13 0.000000 0.500000 0.500000
O O14 0.402839 0.176243 0.044868
O O15 0.500000 0.000000 0.000000
#
# Coordination Sequence:
#
# PCOD9250063 Si02
#       7
#     4   4   4   4   4   4   4
#     4  12  26  41  68 104 136 180 226 288 355 406
#     4  10  23  46  66  99 139 181 227 289 346 412
#     4  11  25  42  70 100 140 181 230 282 349 422
#     4  11  24  44  70 102 133 184 231 284 341 417
#     4  12  22  46  71  98 134 184 235 277 341 416
#     4  11  23  43  69  99 130 178 228 281 338 410
#     4  11  25  43  69  98 142 172 227 290 345 407
#
# _framework density 20.421130000000002
#
# number of rings (size 3 to 8) (size 9 to 14) (size 15 to 20)
#    0.000    0.857    5.714    0.857    4.000    8.000 
#    0.000    3.571    0.000    0.000    0.000    0.000 
#    0.000    0.000    0.000    0.000    0.000    0.000 
#
# Total GULP energy -156469.000787 kJ/mol
# GULP energy per Si atom -5588.178600 kJ/mol
# Density = 2.037465 g / cm^3
# Si number density = 20.421130 Si / 1000 Ang^3
#
#
#
# Elastic Constant Matrix: (Units=GPa)
#
#
# Indices 1 2 3 4 5 6 
#
# 1 77.9346 16.9971 -1.6758 0.0000 -8.3953 0.0000
# 2 16.9971 78.5512 25.1282 0.0000 13.0713 0.0000
# 3 -1.6758 25.1282 109.0184 0.0000 7.5431 0.0000
# 4 0.0000 0.0000 0.0000 14.6788 0.0000 2.6976
# 5 -8.3953 13.0713 7.5431 0.0000 22.4211 0.0000
# 6 0.0000 0.0000 0.0000 2.6976 0.0000 30.5588
#
#
#
# Elastic Compliance Matrix: (Units=1/GPa)
#
#
# Indices 1 2 3 4 5 6 
#
# 1 0.014758 -0.004780 0.000771 0.000000 0.008053 0.000000
# 2 -0.004780 0.016497 -0.003160 0.000000 -0.010344 0.000000
# 3 0.000771 -0.003160 0.009998 0.000000 -0.001232 0.000000
# 4 0.000000 0.000000 0.000000 0.069249 0.000000 -0.006113
# 5 0.008053 -0.010344 -0.001232 0.000000 0.054061 0.000000
# 6 0.000000 0.000000 0.000000 -0.006113 0.000000 0.033263
#
#
# Mechanical properties :
#
#
# Convention : Reuss Voigt Hill
#
# Bulk Modulus (GPa) = 37.15348 38.48925 37.82136
# Shear Modulus (GPa) = 22.61043 28.53540 25.57292
#
# Velocity S-wave (km/s) = 3.33108 3.74217 3.54259
# Velocity P-wave (km/s) = 5.74700 6.12866 5.94089
#
# Compressibility (1/GPa) = 0.02691538
#
# Stress axis : x y z
#
# Youngs Moduli (GPa) = 67.76034 60.61633 100.01676
#
# Poissons Ratio (x) = 0.28976 -0.07716
# Poissons Ratio (y) = 0.32391 0.31608
# Poissons Ratio (z) = -0.05227 0.19156
#
# Static dielectric constant tensor:
#      x y z
#    x 2.060440 0.000000 0.110200 
#    y 0.000000 1.750880 0.000000 
#    z 0.110200 0.000000 1.732880 
# 
# From -- ./inp_files/40396.got.cif
#   From: 2010.05.17/outbox.cif.g08.bks.cpg/sg14_21_cif.got.tgz:40396.got - 2010.06.03 17:49:19.
