data_PCOD9250528
_publ_section_title
;
Structure prediction by ZEFSAII (Michael W. Deem and Ramdas Pophale) SiO2 
 PCOD9250528
Probable space group: P 21/C
;
_chemical_formula_sum "Si O2"
_cell_formula_units_Z 32
_cell_length_a 17.391357
_cell_length_b 5.500894
_cell_length_c 14.395971
_cell_angle_alpha 90.000000
_cell_angle_beta 99.557562
_cell_angle_gamma 90.000000
_cell_volume 1358.116932
_symmetry_space_group_name_H-M "P 21/C"
_symmetry_group_IT_number 14
_symmetry_cell_setting 'monoclinic'
loop_
_space_group_symop_operation_xyz
x,y,z
-x,1/2+y,1/2-z
-x,-y,-z
x,1/2-y,1/2+z
loop_
_atom_site_type_symbol
_atom_site_label
_atom_site_fract_x
_atom_site_fract_y
_atom_site_fract_z
Si Si1 0.326174 0.800806 0.586924
Si Si2 0.582364 0.439259 0.559398
Si Si3 0.179974 0.551353 0.488982
Si Si4 0.307067 0.181219 0.448092
Si Si5 0.008372 0.027722 0.391350
Si Si6 0.079198 0.026666 0.141996
Si Si7 0.547677 0.207097 0.737175
Si Si8 0.830760 0.080550 0.663368
O O1 0.365124 0.637042 0.515886
O O2 0.233705 0.747688 0.557730
O O3 0.372297 0.741855 0.688843
O O4 0.345799 0.063399 0.547242
O O5 0.500000 0.500000 0.500000
O O6 0.631315 0.673593 0.602055
O O7 0.569546 0.238147 0.634087
O O8 0.236868 0.333104 0.478687
O O9 0.109544 0.480514 0.541788
O O10 0.160161 0.655309 0.382982
O O11 0.257737 0.990779 0.377570
O O12 0.966101 0.778953 0.347107
O O13 0.097730 0.044416 0.377576
O O14 0.969509 0.280207 0.353835
O O15 0.000000 0.000000 0.500000
O O16 0.150728 0.985573 0.227284
O O17 0.494525 0.449550 0.749359
#
# Coordination Sequence:
#
# PCOD9250528 Si02
#       8
#     4   4   4   4   4   4   4   4
#     4  10  24  44  67 101 136 182 234 288 355 422
#     4  11  23  45  71 100 141 183 234 291 355 418
#     4  10  24  44  67  98 141 183 232 293 354 423
#     4  10  24  43  70  98 142 190 228 298 354 424
#     4  12  25  46  73 103 142 187 238 295 352 416
#     4  12  27  44  73 106 138 193 235 296 352 422
#     4  12  27  44  73 105 137 182 233 292 350 429
#     4  11  25  44  69 101 144 181 245 287 358 424
#
# _framework density 23.562034000000001
#
# number of rings (size 3 to 8) (size 9 to 14) (size 15 to 20)
#    0.000    1.000    2.500    2.625    8.750    5.000 
#    0.000    0.000    0.000    0.000    0.000    0.000 
#    0.000    0.000    0.000    0.000    0.000    0.000 
#
# Total GULP energy -178662.122486 kJ/mol
# GULP energy per Si atom -5583.191328 kJ/mol
# Density = 2.350841 g / cm^3
# Si number density = 23.562034 Si / 1000 Ang^3
#
#
#
# Elastic Constant Matrix: (Units=GPa)
#
#
# Indices 1 2 3 4 5 6 
#
# 1 83.2331 30.9386 -12.9256 0.0000 3.8600 0.0000
# 2 30.9386 101.6405 4.3406 0.0000 5.9786 0.0000
# 3 -12.9256 4.3406 79.7284 0.0000 8.7330 0.0000
# 4 0.0000 0.0000 0.0000 15.9345 0.0000 4.3167
# 5 3.8600 5.9786 8.7330 0.0000 35.0194 0.0000
# 6 0.0000 0.0000 0.0000 4.3167 0.0000 30.2307
#
#
#
# Elastic Compliance Matrix: (Units=1/GPa)
#
#
# Indices 1 2 3 4 5 6 
#
# 1 0.014107 -0.004321 0.002685 0.000000 -0.001487 0.000000
# 2 -0.004321 0.011272 -0.001188 0.000000 -0.001152 0.000000
# 3 0.002685 -0.001188 0.013419 0.000000 -0.003440 0.000000
# 4 0.000000 0.000000 0.000000 0.065282 0.000000 -0.009322
# 5 -0.001487 -0.001152 -0.003440 0.000000 0.029774 0.000000
# 6 0.000000 0.000000 0.000000 -0.009322 0.000000 0.034410
#
#
# Mechanical properties :
#
#
# Convention : Reuss Voigt Hill
#
# Bulk Modulus (GPa) = 30.16588 34.36767 32.26678
# Shear Modulus (GPa) = 27.03244 32.38682 29.70963
#
# Velocity S-wave (km/s) = 3.39084 3.71149 3.55478
# Velocity P-wave (km/s) = 5.30669 5.74322 5.52926
#
# Compressibility (1/GPa) = 0.03315003
#
# Stress axis : x y z
#
# Youngs Moduli (GPa) = 70.88883 88.71220 74.51945
#
# Poissons Ratio (x) = 0.38334 -0.20009
# Poissons Ratio (y) = 0.30632 0.08853
# Poissons Ratio (z) = -0.19034 0.10540
#
# Static dielectric constant tensor:
#      x y z
#    x 1.849070 0.000000 0.036740 
#    y 0.000000 2.119020 0.000000 
#    z 0.036740 0.000000 1.927790 
# 
# From -- ./inp_files/48199.got.cif
#   From: 2010.05.17/outbox.cif.g08.bks.cpg/sg14_25_cif.got.tgz:48199.got - 2010.06.03 17:49:19.
