data_PCOD9250939
_publ_section_title
;
Structure prediction by ZEFSAII (Michael W. Deem and Ramdas Pophale) SiO2 
 PCOD9250939
Probable space group: P 21/C
;
_chemical_formula_sum "Si O2"
_cell_formula_units_Z 32
_cell_length_a 11.255437
_cell_length_b 14.521436
_cell_length_c 17.055655
_cell_angle_alpha 90.000000
_cell_angle_beta 146.716309
_cell_angle_gamma 90.000000
_cell_volume 1529.827529
_symmetry_space_group_name_H-M "P 21/C"
_symmetry_group_IT_number 14
_symmetry_cell_setting 'monoclinic'
loop_
_space_group_symop_operation_xyz
x,y,z
-x,1/2+y,1/2-z
-x,-y,-z
x,1/2-y,1/2+z
loop_
_atom_site_type_symbol
_atom_site_label
_atom_site_fract_x
_atom_site_fract_y
_atom_site_fract_z
Si Si1 0.138190 0.816578 0.935109
Si Si2 0.124071 0.689381 0.243538
Si Si3 0.041728 0.891391 0.198242
Si Si4 0.314046 0.619061 0.003368
Si Si5 0.211563 0.436409 0.692632
Si Si6 0.540410 0.919895 0.958636
Si Si7 0.135274 0.453533 0.005702
Si Si8 0.441879 0.964649 0.176820
O O1 0.059485 0.820485 0.800483
O O2 0.238329 0.715496 0.999048
O O3 0.950349 0.849797 0.890701
O O4 0.322476 0.890795 0.056656
O O5 0.069798 0.789562 0.178573
O O6 0.380115 0.665002 0.386314
O O7 0.997037 0.617534 0.119639
O O8 0.217523 0.886686 0.363938
O O9 0.100976 0.979561 0.179047
O O10 0.796433 0.899418 0.095254
O O11 0.204460 0.536875 0.989006
O O12 0.568224 0.600319 0.146814
O O13 0.283888 0.481594 0.650034
O O14 0.473316 0.958946 0.836667
O O15 0.500000 0.000000 0.000000
O O16 0.361833 0.418446 0.167576
O O17 0.000000 0.500000 0.000000
#
# Coordination Sequence:
#
# PCOD9250939 Si02
#       8
#     4   4   4   4   4   4   4   4
#     4  11  23  44  70  96 131 179 231 276 331 406
#     4  11  25  44  69 103 129 181 234 280 336 407
#     4  11  25  42  73 100 136 181 227 286 339 399
#     4  10  25  41  66 102 128 184 225 274 347 395
#     4  11  23  45  65  98 145 172 226 279 346 409
#     4  12  22  43  72  94 133 180 232 278 333 404
#     4  11  23  42  63  96 142 170 219 281 343 392
#     4  11  24  41  68  99 129 185 215 276 347 395
#
# _framework density 20.917390999999999
#
# number of rings (size 3 to 8) (size 9 to 14) (size 15 to 20)
#    0.000    1.000    3.750    2.250    0.000    9.000 
#    4.500    0.000    0.000    0.000    0.000    0.000 
#    0.000    0.000    0.000    0.000    0.000    0.000 
#
# Total GULP energy -178726.681682 kJ/mol
# GULP energy per Si atom -5585.208803 kJ/mol
# Density = 2.086978 g / cm^3
# Si number density = 20.917391 Si / 1000 Ang^3
#
#
#
# Elastic Constant Matrix: (Units=GPa)
#
#
# Indices 1 2 3 4 5 6 
#
# 1 68.8824 30.8524 23.3115 0.0000 20.4763 0.0000
# 2 30.8524 92.2191 66.0527 0.0000 24.4839 0.0000
# 3 23.3115 66.0527 91.8111 0.0000 7.6168 0.0000
# 4 0.0000 0.0000 0.0000 13.8734 0.0000 11.8194
# 5 20.4763 24.4839 7.6168 0.0000 31.9884 0.0000
# 6 0.0000 0.0000 0.0000 11.8194 0.0000 12.1761
#
#
#
# Elastic Compliance Matrix: (Units=1/GPa)
#
#
# Indices 1 2 3 4 5 6 
#
# 1 0.019322 -0.001656 -0.002850 0.000000 -0.010422 0.000000
# 2 -0.001656 0.030280 -0.019923 0.000000 -0.017373 0.000000
# 3 -0.002850 -0.019923 0.025027 0.000000 0.011114 0.000000
# 4 0.000000 0.000000 0.000000 0.416612 0.000000 -0.404405
# 5 -0.010422 -0.017373 0.011114 0.000000 0.048583 0.000000
# 6 0.000000 0.000000 0.000000 -0.404405 0.000000 0.474684
#
#
# Mechanical properties :
#
#
# Convention : Reuss Voigt Hill
#
# Bulk Modulus (GPa) = 38.80317 54.81620 46.80968
# Shear Modulus (GPa) = 4.66437 20.45398 12.55917
#
# Velocity S-wave (km/s) = 1.49490 3.13044 2.45300
# Velocity P-wave (km/s) = 4.64442 6.27130 5.51814
#
# Compressibility (1/GPa) = 0.02577109
#
# Stress axis : x y z
#
# Youngs Moduli (GPa) = 51.75500 33.02486 39.95665
#
# Poissons Ratio (x) = 0.05468 0.11388
# Poissons Ratio (y) = 0.08569 0.79606
# Poissons Ratio (z) = 0.14751 0.65796
#
# Static dielectric constant tensor:
#      x y z
#    x 1.751700 0.000000 0.028090 
#    y 0.000000 1.768650 0.000000 
#    z 0.028090 0.000000 1.798980 
# 
# From -- ./inp_files/58014.got.cif
#   From: 2010.05.17/outbox.cif.g08.bks.cpg/sg14_30_cif.got.tgz:58014.got - 2010.06.03 17:49:19.
