data_PCOD9250502
_publ_section_title
;
Structure prediction by ZEFSAII (Michael W. Deem and Ramdas Pophale) SiO2 
 PCOD9250502
Probable space group: P 21/C
;
_chemical_formula_sum "Si O2"
_cell_formula_units_Z 20
_cell_length_a 11.963511
_cell_length_b 13.139845
_cell_length_c 10.360894
_cell_angle_alpha 90.000000
_cell_angle_beta 144.712957
_cell_angle_gamma 90.000000
_cell_volume 940.866987
_symmetry_space_group_name_H-M "P 21/C"
_symmetry_group_IT_number 14
_symmetry_cell_setting 'monoclinic'
loop_
_space_group_symop_operation_xyz
x,y,z
-x,1/2+y,1/2-z
-x,-y,-z
x,1/2-y,1/2+z
loop_
_atom_site_type_symbol
_atom_site_label
_atom_site_fract_x
_atom_site_fract_y
_atom_site_fract_z
Si Si1 0.978540 0.587109 0.584048
Si Si2 0.656856 0.766596 0.845971
Si Si3 0.896453 0.015783 0.265744
Si Si4 0.738517 0.228263 0.137853
Si Si5 0.623193 0.847141 0.073911
O O1 0.764928 0.636730 0.386922
O O2 0.006769 0.539984 0.753394
O O3 0.000000 0.500000 0.500000
O O4 0.123411 0.680171 0.694248
O O5 0.425550 0.771153 0.612828
O O6 0.704893 0.769024 0.042388
O O7 0.707324 0.674622 0.796391
O O8 0.857399 0.132981 0.196081
O O9 0.690154 0.956501 0.087799
O O10 0.000000 0.000000 0.500000
O O11 0.602717 0.178571 0.121173
#
# Coordination Sequence:
#
# PCOD9250502 Si02
#       5
#     4   4   4   4   4
#     4  11  26  43  64  99 129 168 217 263 326 390
#     4   9  22  40  63  93 130 165 212 263 322 382
#     4  11  24  40  68  97 129 170 220 269 322 383
#     4  10  24  43  68  90 135 171 214 268 325 381
#     4   9  21  41  64  95 127 166 217 260 321 380
#
# _framework density 21.256988
#
# number of rings (size 3 to 8) (size 9 to 14) (size 15 to 20)
#    1.200    0.800    0.000    1.800    5.600    5.600 
#    0.000    0.000    0.000    0.000    0.000    0.000 
#    0.000    0.000    0.000    0.000    0.000    0.000 
#
# Total GULP energy -111340.945256 kJ/mol
# GULP energy per Si atom -5567.047263 kJ/mol
# Density = 2.120861 g / cm^3
# Si number density = 21.256988 Si / 1000 Ang^3
#
#
#
# Elastic Constant Matrix: (Units=GPa)
#
#
# Indices 1 2 3 4 5 6 
#
# 1 76.7085 44.9561 26.5404 0.0000 0.1801 0.0000
# 2 44.9561 122.1548 29.9293 0.0000 10.0444 0.0000
# 3 26.5404 29.9293 67.6492 0.0000 4.8951 0.0000
# 4 0.0000 0.0000 0.0000 23.4798 0.0000 1.4439
# 5 0.1801 10.0444 4.8951 0.0000 28.0890 0.0000
# 6 0.0000 0.0000 0.0000 1.4439 0.0000 34.2396
#
#
#
# Elastic Compliance Matrix: (Units=1/GPa)
#
#
# Indices 1 2 3 4 5 6 
#
# 1 0.018007 -0.005690 -0.004746 0.000000 0.002746 0.000000
# 2 -0.005690 0.011172 -0.002455 0.000000 -0.003531 0.000000
# 3 -0.004746 -0.002455 0.017890 0.000000 -0.002209 0.000000
# 4 0.000000 0.000000 0.000000 0.042701 0.000000 -0.001801
# 5 0.002746 -0.003531 -0.002209 0.000000 0.037231 0.000000
# 6 0.000000 0.000000 0.000000 -0.001801 0.000000 0.029282
#
#
# Mechanical properties :
#
#
# Convention : Reuss Voigt Hill
#
# Bulk Modulus (GPa) = 46.97627 52.15158 49.56392
# Shear Modulus (GPa) = 26.43268 28.16745 27.30007
#
# Velocity S-wave (km/s) = 3.53013 3.64413 3.58758
# Velocity P-wave (km/s) = 6.22599 6.50333 6.36617
#
# Compressibility (1/GPa) = 0.02128734
#
# Stress axis : x y z
#
# Youngs Moduli (GPa) = 55.53522 89.50786 55.89702
#
# Poissons Ratio (x) = 0.50929 0.26528
# Poissons Ratio (y) = 0.31599 0.13723
# Poissons Ratio (z) = 0.26356 0.21974
#
# Static dielectric constant tensor:
#      x y z
#    x 1.811780 0.000000 0.017820 
#    y 0.000000 1.762040 0.000000 
#    z 0.017820 0.000000 1.789570 
# 
# From -- ./inp_files/12544.got.cif
#   From: 2010.05.17/outbox.cif.g08.bks.cpg/sg14_7_cif.got.tgz:12544.got - 2010.06.03 17:49:19.
