data_PCOD9250353
_publ_section_title
;
Structure prediction by ZEFSAII (Michael W. Deem and Ramdas Pophale) SiO2 
 PCOD9250353
Probable space group: P 21/C
;
_chemical_formula_sum "Si O2"
_cell_formula_units_Z 20
_cell_length_a 17.408222
_cell_length_b 4.847068
_cell_length_c 9.342214
_cell_angle_alpha 90.000000
_cell_angle_beta 83.827986
_cell_angle_gamma 90.000000
_cell_volume 783.715923
_symmetry_space_group_name_H-M "P 21/C"
_symmetry_group_IT_number 14
_symmetry_cell_setting 'monoclinic'
loop_
_space_group_symop_operation_xyz
x,y,z
-x,1/2+y,1/2-z
-x,-y,-z
x,1/2-y,1/2+z
loop_
_atom_site_type_symbol
_atom_site_label
_atom_site_fract_x
_atom_site_fract_y
_atom_site_fract_z
Si Si1 0.232410 0.499185 0.233824
Si Si2 0.524913 0.361460 0.841193
Si Si3 0.028225 0.929156 0.155543
Si Si4 0.319977 0.510634 0.658088
Si Si5 0.184991 0.135120 0.020930
O O1 0.260704 0.801798 0.258361
O O2 0.196660 0.436319 0.085364
O O3 0.170561 0.389563 0.358052
O O4 0.308295 0.297852 0.216557
O O5 0.526502 0.620036 0.727923
O O6 0.601065 0.175914 0.858850
O O7 0.500000 0.500000 0.000000
O O8 0.991551 0.127122 0.283696
O O9 0.119551 0.986842 0.124393
O O10 0.000000 0.000000 0.000000
O O11 0.272056 0.490451 0.520222
#
# Coordination Sequence:
#
# PCOD9250353 Si02
#       5
#     4   4   4   4   4
#     4  10  24  41  72 102 140 184 249 300 355 430
#     4  12  28  51  79 112 156 198 248 309 383 449
#     4  12  28  47  74 109 155 198 248 311 385 446
#     4  10  26  43  74 103 145 187 249 295 370 431
#     4  10  26  44  75 101 148 184 257 291 375 429
#
# _framework density 25.519452000000001
#
# number of rings (size 3 to 8) (size 9 to 14) (size 15 to 20)
#    1.200    0.000    0.000    3.600   11.200    1.600 
#    0.000    0.000    0.000    0.000    0.000    0.000 
#    0.000    0.000    0.000    0.000    0.000    0.000 
#
# Total GULP energy -111405.275491 kJ/mol
# GULP energy per Si atom -5570.263775 kJ/mol
# Density = 2.546137 g / cm^3
# Si number density = 25.519452 Si / 1000 Ang^3
#
#
#
# Elastic Constant Matrix: (Units=GPa)
#
#
# Indices 1 2 3 4 5 6 
#
# 1 106.0048 7.5984 9.1923 0.0000 7.4587 0.0000
# 2 7.5984 93.6840 -11.8115 0.0000 12.2716 0.0000
# 3 9.1923 -11.8115 108.0013 0.0000 10.4723 0.0000
# 4 0.0000 0.0000 0.0000 36.7755 0.0000 -5.6480
# 5 7.4587 12.2716 10.4723 0.0000 22.7119 0.0000
# 6 0.0000 0.0000 0.0000 -5.6480 0.0000 42.4779
#
#
#
# Elastic Compliance Matrix: (Units=1/GPa)
#
#
# Indices 1 2 3 4 5 6 
#
# 1 0.009710 -0.000524 -0.000630 0.000000 -0.002615 0.000000
# 2 -0.000524 0.011920 0.002048 0.000000 -0.007212 0.000000
# 3 -0.000630 0.002048 0.010074 0.000000 -0.005545 0.000000
# 4 0.000000 0.000000 0.000000 0.027759 0.000000 0.003691
# 5 -0.002615 -0.007212 -0.005545 0.000000 0.051342 0.000000
# 6 0.000000 0.000000 0.000000 0.003691 0.000000 0.024032
#
#
# Mechanical properties :
#
#
# Convention : Reuss Voigt Hill
#
# Bulk Modulus (GPa) = 29.86024 35.29427 32.57725
# Shear Modulus (GPa) = 34.67062 40.57379 37.62220
#
# Velocity S-wave (km/s) = 3.68991 3.99170 3.84377
# Velocity P-wave (km/s) = 5.46629 5.92497 5.70024
#
# Compressibility (1/GPa) = 0.03348935
#
# Stress axis : x y z
#
# Youngs Moduli (GPa) = 102.98918 83.89541 99.26206
#
# Poissons Ratio (x) = 0.04400 0.06256
# Poissons Ratio (y) = 0.05402 -0.20324
# Poissons Ratio (z) = 0.06491 -0.17178
#
# Static dielectric constant tensor:
#      x y z
#    x 2.105320 0.000000 0.062040 
#    y 0.000000 1.987030 0.000000 
#    z 0.062040 0.000000 2.091660 
# 
# From -- ./inp_files/17229.got.cif
#   From: 2010.05.17/outbox.cif.g08.bks.cpg/sg14_9_cif.got.tgz:17229.got - 2010.06.03 17:49:19.
