data_PCOD9250043
_publ_section_title
;
Structure prediction by ZEFSAII (Michael W. Deem and Ramdas Pophale) SiO2 
 PCOD9250043
Probable space group: P 21/C
;
_chemical_formula_sum "Si O2"
_cell_formula_units_Z 12
_cell_length_a 9.755924
_cell_length_b 7.185589
_cell_length_c 7.446886
_cell_angle_alpha 90.000000
_cell_angle_beta 65.184084
_cell_angle_gamma 90.000000
_cell_volume 473.837171
_symmetry_space_group_name_H-M "P 21/C"
_symmetry_group_IT_number 14
_symmetry_cell_setting 'monoclinic'
loop_
_space_group_symop_operation_xyz
x,y,z
-x,1/2+y,1/2-z
-x,-y,-z
x,1/2-y,1/2+z
loop_
_atom_site_type_symbol
_atom_site_label
_atom_site_fract_x
_atom_site_fract_y
_atom_site_fract_z
Si Si1 0.824079 0.035044 0.619433
Si Si2 0.328656 0.582604 0.176006
Si Si3 0.383723 0.152792 0.991838
O O1 0.743435 0.012424 0.470636
O O2 0.778438 0.244462 0.704029
O O3 0.758249 0.890512 0.801381
O O4 0.000000 0.000000 0.500000
O O5 0.336153 0.424248 0.323285
O O6 0.496277 0.675945 0.076288
O O7 0.500000 0.000000 0.000000
#
# Coordination Sequence:
#
# PCOD9250043 Si02
#       3
#     4   4   4
#     4  11  24  45  68 105 148 183 227 291 357 419
#     4  11  23  48  73 104 141 181 240 287 356 415
#     4  10  23  45  74 105 137 183 236 296 342 421
#
# _framework density 25.325154000000001
#
# number of rings (size 3 to 8) (size 9 to 14) (size 15 to 20)
#    0.000    1.333    6.667    0.000    0.000    9.333 
#   12.000    0.000    0.000    0.000    0.000    0.000 
#    0.000    0.000    0.000    0.000    0.000    0.000 
#
# Total GULP energy -67150.103791 kJ/mol
# GULP energy per Si atom -5595.841983 kJ/mol
# Density = 2.526751 g / cm^3
# Si number density = 25.325154 Si / 1000 Ang^3
#
#
#
# Elastic Constant Matrix: (Units=GPa)
#
#
# Indices 1 2 3 4 5 6 
#
# 1 218.2384 69.2709 139.7291 0.0000 -29.8391 0.0000
# 2 69.2709 128.9016 73.5025 0.0000 -8.6997 0.0000
# 3 139.7291 73.5025 253.3669 0.0000 -4.8322 0.0000
# 4 0.0000 0.0000 0.0000 15.6034 0.0000 -1.5542
# 5 -29.8391 -8.6997 -4.8322 0.0000 78.9860 0.0000
# 6 0.0000 0.0000 0.0000 -1.5542 0.0000 27.9281
#
#
#
# Elastic Compliance Matrix: (Units=1/GPa)
#
#
# Indices 1 2 3 4 5 6 
#
# 1 0.007975 -0.001956 -0.003782 0.000000 0.002566 0.000000
# 2 -0.001956 0.009834 -0.001770 0.000000 0.000236 0.000000
# 3 -0.003782 -0.001770 0.006522 0.000000 -0.001225 0.000000
# 4 0.000000 0.000000 0.000000 0.064446 0.000000 0.003586
# 5 0.002566 0.000236 -0.001225 0.000000 0.013581 0.000000
# 6 0.000000 0.000000 0.000000 0.003586 0.000000 0.036006
#
#
# Mechanical properties :
#
#
# Convention : Reuss Voigt Hill
#
# Bulk Modulus (GPa) = 107.33502 129.50131 118.41817
# Shear Modulus (GPa) = 31.95187 45.70378 38.82782
#
# Velocity S-wave (km/s) = 3.55585 4.25276 3.91982
# Velocity P-wave (km/s) = 7.70282 8.68108 8.20654
#
# Compressibility (1/GPa) = 0.00931662
#
# Stress axis : x y z
#
# Youngs Moduli (GPa) = 125.38772 101.68725 153.31560
#
# Poissons Ratio (x) = 0.19892 0.57981
# Poissons Ratio (y) = 0.24528 0.27130
# Poissons Ratio (z) = 0.47420 0.17994
#
# Static dielectric constant tensor:
#      x y z
#    x 2.022700 0.000000 0.120070 
#    y 0.000000 2.759650 0.000000 
#    z 0.120070 0.000000 2.190180 
# 
# From -- ./inp_files/7139.got.cif
#   From: 2010.05.17/outbox.cif.g08.bks.cpg/sg14_4_cif.got.tgz:7139.got - 2010.06.03 17:49:19.
