data_PCOD9250818
_publ_section_title
;
Structure prediction by ZEFSAII (Michael W. Deem and Ramdas Pophale) SiO2 
 PCOD9250818
Probable space group: P 21/C
;
_chemical_formula_sum "Si O2"
_cell_formula_units_Z 30
_cell_length_a 9.365193
_cell_length_b 7.731634
_cell_length_c 25.489212
_cell_angle_alpha 90.000000
_cell_angle_beta 42.343994
_cell_angle_gamma 90.000000
_cell_volume 1243.179278
_symmetry_space_group_name_H-M "P 21/C"
_symmetry_group_IT_number 14
_symmetry_cell_setting 'monoclinic'
loop_
_space_group_symop_operation_xyz
x,y,z
-x,1/2+y,1/2-z
-x,-y,-z
x,1/2-y,1/2+z
loop_
_atom_site_type_symbol
_atom_site_label
_atom_site_fract_x
_atom_site_fract_y
_atom_site_fract_z
Si Si1 0.000000 0.000000 0.000000
Si Si2 0.011827 0.595174 0.709662
Si Si3 0.737262 0.958878 0.956427
Si Si4 0.362084 0.224935 0.216567
Si Si5 0.241654 0.755131 0.464342
Si Si6 0.599344 0.890757 0.184491
Si Si7 0.342872 0.078763 0.499067
Si Si8 0.662228 0.305119 0.822132
O O1 0.940150 0.211336 0.027163
O O2 0.807675 0.938464 0.094707
O O3 0.873340 0.769190 0.741849
O O4 0.832696 0.456687 0.771988
O O5 0.111899 0.542628 0.627215
O O6 0.204241 0.636932 0.696111
O O7 0.231344 0.247263 0.050276
O O8 0.772397 0.060881 0.002808
O O9 0.500000 0.000000 0.000000
O O10 0.532564 0.270889 0.124969
O O11 0.360857 0.354813 0.265866
O O12 0.438861 0.047506 0.219827
O O13 0.214395 0.914688 0.510723
O O14 0.475502 0.731283 0.191551
O O15 0.494917 0.152845 0.412723
O O16 0.500000 0.000000 0.500000
#
# Coordination Sequence:
#
# PCOD9250818 Si02
#       8
#     2   4   4   4   4   4   4   4
#     4  10  24  46  82  96 154 198 244 310 388 434
#     4  12  26  44  74 108 150 196 243 312 389 446
#     4  12  25  45  72 106 150 196 243 310 381 445
#     4  11  24  45  77 103 150 191 248 307 369 452
#     4  11  24  48  74 107 147 195 252 309 375 455
#     4  11  25  48  75 109 145 199 250 309 377 452
#     4  12  24  43  75 108 148 193 249 312 373 457
#     4  12  26  44  73 111 149 194 252 309 379 456
#
# _framework density 24.131675999999999
#
# number of rings (size 3 to 8) (size 9 to 14) (size 15 to 20)
#    0.000    0.533    4.000    4.000    3.733    1.067 
#    4.800    2.667    0.000    0.000    0.000    0.000 
#    0.000    0.000    0.000    0.000    0.000    0.000 
#
# Total GULP energy -167448.486194 kJ/mol
# GULP energy per Si atom -5581.616206 kJ/mol
# Density = 2.407675 g / cm^3
# Si number density = 24.131676 Si / 1000 Ang^3
#
#
#
# Elastic Constant Matrix: (Units=GPa)
#
#
# Indices 1 2 3 4 5 6 
#
# 1 93.8402 33.4350 7.3516 0.0000 -8.5785 0.0000
# 2 33.4350 123.5111 16.7471 0.0000 -15.7181 0.0000
# 3 7.3516 16.7471 79.7957 0.0000 -21.2137 0.0000
# 4 0.0000 0.0000 0.0000 34.4884 0.0000 -2.2829
# 5 -8.5785 -15.7181 -21.2137 0.0000 20.5917 0.0000
# 6 0.0000 0.0000 0.0000 -2.2829 0.0000 51.9488
#
#
#
# Elastic Compliance Matrix: (Units=1/GPa)
#
#
# Indices 1 2 3 4 5 6 
#
# 1 0.011942 -0.002881 0.000334 0.000000 0.003120 0.000000
# 2 -0.002881 0.009663 -0.000166 0.000000 0.006004 0.000000
# 3 0.000334 -0.000166 0.017269 0.000000 0.017803 0.000000
# 4 0.000000 0.000000 0.000000 0.029080 0.000000 0.001278
# 5 0.003120 0.006004 0.017803 0.000000 0.072787 0.000000
# 6 0.000000 0.000000 0.000000 0.001278 0.000000 0.019306
#
#
# Mechanical properties :
#
#
# Convention : Reuss Voigt Hill
#
# Bulk Modulus (GPa) = 29.89788 45.80159 37.84974
# Shear Modulus (GPa) = 28.30889 37.37998 32.84443
#
# Velocity S-wave (km/s) = 3.42877 3.94000 3.69324
# Velocity P-wave (km/s) = 5.30016 6.30232 5.82284
#
# Compressibility (1/GPa) = 0.03344718
#
# Stress axis : x y z
#
# Youngs Moduli (GPa) = 83.73841 103.48735 57.90698
#
# Poissons Ratio (x) = 0.29814 -0.01933
# Poissons Ratio (y) = 0.24125 0.00963
# Poissons Ratio (z) = -0.02796 0.01721
#
# Static dielectric constant tensor:
#      x y z
#    x 1.651610 0.000000 0.048660 
#    y 0.000000 1.995140 0.000000 
#    z 0.048660 0.000000 1.845420 
# 
# From -- ./inp_files/76464.got.cif
#   From: 2010.05.17/outbox.cif.g08.bks.cpg/sg14_39_cif.got.tgz:76464.got - 2010.06.03 17:49:19.
