data_PCOD9250596
_publ_section_title
;
Structure prediction by ZEFSAII (Michael W. Deem and Ramdas Pophale) SiO2 
 PCOD9250596
Probable space group: P 21/C
;
_chemical_formula_sum "Si O2"
_cell_formula_units_Z 12
_cell_length_a 13.222478
_cell_length_b 6.534847
_cell_length_c 9.647382
_cell_angle_alpha 90.000000
_cell_angle_beta 145.627755
_cell_angle_gamma 90.000000
_cell_volume 470.623301
_symmetry_space_group_name_H-M "P 21/C"
_symmetry_group_IT_number 14
_symmetry_cell_setting 'monoclinic'
loop_
_space_group_symop_operation_xyz
x,y,z
-x,1/2+y,1/2-z
-x,-y,-z
x,1/2-y,1/2+z
loop_
_atom_site_type_symbol
_atom_site_label
_atom_site_fract_x
_atom_site_fract_y
_atom_site_fract_z
Si Si1 0.091752 0.308552 0.028307
Si Si2 0.736780 0.074752 0.656403
Si Si3 0.634427 0.096680 0.262526
O O1 0.920747 0.170347 0.802275
O O2 0.212210 0.421196 0.052854
O O3 0.000000 0.500000 0.000000
O O4 0.224543 0.159804 0.263020
O O5 0.587656 0.123465 0.371055
O O6 0.698696 0.196869 0.756949
O O7 0.500000 0.000000 0.000000
#
# Coordination Sequence:
#
# PCOD9250596 Si02
#       3
#     4   4   4
#     4   9  22  42  69  95 130 172 225 273 335 403
#     4  10  24  44  68  97 132 179 225 278 330 410
#     4  11  26  42  68  99 137 175 224 278 346 395
#
# _framework density 25.498100999999998
#
# number of rings (size 3 to 8) (size 9 to 14) (size 15 to 20)
#    0.000    2.000    0.000    0.000   18.667    4.000 
#    0.000    0.000    0.000    0.000    0.000    0.000 
#    0.000    0.000    0.000    0.000    0.000    0.000 
#
# Total GULP energy -66980.211652 kJ/mol
# GULP energy per Si atom -5581.684304 kJ/mol
# Density = 2.544007 g / cm^3
# Si number density = 25.498101 Si / 1000 Ang^3
#
#
#
# Elastic Constant Matrix: (Units=GPa)
#
#
# Indices 1 2 3 4 5 6 
#
# 1 45.3702 40.9401 24.2458 0.0000 -16.1877 0.0000
# 2 40.9401 169.5715 70.7299 0.0000 -25.5297 0.0000
# 3 24.2458 70.7299 120.0890 0.0000 -44.4473 0.0000
# 4 0.0000 0.0000 0.0000 38.9080 0.0000 4.5059
# 5 -16.1877 -25.5297 -44.4473 0.0000 39.3566 0.0000
# 6 0.0000 0.0000 0.0000 4.5059 0.0000 37.5110
#
#
#
# Elastic Compliance Matrix: (Units=1/GPa)
#
#
# Indices 1 2 3 4 5 6 
#
# 1 0.030712 -0.006451 0.001246 0.000000 0.009855 0.000000
# 2 -0.006451 0.009174 -0.004949 0.000000 -0.002292 0.000000
# 3 0.001246 -0.004949 0.017168 0.000000 0.016691 0.000000
# 4 0.000000 0.000000 0.000000 0.026064 0.000000 -0.003131
# 5 0.009855 -0.002292 0.016691 0.000000 0.046826 0.000000
# 6 0.000000 0.000000 0.000000 -0.003131 0.000000 0.027035
#
#
# Mechanical properties :
#
#
# Convention : Reuss Voigt Hill
#
# Bulk Modulus (GPa) = 27.21314 67.42914 47.32114
# Shear Modulus (GPa) = 26.38027 36.42944 31.40485
#
# Velocity S-wave (km/s) = 3.22001 3.78393 3.51330
# Velocity P-wave (km/s) = 4.95180 6.75226 5.92087
#
# Compressibility (1/GPa) = 0.03674695
#
# Stress axis : x y z
#
# Youngs Moduli (GPa) = 32.56030 109.00402 58.24769
#
# Poissons Ratio (x) = 0.70319 -0.07260
# Poissons Ratio (y) = 0.21005 0.28827
# Poissons Ratio (z) = -0.04058 0.53946
#
# Static dielectric constant tensor:
#      x y z
#    x 2.063610 0.000000 0.086360 
#    y 0.000000 2.024580 0.000000 
#    z 0.086360 0.000000 2.105520 
# 
# From -- ./inp_files/7057.got.cif
#   From: 2010.05.17/outbox.cif.g08.bks.cpg/sg14_4_cif.got.tgz:7057.got - 2010.06.03 17:49:19.
