data_PCOD9250853
_publ_section_title
;
Structure prediction by ZEFSAII (Michael W. Deem and Ramdas Pophale) SiO2 
 PCOD9250853
Probable space group: P 21/C
;
_chemical_formula_sum "Si O2"
_cell_formula_units_Z 24
_cell_length_a 9.147626
_cell_length_b 10.986829
_cell_length_c 9.122433
_cell_angle_alpha 90.000000
_cell_angle_beta 96.891511
_cell_angle_gamma 90.000000
_cell_volume 910.211540
_symmetry_space_group_name_H-M "P 21/C"
_symmetry_group_IT_number 14
_symmetry_cell_setting 'monoclinic'
loop_
_space_group_symop_operation_xyz
x,y,z
-x,1/2+y,1/2-z
-x,-y,-z
x,1/2-y,1/2+z
loop_
_atom_site_type_symbol
_atom_site_label
_atom_site_fract_x
_atom_site_fract_y
_atom_site_fract_z
Si Si1 0.685045 0.445745 0.223693
Si Si2 0.945477 0.169052 0.868169
Si Si3 0.827833 0.980023 0.439675
Si Si4 0.385893 0.176721 0.727231
Si Si5 0.938705 0.103039 0.202669
Si Si6 0.604286 0.605523 0.451773
O O1 0.782242 0.330104 0.278015
O O2 0.511715 0.422478 0.207430
O O3 0.991304 0.538001 0.678605
O O4 0.722186 0.538479 0.362613
O O5 0.737130 0.012627 0.572466
O O6 0.018731 0.291492 0.810822
O O7 0.928835 0.162731 0.041192
O O8 0.803963 0.067064 0.295277
O O9 0.763669 0.852223 0.377171
O O10 0.000000 0.000000 0.500000
O O11 0.456721 0.297946 0.670338
O O12 0.353179 0.175593 0.895406
O O13 0.500000 0.500000 0.500000
#
# Coordination Sequence:
#
# PCOD9250853 Si02
#       6
#     4   4   4   4   4   4
#     4  11  24  46  75 109 152 197 260 326 395 469
#     4  11  25  46  74 108 152 205 258 330 391 481
#     4  12  25  47  72 110 150 203 260 320 397 472
#     4  11  25  46  76 108 155 203 258 332 396 476
#     4  11  26  47  72 109 154 202 265 321 402 469
#     4  10  24  47  77 116 156 203 269 325 407 476
#
# _framework density 26.367495000000002
#
# number of rings (size 3 to 8) (size 9 to 14) (size 15 to 20)
#    0.000    1.000    1.667    3.500    0.000   10.667 
#    6.000    0.000    0.000    0.000    0.000    0.000 
#    0.000    0.000    0.000    0.000    0.000    0.000 
#
# Total GULP energy -133981.788960 kJ/mol
# GULP energy per Si atom -5582.574540 kJ/mol
# Density = 2.630748 g / cm^3
# Si number density = 26.367495 Si / 1000 Ang^3
#
#
#
# Elastic Constant Matrix: (Units=GPa)
#
#
# Indices 1 2 3 4 5 6 
#
# 1 102.4823 35.0465 55.2284 0.0000 -23.2974 0.0000
# 2 35.0465 147.9785 84.6216 0.0000 -26.1746 0.0000
# 3 55.2284 84.6216 171.7038 0.0000 -65.4431 0.0000
# 4 0.0000 0.0000 0.0000 59.5894 0.0000 -9.0785
# 5 -23.2974 -26.1746 -65.4431 0.0000 59.1614 0.0000
# 6 0.0000 0.0000 0.0000 -9.0785 0.0000 40.5390
#
#
#
# Elastic Compliance Matrix: (Units=1/GPa)
#
#
# Indices 1 2 3 4 5 6 
#
# 1 0.011915 -0.000932 -0.003012 0.000000 0.000948 0.000000
# 2 -0.000932 0.009579 -0.005093 0.000000 -0.001763 0.000000
# 3 -0.003012 -0.005093 0.013817 0.000000 0.011845 0.000000
# 4 0.000000 0.000000 0.000000 0.017374 0.000000 0.003891
# 5 0.000948 -0.001763 0.011845 0.000000 0.029599 0.000000
# 6 0.000000 0.000000 0.000000 0.003891 0.000000 0.025539
#
#
# Mechanical properties :
#
#
# Convention : Reuss Voigt Hill
#
# Bulk Modulus (GPa) = 58.01069 85.77306 71.89188
# Shear Modulus (GPa) = 37.98131 48.34251 43.16191
#
# Velocity S-wave (km/s) = 3.79946 4.28648 4.05030
# Velocity P-wave (km/s) = 6.42623 7.55639 7.01411
#
# Compressibility (1/GPa) = 0.01723820
#
# Stress axis : x y z
#
# Youngs Moduli (GPa) = 83.92703 104.39408 72.37242
#
# Poissons Ratio (x) = 0.09728 0.21797
# Poissons Ratio (y) = 0.07821 0.36859
# Poissons Ratio (z) = 0.25277 0.53168
#
# Static dielectric constant tensor:
#      x y z
#    x 2.152820 0.000000 0.076390 
#    y 0.000000 2.277060 0.000000 
#    z 0.076390 0.000000 2.098380 
# 
# From -- ./inp_files/12497.got.cif
#   From: 2010.05.17/outbox.cif.g08.bks.cpg/sg14_7_cif.got.tgz:12497.got - 2010.06.03 17:49:19.
