data_PCOD9250032
_publ_section_title
;
Structure prediction by ZEFSAII (Michael W. Deem and Ramdas Pophale) SiO2 
 PCOD9250032
Probable space group: P 21/C
;
_chemical_formula_sum "Si O2"
_cell_formula_units_Z 20
_cell_length_a 5.204903
_cell_length_b 19.320098
_cell_length_c 8.996956
_cell_angle_alpha 90.000000
_cell_angle_beta 117.159896
_cell_angle_gamma 90.000000
_cell_volume 804.968292
_symmetry_space_group_name_H-M "P 21/C"
_symmetry_group_IT_number 14
_symmetry_cell_setting 'monoclinic'
loop_
_space_group_symop_operation_xyz
x,y,z
-x,1/2+y,1/2-z
-x,-y,-z
x,1/2-y,1/2+z
loop_
_atom_site_type_symbol
_atom_site_label
_atom_site_fract_x
_atom_site_fract_y
_atom_site_fract_z
Si Si1 0.188441 0.511570 0.848741
Si Si2 0.655077 0.044282 0.913412
Si Si3 0.853957 0.899502 0.436525
Si Si4 0.891681 0.307738 0.532833
Si Si5 0.728052 0.735860 0.088763
O O1 0.159208 0.505000 0.665438
O O2 0.105759 0.588435 0.882899
O O3 0.500000 0.500000 0.000000
O O4 0.034612 0.449104 0.898466
O O5 0.406677 0.072050 0.733143
O O6 0.792730 0.113483 0.013604
O O7 0.500000 0.000000 0.000000
O O8 0.764312 0.826942 0.480604
O O9 0.066670 0.294693 0.427071
O O10 0.119980 0.289731 0.721371
O O11 0.599159 0.261501 0.471311
#
# Coordination Sequence:
#
# PCOD9250032 Si02
#       5
#     4   4   4   4   4
#     4   9  22  41  71 102 144 191 244 300 377 434
#     4  11  26  44  71 107 153 191 251 308 377 449
#     4  10  23  45  73 103 145 197 249 309 374 442
#     4  12  29  49  76 111 148 204 250 312 378 451
#     4  12  28  51  78 108 153 198 258 308 379 452
#
# _framework density 24.845700000000001
#
# number of rings (size 3 to 8) (size 9 to 14) (size 15 to 20)
#    0.000    1.200    0.000    3.600   19.600    2.400 
#    0.000    0.000    0.000    0.000    0.000    0.000 
#    0.000    0.000    0.000    0.000    0.000    0.000 
#
# Total GULP energy -111790.753913 kJ/mol
# GULP energy per Si atom -5589.537696 kJ/mol
# Density = 2.478915 g / cm^3
# Si number density = 24.845700 Si / 1000 Ang^3
#
#
#
# Elastic Constant Matrix: (Units=GPa)
#
#
# Indices 1 2 3 4 5 6 
#
# 1 70.1162 -0.2284 10.4621 0.0000 -5.7207 0.0000
# 2 -0.2284 92.3990 47.0329 0.0000 1.9046 0.0000
# 3 10.4621 47.0329 166.9822 0.0000 -17.6425 0.0000
# 4 0.0000 0.0000 0.0000 51.7873 0.0000 -3.7572
# 5 -5.7207 1.9046 -17.6425 0.0000 40.2572 0.0000
# 6 0.0000 0.0000 0.0000 -3.7572 0.0000 33.5160
#
#
#
# Elastic Compliance Matrix: (Units=1/GPa)
#
#
# Indices 1 2 3 4 5 6 
#
# 1 0.014527 0.000438 -0.000857 0.000000 0.001668 0.000000
# 2 0.000438 0.012847 -0.003883 0.000000 -0.002247 0.000000
# 3 -0.000857 -0.003883 0.007490 0.000000 0.003344 0.000000
# 4 0.000000 0.000000 0.000000 0.019468 0.000000 0.002182
# 5 0.001668 -0.002247 0.003344 0.000000 0.026649 0.000000
# 6 0.000000 0.000000 0.000000 0.002182 0.000000 0.030081
#
#
# Mechanical properties :
#
#
# Convention : Reuss Voigt Hill
#
# Bulk Modulus (GPa) = 38.08336 49.33675 43.71005
# Shear Modulus (GPa) = 38.93464 43.26083 41.09774
#
# Velocity S-wave (km/s) = 3.96290 4.17727 4.07150
# Velocity P-wave (km/s) = 6.02501 6.57012 6.30346
#
# Compressibility (1/GPa) = 0.02625819
#
# Stress axis : x y z
#
# Youngs Moduli (GPa) = 68.83513 77.84078 133.52017
#
# Poissons Ratio (x) = -0.03409 0.11447
# Poissons Ratio (y) = -0.03014 0.51851
# Poissons Ratio (z) = 0.05901 0.30228
#
# Static dielectric constant tensor:
#      x y z
#    x 2.321360 0.000000 -0.022550 
#    y 0.000000 2.041140 0.000000 
#    z -0.022550 0.000000 1.960780 
# 
# From -- ./inp_files/6003.got.cif
#   From: 2010.05.17/outbox.cif.g08.bks.cpg/sg14_4_cif.got.tgz:6003.got - 2010.06.03 17:49:19.
