data_PCOD9250912
_publ_section_title
;
Structure prediction by ZEFSAII (Michael W. Deem and Ramdas Pophale) SiO2 
 PCOD9250912
Probable space group: P 21/C
;
_chemical_formula_sum "Si O2"
_cell_formula_units_Z 24
_cell_length_a 5.275972
_cell_length_b 19.217467
_cell_length_c 8.813029
_cell_angle_alpha 90.000000
_cell_angle_beta 80.773441
_cell_angle_gamma 90.000000
_cell_volume 881.999378
_symmetry_space_group_name_H-M "P 21/C"
_symmetry_group_IT_number 14
_symmetry_cell_setting 'monoclinic'
loop_
_space_group_symop_operation_xyz
x,y,z
-x,1/2+y,1/2-z
-x,-y,-z
x,1/2-y,1/2+z
loop_
_atom_site_type_symbol
_atom_site_label
_atom_site_fract_x
_atom_site_fract_y
_atom_site_fract_z
Si Si1 0.888146 0.234248 0.782571
Si Si2 0.157581 0.339307 0.971381
Si Si3 0.265695 0.843375 0.918430
Si Si4 0.428965 0.072100 0.662673
Si Si5 0.731932 0.581292 0.475589
Si Si6 0.918040 0.985971 0.691045
O O1 0.706180 0.290172 0.720081
O O2 0.107945 0.275725 0.858188
O O3 0.992497 0.185428 0.636455
O O4 0.722895 0.193537 0.920873
O O5 0.085754 0.408407 0.879871
O O6 0.410327 0.365938 0.040495
O O7 0.486111 0.900091 0.895621
O O8 0.973530 0.868163 0.937231
O O9 0.195063 0.019746 0.648292
O O10 0.699787 0.034454 0.641297
O O11 0.357659 0.087460 0.844128
O O12 0.842726 0.514240 0.377701
#
# Coordination Sequence:
#
# PCOD9250912 Si02
#       6
#     4   4   4   4   4   4
#     4  10  24  50  76 106 146 204 244 314 364 448
#     4  11  24  48  78 108 154 188 262 294 386 433
#     4  11  24  47  72 106 142 196 241 311 358 441
#     4  12  26  48  78 111 150 196 246 311 368 440
#     4  12  24  47  74 108 150 184 251 298 372 438
#     4  12  26  48  78 111 150 196 246 311 368 440
#
# _framework density 27.210905
#
# number of rings (size 3 to 8) (size 9 to 14) (size 15 to 20)
#    0.000    0.667    3.333    4.000    0.000    1.333 
#    0.000    0.000    0.000    0.000    0.000    0.000 
#    0.000    0.000    0.000    0.000    0.000    0.000 
#
# Total GULP energy -134357.124640 kJ/mol
# GULP energy per Si atom -5598.213527 kJ/mol
# Density = 2.714897 g / cm^3
# Si number density = 27.210905 Si / 1000 Ang^3
#
#
#
# Elastic Constant Matrix: (Units=GPa)
#
#
# Indices 1 2 3 4 5 6 
#
# 1 -71.9958 8.8817 59.9625 0.0000 54.1496 0.0000
# 2 8.8817 66.2261 47.2623 0.0000 12.3169 0.0000
# 3 59.9625 47.2623 192.4914 0.0000 9.2911 0.0000
# 4 0.0000 0.0000 0.0000 57.9022 0.0000 11.7575
# 5 54.1496 12.3169 9.2911 0.0000 10.8463 0.0000
# 6 0.0000 0.0000 0.0000 11.7575 0.0000 15.3549
#
#
#
# Elastic Compliance Matrix: (Units=1/GPa)
#
#
# Indices 1 2 3 4 5 6 
#
# 1 -0.002431 -0.002992 0.000774 0.000000 0.014869 0.000000
# 2 -0.002992 0.018571 -0.003475 0.000000 -0.003176 0.000000
# 3 0.000774 -0.003475 0.006053 0.000000 -0.005104 0.000000
# 4 0.000000 0.000000 0.000000 0.020450 0.000000 -0.015659
# 5 0.014869 -0.003176 -0.005104 0.000000 0.025943 0.000000
# 6 0.000000 0.000000 0.000000 -0.015659 0.000000 0.077117
#
#
# Mechanical properties :
#
#
# Convention : Reuss Voigt Hill
#
# Bulk Modulus (GPa) = 92.51124 46.54828 69.52976
# Shear Modulus (GPa) = 31.11553 21.52837 26.32195
#
# Velocity S-wave (km/s) = 3.38523 2.81582 3.11357
# Velocity P-wave (km/s) = 7.02505 5.26454 6.20753
#
# Compressibility (1/GPa) = 0.01080950
#
# Stress axis : x y z
#
# Youngs Moduli (GPa) = -411.41476 53.84629 165.19698
#
# Poissons Ratio (x) = 0.16110 -0.12787
# Poissons Ratio (y) = -1.23089 0.57398
# Poissons Ratio (z) = 0.31845 0.18709
#
# Static dielectric constant tensor:
#      x y z
#    x 2.085150 0.000000 0.068690 
#    y 0.000000 2.213360 0.000000 
#    z 0.068690 0.000000 2.202220 
# 
# From -- ./inp_files/6266.got.cif
#   From: 2010.05.17/outbox.cif.g08.bks.cpg/sg14_4_cif.got.tgz:6266.got - 2010.06.03 17:49:19.
