data_PCOD9250251
_publ_section_title
;
Structure prediction by ZEFSAII (Michael W. Deem and Ramdas Pophale) SiO2 
 PCOD9250251
Probable space group: P 21/C
;
_chemical_formula_sum "Si O2"
_cell_formula_units_Z 32
_cell_length_a 12.582280
_cell_length_b 9.018897
_cell_length_c 16.204700
_cell_angle_alpha 90.000000
_cell_angle_beta 53.273839
_cell_angle_gamma 90.000000
_cell_volume 1473.868547
_symmetry_space_group_name_H-M "P 21/C"
_symmetry_group_IT_number 14
_symmetry_cell_setting 'monoclinic'
loop_
_space_group_symop_operation_xyz
x,y,z
-x,1/2+y,1/2-z
-x,-y,-z
x,1/2-y,1/2+z
loop_
_atom_site_type_symbol
_atom_site_label
_atom_site_fract_x
_atom_site_fract_y
_atom_site_fract_z
Si Si1 0.788366 0.127747 0.770405
Si Si2 0.928148 0.017141 0.394902
Si Si3 0.530973 0.980910 0.815811
Si Si4 0.817920 0.479733 0.764666
Si Si5 0.613413 0.653120 0.755011
Si Si6 0.264455 0.011399 0.026720
Si Si7 0.040985 0.652104 0.557299
Si Si8 0.158708 0.250271 0.979003
O O1 0.796633 0.304963 0.759097
O O2 0.761549 0.072457 0.876532
O O3 0.928947 0.058922 0.680690
O O4 0.669445 0.057797 0.772973
O O5 0.849318 0.002801 0.346331
O O6 0.856149 0.923976 0.499659
O O7 0.947985 0.187676 0.406403
O O8 0.541704 0.803538 0.814909
O O9 0.479804 0.040263 0.751479
O O10 0.417810 0.026239 0.934046
O O11 0.690683 0.570531 0.792026
O O12 0.942506 0.551023 0.657700
O O13 0.724804 0.710152 0.638283
O O14 0.186658 0.919142 0.991366
O O15 0.194105 0.171029 0.049194
O O16 0.972925 0.681755 0.501160
#
# Coordination Sequence:
#
# PCOD9250251 Si02
#       8
#     4   4   4   4   4   4   4   4
#     4  12  24  41  65  97 132 171 218 269 324 399
#     4  12  23  39  70 101 133 168 213 278 336 386
#     4  11  25  44  67  91 130 178 221 265 325 391
#     4  11  22  42  68  95 133 167 218 274 336 379
#     4  10  24  46  67  95 130 174 222 273 322 394
#     4  11  23  41  63  92 132 173 218 264 325 393
#     4  11  22  42  63 102 132 168 219 268 337 387
#     4  10  24  39  66  97 133 169 212 277 332 390
#
# _framework density 21.711568
#
# number of rings (size 3 to 8) (size 9 to 14) (size 15 to 20)
#    0.000    1.000    2.500    4.125    3.500    4.000 
#    0.000    0.625    0.000    0.000    0.000    0.000 
#    0.000    0.000    0.000    0.000    0.000    0.000 
#
# Total GULP energy -179087.408106 kJ/mol
# GULP energy per Si atom -5596.481503 kJ/mol
# Density = 2.166215 g / cm^3
# Si number density = 21.711568 Si / 1000 Ang^3
#
#
#
# Elastic Constant Matrix: (Units=GPa)
#
#
# Indices 1 2 3 4 5 6 
#
# 1 144.8533 40.8686 22.1400 0.0000 4.6293 0.0000
# 2 40.8686 114.5640 16.9200 0.0000 7.4624 0.0000
# 3 22.1400 16.9200 27.5270 0.0000 13.0760 0.0000
# 4 0.0000 0.0000 0.0000 32.9526 0.0000 0.2810
# 5 4.6293 7.4624 13.0760 0.0000 17.3769 0.0000
# 6 0.0000 0.0000 0.0000 0.2810 0.0000 39.2230
#
#
#
# Elastic Compliance Matrix: (Units=1/GPa)
#
#
# Indices 1 2 3 4 5 6 
#
# 1 0.008550 -0.002213 -0.007604 0.000000 0.004394 0.000000
# 2 -0.002213 0.010176 -0.004169 0.000000 -0.000643 0.000000
# 3 -0.007604 -0.004169 0.067223 0.000000 -0.046768 0.000000
# 4 0.000000 0.000000 0.000000 0.030348 0.000000 -0.000217
# 5 0.004394 -0.000643 -0.046768 0.000000 0.091846 0.000000
# 6 0.000000 0.000000 0.000000 -0.000217 0.000000 0.025497
#
#
# Mechanical properties :
#
#
# Convention : Reuss Voigt Hill
#
# Bulk Modulus (GPa) = 17.24854 49.64461 33.44658
# Shear Modulus (GPa) = 17.79760 31.71155 24.75457
#
# Velocity S-wave (km/s) = 2.86620 3.82590 3.38028
# Velocity P-wave (km/s) = 4.34915 6.51398 5.53836
#
# Compressibility (1/GPa) = 0.05797591
#
# Stress axis : x y z
#
# Youngs Moduli (GPa) = 116.96322 98.27129 14.87597
#
# Poissons Ratio (x) = 0.21750 0.11311
# Poissons Ratio (y) = 0.25886 0.06202
# Poissons Ratio (z) = 0.88934 0.40972
#
# Static dielectric constant tensor:
#      x y z
#    x 1.787320 0.000000 0.019030 
#    y 0.000000 1.797190 0.000000 
#    z 0.019030 0.000000 1.782580 
# 
# From -- ./inp_files/57268.got.cif
#   From: 2010.05.17/outbox.cif.g08.bks.cpg/sg14_29_cif.got.tgz:57268.got - 2010.06.03 17:49:19.
