data_PCOD9250621
_publ_section_title
;
Structure prediction by ZEFSAII (Michael W. Deem and Ramdas Pophale) SiO2 
 PCOD9250621
Probable space group: P 21/C
;
_chemical_formula_sum "Si O2"
_cell_formula_units_Z 20
_cell_length_a 12.193601
_cell_length_b 6.474068
_cell_length_c 14.451868
_cell_angle_alpha 90.000000
_cell_angle_beta 43.985006
_cell_angle_gamma 90.000000
_cell_volume 792.294743
_symmetry_space_group_name_H-M "P 21/C"
_symmetry_group_IT_number 14
_symmetry_cell_setting 'monoclinic'
loop_
_space_group_symop_operation_xyz
x,y,z
-x,1/2+y,1/2-z
-x,-y,-z
x,1/2-y,1/2+z
loop_
_atom_site_type_symbol
_atom_site_label
_atom_site_fract_x
_atom_site_fract_y
_atom_site_fract_z
Si Si1 0.747385 0.336581 0.887555
Si Si2 0.485479 0.294304 0.172564
Si Si3 0.138359 0.259438 0.920097
Si Si4 0.346076 0.622433 0.742886
Si Si5 0.959414 0.033583 0.869127
O O1 0.695246 0.260068 0.818642
O O2 0.891097 0.493794 0.787141
O O3 0.819540 0.141849 0.899316
O O4 0.600285 0.419713 0.036041
O O5 0.304966 0.358640 0.298464
O O6 0.569142 0.275691 0.221002
O O7 0.460995 0.066634 0.144012
O O8 0.191762 0.495834 0.873718
O O9 0.084847 0.179771 0.052396
O O10 0.017585 0.182787 0.916111
#
# Coordination Sequence:
#
# PCOD9250621 Si02
#       5
#     4   4   4   4   4
#     4  12  26  42  71  99 138 176 229 274 335 398
#     4  10  24  45  70  96 132 178 226 274 327 402
#     4   9  24  45  69  90 142 174 222 270 341 386
#     4  10  24  44  70  96 133 177 225 276 332 393
#     4  11  25  43  66 103 138 174 220 283 327 400
#
# _framework density 25.243131999999999
#
# number of rings (size 3 to 8) (size 9 to 14) (size 15 to 20)
#    1.200    0.400    0.000    3.000   11.200    1.600 
#    0.000    0.000    0.000    0.000    0.000    0.000 
#    0.000    0.000    0.000    0.000    0.000    0.000 
#
# Total GULP energy -111951.649410 kJ/mol
# GULP energy per Si atom -5597.582470 kJ/mol
# Density = 2.518568 g / cm^3
# Si number density = 25.243132 Si / 1000 Ang^3
#
#
#
# Elastic Constant Matrix: (Units=GPa)
#
#
# Indices 1 2 3 4 5 6 
#
# 1 149.0644 26.4182 32.4800 0.0000 19.0870 0.0000
# 2 26.4182 24.9392 18.3637 0.0000 2.6325 0.0000
# 3 32.4800 18.3637 142.7091 0.0000 -11.4924 0.0000
# 4 0.0000 0.0000 0.0000 34.2956 0.0000 -2.9439
# 5 19.0870 2.6325 -11.4924 0.0000 32.5078 0.0000
# 6 0.0000 0.0000 0.0000 -2.9439 0.0000 35.8545
#
#
#
# Elastic Compliance Matrix: (Units=1/GPa)
#
#
# Indices 1 2 3 4 5 6 
#
# 1 0.009119 -0.008032 -0.001462 0.000000 -0.005221 0.000000
# 2 -0.008032 0.052445 -0.005026 0.000000 -0.001308 0.000000
# 3 -0.001462 -0.005026 0.008326 0.000000 0.004209 0.000000
# 4 0.000000 0.000000 0.000000 0.029365 0.000000 0.002411
# 5 -0.005221 -0.001308 0.004209 0.000000 0.035421 0.000000
# 6 0.000000 0.000000 0.000000 0.002411 0.000000 0.028088
#
#
# Mechanical properties :
#
#
# Convention : Reuss Voigt Hill
#
# Bulk Modulus (GPa) = 24.48036 52.35960 38.41998
# Shear Modulus (GPa) = 24.34026 36.49498 30.41762
#
# Velocity S-wave (km/s) = 3.10858 3.80641 3.47506
# Velocity P-wave (km/s) = 4.75429 6.33289 5.59950
#
# Compressibility (1/GPa) = 0.04084907
#
# Stress axis : x y z
#
# Youngs Moduli (GPa) = 109.65936 19.06777 120.10928
#
# Poissons Ratio (x) = 0.15315 0.17564
# Poissons Ratio (y) = 0.88079 0.60364
# Poissons Ratio (z) = 0.16036 0.09583
#
# Static dielectric constant tensor:
#      x y z
#    x 1.900740 0.000000 -0.047980 
#    y 0.000000 2.037550 0.000000 
#    z -0.047980 0.000000 1.989390 
# 
# From -- ./inp_files/42969.got.cif
#   From: 2010.05.17/outbox.cif.g08.bks.cpg/sg14_22_cif.got.tgz:42969.got - 2010.06.03 17:49:19.
