data_PCOD9250928
_publ_section_title
;
Structure prediction by ZEFSAII (Michael W. Deem and Ramdas Pophale) SiO2 
 PCOD9250928
Probable space group: P 21/C
;
_chemical_formula_sum "Si O2"
_cell_formula_units_Z 16
_cell_length_a 7.799816
_cell_length_b 12.130420
_cell_length_c 7.004957
_cell_angle_alpha 90.000000
_cell_angle_beta 60.956011
_cell_angle_gamma 90.000000
_cell_volume 579.428612
_symmetry_space_group_name_H-M "P 21/C"
_symmetry_group_IT_number 14
_symmetry_cell_setting 'monoclinic'
loop_
_space_group_symop_operation_xyz
x,y,z
-x,1/2+y,1/2-z
-x,-y,-z
x,1/2-y,1/2+z
loop_
_atom_site_type_symbol
_atom_site_label
_atom_site_fract_x
_atom_site_fract_y
_atom_site_fract_z
Si Si1 0.338092 0.927968 0.694561
Si Si2 0.085111 0.828003 0.515545
Si Si3 0.825654 0.870812 0.987307
Si Si4 0.422645 0.873673 0.051105
O O1 0.252572 0.844112 0.586556
O O2 0.965413 0.781009 0.015928
O O3 0.500000 0.000000 0.500000
O O4 0.201542 0.023363 0.861716
O O5 0.211141 0.868583 0.267030
O O6 0.399041 0.645909 0.340005
O O7 0.918887 0.893946 0.726692
O O8 0.610585 0.821725 0.055432
O O9 0.500000 0.000000 0.000000
#
# Coordination Sequence:
#
# PCOD9250928 Si02
#       4
#     4   4   4   4
#     4  11  24  56  88 118 167 230 285 345 428 515
#     4  12  27  52  81 128 171 215 295 349 425 507
#     4  11  28  50  82 126 170 224 282 361 426 499
#     4  10  24  53  81 116 164 224 276 349 423 509
#
# _framework density 27.613409999999998
#
# number of rings (size 3 to 8) (size 9 to 14) (size 15 to 20)
#    0.000    1.000    5.000    0.750    3.500    8.000 
#    0.000    0.000    0.000    0.000    0.000    1.750 
#    0.000    0.000    0.000    0.000    0.000    0.000 
#
# Total GULP energy -89378.031412 kJ/mol
# GULP energy per Si atom -5586.126963 kJ/mol
# Density = 2.755056 g / cm^3
# Si number density = 27.613410 Si / 1000 Ang^3
#
#
#
# Elastic Constant Matrix: (Units=GPa)
#
#
# Indices 1 2 3 4 5 6 
#
# 1 202.8764 85.4976 71.7120 0.0000 13.1986 0.0000
# 2 85.4976 167.7447 110.0737 0.0000 -8.6988 0.0000
# 3 71.7120 110.0737 273.8678 0.0000 -34.6309 0.0000
# 4 0.0000 0.0000 0.0000 55.7741 0.0000 -7.3926
# 5 13.1986 -8.6988 -34.6309 0.0000 58.2852 0.0000
# 6 0.0000 0.0000 0.0000 -7.3926 0.0000 62.2318
#
#
#
# Elastic Compliance Matrix: (Units=1/GPa)
#
#
# Indices 1 2 3 4 5 6 
#
# 1 0.006634 -0.002941 -0.000866 0.000000 -0.002456 0.000000
# 2 -0.002941 0.009434 -0.002984 0.000000 0.000301 0.000000
# 3 -0.000866 -0.002984 0.005456 0.000000 0.002992 0.000000
# 4 0.000000 0.000000 0.000000 0.018216 0.000000 0.002164
# 5 -0.002456 0.000301 0.002992 0.000000 0.019536 0.000000
# 6 0.000000 0.000000 0.000000 0.002164 0.000000 0.016326
#
#
# Mechanical properties :
#
#
# Convention : Reuss Voigt Hill
#
# Bulk Modulus (GPa) = 125.88673 131.00615 128.44644
# Shear Modulus (GPa) = 54.44893 60.40526 57.42710
#
# Velocity S-wave (km/s) = 4.44535 4.68218 4.56530
# Velocity P-wave (km/s) = 8.48741 8.76221 8.62590
#
# Compressibility (1/GPa) = 0.00794365
#
# Stress axis : x y z
#
# Youngs Moduli (GPa) = 150.73588 106.00399 183.29706
#
# Poissons Ratio (x) = 0.31171 0.15869
# Poissons Ratio (y) = 0.44325 0.54687
# Poissons Ratio (z) = 0.13050 0.31627
#
# Static dielectric constant tensor:
#      x y z
#    x 2.607930 0.000000 0.047560 
#    y 0.000000 2.301350 0.000000 
#    z 0.047560 0.000000 2.175680 
# 
# From -- ./inp_files/7585.got.cif
#   From: 2010.05.17/outbox.cif.g08.bks.cpg/sg14_4_cif.got.tgz:7585.got - 2010.06.03 17:49:19.
