data_PCOD9250514
_publ_section_title
;
Structure prediction by ZEFSAII (Michael W. Deem and Ramdas Pophale) SiO2 
 PCOD9250514
Probable space group: P 21/C
;
_chemical_formula_sum "Si O2"
_cell_formula_units_Z 32
_cell_length_a 8.991207
_cell_length_b 13.519764
_cell_length_c 14.437136
_cell_angle_alpha 90.000000
_cell_angle_beta 64.295662
_cell_angle_gamma 90.000000
_cell_volume 1581.299898
_symmetry_space_group_name_H-M "P 21/C"
_symmetry_group_IT_number 14
_symmetry_cell_setting 'monoclinic'
loop_
_space_group_symop_operation_xyz
x,y,z
-x,1/2+y,1/2-z
-x,-y,-z
x,1/2-y,1/2+z
loop_
_atom_site_type_symbol
_atom_site_label
_atom_site_fract_x
_atom_site_fract_y
_atom_site_fract_z
Si Si1 0.304328 0.365400 0.219137
Si Si2 0.090871 0.019590 0.379629
Si Si3 0.075256 0.626077 0.730979
Si Si4 0.685311 0.434685 0.686281
Si Si5 0.849843 0.142860 0.312180
Si Si6 0.647919 0.075466 0.984199
Si Si7 0.512405 0.203606 0.487734
Si Si8 0.368314 0.319992 0.829579
O O1 0.369359 0.459520 0.258441
O O2 0.302050 0.270592 0.286874
O O3 0.118101 0.388150 0.236783
O O4 0.417181 0.343003 0.099839
O O5 0.251018 0.085346 0.354094
O O6 0.977993 0.083710 0.340018
O O7 0.120179 0.916170 0.319582
O O8 0.000000 0.000000 0.500000
O O9 0.106719 0.742246 0.710055
O O10 0.199174 0.570241 0.627718
O O11 0.832631 0.400288 0.713513
O O12 0.713851 0.442306 0.569874
O O13 0.543426 0.353590 0.740788
O O14 0.671367 0.140189 0.411577
O O15 0.574916 0.186614 0.996278
O O16 0.500000 0.000000 0.000000
O O17 0.396099 0.209318 0.428760
#
# Coordination Sequence:
#
# PCOD9250514 Si02
#       8
#     4   4   4   4   4   4   4   4
#     4  12  23  44  67  99 136 175 231 282 350 406
#     4  12  25  44  69 102 138 183 229 285 352 407
#     4  11  25  43  67 101 140 181 229 290 338 415
#     4  11  24  42  71  97 133 182 227 280 344 412
#     4  10  24  46  65 103 138 174 235 281 347 410
#     4  11  23  45  68  99 136 186 231 280 346 411
#     4  10  24  43  69  96 136 177 225 288 341 406
#     4  11  24  42  68 104 130 179 233 280 341 420
#
# _framework density 20.236515000000001
#
# number of rings (size 3 to 8) (size 9 to 14) (size 15 to 20)
#    0.000    1.000    3.750    2.250    1.750    5.500 
#    2.250    0.000    0.000    0.000    0.000    0.000 
#    0.000    0.000    0.000    0.000    0.000    0.000 
#
# Total GULP energy -178905.084012 kJ/mol
# GULP energy per Si atom -5590.783875 kJ/mol
# Density = 2.019046 g / cm^3
# Si number density = 20.236515 Si / 1000 Ang^3
#
#
#
# Elastic Constant Matrix: (Units=GPa)
#
#
# Indices 1 2 3 4 5 6 
#
# 1 62.6739 -3.1404 26.5729 0.0000 7.1046 0.0000
# 2 -3.1404 52.8872 7.5979 0.0000 3.6636 0.0000
# 3 26.5729 7.5979 117.0667 0.0000 22.1149 0.0000
# 4 0.0000 0.0000 0.0000 28.3317 0.0000 6.7939
# 5 7.1046 3.6636 22.1149 0.0000 31.6167 0.0000
# 6 0.0000 0.0000 0.0000 6.7939 0.0000 38.0439
#
#
#
# Elastic Compliance Matrix: (Units=1/GPa)
#
#
# Indices 1 2 3 4 5 6 
#
# 1 0.017858 0.001722 -0.003883 0.000000 -0.001497 0.000000
# 2 0.001722 0.019318 -0.001324 0.000000 -0.001700 0.000000
# 3 -0.003883 -0.001324 0.010734 0.000000 -0.006482 0.000000
# 4 0.000000 0.000000 0.000000 0.036875 0.000000 -0.006585
# 5 -0.001497 -0.001700 -0.006482 0.000000 0.036696 0.000000
# 6 0.000000 0.000000 0.000000 -0.006585 0.000000 0.027461
#
#
# Mechanical properties :
#
#
# Convention : Reuss Voigt Hill
#
# Bulk Modulus (GPa) = 24.42521 32.74318 28.58419
# Shear Modulus (GPa) = 29.48835 33.03827 31.26331
#
# Velocity S-wave (km/s) = 3.82145 4.04494 3.93478
# Velocity P-wave (km/s) = 5.61849 6.16690 5.89907
#
# Compressibility (1/GPa) = 0.04094131
#
# Stress axis : x y z
#
# Youngs Moduli (GPa) = 55.99838 51.76437 93.16299
#
# Poissons Ratio (x) = -0.08913 0.36171
# Poissons Ratio (y) = -0.09642 0.12331
# Poissons Ratio (z) = 0.21742 0.06851
#
# Static dielectric constant tensor:
#      x y z
#    x 1.716470 0.000000 -0.001230 
#    y 0.000000 1.694710 0.000000 
#    z -0.001230 0.000000 1.692950 
# 
# From -- ./inp_files/41203.got.cif
#   From: 2010.05.17/outbox.cif.g08.bks.cpg/sg14_21_cif.got.tgz:41203.got - 2010.06.03 17:49:19.
