data_PCOD9250426
_publ_section_title
;
Structure prediction by ZEFSAII (Michael W. Deem and Ramdas Pophale) SiO2 
 PCOD9250426
Probable space group: P 21/C
;
_chemical_formula_sum "Si O2"
_cell_formula_units_Z 20
_cell_length_a 17.782876
_cell_length_b 4.897336
_cell_length_c 8.183750
_cell_angle_alpha 90.000000
_cell_angle_beta 90.000081
_cell_angle_gamma 90.000000
_cell_volume 712.712303
_symmetry_space_group_name_H-M "P 21/C"
_symmetry_group_IT_number 14
_symmetry_cell_setting 'monoclinic'
loop_
_space_group_symop_operation_xyz
x,y,z
-x,1/2+y,1/2-z
-x,-y,-z
x,1/2-y,1/2+z
loop_
_atom_site_type_symbol
_atom_site_label
_atom_site_fract_x
_atom_site_fract_y
_atom_site_fract_z
Si Si1 0.151120 0.127446 0.954410
Si Si2 0.750000 0.500001 0.830759
Si Si3 0.446921 0.467123 0.747820
Si Si4 0.348881 0.872553 0.954410
Si Si5 0.053079 0.967124 0.247819
O O1 0.101394 0.381164 0.887421
O O2 0.181141 0.965025 0.796595
O O3 0.220702 0.264042 0.051788
O O4 0.103827 0.963238 0.086292
O O5 0.681140 0.534975 0.703405
O O6 0.720701 0.264045 0.948213
O O7 0.484636 0.179413 0.784971
O O8 0.396173 0.463238 0.586293
O O9 0.398607 0.618835 0.887423
O O10 0.984636 0.179412 0.215030
#
# Coordination Sequence:
#
# PCOD9250426 Si02
#       5
#     4   4   4   4   4
#     4  10  24  42  70 104 148 190 242 302 364 438
#     4  10  24  44  64 104 142 192 240 294 364 430
#     4  11  24  44  72 106 143 190 242 302 366 433
#     4  10  24  42  70 104 148 190 242 302 364 438
#     4  11  24  44  72 106 143 190 242 302 366 433
#
# _framework density 28.061814999999999
#
# number of rings (size 3 to 8) (size 9 to 14) (size 15 to 20)
#    0.000    1.600    0.000    2.400    0.000   19.200 
#    0.000    0.000    0.000    0.000    0.000    0.000 
#    0.000    0.000    0.000    0.000    0.000    0.000 
#
# Total GULP energy -112377.492876 kJ/mol
# GULP energy per Si atom -5618.874644 kJ/mol
# Density = 2.799795 g / cm^3
# Si number density = 28.061815 Si / 1000 Ang^3
#
#
#
# Elastic Constant Matrix: (Units=GPa)
#
#
# Indices 1 2 3 4 5 6 
#
# 1 142.7988 58.3461 60.8206 0.0000 -0.0011 0.0000
# 2 58.3461 105.6976 61.5884 0.0000 -0.0006 0.0000
# 3 60.8206 61.5884 179.5403 0.0000 -0.0019 0.0000
# 4 0.0000 0.0000 0.0000 34.1918 0.0000 0.0005
# 5 -0.0011 -0.0006 -0.0019 0.0000 63.9086 0.0000
# 6 0.0000 0.0000 0.0000 0.0005 0.0000 41.4267
#
#
#
# Elastic Compliance Matrix: (Units=1/GPa)
#
#
# Indices 1 2 3 4 5 6 
#
# 1 0.009471 -0.004198 -0.001768 0.000000 0.000000 0.000000
# 2 -0.004198 0.013685 -0.003272 0.000000 0.000000 0.000000
# 3 -0.001768 -0.003272 0.007291 0.000000 0.000000 0.000000
# 4 0.000000 0.000000 0.000000 0.029247 0.000000 0.000000
# 5 0.000000 0.000000 0.000000 0.000000 0.015647 0.000000
# 6 0.000000 0.000000 0.000000 0.000000 0.000000 0.024139
#
#
# Mechanical properties :
#
#
# Convention : Reuss Voigt Hill
#
# Bulk Modulus (GPa) = 83.53974 87.72743 85.63359
# Shear Modulus (GPa) = 41.00108 44.39087 42.69597
#
# Velocity S-wave (km/s) = 3.82658 3.98162 3.90487
# Velocity P-wave (km/s) = 7.02553 7.24347 7.13533
#
# Compressibility (1/GPa) = 0.01197035
#
# Stress axis : x y z
#
# Youngs Moduli (GPa) = 105.58267 73.07318 137.14784
#
# Poissons Ratio (x) = 0.30674 0.24254
# Poissons Ratio (y) = 0.44321 0.44880
# Poissons Ratio (z) = 0.18672 0.23912
#
# Static dielectric constant tensor:
#      x y z
#    x 2.282110 0.000000 0.000000 
#    y 0.000000 2.108950 0.000000 
#    z 0.000000 0.000000 2.058370 
# 
# From -- ./inp_files/17146.got.cif
#   From: 2010.05.17/outbox.cif.g08.bks.cpg/sg14_9_cif.got.tgz:17146.got - 2010.06.03 17:49:19.
