data_PCOD9250864
_publ_section_title
;
Structure prediction by ZEFSAII (Michael W. Deem and Ramdas Pophale) SiO2 
 PCOD9250864
Probable space group: P 21/C
;
_chemical_formula_sum "Si O2"
_cell_formula_units_Z 32
_cell_length_a 12.311213
_cell_length_b 18.330619
_cell_length_c 15.317748
_cell_angle_alpha 90.000000
_cell_angle_beta 154.626633
_cell_angle_gamma 90.000000
_cell_volume 1481.286669
_symmetry_space_group_name_H-M "P 21/C"
_symmetry_group_IT_number 14
_symmetry_cell_setting 'monoclinic'
loop_
_space_group_symop_operation_xyz
x,y,z
-x,1/2+y,1/2-z
-x,-y,-z
x,1/2-y,1/2+z
loop_
_atom_site_type_symbol
_atom_site_label
_atom_site_fract_x
_atom_site_fract_y
_atom_site_fract_z
Si Si1 0.397503 0.742105 0.944033
Si Si2 0.167584 0.148670 0.210818
Si Si3 0.780389 0.446676 0.801101
Si Si4 0.439282 0.807696 0.790699
Si Si5 0.255999 0.535517 0.430447
Si Si6 0.683946 0.316403 0.438832
Si Si7 0.939342 0.660509 0.558073
Si Si8 0.193900 0.991663 0.276263
O O1 0.493447 0.783979 0.929053
O O2 0.433707 0.782231 0.060706
O O3 0.104323 0.723293 0.721717
O O4 0.547642 0.666619 0.059060
O O5 0.120742 0.063065 0.167690
O O6 0.989144 0.184081 0.153882
O O7 0.103245 0.183223 0.071941
O O8 0.775806 0.370038 0.851472
O O9 0.495912 0.480964 0.602190
O O10 0.800187 0.436127 0.709578
O O11 0.000000 0.500000 0.000000
O O12 0.394255 0.734029 0.700367
O O13 0.674529 0.846317 0.914438
O O14 0.351847 0.597321 0.569517
O O15 0.985115 0.504237 0.267796
O O16 0.096189 0.585605 0.672128
O O17 0.500000 0.000000 0.500000
#
# Coordination Sequence:
#
# PCOD9250864 Si02
#       8
#     4   4   4   4   4   4   4   4
#     4  12  24  44  69 100 139 184 237 296 369 431
#     4  11  24  43  66 100 135 186 230 293 369 429
#     4  11  25  46  75 106 144 193 251 303 373 441
#     4  12  25  46  74 108 141 195 248 303 366 447
#     4  10  24  48  71 106 146 190 240 316 366 440
#     4  11  24  45  71  99 143 184 235 300 364 435
#     4  12  24  43  69 100 140 182 239 300 360 442
#     4  11  23  44  71 100 140 188 241 297 373 439
#
# _framework density 21.60284
#
# number of rings (size 3 to 8) (size 9 to 14) (size 15 to 20)
#    0.000    0.750    6.250    1.125    0.000    4.000 
#    9.000    0.000    0.000    0.000    0.000    0.000 
#    0.000    0.000    0.000    0.000    0.000    0.000 
#
# Total GULP energy -178149.933850 kJ/mol
# GULP energy per Si atom -5567.185433 kJ/mol
# Density = 2.155367 g / cm^3
# Si number density = 21.602840 Si / 1000 Ang^3
#
#
#
# Elastic Constant Matrix: (Units=GPa)
#
#
# Indices 1 2 3 4 5 6 
#
# 1 118.5285 27.2710 36.1002 0.0000 1.3533 0.0000
# 2 27.2710 65.5918 18.8017 0.0000 0.5827 0.0000
# 3 36.1002 18.8017 55.8549 0.0000 13.0579 0.0000
# 4 0.0000 0.0000 0.0000 30.4187 0.0000 12.1198
# 5 1.3533 0.5827 13.0579 0.0000 27.6319 0.0000
# 6 0.0000 0.0000 0.0000 12.1198 0.0000 23.5536
#
#
#
# Elastic Compliance Matrix: (Units=1/GPa)
#
#
# Indices 1 2 3 4 5 6 
#
# 1 0.011135 -0.002661 -0.006955 0.000000 0.002798 0.000000
# 2 -0.002661 0.017680 -0.004693 0.000000 0.001975 0.000000
# 3 -0.006955 -0.004693 0.026841 0.000000 -0.012245 0.000000
# 4 0.000000 0.000000 0.000000 0.041353 0.000000 -0.021278
# 5 0.002798 0.001975 -0.012245 0.000000 0.041798 0.000000
# 6 0.000000 0.000000 0.000000 -0.021278 0.000000 0.053405
#
#
# Mechanical properties :
#
#
# Convention : Reuss Voigt Hill
#
# Bulk Modulus (GPa) = 36.98575 44.92454 40.95514
# Shear Modulus (GPa) = 21.75384 26.84100 24.29742
#
# Velocity S-wave (km/s) = 3.17675 3.52870 3.35734
# Velocity P-wave (km/s) = 5.53296 6.11908 5.83338
#
# Compressibility (1/GPa) = 0.02703744
#
# Stress axis : x y z
#
# Youngs Moduli (GPa) = 89.80317 56.56139 37.25587
#
# Poissons Ratio (x) = 0.15050 0.25913
# Poissons Ratio (y) = 0.23896 0.17486
# Poissons Ratio (z) = 0.62462 0.26546
#
# Static dielectric constant tensor:
#      x y z
#    x 1.791930 0.000000 0.007650 
#    y 0.000000 1.873790 0.000000 
#    z 0.007650 0.000000 1.805460 
# 
# From -- ./inp_files/45479.got.cif
#   From: 2010.05.17/outbox.cif.g08.bks.cpg/sg14_23_cif.got.tgz:45479.got - 2010.06.03 17:49:19.
