data_PCOD9250689
_publ_section_title
;
Structure prediction by ZEFSAII (Michael W. Deem and Ramdas Pophale) SiO2 
 PCOD9250689
Probable space group: P 21/C
;
_chemical_formula_sum "Si O2"
_cell_formula_units_Z 20
_cell_length_a 5.371180
_cell_length_b 13.080447
_cell_length_c 11.466117
_cell_angle_alpha 90.000000
_cell_angle_beta 67.596126
_cell_angle_gamma 90.000000
_cell_volume 744.775011
_symmetry_space_group_name_H-M "P 21/C"
_symmetry_group_IT_number 14
_symmetry_cell_setting 'monoclinic'
loop_
_space_group_symop_operation_xyz
x,y,z
-x,1/2+y,1/2-z
-x,-y,-z
x,1/2-y,1/2+z
loop_
_atom_site_type_symbol
_atom_site_label
_atom_site_fract_x
_atom_site_fract_y
_atom_site_fract_z
Si Si1 0.072223 0.384648 0.509608
Si Si2 0.111161 0.834432 0.212440
Si Si3 0.593303 0.356853 0.777225
Si Si4 0.730840 0.451856 0.109105
Si Si5 0.396714 0.251040 0.103400
O O1 0.022964 0.343659 0.389003
O O2 0.343017 0.340282 0.519174
O O3 0.000000 0.500000 0.500000
O O4 0.840135 0.364713 0.644776
O O5 0.876830 0.816205 0.350796
O O6 0.304423 0.736837 0.164806
O O7 0.248613 0.930629 0.253416
O O8 0.495689 0.458531 0.858010
O O9 0.371713 0.311940 0.729465
O O10 0.623132 0.340963 0.080227
O O11 0.000000 0.500000 0.000000
#
# Coordination Sequence:
#
# PCOD9250689 Si02
#       5
#     4   4   4   4   4
#     4  11  23  44  75 106 141 187 249 321 387 452
#     4  10  24  45  72 108 145 189 252 320 383 454
#     4  10  24  45  71 102 143 195 247 312 385 459
#     4  11  25  47  74 107 153 206 255 310 389 476
#     4  10  24  45  70 106 144 191 252 315 385 465
#
# _framework density 26.853750000000002
#
# number of rings (size 3 to 8) (size 9 to 14) (size 15 to 20)
#    0.000    1.600    0.000    2.400    0.000   15.200 
#    0.000    5.000    0.000    0.000    0.000    0.000 
#    0.000    0.000    0.000    0.000    0.000    0.000 
#
# Total GULP energy -111517.950808 kJ/mol
# GULP energy per Si atom -5575.897540 kJ/mol
# Density = 2.679263 g / cm^3
# Si number density = 26.853750 Si / 1000 Ang^3
#
#
#
# Elastic Constant Matrix: (Units=GPa)
#
#
# Indices 1 2 3 4 5 6 
#
# 1 71.8595 52.1929 29.7945 0.0000 14.1480 0.0000
# 2 52.1929 182.4733 64.8503 0.0000 10.8958 0.0000
# 3 29.7945 64.8503 108.3359 0.0000 23.7544 0.0000
# 4 0.0000 0.0000 0.0000 247.1483 0.0000 -131.3107
# 5 14.1480 10.8958 23.7544 0.0000 61.8255 0.0000
# 6 0.0000 0.0000 0.0000 -131.3107 0.0000 128.7007
#
#
#
# Elastic Compliance Matrix: (Units=1/GPa)
#
#
# Indices 1 2 3 4 5 6 
#
# 1 0.018451 -0.004476 -0.001793 0.000000 -0.002744 0.000000
# 2 -0.004476 0.008057 -0.003827 0.000000 0.001075 0.000000
# 3 -0.001793 -0.003827 0.012860 0.000000 -0.003856 0.000000
# 4 0.000000 0.000000 0.000000 0.008836 0.000000 0.009015
# 5 -0.002744 0.001075 -0.003856 0.000000 0.018095 0.000000
# 6 0.000000 0.000000 0.000000 0.009015 0.000000 0.016968
#
#
# Mechanical properties :
#
#
# Convention : Reuss Voigt Hill
#
# Bulk Modulus (GPa) = 52.15286 72.92715 62.54000
# Shear Modulus (GPa) = 45.51579 101.92363 73.71971
#
# Velocity S-wave (km/s) = 4.12144 6.16745 5.24518
# Velocity P-wave (km/s) = 6.48935 8.82795 7.74740
#
# Compressibility (1/GPa) = 0.01917441
#
# Stress axis : x y z
#
# Youngs Moduli (GPa) = 54.19712 124.12014 77.75861
#
# Poissons Ratio (x) = 0.55562 0.13942
# Poissons Ratio (y) = 0.24261 0.29761
# Poissons Ratio (z) = 0.09718 0.47506
#
# Static dielectric constant tensor:
#      x y z
#    x 2.023640 0.000000 0.082910 
#    y 0.000000 3.579320 0.000000 
#    z 0.082910 0.000000 1.999780 
# 
# From -- ./inp_files/20816.got.cif
#   From: 2010.05.17/outbox.cif.g08.bks.cpg/sg14_11_cif.got.tgz:20816.got - 2010.06.03 17:49:19.
