data_PCOD9250808
_publ_section_title
;
Structure prediction by ZEFSAII (Michael W. Deem and Ramdas Pophale) SiO2 
 PCOD9250808
Probable space group: P 21/C
;
_chemical_formula_sum "Si O2"
_cell_formula_units_Z 26
_cell_length_a 20.625151
_cell_length_b 5.663355
_cell_length_c 14.248677
_cell_angle_alpha 90.000000
_cell_angle_beta 143.234873
_cell_angle_gamma 90.000000
_cell_volume 996.175441
_symmetry_space_group_name_H-M "P 21/C"
_symmetry_group_IT_number 14
_symmetry_cell_setting 'monoclinic'
loop_
_space_group_symop_operation_xyz
x,y,z
-x,1/2+y,1/2-z
-x,-y,-z
x,1/2-y,1/2+z
loop_
_atom_site_type_symbol
_atom_site_label
_atom_site_fract_x
_atom_site_fract_y
_atom_site_fract_z
Si Si1 0.918251 0.551416 0.065967
Si Si2 0.503747 0.739802 0.120813
Si Si3 0.428117 0.242967 0.008966
Si Si4 0.802744 0.672408 0.226031
Si Si5 0.253089 0.378899 0.543373
Si Si6 0.138843 0.769682 0.327618
Si Si7 0.000000 0.000000 0.500000
O O1 0.930598 0.430171 0.181151
O O2 0.041883 0.611851 0.170793
O O3 0.835036 0.757032 0.991867
O O4 0.900948 0.381184 0.959104
O O5 0.449874 0.490558 0.087524
O O6 0.628292 0.707940 0.294775
O O7 0.454317 0.995040 0.090746
O O8 0.500031 0.748650 0.002196
O O9 0.302263 0.261499 0.835919
O O10 0.806666 0.406109 0.193085
O O11 0.916434 0.762635 0.394406
O O12 0.776580 0.801559 0.096596
O O13 0.226351 0.655137 0.499620
#
# Coordination Sequence:
#
# PCOD9250808 Si02
#       7
#     4   4   4   4   4   4   2
#     4  11  22  41  65  96 143 184 238 298 367 444
#     4  10  24  46  75 102 142 189 241 298 380 439
#     4  10  24  48  71 108 142 184 241 310 367 445
#     4  11  26  42  68 102 144 181 244 304 366 447
#     4  11  24  43  69  99 139 197 236 301 365 450
#     4  11  22  44  67  98 142 197 239 301 372 457
#     4  12  24  44  64 108 140 188 238 304 372 446
#
# _framework density 26.099820999999999
#
# number of rings (size 3 to 8) (size 9 to 14) (size 15 to 20)
#    0.000    1.231    3.077    1.846    6.462    1.846 
#    5.538    0.000    0.000    0.000    0.000    0.000 
#    0.000    0.000    0.000    0.000    0.000    0.000 
#
# Total GULP energy -144805.313726 kJ/mol
# GULP energy per Si atom -5569.435143 kJ/mol
# Density = 2.604042 g / cm^3
# Si number density = 26.099821 Si / 1000 Ang^3
#
#
#
# Elastic Constant Matrix: (Units=GPa)
#
#
# Indices 1 2 3 4 5 6 
#
# 1 86.1670 27.6781 7.7892 0.0000 -0.9855 0.0000
# 2 27.6781 149.7070 73.9560 0.0000 25.9677 0.0000
# 3 7.7892 73.9560 116.7788 0.0000 9.2924 0.0000
# 4 0.0000 0.0000 0.0000 33.6487 0.0000 4.5636
# 5 -0.9855 25.9677 9.2924 0.0000 38.7014 0.0000
# 6 0.0000 0.0000 0.0000 4.5636 0.0000 29.7811
#
#
#
# Elastic Compliance Matrix: (Units=1/GPa)
#
#
# Indices 1 2 3 4 5 6 
#
# 1 0.012572 -0.003216 0.001020 0.000000 0.002233 0.000000
# 2 -0.003216 0.011663 -0.006670 0.000000 -0.006306 0.000000
# 3 0.001020 -0.006670 0.012602 0.000000 0.001476 0.000000
# 4 0.000000 0.000000 0.000000 0.030350 0.000000 -0.004651
# 5 0.002233 -0.006306 0.001476 0.000000 0.029773 0.000000
# 6 0.000000 0.000000 0.000000 -0.004651 0.000000 0.034291
#
#
# Mechanical properties :
#
#
# Convention : Reuss Voigt Hill
#
# Bulk Modulus (GPa) = 52.33991 63.49993 57.91992
# Shear Modulus (GPa) = 32.18569 36.64155 34.41362
#
# Velocity S-wave (km/s) = 3.51547 3.75093 3.63511
# Velocity P-wave (km/s) = 6.04775 6.56824 6.31336
#
# Compressibility (1/GPa) = 0.01910588
#
# Stress axis : x y z
#
# Youngs Moduli (GPa) = 79.54462 85.74135 79.35385
#
# Poissons Ratio (x) = 0.27570 -0.08096
# Poissons Ratio (y) = 0.25578 0.52928
# Poissons Ratio (z) = -0.08115 0.57189
#
# Static dielectric constant tensor:
#      x y z
#    x 2.371070 0.000000 -0.133290 
#    y 0.000000 2.340740 0.000000 
#    z -0.133290 0.000000 2.164750 
# 
# From -- ./inp_files/61628.got.cif
#   From: 2010.05.17/outbox.cif.g08.bks.cpg/sg14_31_cif.got.tgz:61628.got - 2010.06.03 17:49:19.
