data_PCOD9250626
_publ_section_title
;
Structure prediction by ZEFSAII (Michael W. Deem and Ramdas Pophale) SiO2 
 PCOD9250626
Probable space group: P 21/C
;
_chemical_formula_sum "Si O2"
_cell_formula_units_Z 28
_cell_length_a 11.728611
_cell_length_b 8.210419
_cell_length_c 20.463360
_cell_angle_alpha 90.000000
_cell_angle_beta 141.706107
_cell_angle_gamma 90.000000
_cell_volume 1221.144639
_symmetry_space_group_name_H-M "P 21/C"
_symmetry_group_IT_number 14
_symmetry_cell_setting 'monoclinic'
loop_
_space_group_symop_operation_xyz
x,y,z
-x,1/2+y,1/2-z
-x,-y,-z
x,1/2-y,1/2+z
loop_
_atom_site_type_symbol
_atom_site_label
_atom_site_fract_x
_atom_site_fract_y
_atom_site_fract_z
Si Si1 0.513512 0.341816 0.198053
Si Si2 0.895136 0.997399 0.884748
Si Si3 0.935357 0.845314 0.160117
Si Si4 0.244438 0.951787 0.653598
Si Si5 0.426971 0.346074 0.007487
Si Si6 0.769149 0.202004 0.110073
Si Si7 0.940100 0.340848 0.063113
O O1 0.681736 0.461243 0.291752
O O2 0.601989 0.163799 0.246279
O O3 0.344215 0.388945 0.168350
O O4 0.455368 0.368091 0.097405
O O5 0.932604 0.818578 0.873984
O O6 0.989803 0.127893 0.879320
O O7 0.000000 0.000000 0.000000
O O8 0.105243 0.799306 0.281999
O O9 0.845295 0.019530 0.137445
O O10 0.781369 0.707254 0.097693
O O11 0.157047 0.859672 0.551242
O O12 0.081074 0.007705 0.628256
O O13 0.562649 0.204289 0.043256
O O14 0.500000 0.500000 0.000000
O O15 0.792626 0.304290 0.053090
#
# Coordination Sequence:
#
# PCOD9250626 Si02
#       7
#     4   4   4   4   4   4   4
#     4  12  26  43  71 102 143 180 237 297 352 426
#     4  11  23  46  71 102 137 184 238 290 356 423
#     4  11  26  44  76 102 143 189 232 298 356 428
#     4  11  25  43  67 105 135 188 230 290 357 415
#     4  12  27  46  70 105 143 188 239 293 353 431
#     4  11  24  47  68 106 139 187 236 286 358 421
#     4  10  24  44  71  97 143 180 230 291 347 424
#
# _framework density 22.929307000000001
#
# number of rings (size 3 to 8) (size 9 to 14) (size 15 to 20)
#    0.000    0.857    2.857    3.000    8.000    1.143 
#    2.571    0.000    0.000    0.000    0.000    0.000 
#    0.000    0.000    0.000    0.000    0.000    0.000 
#
# Total GULP energy -156746.864149 kJ/mol
# GULP energy per Si atom -5598.102291 kJ/mol
# Density = 2.287712 g / cm^3
# Si number density = 22.929307 Si / 1000 Ang^3
#
#
#
# Elastic Constant Matrix: (Units=GPa)
#
#
# Indices 1 2 3 4 5 6 
#
# 1 74.6438 9.7793 14.5562 0.0000 9.6252 0.0000
# 2 9.7793 88.3384 3.1341 0.0000 -4.4174 0.0000
# 3 14.5562 3.1341 41.3381 0.0000 -3.5428 0.0000
# 4 0.0000 0.0000 0.0000 38.6265 0.0000 16.4438
# 5 9.6252 -4.4174 -3.5428 0.0000 36.6225 0.0000
# 6 0.0000 0.0000 0.0000 16.4438 0.0000 35.9502
#
#
#
# Elastic Compliance Matrix: (Units=1/GPa)
#
#
# Indices 1 2 3 4 5 6 
#
# 1 0.015351 -0.001737 -0.005685 0.000000 -0.004794 0.000000
# 2 -0.001737 0.011609 -0.000110 0.000000 0.001846 0.000000
# 3 -0.005685 -0.000110 0.026548 0.000000 0.004049 0.000000
# 4 0.000000 0.000000 0.000000 0.032149 0.000000 -0.014705
# 5 -0.004794 0.001846 0.004049 0.000000 0.029180 0.000000
# 6 0.000000 0.000000 0.000000 -0.014705 0.000000 0.034542
#
#
# Mechanical properties :
#
#
# Convention : Reuss Voigt Hill
#
# Bulk Modulus (GPa) = 26.01234 28.80659 27.40947
# Shear Modulus (GPa) = 28.20740 34.02991 31.11865
#
# Velocity S-wave (km/s) = 3.51121 3.85661 3.68796
# Velocity P-wave (km/s) = 5.27327 5.69401 5.48767
#
# Compressibility (1/GPa) = 0.03844329
#
# Stress axis : x y z
#
# Youngs Moduli (GPa) = 65.14078 86.14243 37.66782
#
# Poissons Ratio (x) = 0.14967 0.21413
# Poissons Ratio (y) = 0.11318 0.00415
# Poissons Ratio (z) = 0.37031 0.00948
#
# Static dielectric constant tensor:
#      x y z
#    x 1.872950 0.000000 0.000240 
#    y 0.000000 1.840080 0.000000 
#    z 0.000240 0.000000 1.777320 
# 
# From -- ./inp_files/67072.got.cif
#   From: 2010.05.17/outbox.cif.g08.bks.cpg/sg14_34_cif.got.tgz:67072.got - 2010.06.03 17:49:19.
