data_PCOD9250566
_publ_section_title
;
Structure prediction by ZEFSAII (Michael W. Deem and Ramdas Pophale) SiO2 
 PCOD9250566
Probable space group: P 21/C
;
_chemical_formula_sum "Si O2"
_cell_formula_units_Z 28
_cell_length_a 20.360857
_cell_length_b 8.400322
_cell_length_c 14.127138
_cell_angle_alpha 90.000000
_cell_angle_beta 30.746147
_cell_angle_gamma 90.000000
_cell_volume 1235.284527
_symmetry_space_group_name_H-M "P 21/C"
_symmetry_group_IT_number 14
_symmetry_cell_setting 'monoclinic'
loop_
_space_group_symop_operation_xyz
x,y,z
-x,1/2+y,1/2-z
-x,-y,-z
x,1/2-y,1/2+z
loop_
_atom_site_type_symbol
_atom_site_label
_atom_site_fract_x
_atom_site_fract_y
_atom_site_fract_z
Si Si1 0.786788 0.034324 0.223547
Si Si2 0.589486 0.814576 0.791000
Si Si3 0.661102 0.989428 0.874977
Si Si4 0.119424 0.479896 0.749740
Si Si5 0.574732 0.665467 0.086986
Si Si6 0.983993 0.736775 0.485880
Si Si7 0.685441 0.028561 0.159468
O O1 0.886200 0.137070 0.160899
O O2 0.664057 0.972140 0.432605
O O3 0.743608 0.113881 0.179070
O O4 0.870687 0.877761 0.092950
O O5 0.675293 0.929966 0.749944
O O6 0.607445 0.826169 0.656827
O O7 0.618419 0.632773 0.780937
O O8 0.444448 0.872298 0.990585
O O9 0.786908 0.028141 0.778523
O O10 0.604507 0.833853 0.000354
O O11 0.204040 0.480602 0.551296
O O12 0.012575 0.616625 0.881336
O O13 0.060395 0.313773 0.858683
O O14 0.425829 0.625072 0.255320
#
# Coordination Sequence:
#
# PCOD9250566 Si02
#       7
#     4   4   4   4   4   4   4
#     4  11  24  43  65  96 130 172 218 273 326 388
#     4  11  22  38  63  95 134 171 206 260 335 396
#     4  11  23  38  62  95 136 171 208 262 330 393
#     4  11  22  44  65  93 129 173 221 271 320 390
#     4  12  22  41  64  99 135 168 211 273 335 394
#     4  10  24  44  66  87 129 179 221 271 318 384
#     4  12  24  40  69  98 130 170 214 276 335 390
#
# _framework density 22.666843
#
# number of rings (size 3 to 8) (size 9 to 14) (size 15 to 20)
#    0.000    0.857    5.714    0.429    2.000    3.429 
#    0.000    5.714    0.000    0.000    0.000    0.000 
#    0.000    0.000    0.000    0.000    0.000    0.000 
#
# Total GULP energy -156682.379137 kJ/mol
# GULP energy per Si atom -5595.799255 kJ/mol
# Density = 2.261525 g / cm^3
# Si number density = 22.666843 Si / 1000 Ang^3
#
#
#
# Elastic Constant Matrix: (Units=GPa)
#
#
# Indices 1 2 3 4 5 6 
#
# 1 89.6246 -8.0069 2.6616 0.0000 18.6007 0.0000
# 2 -8.0069 50.0405 21.5019 0.0000 -1.3224 0.0000
# 3 2.6616 21.5019 75.9352 0.0000 2.8669 0.0000
# 4 0.0000 0.0000 0.0000 29.4754 0.0000 -10.9134
# 5 18.6007 -1.3224 2.8669 0.0000 20.9639 0.0000
# 6 0.0000 0.0000 0.0000 -10.9134 0.0000 25.7942
#
#
#
# Elastic Compliance Matrix: (Units=1/GPa)
#
#
# Indices 1 2 3 4 5 6 
#
# 1 0.013881 0.002180 -0.000647 0.000000 -0.012090 0.000000
# 2 0.002180 0.023208 -0.006665 0.000000 0.000441 0.000000
# 3 -0.000647 -0.006665 0.015151 0.000000 -0.001918 0.000000
# 4 0.000000 0.000000 0.000000 0.040228 0.000000 0.017020
# 5 -0.012090 0.000441 -0.001918 0.000000 0.058718 0.000000
# 6 0.000000 0.000000 0.000000 0.017020 0.000000 0.045970
#
#
# Mechanical properties :
#
#
# Convention : Reuss Voigt Hill
#
# Bulk Modulus (GPa) = 23.82335 27.54593 25.68464
# Shear Modulus (GPa) = 22.58224 28.54295 25.56260
#
# Velocity S-wave (km/s) = 3.15979 3.55242 3.36185
# Velocity P-wave (km/s) = 4.88318 5.38565 5.14056
#
# Compressibility (1/GPa) = 0.04197562
#
# Stress axis : x y z
#
# Youngs Moduli (GPa) = 72.04216 43.08865 66.00050
#
# Poissons Ratio (x) = -0.09392 0.04272
# Poissons Ratio (y) = -0.15703 0.43987
# Poissons Ratio (z) = 0.04663 0.28717
#
# Static dielectric constant tensor:
#      x y z
#    x 1.826300 0.000000 -0.010870 
#    y 0.000000 1.875880 0.000000 
#    z -0.010870 0.000000 1.831690 
# 
# From -- ./inp_files/43475.got.cif
#   From: 2010.05.17/outbox.cif.g08.bks.cpg/sg14_22_cif.got.tgz:43475.got - 2010.06.03 17:49:19.
