data_PCOD9250658
_publ_section_title
;
Structure prediction by ZEFSAII (Michael W. Deem and Ramdas Pophale) SiO2 
 PCOD9250658
Probable space group: P 21/C
;
_chemical_formula_sum "Si O2"
_cell_formula_units_Z 28
_cell_length_a 7.945610
_cell_length_b 31.289301
_cell_length_c 7.971952
_cell_angle_alpha 90.000000
_cell_angle_beta 36.016233
_cell_angle_gamma 90.000000
_cell_volume 1165.402032
_symmetry_space_group_name_H-M "P 21/C"
_symmetry_group_IT_number 14
_symmetry_cell_setting 'monoclinic'
loop_
_space_group_symop_operation_xyz
x,y,z
-x,1/2+y,1/2-z
-x,-y,-z
x,1/2-y,1/2+z
loop_
_atom_site_type_symbol
_atom_site_label
_atom_site_fract_x
_atom_site_fract_y
_atom_site_fract_z
Si Si1 0.053093 0.782947 0.524838
Si Si2 0.241622 0.468572 0.149994
Si Si3 0.425419 0.377148 0.101212
Si Si4 0.637694 0.471796 0.530686
Si Si5 0.098379 0.304426 0.201527
Si Si6 0.394800 0.337810 0.476598
Si Si7 0.665852 0.381283 0.546427
O O1 0.845952 0.786223 0.528679
O O2 0.052658 0.734310 0.582251
O O3 0.363679 0.800804 0.227004
O O4 0.909968 0.813871 0.779602
O O5 0.244924 0.422107 0.237661
O O6 0.925470 0.489628 0.388848
O O7 0.500000 0.500000 0.000000
O O8 0.365441 0.460613 0.864528
O O9 0.468541 0.369541 0.263921
O O10 0.336599 0.328346 0.118270
O O11 0.632358 0.386114 0.774497
O O12 0.500000 0.500000 0.500000
O O13 0.751905 0.425211 0.389453
O O14 0.898023 0.345112 0.335370
O O15 0.405763 0.363754 0.643341
#
# Coordination Sequence:
#
# PCOD9250658 Si02
#       7
#     4   4   4   4   4   4   4
#     4  11  26  42  67 103 132 185 232 292 342 428
#     4  11  25  46  69 109 140 186 238 294 362 431
#     4  11  24  43  72  95 143 186 227 296 356 419
#     4  11  24  45  74 102 141 190 233 296 364 423
#     4  11  23  44  69  93 147 174 238 287 357 412
#     4  11  26  43  67 103 136 182 241 278 357 416
#     4  10  24  45  66 101 140 184 233 291 355 426
#
# _framework density 24.026043999999999
#
# number of rings (size 3 to 8) (size 9 to 14) (size 15 to 20)
#    0.000    1.143    2.857    1.714    8.000    1.143 
#    2.571    0.000    0.000    0.000    0.000    0.000 
#    0.000    0.000    0.000    0.000    0.000    0.000 
#
# Total GULP energy -155913.790980 kJ/mol
# GULP energy per Si atom -5568.349678 kJ/mol
# Density = 2.397136 g / cm^3
# Si number density = 24.026044 Si / 1000 Ang^3
#
#
#
# Elastic Constant Matrix: (Units=GPa)
#
#
# Indices 1 2 3 4 5 6 
#
# 1 66.1486 32.0679 21.9057 0.0000 3.1008 0.0000
# 2 32.0679 109.6605 15.5976 0.0000 0.5336 0.0000
# 3 21.9057 15.5976 89.9740 0.0000 -9.1096 0.0000
# 4 0.0000 0.0000 0.0000 27.4656 0.0000 -6.4749
# 5 3.1008 0.5336 -9.1096 0.0000 34.0012 0.0000
# 6 0.0000 0.0000 0.0000 -6.4749 0.0000 29.8586
#
#
#
# Elastic Compliance Matrix: (Units=1/GPa)
#
#
# Indices 1 2 3 4 5 6 
#
# 1 0.018991 -0.004966 -0.004040 0.000000 -0.002736 0.000000
# 2 -0.004966 0.010660 -0.000627 0.000000 0.000118 0.000000
# 3 -0.004040 -0.000627 0.012586 0.000000 0.003750 0.000000
# 4 0.000000 0.000000 0.000000 0.038371 0.000000 0.008321
# 5 -0.002736 0.000118 0.003750 0.000000 0.030663 0.000000
# 6 0.000000 0.000000 0.000000 0.008321 0.000000 0.035296
#
#
# Mechanical properties :
#
#
# Convention : Reuss Voigt Hill
#
# Bulk Modulus (GPa) = 43.53150 44.99173 44.26162
# Shear Modulus (GPa) = 28.82033 31.34588 30.08311
#
# Velocity S-wave (km/s) = 3.46720 3.61593 3.54235
# Velocity P-wave (km/s) = 5.84692 6.01666 5.93239
#
# Compressibility (1/GPa) = 0.02297187
#
# Stress axis : x y z
#
# Youngs Moduli (GPa) = 52.65711 93.81095 79.45130
#
# Poissons Ratio (x) = 0.46582 0.32097
# Poissons Ratio (y) = 0.26147 0.04982
# Poissons Ratio (z) = 0.21273 0.05883
#
# Static dielectric constant tensor:
#      x y z
#    x 2.196210 0.000000 0.086720 
#    y 0.000000 1.975040 0.000000 
#    z 0.086720 0.000000 2.167260 
# 
# From -- ./inp_files/11315.got.cif
#   From: 2010.05.17/outbox.cif.g08.bks.cpg/sg14_6_cif.got.tgz:11315.got - 2010.06.03 17:49:19.
