data_PCOD9250439
_publ_section_title
;
Structure prediction by ZEFSAII (Michael W. Deem and Ramdas Pophale) SiO2 
 PCOD9250439
Probable space group: P 21/C
;
_chemical_formula_sum "Si O2"
_cell_formula_units_Z 22
_cell_length_a 11.064199
_cell_length_b 8.978763
_cell_length_c 9.986201
_cell_angle_alpha 90.000000
_cell_angle_beta 62.544699
_cell_angle_gamma 90.000000
_cell_volume 880.322740
_symmetry_space_group_name_H-M "P 21/C"
_symmetry_group_IT_number 14
_symmetry_cell_setting 'monoclinic'
loop_
_space_group_symop_operation_xyz
x,y,z
-x,1/2+y,1/2-z
-x,-y,-z
x,1/2-y,1/2+z
loop_
_atom_site_type_symbol
_atom_site_label
_atom_site_fract_x
_atom_site_fract_y
_atom_site_fract_z
Si Si1 0.500000 0.000000 0.000000
Si Si2 0.698428 0.951568 0.653621
Si Si3 0.047426 0.173547 0.593109
Si Si4 0.763321 0.267597 0.601990
Si Si5 0.523194 0.341574 0.916550
Si Si6 0.069218 0.498082 0.611826
O O1 0.373101 0.011402 0.171354
O O2 0.483318 0.814176 0.002941
O O3 0.850947 0.888387 0.570860
O O4 0.603745 0.837539 0.622578
O O5 0.703558 0.113325 0.578013
O O6 0.107273 0.328405 0.617925
O O7 0.899816 0.213623 0.609368
O O8 0.029731 0.058824 0.723281
O O9 0.659391 0.344694 0.756661
O O10 0.808000 0.386115 0.468139
O O11 0.500000 0.500000 0.000000
O O12 0.000000 0.500000 0.500000
#
# Coordination Sequence:
#
# PCOD9250439 Si02
#       6
#     2   4   4   4   4   4
#     4  10  28  50  74 114 150 194 268 312 396 464
#     4  11  26  47  76 110 148 205 257 322 395 471
#     4  11  24  43  75 106 154 199 256 325 393 461
#     4  10  25  45  70 110 148 198 256 327 389 467
#     4  11  28  45  79 104 155 200 262 317 395 468
#     4  10  24  42  71 104 148 197 252 316 392 461
#
# _framework density 24.990835000000001
#
# number of rings (size 3 to 8) (size 9 to 14) (size 15 to 20)
#    0.000    1.455    0.000    1.636   15.273    7.273 
#    0.000    0.000    0.000    0.000    0.000    0.000 
#    0.000    0.000    0.000    0.000    0.000    0.000 
#
# Total GULP energy -122667.688609 kJ/mol
# GULP energy per Si atom -5575.804028 kJ/mol
# Density = 2.493395 g / cm^3
# Si number density = 24.990835 Si / 1000 Ang^3
#
#
#
# Elastic Constant Matrix: (Units=GPa)
#
#
# Indices 1 2 3 4 5 6 
#
# 1 93.8803 19.7497 30.4560 0.0000 -13.3632 0.0000
# 2 19.7497 183.9467 78.3893 0.0000 -21.5679 0.0000
# 3 30.4560 78.3893 148.3097 0.0000 -39.1898 0.0000
# 4 0.0000 0.0000 0.0000 57.6847 0.0000 -14.3144
# 5 -13.3632 -21.5679 -39.1898 0.0000 38.9769 0.0000
# 6 0.0000 0.0000 0.0000 -14.3144 0.0000 25.0675
#
#
#
# Elastic Compliance Matrix: (Units=1/GPa)
#
#
# Indices 1 2 3 4 5 6 
#
# 1 0.011554 -0.000283 -0.001658 0.000000 0.002137 0.000000
# 2 -0.000283 0.007025 -0.003613 0.000000 0.000157 0.000000
# 3 -0.001658 -0.003613 0.011323 0.000000 0.008817 0.000000
# 4 0.000000 0.000000 0.000000 0.020198 0.000000 0.011534
# 5 0.002137 0.000157 0.008817 0.000000 0.035341 0.000000
# 6 0.000000 0.000000 0.000000 0.011534 0.000000 0.046478
#
#
# Mechanical properties :
#
#
# Convention : Reuss Voigt Hill
#
# Bulk Modulus (GPa) = 53.21476 75.92521 64.56998
# Shear Modulus (GPa) = 33.49148 44.18192 38.83670
#
# Velocity S-wave (km/s) = 3.66478 4.20923 3.94641
# Velocity P-wave (km/s) = 6.26477 7.35328 6.83074
#
# Compressibility (1/GPa) = 0.01879178
#
# Stress axis : x y z
#
# Youngs Moduli (GPa) = 86.55318 142.34757 88.31762
#
# Poissons Ratio (x) = 0.04032 0.14644
# Poissons Ratio (y) = 0.02452 0.31913
# Poissons Ratio (z) = 0.14351 0.51436
#
# Static dielectric constant tensor:
#      x y z
#    x 2.083530 0.000000 -0.020230 
#    y 0.000000 1.972510 0.000000 
#    z -0.020230 0.000000 1.762770 
# 
# From -- ./inp_files/31309.got.cif
#   From: 2010.05.17/outbox.cif.g08.bks.cpg/sg14_16_cif.got.tgz:31309.got - 2010.06.03 17:49:19.
