data_PCOD9250004
_publ_section_title
;
Structure prediction by ZEFSAII (Michael W. Deem and Ramdas Pophale) SiO2 
 PCOD9250004
Probable space group: P 21/C
;
_chemical_formula_sum "Si O2"
_cell_formula_units_Z 24
_cell_length_a 8.096828
_cell_length_b 5.248676
_cell_length_c 23.731035
_cell_angle_alpha 90.000000
_cell_angle_beta 81.417443
_cell_angle_gamma 90.000000
_cell_volume 997.219202
_symmetry_space_group_name_H-M "P 21/C"
_symmetry_group_IT_number 14
_symmetry_cell_setting 'monoclinic'
loop_
_space_group_symop_operation_xyz
x,y,z
-x,1/2+y,1/2-z
-x,-y,-z
x,1/2-y,1/2+z
loop_
_atom_site_type_symbol
_atom_site_label
_atom_site_fract_x
_atom_site_fract_y
_atom_site_fract_z
Si Si1 0.521484 0.751849 0.036486
Si Si2 0.237130 0.767048 0.238700
Si Si3 0.951568 0.588952 0.340474
Si Si4 0.305817 0.458759 0.128727
Si Si5 0.212687 0.246526 0.385322
Si Si6 0.378769 0.741709 0.338176
O O1 0.374723 0.698732 0.090050
O O2 0.703846 0.766861 0.057146
O O3 0.500000 0.500000 0.000000
O O4 0.500000 0.000000 0.000000
O O5 0.265014 0.540025 0.194404
O O6 0.392135 0.815263 0.271931
O O7 0.091447 0.702560 0.290953
O O8 0.178750 0.981881 0.198804
O O9 0.034937 0.366229 0.374931
O O10 0.853464 0.797265 0.382518
O O11 0.467546 0.283062 0.128296
O O12 0.329733 0.446422 0.345141
O O13 0.245275 0.953681 0.367655
#
# Coordination Sequence:
#
# PCOD9250004 Si02
#       6
#     4   4   4   4   4   4
#     4  11  25  49  73  95 126 179 244 308 353 398
#     4  11  23  38  65  96 149 182 212 259 343 429
#     4  11  23  40  64 102 145 184 215 274 351 435
#     4  11  26  40  67 103 135 183 233 286 339 421
#     4  10  23  45  69  97 135 178 227 291 352 414
#     4  10  24  40  66 100 139 183 229 268 335 426
#
# _framework density 24.066927
#
# number of rings (size 3 to 8) (size 9 to 14) (size 15 to 20)
#    0.000    1.333    1.667    3.000   14.000    1.333 
#    0.000    1.667    0.000    0.000    0.000    0.000 
#    0.000    0.000    0.000    0.000    0.000    0.000 
#
# Total GULP energy -133867.693899 kJ/mol
# GULP energy per Si atom -5577.820579 kJ/mol
# Density = 2.401215 g / cm^3
# Si number density = 24.066927 Si / 1000 Ang^3
#
#
#
# Elastic Constant Matrix: (Units=GPa)
#
#
# Indices 1 2 3 4 5 6 
#
# 1 65.7832 42.3933 45.3416 0.0000 -6.7312 0.0000
# 2 42.3933 83.0318 35.3670 0.0000 10.0976 0.0000
# 3 45.3416 35.3670 96.5428 0.0000 38.2326 0.0000
# 4 0.0000 0.0000 0.0000 50.0939 0.0000 5.3216
# 5 -6.7312 10.0976 38.2326 0.0000 25.8768 0.0000
# 6 0.0000 0.0000 0.0000 5.3216 0.0000 43.9202
#
#
#
# Elastic Compliance Matrix: (Units=1/GPa)
#
#
# Indices 1 2 3 4 5 6 
#
# 1 -0.061017 0.014928 0.076601 0.000000 -0.134874 0.000000
# 2 0.014928 0.010914 -0.026176 0.000000 0.038299 0.000000
# 3 0.076601 -0.026176 -0.067403 0.000000 0.129727 0.000000
# 4 0.000000 0.000000 0.000000 0.020223 0.000000 -0.002450
# 5 -0.134874 0.038299 0.129727 0.000000 -0.203055 0.000000
# 6 0.000000 0.000000 0.000000 -0.002450 0.000000 0.023065
#
#
# Mechanical properties :
#
#
# Convention : Reuss Voigt Hill
#
# Bulk Modulus (GPa) = 75.76313 54.61797 65.19055
# Shear Modulus (GPa) = -12.38918 32.12857 9.86970
#
# Velocity S-wave (km/s) = -2.27134 3.65769 2.02727
# Velocity P-wave (km/s) = 4.96688 6.37038 5.71190
#
# Compressibility (1/GPa) = 0.01319903
#
# Stress axis : x y z
#
# Youngs Moduli (GPa) = -16.38874 91.62547 -14.83621
#
# Poissons Ratio (x) = -1.36777 1.13647
# Poissons Ratio (y) = 0.24465 -0.38836
# Poissons Ratio (z) = 1.25540 2.39842
#
# Static dielectric constant tensor:
#      x y z
#    x 2.102570 0.000000 0.003450 
#    y 0.000000 1.965670 0.000000 
#    z 0.003450 0.000000 1.914590 
# 
# From -- ./inp_files/71621.got.cif
#   From: 2010.05.17/outbox.cif.g08.bks.cpg/sg14_36_cif.got.tgz:71621.got - 2010.06.03 17:49:19.
