data_PCOD9250799
_publ_section_title
;
Structure prediction by ZEFSAII (Michael W. Deem and Ramdas Pophale) SiO2 
 PCOD9250799
Probable space group: P 21/C
;
_chemical_formula_sum "Si O2"
_cell_formula_units_Z 28
_cell_length_a 14.387854
_cell_length_b 10.361328
_cell_length_c 9.011250
_cell_angle_alpha 90.000000
_cell_angle_beta 122.948949
_cell_angle_gamma 90.000000
_cell_volume 1127.298514
_symmetry_space_group_name_H-M "P 21/C"
_symmetry_group_IT_number 14
_symmetry_cell_setting 'monoclinic'
loop_
_space_group_symop_operation_xyz
x,y,z
-x,1/2+y,1/2-z
-x,-y,-z
x,1/2-y,1/2+z
loop_
_atom_site_type_symbol
_atom_site_label
_atom_site_fract_x
_atom_site_fract_y
_atom_site_fract_z
Si Si1 0.315837 0.784200 0.679805
Si Si2 0.893956 0.939805 0.322931
Si Si3 0.569527 0.905134 0.454076
Si Si4 0.201935 0.486122 0.975542
Si Si5 0.471029 0.800130 0.074346
Si Si6 0.936799 0.649900 0.365170
Si Si7 0.831606 0.451673 0.464071
O O1 0.371476 0.840241 0.876586
O O2 0.408364 0.796348 0.632893
O O3 0.275888 0.635711 0.662765
O O4 0.213788 0.864475 0.527053
O O5 0.800197 0.920547 0.366759
O O6 0.921959 0.794974 0.299979
O O7 0.848849 0.030458 0.154051
O O8 0.000000 0.000000 0.500000
O O9 0.695882 0.942377 0.536218
O O10 0.555005 0.771074 0.534642
O O11 0.500000 0.000000 0.500000
O O12 0.521830 0.894304 0.243124
O O13 0.092693 0.444744 0.795840
O O14 0.853294 0.595257 0.417974
O O15 0.064285 0.625853 0.515360
#
# Coordination Sequence:
#
# PCOD9250799 Si02
#       7
#     4   4   4   4   4   4   4
#     4  11  22  45  73 111 138 201 263 303 391 452
#     4  12  25  46  68 105 149 199 253 306 385 470
#     4  11  25  49  72 111 154 193 255 326 382 456
#     4  12  25  44  73 105 150 199 243 319 382 463
#     4  10  24  46  74 106 146 193 251 320 380 461
#     4  11  26  45  68 106 149 196 244 312 395 443
#     4  11  25  43  75 103 150 196 250 325 364 468
#
# _framework density 24.838142000000001
#
# number of rings (size 3 to 8) (size 9 to 14) (size 15 to 20)
#    0.000    0.857    2.857    3.429    4.000    1.714 
#    0.000    0.000    0.000    0.000    0.000    0.000 
#    0.000    0.000    0.000    0.000    0.000    0.000 
#
# Total GULP energy -156297.635650 kJ/mol
# GULP energy per Si atom -5582.058416 kJ/mol
# Density = 2.478161 g / cm^3
# Si number density = 24.838142 Si / 1000 Ang^3
#
#
#
# Elastic Constant Matrix: (Units=GPa)
#
#
# Indices 1 2 3 4 5 6 
#
# 1 108.7532 13.8509 33.9092 0.0000 -12.8446 0.0000
# 2 13.8509 83.8237 28.9710 0.0000 3.2156 0.0000
# 3 33.9092 28.9710 136.2544 0.0000 -23.4502 0.0000
# 4 0.0000 0.0000 0.0000 33.9138 0.0000 -2.8037
# 5 -12.8446 3.2156 -23.4502 0.0000 33.9800 0.0000
# 6 0.0000 0.0000 0.0000 -2.8037 0.0000 33.5805
#
#
#
# Elastic Compliance Matrix: (Units=1/GPa)
#
#
# Indices 1 2 3 4 5 6 
#
# 1 0.010235 -0.001162 -0.001833 0.000000 0.002714 0.000000
# 2 -0.001162 0.013391 -0.003236 0.000000 -0.003940 0.000000
# 3 -0.001833 -0.003236 0.009551 0.000000 0.006205 0.000000
# 4 0.000000 0.000000 0.000000 0.029691 0.000000 0.002479
# 5 0.002714 -0.003940 0.006205 0.000000 0.035110 0.000000
# 6 0.000000 0.000000 0.000000 0.002479 0.000000 0.029986
#
#
# Mechanical properties :
#
#
# Convention : Reuss Voigt Hill
#
# Bulk Modulus (GPa) = 48.27261 53.58816 50.93039
# Shear Modulus (GPa) = 33.93670 37.10155 35.51913
#
# Velocity S-wave (km/s) = 3.70038 3.86908 3.78567
# Velocity P-wave (km/s) = 6.14281 6.44837 6.29744
#
# Compressibility (1/GPa) = 0.02071568
#
# Stress axis : x y z
#
# Youngs Moduli (GPa) = 97.70221 74.67462 104.69634
#
# Poissons Ratio (x) = 0.08676 0.19192
# Poissons Ratio (y) = 0.11351 0.33883
# Poissons Ratio (z) = 0.17910 0.24167
#
# Static dielectric constant tensor:
#      x y z
#    x 1.995510 0.000000 -0.005840 
#    y 0.000000 2.033750 0.000000 
#    z -0.005840 0.000000 2.006600 
# 
# From -- ./inp_files/15883.got.cif
#   From: 2010.05.17/outbox.cif.g08.bks.cpg/sg14_8_cif.got.tgz:15883.got - 2010.06.03 17:49:19.
