data_PCOD9250067
_publ_section_title
;
Structure prediction by ZEFSAII (Michael W. Deem and Ramdas Pophale) SiO2 
 PCOD9250067
Probable space group: P 21/C
;
_chemical_formula_sum "Si O2"
_cell_formula_units_Z 28
_cell_length_a 16.558420
_cell_length_b 9.723423
_cell_length_c 8.102850
_cell_angle_alpha 90.000000
_cell_angle_beta 124.184831
_cell_angle_gamma 90.000000
_cell_volume 1079.199687
_symmetry_space_group_name_H-M "P 21/C"
_symmetry_group_IT_number 14
_symmetry_cell_setting 'monoclinic'
loop_
_space_group_symop_operation_xyz
x,y,z
-x,1/2+y,1/2-z
-x,-y,-z
x,1/2-y,1/2+z
loop_
_atom_site_type_symbol
_atom_site_label
_atom_site_fract_x
_atom_site_fract_y
_atom_site_fract_z
Si Si1 0.323501 0.396942 0.159269
Si Si2 0.566003 0.831914 0.540807
Si Si3 0.928071 0.196841 0.613835
Si Si4 0.645080 0.397887 0.258193
Si Si5 0.847298 0.058750 0.851451
Si Si6 0.232153 0.929212 0.794345
Si Si7 0.845020 0.680832 0.584021
O O1 0.380958 0.308697 0.360479
O O2 0.295565 0.541629 0.204305
O O3 0.393050 0.392944 0.082224
O O4 0.222640 0.314442 0.007807
O O5 0.450460 0.815041 0.400129
O O6 0.601484 0.945600 0.714809
O O7 0.896904 0.108819 0.739569
O O8 0.896574 0.356344 0.559332
O O9 0.043900 0.199181 0.734606
O O10 0.867446 0.135160 0.390181
O O11 0.733723 0.399833 0.229689
O O12 0.699008 0.360072 0.489818
O O13 0.850026 0.900772 0.913550
O O14 0.204804 0.074364 0.847473
#
# Coordination Sequence:
#
# PCOD9250067 Si02
#       7
#     4   4   4   4   4   4   4
#     4  12  23  41  71 106 137 177 228 287 340 410
#     4  11  22  42  70  98 134 179 224 284 347 401
#     4  12  27  41  70  98 138 189 222 283 345 405
#     4  10  23  46  67  96 139 177 225 289 335 412
#     4  11  24  46  65  99 136 178 233 276 345 405
#     4  11  24  43  67 100 141 177 230 280 343 409
#     4  11  25  43  68  99 141 177 232 284 333 417
#
# _framework density 25.945150000000002
#
# number of rings (size 3 to 8) (size 9 to 14) (size 15 to 20)
#    0.000    0.857    4.286    3.429    4.000    2.857 
#    0.000    0.000    0.000    0.000    0.000    0.000 
#    0.000    0.000    0.000    0.000    0.000    0.000 
#
# Total GULP energy -156865.334619 kJ/mol
# GULP energy per Si atom -5602.333379 kJ/mol
# Density = 2.588610 g / cm^3
# Si number density = 25.945150 Si / 1000 Ang^3
#
#
#
# Elastic Constant Matrix: (Units=GPa)
#
#
# Indices 1 2 3 4 5 6 
#
# 1 119.3088 8.7957 74.4849 0.0000 37.9450 0.0000
# 2 8.7957 32.5353 11.3634 0.0000 10.3297 0.0000
# 3 74.4849 11.3634 130.0224 0.0000 32.1542 0.0000
# 4 0.0000 0.0000 0.0000 33.9497 0.0000 -10.2113
# 5 37.9450 10.3297 32.1542 0.0000 68.4326 0.0000
# 6 0.0000 0.0000 0.0000 -10.2113 0.0000 28.3717
#
#
#
# Elastic Compliance Matrix: (Units=1/GPa)
#
#
# Indices 1 2 3 4 5 6 
#
# 1 0.014218 0.000066 -0.007013 0.000000 -0.004598 0.000000
# 2 0.000066 0.032672 -0.001883 0.000000 -0.004083 0.000000
# 3 -0.007013 -0.001883 0.012267 0.000000 -0.001591 0.000000
# 4 0.000000 0.000000 0.000000 0.033031 0.000000 0.011888
# 5 -0.004598 -0.004083 -0.001591 0.000000 0.018526 0.000000
# 6 0.000000 0.000000 0.000000 0.011888 0.000000 0.039525
#
#
# Mechanical properties :
#
#
# Convention : Reuss Voigt Hill
#
# Bulk Modulus (GPa) = 24.09951 52.35050 38.22500
# Shear Modulus (GPa) = 27.51302 38.63231 33.07267
#
# Velocity S-wave (km/s) = 3.25996 3.86294 3.57419
# Velocity P-wave (km/s) = 4.84547 6.33385 5.63898
#
# Compressibility (1/GPa) = 0.04149462
#
# Stress axis : x y z
#
# Youngs Moduli (GPa) = 70.33527 30.60701 81.52203
#
# Poissons Ratio (x) = -0.00201 0.57175
# Poissons Ratio (y) = -0.00462 0.15353
# Poissons Ratio (z) = 0.49329 0.05764
#
# Static dielectric constant tensor:
#      x y z
#    x 2.030250 0.000000 -0.065900 
#    y 0.000000 2.145860 0.000000 
#    z -0.065900 0.000000 2.025580 
# 
# From -- ./inp_files/15877.got.cif
#   From: 2010.05.17/outbox.cif.g08.bks.cpg/sg14_8_cif.got.tgz:15877.got - 2010.06.03 17:49:19.
