data_PCOD9250230
_publ_section_title
;
Structure prediction by ZEFSAII (Michael W. Deem and Ramdas Pophale) SiO2 
 PCOD9250230
Probable space group: P 21/C
;
_chemical_formula_sum "Si O2"
_cell_formula_units_Z 16
_cell_length_a 7.123793
_cell_length_b 12.066163
_cell_length_c 10.412596
_cell_angle_alpha 90.000000
_cell_angle_beta 120.678825
_cell_angle_gamma 90.000000
_cell_volume 769.765780
_symmetry_space_group_name_H-M "P 21/C"
_symmetry_group_IT_number 14
_symmetry_cell_setting 'monoclinic'
loop_
_space_group_symop_operation_xyz
x,y,z
-x,1/2+y,1/2-z
-x,-y,-z
x,1/2-y,1/2+z
loop_
_atom_site_type_symbol
_atom_site_label
_atom_site_fract_x
_atom_site_fract_y
_atom_site_fract_z
Si Si1 0.790052 0.428220 0.771876
Si Si2 0.728657 0.668618 0.712381
Si Si3 0.819652 0.068448 0.587103
Si Si4 0.495851 0.722312 0.895498
O O1 0.669828 0.537956 0.677020
O O2 0.688118 0.317027 0.683925
O O3 0.047074 0.455465 0.835330
O O4 0.765859 0.431228 0.917891
O O5 0.616852 0.711314 0.802782
O O6 0.652993 0.736612 0.563607
O O7 0.987743 0.659369 0.825062
O O8 0.619170 0.107572 0.602774
#
# Coordination Sequence:
#
# PCOD9250230 Si02
#       4
#     4   4   4   4
#     4   9  21  44  57  92 126 151 206 255 288 366
#     4  10  24  37  65  89 122 160 205 242 303 358
#     4   9  22  40  61  88 127 155 196 257 296 354
#     4  12  21  42  63  91 121 165 198 249 302 358
#
# _framework density 20.785543000000001
#
# number of rings (size 3 to 8) (size 9 to 14) (size 15 to 20)
#    1.500    0.500    2.500    0.750    3.500    1.000 
#    4.500    1.250    0.000    0.000    0.000    0.000 
#    0.000    0.000    0.000    0.000    0.000    0.000 
#
# Total GULP energy -89203.636197 kJ/mol
# GULP energy per Si atom -5575.227262 kJ/mol
# Density = 2.073823 g / cm^3
# Si number density = 20.785543 Si / 1000 Ang^3
#
#
#
# Elastic Constant Matrix: (Units=GPa)
#
#
# Indices 1 2 3 4 5 6 
#
# 1 19.1122 30.5878 6.1601 0.0000 2.1036 0.0000
# 2 30.5878 82.7648 35.5365 0.0000 0.1607 0.0000
# 3 6.1601 35.5365 65.6352 0.0000 1.1119 0.0000
# 4 0.0000 0.0000 0.0000 -2.0370 0.0000 10.2299
# 5 2.1036 0.1607 1.1119 0.0000 17.4614 0.0000
# 6 0.0000 0.0000 0.0000 10.2299 0.0000 33.7508
#
#
#
# Elastic Compliance Matrix: (Units=1/GPa)
#
#
# Indices 1 2 3 4 5 6 
#
# 1 0.152258 -0.065453 0.021472 0.000000 -0.019108 0.000000
# 2 -0.065453 0.043882 -0.017761 0.000000 0.008612 0.000000
# 3 0.021472 -0.017761 0.022903 0.000000 -0.003882 0.000000
# 4 0.000000 0.000000 0.000000 -0.194638 0.000000 0.058995
# 5 -0.019108 0.008612 -0.003882 0.000000 0.059739 0.000000
# 6 0.000000 0.000000 0.000000 0.058995 0.000000 0.011747
#
#
# Mechanical properties :
#
#
# Convention : Reuss Voigt Hill
#
# Bulk Modulus (GPa) = 10.46495 34.67565 22.57030
# Shear Modulus (GPa) = 19.90210 16.18357 18.04284
#
# Velocity S-wave (km/s) = 3.09770 2.79336 2.94946
# Velocity P-wave (km/s) = 4.22374 5.20794 4.74145
#
# Compressibility (1/GPa) = 0.09555711
#
# Stress axis : x y z
#
# Youngs Moduli (GPa) = 6.56778 22.78857 43.66278
#
# Poissons Ratio (x) = 1.49158 -0.93751
# Poissons Ratio (y) = 0.42988 0.77552
# Poissons Ratio (z) = -0.14102 0.40476
#
# Static dielectric constant tensor:
#      x y z
#    x 1.755410 0.000000 0.049940 
#    y 0.000000 1.785910 0.000000 
#    z 0.049940 0.000000 1.701950 
# 
# From -- ./inp_files/5035.got.cif
#   From: 2010.05.17/outbox.cif.g08.bks.cpg/sg14_3_cif.got.tgz:5035.got - 2010.06.03 17:49:19.
