data_PCOD9250402
_publ_section_title
;
Structure prediction by ZEFSAII (Michael W. Deem and Ramdas Pophale) SiO2 
 PCOD9250402
Probable space group: P 21/C
;
_chemical_formula_sum "Si O2"
_cell_formula_units_Z 30
_cell_length_a 29.603893
_cell_length_b 4.680814
_cell_length_c 8.277272
_cell_angle_alpha 90.000000
_cell_angle_beta 109.719660
_cell_angle_gamma 90.000000
_cell_volume 1079.719110
_symmetry_space_group_name_H-M "P 21/C"
_symmetry_group_IT_number 14
_symmetry_cell_setting 'monoclinic'
loop_
_space_group_symop_operation_xyz
x,y,z
-x,1/2+y,1/2-z
-x,-y,-z
x,1/2-y,1/2+z
loop_
_atom_site_type_symbol
_atom_site_label
_atom_site_fract_x
_atom_site_fract_y
_atom_site_fract_z
Si Si1 0.099111 0.912962 0.151124
Si Si2 0.500000 0.000000 0.500000
Si Si3 0.763885 0.396148 0.664371
Si Si4 0.965520 0.007682 0.204492
Si Si5 0.572181 0.662626 0.357146
Si Si6 0.703231 0.950328 0.800468
Si Si7 0.167017 0.941927 0.492838
Si Si8 0.365450 0.549419 0.286470
O O1 0.067345 0.680608 0.209003
O O2 0.130136 0.087814 0.321825
O O3 0.134486 0.746151 0.072546
O O4 0.065803 0.084050 0.987666
O O5 0.528231 0.805046 0.400269
O O6 0.548019 0.992004 0.676404
O O7 0.734491 0.136195 0.712138
O O8 0.731677 0.571611 0.501766
O O9 0.793268 0.572211 0.837195
O O10 0.802114 0.254830 0.588765
O O11 0.005251 0.238804 0.196641
O O12 0.607903 0.902926 0.331585
O O13 0.599045 0.467908 0.519513
O O14 0.655952 0.143261 0.772856
O O15 0.681236 0.645967 0.731532
#
# Coordination Sequence:
#
# PCOD9250402 Si02
#       8
#     4   2   4   4   4   4   4   4
#     4   9  18  34  60  84 121 157 202 256 310 376
#     4  10  24  44  64  96 132 182 228 280 336 398
#     4   9  18  34  63  90 124 162 210 259 312 386
#     4  11  22  37  60  87 116 155 201 254 313 374
#     4  10  24  42  67  98 137 177 228 279 336 404
#     4  11  22  39  65  94 128 166 210 265 325 385
#     4   8  16  34  60  88 119 163 206 253 314 374
#     4  11  24  42  67  99 133 173 217 273 334 396
#
# _framework density 27.785005000000002
#
# number of rings (size 3 to 8) (size 9 to 14) (size 15 to 20)
#    0.000    2.133    0.000    2.400    0.000    6.400 
#    0.000    0.000    0.000  112.000    0.000    0.000 
#    0.000    0.000    0.000    0.000    0.000    0.000 
#
# Total GULP energy -167836.531672 kJ/mol
# GULP energy per Si atom -5594.551056 kJ/mol
# Density = 2.772176 g / cm^3
# Si number density = 27.785005 Si / 1000 Ang^3
#
#
#
# Elastic Constant Matrix: (Units=GPa)
#
#
# Indices 1 2 3 4 5 6 
#
# 1 125.0425 30.3863 48.3606 0.0000 -15.4319 0.0000
# 2 30.3863 95.2304 30.2543 0.0000 -2.1212 0.0000
# 3 48.3606 30.2543 174.2381 0.0000 28.8185 0.0000
# 4 0.0000 0.0000 0.0000 13.0285 0.0000 -26.2182
# 5 -15.4319 -2.1212 28.8185 0.0000 56.9951 0.0000
# 6 0.0000 0.0000 0.0000 -26.2182 0.0000 14.6815
#
#
#
# Elastic Compliance Matrix: (Units=1/GPa)
#
#
# Indices 1 2 3 4 5 6 
#
# 1 0.010294 -0.002174 -0.003195 0.000000 0.004322 0.000000
# 2 -0.002174 0.011694 -0.001530 0.000000 0.000620 0.000000
# 3 -0.003195 -0.001530 0.007687 0.000000 -0.004809 0.000000
# 4 0.000000 0.000000 0.000000 -0.029593 0.000000 -0.052847
# 5 0.004322 0.000620 -0.004809 0.000000 0.021170 0.000000
# 6 0.000000 0.000000 0.000000 -0.052847 0.000000 -0.026261
#
#
# Mechanical properties :
#
#
# Convention : Reuss Voigt Hill
#
# Bulk Modulus (GPa) = 62.97459 68.05705 65.51582
# Shear Modulus (GPa) = 355.08435 35.97500 195.52967
#
# Velocity S-wave (km/s) = 11.31700 3.60219 8.39793
# Velocity P-wave (km/s) = 13.90972 6.46903 10.84732
#
# Compressibility (1/GPa) = 0.01587942
#
# Stress axis : x y z
#
# Youngs Moduli (GPa) = 97.14046 85.51212 130.09076
#
# Poissons Ratio (x) = 0.18587 0.41559
# Poissons Ratio (y) = 0.21114 0.19902
# Poissons Ratio (z) = 0.31033 0.13082
#
# Static dielectric constant tensor:
#      x y z
#    x 2.194300 0.000000 0.020130 
#    y 0.000000 2.114150 0.000000 
#    z 0.020130 0.000000 2.088650 
# 
# From -- ./inp_files/19857.got.cif
#   From: 2010.05.17/outbox.cif.g08.bks.cpg/sg14_10_cif.got.tgz:19857.got - 2010.06.03 17:49:19.
