data_PCOD9250911
_publ_section_title
;
Structure prediction by ZEFSAII (Michael W. Deem and Ramdas Pophale) SiO2 
 PCOD9250911
Probable space group: P 21/C
;
_chemical_formula_sum "Si O2"
_cell_formula_units_Z 22
_cell_length_a 27.889918
_cell_length_b 4.805797
_cell_length_c 17.782343
_cell_angle_alpha 90.000000
_cell_angle_beta 160.472648
_cell_angle_gamma 90.000000
_cell_volume 796.676344
_symmetry_space_group_name_H-M "P 21/C"
_symmetry_group_IT_number 14
_symmetry_cell_setting 'monoclinic'
loop_
_space_group_symop_operation_xyz
x,y,z
-x,1/2+y,1/2-z
-x,-y,-z
x,1/2-y,1/2+z
loop_
_atom_site_type_symbol
_atom_site_label
_atom_site_fract_x
_atom_site_fract_y
_atom_site_fract_z
Si Si1 0.184077 0.292902 0.538010
Si Si2 0.000000 0.000000 0.000000
Si Si3 0.427654 0.701151 0.235561
Si Si4 0.500000 0.000000 0.000000
Si Si5 0.300165 0.298360 0.463919
Si Si6 0.055010 0.790736 0.427223
Si Si7 0.500000 0.000000 0.500000
O O1 0.354088 0.246591 0.787068
O O2 0.145642 0.602596 0.504056
O O3 0.106927 0.246142 0.344112
O O4 0.106587 0.100008 0.485066
O O5 0.142091 0.204927 0.210778
O O6 0.066803 0.819512 0.027748
O O7 0.586712 0.728582 0.437162
O O8 0.364183 0.406631 0.121113
O O9 0.319939 0.903316 0.031670
O O10 0.432751 0.753678 0.332699
O O11 0.561234 0.248560 0.032441
#
# Coordination Sequence:
#
# PCOD9250911 Si02
#       7
#     4   2   4   2   4   4   2
#     4  10  24  51  73 116 162 215 275 357 424 500
#     4  12  28  48  84 120 158 230 286 334 428 522
#     4  10  24  50  75 116 163 214 270 358 420 498
#     4  12  26  40  82 118 154 206 288 348 424 506
#     4  10  25  49  77 110 170 215 272 340 429 508
#     4  10  25  47  78 109 171 217 271 346 427 513
#     4  12  26  44  80 120 150 212 282 354 420 508
#
# _framework density 27.614727999999999
#
# number of rings (size 3 to 8) (size 9 to 14) (size 15 to 20)
#    0.000    1.455    0.000    2.182    7.636    4.364 
#    6.545    0.000    0.000    0.000    0.000    0.000 
#    0.000    0.000    0.000    0.000    0.000    0.000 
#
# Total GULP energy -122504.108294 kJ/mol
# GULP energy per Si atom -5568.368559 kJ/mol
# Density = 2.755188 g / cm^3
# Si number density = 27.614728 Si / 1000 Ang^3
#
#
#
# Elastic Constant Matrix: (Units=GPa)
#
#
# Indices 1 2 3 4 5 6 
#
# 1 114.8667 5.7936 50.3245 0.0000 -13.2887 0.0000
# 2 5.7936 172.1171 13.1679 0.0000 -17.1951 0.0000
# 3 50.3245 13.1679 141.3717 0.0000 17.7126 0.0000
# 4 0.0000 0.0000 0.0000 27.7636 0.0000 -14.4661
# 5 -13.2887 -17.1951 17.7126 0.0000 54.4839 0.0000
# 6 0.0000 0.0000 0.0000 -14.4661 0.0000 32.8177
#
#
#
# Elastic Compliance Matrix: (Units=1/GPa)
#
#
# Indices 1 2 3 4 5 6 
#
# 1 0.011187 0.000406 -0.004564 0.000000 0.004340 0.000000
# 2 0.000406 0.006109 -0.001009 0.000000 0.002355 0.000000
# 3 -0.004564 -0.001009 0.009352 0.000000 -0.004472 0.000000
# 4 0.000000 0.000000 0.000000 0.046758 0.000000 0.020611
# 5 0.004340 0.002355 -0.004472 0.000000 0.021610 0.000000
# 6 0.000000 0.000000 0.000000 0.020611 0.000000 0.039557
#
#
# Mechanical properties :
#
#
# Convention : Reuss Voigt Hill
#
# Bulk Modulus (GPa) = 61.29164 62.99196 62.14180
# Shear Modulus (GPa) = 33.25726 46.95100 40.10413
#
# Velocity S-wave (km/s) = 3.47411 4.12784 3.81500
# Velocity P-wave (km/s) = 6.19161 6.75124 6.47747
#
# Compressibility (1/GPa) = 0.01631544
#
# Stress axis : x y z
#
# Youngs Moduli (GPa) = 89.39046 163.69943 106.92436
#
# Poissons Ratio (x) = -0.06650 0.48799
# Poissons Ratio (y) = -0.03631 0.10785
# Poissons Ratio (z) = 0.40797 0.16512
#
# Static dielectric constant tensor:
#      x y z
#    x 2.169870 0.000000 -0.036250 
#    y 0.000000 2.250020 0.000000 
#    z -0.036250 0.000000 2.207590 
# 
# From -- ./inp_files/62480.got.cif
#   From: 2010.05.17/outbox.cif.g08.bks.cpg/sg14_32_cif.got.tgz:62480.got - 2010.06.03 17:49:19.
