data_PCOD9250690
_publ_section_title
;
Structure prediction by ZEFSAII (Michael W. Deem and Ramdas Pophale) SiO2 
 PCOD9250690
Probable space group: P 21/C
;
_chemical_formula_sum "Si O2"
_cell_formula_units_Z 20
_cell_length_a 24.063794
_cell_length_b 5.055674
_cell_length_c 9.750905
_cell_angle_alpha 90.000000
_cell_angle_beta 142.975757
_cell_angle_gamma 90.000000
_cell_volume 714.323375
_symmetry_space_group_name_H-M "P 21/C"
_symmetry_group_IT_number 14
_symmetry_cell_setting 'monoclinic'
loop_
_space_group_symop_operation_xyz
x,y,z
-x,1/2+y,1/2-z
-x,-y,-z
x,1/2-y,1/2+z
loop_
_atom_site_type_symbol
_atom_site_label
_atom_site_fract_x
_atom_site_fract_y
_atom_site_fract_z
Si Si1 0.609571 0.195022 0.893395
Si Si2 0.893570 0.894058 0.381872
Si Si3 0.094780 0.751319 0.342529
Si Si4 0.249748 0.464155 0.974450
Si Si5 0.593710 0.803523 0.545821
O O1 0.513208 0.232547 0.622686
O O2 0.698162 0.284336 0.984898
O O3 0.607077 0.403081 0.014471
O O4 0.607093 0.903343 0.948136
O O5 0.806507 0.712497 0.244089
O O6 0.985764 0.724849 0.593074
O O7 0.888069 0.981138 0.210969
O O8 0.898850 0.156780 0.486540
O O9 0.172239 0.935884 0.426541
O O10 0.329542 0.285842 0.197314
#
# Coordination Sequence:
#
# PCOD9250690 Si02
#       5
#     4   4   4   4   4
#     4  10  24  45  70 108 154 204 249 316 388 458
#     4  11  29  49  74 110 149 206 251 325 386 467
#     4  11  29  49  74 106 154 195 259 314 395 462
#     4  12  26  43  75 111 143 198 262 320 379 466
#     4  10  24  45  71 106 157 201 252 315 386 460
#
# _framework density 27.998522000000001
#
# number of rings (size 3 to 8) (size 9 to 14) (size 15 to 20)
#    0.000    1.200    0.000    2.400   16.800    0.000 
#    0.000    6.000    0.000    0.000    0.000    0.000 
#    0.000    0.000    0.000    0.000    0.000    0.000 
#
# Total GULP energy -112159.922257 kJ/mol
# GULP energy per Si atom -5607.996113 kJ/mol
# Density = 2.793480 g / cm^3
# Si number density = 27.998522 Si / 1000 Ang^3
#
#
#
# Elastic Constant Matrix: (Units=GPa)
#
#
# Indices 1 2 3 4 5 6 
#
# 1 132.9663 60.1576 67.9223 0.0000 13.6438 0.0000
# 2 60.1576 59.2487 40.6810 0.0000 10.8648 0.0000
# 3 67.9223 40.6810 181.5829 0.0000 27.5486 0.0000
# 4 0.0000 0.0000 0.0000 46.1271 0.0000 -6.6464
# 5 13.6438 10.8648 27.5486 0.0000 35.7695 0.0000
# 6 0.0000 0.0000 0.0000 -6.6464 0.0000 36.2446
#
#
#
# Elastic Compliance Matrix: (Units=1/GPa)
#
#
# Indices 1 2 3 4 5 6 
#
# 1 0.014870 -0.013368 -0.002630 0.000000 0.000414 0.000000
# 2 -0.013368 0.032245 -0.001711 0.000000 -0.003377 0.000000
# 3 -0.002630 -0.001711 0.007522 0.000000 -0.004270 0.000000
# 4 0.000000 0.000000 0.000000 0.022268 0.000000 0.004083
# 5 0.000414 -0.003377 -0.004270 0.000000 0.032114 0.000000
# 6 0.000000 0.000000 0.000000 0.004083 0.000000 0.028339
#
#
# Mechanical properties :
#
#
# Convention : Reuss Voigt Hill
#
# Bulk Modulus (GPa) = 52.03300 79.03551 65.53426
# Shear Modulus (GPa) = 27.90454 37.29737 32.60096
#
# Velocity S-wave (km/s) = 3.16039 3.65378 3.41601
# Velocity P-wave (km/s) = 5.65172 6.78895 6.24627
#
# Compressibility (1/GPa) = 0.01921857
#
# Stress axis : x y z
#
# Youngs Moduli (GPa) = 67.25074 31.01226 132.93990
#
# Poissons Ratio (x) = 0.41457 0.34964
# Poissons Ratio (y) = 0.89900 0.22751
# Poissons Ratio (z) = 0.17687 0.05307
#
# Static dielectric constant tensor:
#      x y z
#    x 2.194090 0.000000 -0.049020 
#    y 0.000000 2.140640 0.000000 
#    z -0.049020 0.000000 2.134760 
# 
# From -- ./inp_files/36043.got.cif
#   From: 2010.05.17/outbox.cif.g08.bks.cpg/sg14_19_cif.got.tgz:36043.got - 2010.06.03 17:49:19.
