data_PCOD9250211
_publ_section_title
;
Structure prediction by ZEFSAII (Michael W. Deem and Ramdas Pophale) SiO2 
 PCOD9250211
Probable space group: P 21/C
;
_chemical_formula_sum "Si O2"
_cell_formula_units_Z 20
_cell_length_a 10.234410
_cell_length_b 4.810649
_cell_length_c 13.854167
_cell_angle_alpha 90.000000
_cell_angle_beta 93.246705
_cell_angle_gamma 90.000000
_cell_volume 681.003379
_symmetry_space_group_name_H-M "P 21/C"
_symmetry_group_IT_number 14
_symmetry_cell_setting 'monoclinic'
loop_
_space_group_symop_operation_xyz
x,y,z
-x,1/2+y,1/2-z
-x,-y,-z
x,1/2-y,1/2+z
loop_
_atom_site_type_symbol
_atom_site_label
_atom_site_fract_x
_atom_site_fract_y
_atom_site_fract_z
Si Si1 0.494088 0.429950 0.291537
Si Si2 0.135201 0.657857 0.977965
Si Si3 0.928326 0.466862 0.708065
Si Si4 0.291099 0.427143 0.156464
Si Si5 0.629631 0.680418 0.036195
O O1 0.403472 0.657331 0.207104
O O2 0.411853 0.200641 0.217173
O O3 0.423206 0.407668 0.391479
O O4 0.095646 0.913804 0.906699
O O5 0.251186 0.505131 0.918137
O O6 0.213321 0.658231 0.081612
O O7 0.000000 0.500000 0.000000
O O8 0.810603 0.604196 0.761046
O O9 0.044733 0.670704 0.741861
O O10 0.310748 0.224235 0.061508
O O11 0.500000 0.500000 0.000000
#
# Coordination Sequence:
#
# PCOD9250211 Si02
#       5
#     4   4   4   4   4
#     4  12  27  49  80 114 164 213 266 332 407 478
#     4  10  23  49  76 116 155 206 267 324 394 478
#     4  12  27  49  80 114 164 213 266 332 407 478
#     4  10  26  46  80 118 154 208 266 330 396 476
#     4  10  23  49  76 116 155 206 267 324 394 478
#
# _framework density 29.368427000000001
#
# number of rings (size 3 to 8) (size 9 to 14) (size 15 to 20)
#    1.200    0.000    4.000    0.000    5.600    1.600 
#    0.000    8.000    0.000    0.000    0.000    0.000 
#    0.000    0.000    0.000    0.000    0.000    0.000 
#
# Total GULP energy -111619.993886 kJ/mol
# GULP energy per Si atom -5580.999694 kJ/mol
# Density = 2.930158 g / cm^3
# Si number density = 29.368427 Si / 1000 Ang^3
#
#
#
# Elastic Constant Matrix: (Units=GPa)
#
#
# Indices 1 2 3 4 5 6 
#
# 1 195.6345 79.1351 78.2669 0.0000 22.0711 0.0000
# 2 79.1351 225.5401 66.1627 0.0000 -7.1960 0.0000
# 3 78.2669 66.1627 245.3200 0.0000 12.9116 0.0000
# 4 0.0000 0.0000 0.0000 35.1516 0.0000 18.4322
# 5 22.0711 -7.1960 12.9116 0.0000 70.8268 0.0000
# 6 0.0000 0.0000 0.0000 18.4322 0.0000 38.0239
#
#
#
# Elastic Compliance Matrix: (Units=1/GPa)
#
#
# Indices 1 2 3 4 5 6 
#
# 1 0.006750 -0.001990 -0.001510 0.000000 -0.002030 0.000000
# 2 -0.001990 0.005439 -0.000902 0.000000 0.001337 0.000000
# 3 -0.001510 -0.000902 0.004828 0.000000 -0.000501 0.000000
# 4 0.000000 0.000000 0.000000 0.038144 0.000000 -0.018490
# 5 -0.002030 0.001337 -0.000501 0.000000 0.014979 0.000000
# 6 0.000000 0.000000 0.000000 -0.018490 0.000000 0.035263
#
#
# Mechanical properties :
#
#
# Convention : Reuss Voigt Hill
#
# Bulk Modulus (GPa) = 121.77172 123.73601 122.75386
# Shear Modulus (GPa) = 42.75533 58.32913 50.54223
#
# Velocity S-wave (km/s) = 3.81967 4.46142 4.15296
# Velocity P-wave (km/s) = 7.81068 8.29234 8.05511
#
# Compressibility (1/GPa) = 0.00821209
#
# Stress axis : x y z
#
# Youngs Moduli (GPa) = 148.15537 183.84076 207.13431
#
# Poissons Ratio (x) = 0.36587 0.31274
# Poissons Ratio (y) = 0.29485 0.18694
# Poissons Ratio (z) = 0.22369 0.16591
#
# Static dielectric constant tensor:
#      x y z
#    x 4.528640 0.000000 1.074490 
#    y 0.000000 2.232650 0.000000 
#    z 1.074490 0.000000 2.598080 
# 
# From -- ./inp_files/42553.got.cif
#   From: 2010.05.17/outbox.cif.g08.bks.cpg/sg14_22_cif.got.tgz:42553.got - 2010.06.03 17:49:19.
