data_PCOD9250564
_publ_section_title
;
Structure prediction by ZEFSAII (Michael W. Deem and Ramdas Pophale) SiO2 
 PCOD9250564
Probable space group: P 21/C
;
_chemical_formula_sum "Si O2"
_cell_formula_units_Z 28
_cell_length_a 20.170175
_cell_length_b 9.320730
_cell_length_c 8.920525
_cell_angle_alpha 90.000000
_cell_angle_beta 131.095345
_cell_angle_gamma 90.000000
_cell_volume 1263.864685
_symmetry_space_group_name_H-M "P 21/C"
_symmetry_group_IT_number 14
_symmetry_cell_setting 'monoclinic'
loop_
_space_group_symop_operation_xyz
x,y,z
-x,1/2+y,1/2-z
-x,-y,-z
x,1/2-y,1/2+z
loop_
_atom_site_type_symbol
_atom_site_label
_atom_site_fract_x
_atom_site_fract_y
_atom_site_fract_z
Si Si1 0.486819 0.728457 0.958471
Si Si2 0.364480 0.736417 0.533530
Si Si3 0.085316 0.916160 0.060027
Si Si4 0.923599 0.405431 0.813363
Si Si5 0.729238 0.972432 0.540076
Si Si6 0.614090 0.820319 0.892653
Si Si7 0.241850 0.522973 0.261639
O O1 0.402334 0.670057 0.743272
O O2 0.539367 0.811856 0.909402
O O3 0.438468 0.806673 0.022737
O O4 0.563650 0.647342 0.162302
O O5 0.343109 0.902813 0.535350
O O6 0.273800 0.685416 0.327138
O O7 0.074874 0.902429 0.864520
O O8 0.081794 0.757631 0.131071
O O9 0.179440 0.996908 0.233390
O O10 0.000000 0.000000 0.000000
O O11 0.840700 0.490703 0.756053
O O12 0.000000 0.500000 0.000000
O O13 0.762594 0.982390 0.417561
O O14 0.673092 0.825513 0.473439
O O15 0.680586 0.937525 0.046248
#
# Coordination Sequence:
#
# PCOD9250564 Si02
#       7
#     4   4   4   4   4   4   4
#     4  10  24  44  66 106 136 196 248 304 358 428
#     4  11  24  42  75  98 144 190 245 302 366 423
#     4  12  28  51  82 114 148 188 237 294 364 439
#     4  12  28  51  82 114 148 188 237 294 364 439
#     4  12  26  47  71 107 148 191 242 299 364 433
#     4  11  26  44  69 100 150 192 247 300 364 413
#     4  12  26  47  71 107 148 191 242 299 364 433
#
# _framework density 22.154271000000001
#
# number of rings (size 3 to 8) (size 9 to 14) (size 15 to 20)
#    0.000    0.571    4.286    2.571    6.000    6.857 
#    0.000    0.000    0.000    0.000    0.000    0.000 
#    0.000    0.000    0.000    0.000    0.000    0.000 
#
# Total GULP energy -156104.089412 kJ/mol
# GULP energy per Si atom -5575.146050 kJ/mol
# Density = 2.210385 g / cm^3
# Si number density = 22.154271 Si / 1000 Ang^3
#
#
#
# Elastic Constant Matrix: (Units=GPa)
#
#
# Indices 1 2 3 4 5 6 
#
# 1 143.7609 16.7449 58.0619 0.0000 -10.3692 0.0000
# 2 16.7449 57.5583 18.9950 0.0000 -1.9178 0.0000
# 3 58.0619 18.9950 157.8859 0.0000 -17.5038 0.0000
# 4 0.0000 0.0000 0.0000 8.7787 0.0000 -5.2069
# 5 -10.3692 -1.9178 -17.5038 0.0000 47.0616 0.0000
# 6 0.0000 0.0000 0.0000 -5.2069 0.0000 6.6034
#
#
#
# Elastic Compliance Matrix: (Units=1/GPa)
#
#
# Indices 1 2 3 4 5 6 
#
# 1 0.008310 -0.001470 -0.002798 0.000000 0.000730 0.000000
# 2 -0.001470 0.018352 -0.001690 0.000000 -0.000205 0.000000
# 3 -0.002798 -0.001690 0.007812 0.000000 0.002220 0.000000
# 4 0.000000 0.000000 0.000000 0.213998 0.000000 0.168741
# 5 0.000730 -0.000205 0.002220 0.000000 0.022227 0.000000
# 6 0.000000 0.000000 0.000000 0.168741 0.000000 0.284493
#
#
# Mechanical properties :
#
#
# Convention : Reuss Voigt Hill
#
# Bulk Modulus (GPa) = 44.32960 60.75651 52.54306
# Shear Modulus (GPa) = 8.70128 30.18228 19.44178
#
# Velocity S-wave (km/s) = 1.98396 3.69503 2.96558
# Velocity P-wave (km/s) = 5.03002 6.75930 5.95774
#
# Compressibility (1/GPa) = 0.02255829
#
# Stress axis : x y z
#
# Youngs Moduli (GPa) = 120.33706 54.48931 128.00521
#
# Poissons Ratio (x) = 0.08009 0.35818
# Poissons Ratio (y) = 0.17687 0.21634
# Poissons Ratio (z) = 0.33672 0.09209
#
# Static dielectric constant tensor:
#      x y z
#    x 1.945970 0.000000 0.259170 
#    y 0.000000 1.875850 0.000000 
#    z 0.259170 0.000000 2.200420 
# 
# From -- ./inp_files/18760.got.cif
#   From: 2010.05.17/outbox.cif.g08.bks.cpg/sg14_10_cif.got.tgz:18760.got - 2010.06.03 17:49:19.
