data_PCOD9250494
_publ_section_title
;
Structure prediction by ZEFSAII (Michael W. Deem and Ramdas Pophale) SiO2 
 PCOD9250494
Probable space group: P 21/C
;
_chemical_formula_sum "Si O2"
_cell_formula_units_Z 22
_cell_length_a 13.921181
_cell_length_b 9.403156
_cell_length_c 13.622513
_cell_angle_alpha 90.000000
_cell_angle_beta 29.766072
_cell_angle_gamma 90.000000
_cell_volume 885.301570
_symmetry_space_group_name_H-M "P 21/C"
_symmetry_group_IT_number 14
_symmetry_cell_setting 'monoclinic'
loop_
_space_group_symop_operation_xyz
x,y,z
-x,1/2+y,1/2-z
-x,-y,-z
x,1/2-y,1/2+z
loop_
_atom_site_type_symbol
_atom_site_label
_atom_site_fract_x
_atom_site_fract_y
_atom_site_fract_z
Si Si1 0.220125 0.516135 0.925639
Si Si2 0.313330 0.172164 0.658023
Si Si3 0.311971 0.608936 0.045326
Si Si4 0.891162 0.695292 0.468543
Si Si5 0.222371 0.051270 0.123944
Si Si6 0.500000 0.000000 0.000000
O O1 0.209377 0.347428 0.955295
O O2 0.308784 0.541706 0.741106
O O3 0.332550 0.603542 0.909898
O O4 0.992674 0.554686 0.141564
O O5 0.503582 0.142867 0.552509
O O6 0.882632 0.193184 0.255919
O O7 0.336475 0.329924 0.591348
O O8 0.274033 0.056942 0.609947
O O9 0.799532 0.588804 0.469977
O O10 0.857620 0.660128 0.611634
O O11 0.381689 0.934226 0.005066
#
# Coordination Sequence:
#
# PCOD9250494 Si02
#       6
#     4   4   4   4   4   2
#     4  11  24  43  66  99 135 170 222 273 335 392
#     4  11  22  43  67  94 130 173 223 262 332 395
#     4  10  24  43  67  95 131 177 219 271 324 396
#     4  11  23  43  66  96 134 169 215 276 331 395
#     4  11  25  41  66  98 131 169 219 276 332 390
#     4  12  24  42  66  96 134 174 218 272 324 392
#
# _framework density 24.850290999999999
#
# number of rings (size 3 to 8) (size 9 to 14) (size 15 to 20)
#    0.000    1.091    3.636    2.182    2.545    0.000 
#    0.000    0.000    0.000    0.000    0.000    0.000 
#    0.000    0.000    0.000    0.000    0.000    0.000 
#
# Total GULP energy -122672.607346 kJ/mol
# GULP energy per Si atom -5576.027607 kJ/mol
# Density = 2.479373 g / cm^3
# Si number density = 24.850291 Si / 1000 Ang^3
#
#
#
# Elastic Constant Matrix: (Units=GPa)
#
#
# Indices 1 2 3 4 5 6 
#
# 1 69.0384 -8.0321 -15.6800 0.0000 -1.2491 0.0000
# 2 -8.0321 25.1770 13.1968 0.0000 9.3991 0.0000
# 3 -15.6800 13.1968 79.7444 0.0000 5.0980 0.0000
# 4 0.0000 0.0000 0.0000 30.5413 0.0000 0.9964
# 5 -1.2491 9.3991 5.0980 0.0000 46.6240 0.0000
# 6 0.0000 0.0000 0.0000 0.9964 0.0000 44.1502
#
#
#
# Elastic Compliance Matrix: (Units=1/GPa)
#
#
# Indices 1 2 3 4 5 6 
#
# 1 0.015481 0.003898 0.002440 0.000000 -0.000638 0.000000
# 2 0.003898 0.047684 -0.006563 0.000000 -0.008791 0.000000
# 3 0.002440 -0.006563 0.014116 0.000000 -0.000155 0.000000
# 4 0.000000 0.000000 0.000000 0.032767 0.000000 -0.000740
# 5 -0.000638 -0.008791 -0.000155 0.000000 0.023220 0.000000
# 6 0.000000 0.000000 0.000000 -0.000740 0.000000 0.022667
#
#
# Mechanical properties :
#
#
# Convention : Reuss Voigt Hill
#
# Bulk Modulus (GPa) = 13.01565 16.99214 15.00389
# Shear Modulus (GPa) = 27.47340 36.56145 32.01743
#
# Velocity S-wave (km/s) = 3.32860 3.83987 3.59334
# Velocity P-wave (km/s) = 4.47457 5.14899 4.82358
#
# Compressibility (1/GPa) = 0.07683060
#
# Stress axis : x y z
#
# Youngs Moduli (GPa) = 64.59632 20.97137 70.84288
#
# Poissons Ratio (x) = -0.08175 -0.17283
# Poissons Ratio (y) = -0.25180 0.46492
# Poissons Ratio (z) = -0.15759 0.13763
#
# Static dielectric constant tensor:
#      x y z
#    x 1.378730 0.000000 0.273450 
#    y 0.000000 1.556740 0.000000 
#    z 0.273450 0.000000 1.764070 
# 
# From -- ./inp_files/28936.got.cif
#   From: 2010.05.17/outbox.cif.g08.bks.cpg/sg14_15_cif.got.tgz:28936.got - 2010.06.03 17:49:19.
