data_PCOD9250183
_publ_section_title
;
Structure prediction by ZEFSAII (Michael W. Deem and Ramdas Pophale) SiO2 
 PCOD9250183
Probable space group: P 21/C
;
_chemical_formula_sum "Si O2"
_cell_formula_units_Z 20
_cell_length_a 6.371277
_cell_length_b 8.074086
_cell_length_c 16.552884
_cell_angle_alpha 90.000000
_cell_angle_beta 72.546561
_cell_angle_gamma 90.000000
_cell_volume 812.314397
_symmetry_space_group_name_H-M "P 21/C"
_symmetry_group_IT_number 14
_symmetry_cell_setting 'monoclinic'
loop_
_space_group_symop_operation_xyz
x,y,z
-x,1/2+y,1/2-z
-x,-y,-z
x,1/2-y,1/2+z
loop_
_atom_site_type_symbol
_atom_site_label
_atom_site_fract_x
_atom_site_fract_y
_atom_site_fract_z
Si Si1 0.401504 0.227169 0.582721
Si Si2 0.961538 0.142083 0.190801
Si Si3 0.758639 0.937227 0.559361
Si Si4 0.029725 0.741740 0.645245
Si Si5 0.804709 0.369205 0.536773
O O1 0.194114 0.261604 0.663193
O O2 0.314109 0.189940 0.502778
O O3 0.544925 0.396049 0.571314
O O4 0.563532 0.073714 0.586570
O O5 0.861150 0.174671 0.289784
O O6 0.851591 0.202906 0.120615
O O7 0.982470 0.946523 0.175267
O O8 0.818403 0.843460 0.635988
O O9 0.000000 0.000000 0.500000
O O10 0.181120 0.732657 0.548466
O O11 0.000000 0.500000 0.500000
#
# Coordination Sequence:
#
# PCOD9250183 Si02
#       5
#     4   4   4   4   4
#     4  11  23  44  77 105 139 190 251 293 376 447
#     4  11  26  46  70 109 144 197 245 307 370 444
#     4  11  23  45  75 105 143 190 239 313 371 436
#     4  11  25  47  74  99 156 190 239 314 369 429
#     4  10  23  48  69  99 148 186 236 305 369 431
#
# _framework density 24.621008
#
# number of rings (size 3 to 8) (size 9 to 14) (size 15 to 20)
#    0.000    1.200    4.000    0.000    5.600    3.200 
#   10.800    0.000    0.000    0.000    0.000    0.000 
#    0.000    0.000    0.000    0.000    0.000    0.000 
#
# Total GULP energy -111473.615934 kJ/mol
# GULP energy per Si atom -5573.680797 kJ/mol
# Density = 2.456497 g / cm^3
# Si number density = 24.621008 Si / 1000 Ang^3
#
#
#
# Elastic Constant Matrix: (Units=GPa)
#
#
# Indices 1 2 3 4 5 6 
#
# 1 101.8614 26.5966 28.3011 0.0000 11.9649 0.0000
# 2 26.5966 84.7535 37.5067 0.0000 8.5805 0.0000
# 3 28.3011 37.5067 179.1394 0.0000 33.2941 0.0000
# 4 0.0000 0.0000 0.0000 49.2795 0.0000 10.7415
# 5 11.9649 8.5805 33.2941 0.0000 24.0161 0.0000
# 6 0.0000 0.0000 0.0000 10.7415 0.0000 52.9809
#
#
#
# Elastic Compliance Matrix: (Units=1/GPa)
#
#
# Indices 1 2 3 4 5 6 
#
# 1 0.011158 -0.002917 -0.000421 0.000000 -0.003933 0.000000
# 2 -0.002917 0.013791 -0.002399 0.000000 -0.000148 0.000000
# 3 -0.000421 -0.002399 0.008019 0.000000 -0.010050 0.000000
# 4 0.000000 0.000000 0.000000 0.021231 0.000000 -0.004304
# 5 -0.003933 -0.000148 -0.010050 0.000000 0.057583 0.000000
# 6 0.000000 0.000000 0.000000 -0.004304 0.000000 0.019747
#
#
# Mechanical properties :
#
#
# Convention : Reuss Voigt Hill
#
# Bulk Modulus (GPa) = 46.52563 61.17367 53.84965
# Shear Modulus (GPa) = 33.29611 43.47863 38.38737
#
# Velocity S-wave (km/s) = 3.68141 4.20684 3.95287
# Velocity P-wave (km/s) = 6.08343 6.96396 6.53854
#
# Compressibility (1/GPa) = 0.02149353
#
# Stress axis : x y z
#
# Youngs Moduli (GPa) = 89.62292 72.51117 124.70572
#
# Poissons Ratio (x) = 0.21151 0.05251
# Poissons Ratio (y) = 0.26143 0.29918
# Poissons Ratio (z) = 0.03774 0.17396
#
# Static dielectric constant tensor:
#      x y z
#    x 1.955990 0.000000 0.034570 
#    y 0.000000 2.250260 0.000000 
#    z 0.034570 0.000000 1.921380 
# 
# From -- ./inp_files/52707.got.cif
#   From: 2010.05.17/outbox.cif.g08.bks.cpg/sg14_27_cif.got.tgz:52707.got - 2010.06.03 17:49:19.
