data_PCOD9250878
_publ_section_title
;
Structure prediction by ZEFSAII (Michael W. Deem and Ramdas Pophale) SiO2 
 PCOD9250878
Probable space group: P 21/C
;
_chemical_formula_sum "Si O2"
_cell_formula_units_Z 20
_cell_length_a 8.196439
_cell_length_b 10.117446
_cell_length_c 8.867013
_cell_angle_alpha 90.000000
_cell_angle_beta 89.999870
_cell_angle_gamma 90.000000
_cell_volume 735.315044
_symmetry_space_group_name_H-M "P 21/C"
_symmetry_group_IT_number 14
_symmetry_cell_setting 'monoclinic'
loop_
_space_group_symop_operation_xyz
x,y,z
-x,1/2+y,1/2-z
-x,-y,-z
x,1/2-y,1/2+z
loop_
_atom_site_type_symbol
_atom_site_label
_atom_site_fract_x
_atom_site_fract_y
_atom_site_fract_z
Si Si1 0.574732 0.733189 0.623252
Si Si2 0.051148 0.518213 0.324811
Si Si3 0.448852 0.518213 0.824811
Si Si4 0.074732 0.266812 0.876748
Si Si5 0.250000 0.750000 0.423825
O O1 0.572240 0.603210 0.725265
O O2 0.750000 0.750000 0.542577
O O3 0.411934 0.725615 0.523110
O O4 0.566468 0.866804 0.724022
O O5 0.066468 0.366804 0.275979
O O6 0.203982 0.619367 0.329827
O O7 0.000000 0.500000 0.500000
O O8 0.927760 0.603210 0.225265
O O9 0.500000 0.500000 0.000000
O O10 0.296018 0.619367 0.829827
O O11 0.911935 0.274385 0.976890
#
# Coordination Sequence:
#
# PCOD9250878 Si02
#       5
#     4   4   4   4   4
#     4  11  26  45  76 106 147 195 253 300 368 448
#     4  10  25  46  72 109 144 194 244 304 371 435
#     4  10  25  46  72 109 144 194 244 304 371 435
#     4  11  26  45  76 106 147 195 253 300 368 448
#     4  10  24  48  74 104 150 192 242 310 374 432
#
# _framework density 27.199225999999999
#
# number of rings (size 3 to 8) (size 9 to 14) (size 15 to 20)
#    0.000    1.600    0.000    1.200   16.800    8.000 
#    0.000    0.000    0.000    0.000    0.000    0.000 
#    0.000    0.000    0.000    0.000    0.000    0.000 
#
# Total GULP energy -111881.647632 kJ/mol
# GULP energy per Si atom -5594.082382 kJ/mol
# Density = 2.713732 g / cm^3
# Si number density = 27.199226 Si / 1000 Ang^3
#
#
#
# Elastic Constant Matrix: (Units=GPa)
#
#
# Indices 1 2 3 4 5 6 
#
# 1 208.6515 12.5991 45.0854 0.0000 -0.0001 0.0000
# 2 12.5991 211.1658 18.4805 0.0000 0.0001 0.0000
# 3 45.0854 18.4805 58.9875 0.0000 -0.0003 0.0000
# 4 0.0000 0.0000 0.0000 36.6025 0.0000 0.0001
# 5 -0.0001 0.0001 -0.0003 0.0000 38.0106 0.0000
# 6 0.0000 0.0000 0.0000 0.0001 0.0000 55.9599
#
#
#
# Elastic Compliance Matrix: (Units=1/GPa)
#
#
# Indices 1 2 3 4 5 6 
#
# 1 0.005741 0.000043 -0.004401 0.000000 0.000000 0.000000
# 2 0.000043 0.004869 -0.001558 0.000000 0.000000 0.000000
# 3 -0.004401 -0.001558 0.020805 0.000000 0.000000 0.000000
# 4 0.000000 0.000000 0.000000 0.027321 0.000000 0.000000
# 5 0.000000 0.000000 0.000000 0.000000 0.026308 0.000000
# 6 0.000000 0.000000 0.000000 0.000000 0.000000 0.017870
#
#
# Mechanical properties :
#
#
# Convention : Reuss Voigt Hill
#
# Bulk Modulus (GPa) = 51.06815 70.12611 60.59713
# Shear Modulus (GPa) = 41.22837 52.95727 47.09282
#
# Velocity S-wave (km/s) = 3.89754 4.41729 4.16553
# Velocity P-wave (km/s) = 6.25066 7.20104 6.74261
#
# Compressibility (1/GPa) = 0.01958167
#
# Stress axis : x y z
#
# Youngs Moduli (GPa) = 174.18047 205.36259 48.06530
#
# Poissons Ratio (x) = -0.00876 0.21156
# Poissons Ratio (y) = -0.00743 0.07489
# Poissons Ratio (z) = 0.76665 0.31999
#
# Static dielectric constant tensor:
#      x y z
#    x 2.219720 0.000000 0.000000 
#    y 0.000000 2.157900 0.000000 
#    z 0.000000 0.000000 2.137430 
# 
# From -- ./inp_files/23063.got.cif
#   From: 2010.05.17/outbox.cif.g08.bks.cpg/sg14_12_cif.got.tgz:23063.got - 2010.06.03 17:49:19.
