data_PCOD9250411
_publ_section_title
;
Structure prediction by ZEFSAII (Michael W. Deem and Ramdas Pophale) SiO2 
 PCOD9250411
Probable space group: P 21/C
;
_chemical_formula_sum "Si O2"
_cell_formula_units_Z 20
_cell_length_a 7.581413
_cell_length_b 9.454902
_cell_length_c 25.637213
_cell_angle_alpha 90.000000
_cell_angle_beta 145.333735
_cell_angle_gamma 90.000000
_cell_volume 1045.283372
_symmetry_space_group_name_H-M "P 21/C"
_symmetry_group_IT_number 14
_symmetry_cell_setting 'monoclinic'
loop_
_space_group_symop_operation_xyz
x,y,z
-x,1/2+y,1/2-z
-x,-y,-z
x,1/2-y,1/2+z
loop_
_atom_site_type_symbol
_atom_site_label
_atom_site_fract_x
_atom_site_fract_y
_atom_site_fract_z
Si Si1 0.315853 0.694213 0.795852
Si Si2 0.257378 0.931545 0.598629
Si Si3 0.049782 0.228327 0.390458
Si Si4 0.288759 0.079179 0.043257
Si Si5 0.369505 0.292804 0.370427
O O1 0.460232 0.539856 0.833348
O O2 0.232796 0.720121 0.714963
O O3 0.545818 0.807308 0.878131
O O4 0.973765 0.703091 0.738427
O O5 0.087503 0.903248 0.611790
O O6 0.384952 0.784989 0.606173
O O7 0.000000 0.000000 0.500000
O O8 0.175000 0.338864 0.463855
O O9 0.316565 0.207458 0.411780
O O10 0.528487 0.951517 0.090893
O O11 0.000000 0.000000 0.000000
#
# Coordination Sequence:
#
# PCOD9250411 Si02
#       5
#     4   4   4   4   4
#     4  10  25  41  66  97 129 170 218 267 322 387
#     4  12  22  46  64  96 134 165 218 276 318 382
#     4  10  25  39  68  95 126 171 222 253 336 374
#     4  12  21  45  67  94 134 171 214 271 324 389
#     4  10  24  42  68  95 128 172 218 264 327 389
#
# _framework density 19.133566999999999
#
# number of rings (size 3 to 8) (size 9 to 14) (size 15 to 20)
#    1.200    0.000    4.000    1.800    2.800    0.800 
#    0.000    0.000    0.000    0.000    0.000    0.000 
#    0.000    0.000    0.000    0.000    0.000    0.000 
#
# Total GULP energy -111379.576011 kJ/mol
# GULP energy per Si atom -5568.978801 kJ/mol
# Density = 1.909002 g / cm^3
# Si number density = 19.133567 Si / 1000 Ang^3
#
#
#
# Elastic Constant Matrix: (Units=GPa)
#
#
# Indices 1 2 3 4 5 6 
#
# 1 41.8762 7.1519 14.7313 0.0000 5.1694 0.0000
# 2 7.1519 74.1836 31.0516 0.0000 2.4231 0.0000
# 3 14.7313 31.0516 112.4933 0.0000 -11.1045 0.0000
# 4 0.0000 0.0000 0.0000 35.3029 0.0000 -0.4319
# 5 5.1694 2.4231 -11.1045 0.0000 28.8265 0.0000
# 6 0.0000 0.0000 0.0000 -0.4319 0.0000 37.3866
#
#
#
# Elastic Compliance Matrix: (Units=1/GPa)
#
#
# Indices 1 2 3 4 5 6 
#
# 1 0.026099 -0.000718 -0.003821 0.000000 -0.006092 0.000000
# 2 -0.000718 0.015517 -0.004476 0.000000 -0.002900 0.000000
# 3 -0.003821 -0.004476 0.011154 0.000000 0.005358 0.000000
# 4 0.000000 0.000000 0.000000 0.028330 0.000000 0.000327
# 5 -0.006092 -0.002900 0.005358 0.000000 0.038090 0.000000
# 6 0.000000 0.000000 0.000000 0.000327 0.000000 0.026751
#
#
# Mechanical properties :
#
#
# Convention : Reuss Voigt Hill
#
# Bulk Modulus (GPa) = 28.78389 37.15807 32.97098
# Shear Modulus (GPa) = 28.48175 32.01108 30.24642
#
# Velocity S-wave (km/s) = 3.86239 4.09471 3.98025
# Velocity P-wave (km/s) = 5.91330 6.46669 6.19617
#
# Compressibility (1/GPa) = 0.03474165
#
# Stress axis : x y z
#
# Youngs Moduli (GPa) = 38.31623 64.44409 89.65335
#
# Poissons Ratio (x) = 0.04626 0.34256
# Poissons Ratio (y) = 0.02750 0.40124
# Poissons Ratio (z) = 0.14640 0.28842
#
# Static dielectric constant tensor:
#      x y z
#    x 1.675960 0.000000 -0.006680 
#    y 0.000000 0.025410 0.000000 
#    z -0.006680 0.000000 1.710780 
# 
# From -- ./inp_files/49918.got.cif
#   From: 2010.05.17/outbox.cif.g08.bks.cpg/sg14_25_cif.got.tgz:49918.got - 2010.06.03 17:49:19.
