data_PCOD9250650
_publ_section_title
;
Structure prediction by ZEFSAII (Michael W. Deem and Ramdas Pophale) SiO2 
 PCOD9250650
Probable space group: P 21/C
;
_chemical_formula_sum "Si O2"
_cell_formula_units_Z 16
_cell_length_a 5.735471
_cell_length_b 25.578222
_cell_length_c 5.156822
_cell_angle_alpha 90.000000
_cell_angle_beta 53.324713
_cell_angle_gamma 90.000000
_cell_volume 606.755893
_symmetry_space_group_name_H-M "P 21/C"
_symmetry_group_IT_number 14
_symmetry_cell_setting 'monoclinic'
loop_
_space_group_symop_operation_xyz
x,y,z
-x,1/2+y,1/2-z
-x,-y,-z
x,1/2-y,1/2+z
loop_
_atom_site_type_symbol
_atom_site_label
_atom_site_fract_x
_atom_site_fract_y
_atom_site_fract_z
Si Si1 0.892330 0.553846 0.696282
Si Si2 0.383301 0.946672 0.210837
Si Si3 0.215591 0.285684 0.081425
Si Si4 0.293491 0.857079 0.910790
O O1 0.550472 0.556257 0.871978
O O2 0.000000 0.500000 0.500000
O O3 0.035813 0.554240 0.887631
O O4 0.052764 0.602980 0.455684
O O5 0.465190 0.894671 0.995415
O O6 0.500000 0.000000 0.000000
O O7 0.237555 0.244158 0.296171
O O8 0.907936 0.314973 0.310076
O O9 0.479058 0.327179 0.918280
#
# Coordination Sequence:
#
# PCOD9250650 Si02
#       4
#     4   4   4   4
#     4   8  16  35  68 106 152 191 244 300 383 475
#     4   8  16  35  68 106 152 191 244 300 383 475
#     4  12  28  52  75 110 149 204 274 330 380 452
#     4  10  24  44  77 106 151 202 246 322 394 448
#
# _framework density 26.36975
#
# number of rings (size 3 to 8) (size 9 to 14) (size 15 to 20)
#    1.500    1.000    0.000    1.500    3.500    0.000 
#    0.000    2.500    0.000    0.000    0.000    0.000 
#    0.000    0.000    0.000    0.000    0.000    0.000 
#
# Total GULP energy -89431.232320 kJ/mol
# GULP energy per Si atom -5589.452020 kJ/mol
# Density = 2.630973 g / cm^3
# Si number density = 26.369750 Si / 1000 Ang^3
#
#
#
# Elastic Constant Matrix: (Units=GPa)
#
#
# Indices 1 2 3 4 5 6 
#
# 1 167.9952 -138.2242 -131.1226 0.0000 -101.0802 0.0000
# 2 -138.2242 -228.8969 -354.5858 0.0000 -232.0336 0.0000
# 3 -131.1226 -354.5858 -337.7874 0.0000 -268.0459 0.0000
# 4 0.0000 0.0000 0.0000 60.7692 0.0000 -13.0524
# 5 -101.0802 -232.0336 -268.0459 0.0000 -94.1525 0.0000
# 6 0.0000 0.0000 0.0000 -13.0524 0.0000 44.3132
#
#
#
# Elastic Compliance Matrix: (Units=1/GPa)
#
#
# Indices 1 2 3 4 5 6 
#
# 1 0.004571 0.000068 -0.001732 0.000000 -0.000143 0.000000
# 2 0.000068 0.008145 -0.005885 0.000000 -0.003392 0.000000
# 3 -0.001732 -0.005885 0.007223 0.000000 -0.004201 0.000000
# 4 0.000000 0.000000 0.000000 0.017567 0.000000 0.005174
# 5 -0.000143 -0.003392 -0.004201 0.000000 0.009850 0.000000
# 6 0.000000 0.000000 0.000000 0.005174 0.000000 0.024091
#
#
# Mechanical properties :
#
#
# Convention : Reuss Voigt Hill
#
# Bulk Modulus (GPa) = 206.60872 -182.95048 11.82912
# Shear Modulus (GPa) = 56.71549 17.20220 36.95885
#
# Velocity S-wave (km/s) = 4.64268 2.55688 3.74781
# Velocity P-wave (km/s) = 10.35664 7.79825 4.81909
#
# Compressibility (1/GPa) = 0.00484007
#
# Stress axis : x y z
#
# Youngs Moduli (GPa) = 218.79319 122.77071 138.44544
#
# Poissons Ratio (x) = -0.00830 0.23979
# Poissons Ratio (y) = -0.01480 0.81476
# Poissons Ratio (z) = 0.37895 0.72251
#
# Static dielectric constant tensor:
#      x y z
#    x 2.079700 0.000000 0.016940 
#    y 0.000000 2.055700 0.000000 
#    z 0.016940 0.000000 2.000410 
# 
# From -- ./inp_files/385.got.cif
#   From: 2010.05.17/outbox.cif.g08.bks.cpg/sg14_1_cif.got.tgz:385.got - 2010.06.03 17:49:19.
