data_PCOD9250144
_publ_section_title
;
Structure prediction by ZEFSAII (Michael W. Deem and Ramdas Pophale) SiO2 
 PCOD9250144
Probable space group: P 21/C
;
_chemical_formula_sum "Si O2"
_cell_formula_units_Z 30
_cell_length_a 16.828990
_cell_length_b 10.810419
_cell_length_c 8.472898
_cell_angle_alpha 90.000000
_cell_angle_beta 48.527632
_cell_angle_gamma 90.000000
_cell_volume 1154.978535
_symmetry_space_group_name_H-M "P 21/C"
_symmetry_group_IT_number 14
_symmetry_cell_setting 'monoclinic'
loop_
_space_group_symop_operation_xyz
x,y,z
-x,1/2+y,1/2-z
-x,-y,-z
x,1/2-y,1/2+z
loop_
_atom_site_type_symbol
_atom_site_label
_atom_site_fract_x
_atom_site_fract_y
_atom_site_fract_z
Si Si1 0.063792 0.998239 0.752113
Si Si2 0.783199 0.144547 0.279347
Si Si3 0.999769 0.759922 0.634129
Si Si4 0.714565 0.110527 0.014270
Si Si5 0.518773 0.955861 0.792862
Si Si6 0.500000 0.000000 0.500000
Si Si7 0.356804 0.235287 0.734877
Si Si8 0.788425 0.630839 0.320749
O O1 0.183911 0.967415 0.647629
O O2 0.024703 0.883771 0.699663
O O3 0.037781 0.134970 0.724455
O O4 0.000000 0.000000 0.000000
O O5 0.717610 0.250525 0.450919
O O6 0.745640 0.107497 0.155673
O O7 0.894618 0.219374 0.096686
O O8 0.897681 0.797537 0.667010
O O9 0.790271 0.017964 0.816265
O O10 0.594769 0.062225 0.149373
O O11 0.564700 0.039356 0.591652
O O12 0.583290 0.830865 0.730862
O O13 0.500000 0.000000 0.000000
O O14 0.559142 0.866591 0.427316
O O15 0.299489 0.319466 0.681711
O O16 0.261273 0.163078 0.944293
#
# Coordination Sequence:
#
# PCOD9250144 Si02
#       8
#     4   4   4   4   4   2   4   4
#     4  10  23  47  70 105 153 198 254 322 375 462
#     4  11  26  48  73 113 151 202 259 310 387 467
#     4  11  25  46  79 105 156 201 255 320 393 455
#     4  12  27  49  76 112 154 200 258 322 387 470
#     4  12  27  53  78 113 159 199 263 331 383 475
#     4  12  26  50  82 104 154 210 240 330 400 444
#     4  12  26  49  72 114 148 197 261 315 397 468
#     4  12  27  44  77 110 151 199 255 319 385 475
#
# _framework density 25.974508
#
# number of rings (size 3 to 8) (size 9 to 14) (size 15 to 20)
#    0.000    0.533    5.333    1.600    7.467    1.600 
#    0.000    0.000    0.000    0.000    0.000    0.000 
#    0.000    0.000    0.000    0.000    0.000    0.000 
#
# Total GULP energy -167442.275565 kJ/mol
# GULP energy per Si atom -5581.409186 kJ/mol
# Density = 2.591539 g / cm^3
# Si number density = 25.974508 Si / 1000 Ang^3
#
#
#
# Elastic Constant Matrix: (Units=GPa)
#
#
# Indices 1 2 3 4 5 6 
#
# 1 126.8105 47.6032 7.6099 0.0000 3.1968 0.0000
# 2 47.6032 110.4795 44.8826 0.0000 9.2318 0.0000
# 3 7.6099 44.8826 40.2817 0.0000 14.8680 0.0000
# 4 0.0000 0.0000 0.0000 34.6730 0.0000 4.6920
# 5 3.1968 9.2318 14.8680 0.0000 31.3255 0.0000
# 6 0.0000 0.0000 0.0000 4.6920 0.0000 54.7668
#
#
#
# Elastic Compliance Matrix: (Units=1/GPa)
#
#
# Indices 1 2 3 4 5 6 
#
# 1 0.010101 -0.006787 0.006421 0.000000 -0.002078 0.000000
# 2 -0.006787 0.021687 -0.025192 0.000000 0.006258 0.000000
# 3 0.006421 -0.025192 0.059629 0.000000 -0.021533 0.000000
# 4 0.000000 0.000000 0.000000 0.029179 0.000000 -0.002500
# 5 -0.002078 0.006258 -0.021533 0.000000 0.040511 0.000000
# 6 0.000000 0.000000 0.000000 -0.002500 0.000000 0.018473
#
#
# Mechanical properties :
#
#
# Convention : Reuss Voigt Hill
#
# Bulk Modulus (GPa) = 24.81301 53.08477 38.94889
# Shear Modulus (GPa) = 20.48086 35.98479 28.23283
#
# Velocity S-wave (km/s) = 2.81107 3.72612 3.30046
# Velocity P-wave (km/s) = 4.48438 6.24448 5.43614
#
# Compressibility (1/GPa) = 0.04030144
#
# Stress axis : x y z
#
# Youngs Moduli (GPa) = 99.00352 46.10993 16.77026
#
# Poissons Ratio (x) = 0.31295 -0.10769
# Poissons Ratio (y) = 0.67195 0.42248
# Poissons Ratio (z) = -0.63573 1.16161
#
# Static dielectric constant tensor:
#      x y z
#    x 2.086390 0.000000 -0.067190 
#    y 0.000000 1.980120 0.000000 
#    z -0.067190 0.000000 2.463170 
# 
# From -- ./inp_files/15733.got.cif
#   From: 2010.05.17/outbox.cif.g08.bks.cpg/sg14_8_cif.got.tgz:15733.got - 2010.06.03 17:49:19.
