data_PCOD9250441
_publ_section_title
;
Structure prediction by ZEFSAII (Michael W. Deem and Ramdas Pophale) SiO2 
 PCOD9250441
Probable space group: P 21/C
;
_chemical_formula_sum "Si O2"
_cell_formula_units_Z 24
_cell_length_a 5.163043
_cell_length_b 21.082734
_cell_length_c 10.380644
_cell_angle_alpha 90.000000
_cell_angle_beta 117.543978
_cell_angle_gamma 90.000000
_cell_volume 1001.871910
_symmetry_space_group_name_H-M "P 21/C"
_symmetry_group_IT_number 14
_symmetry_cell_setting 'monoclinic'
loop_
_space_group_symop_operation_xyz
x,y,z
-x,1/2+y,1/2-z
-x,-y,-z
x,1/2-y,1/2+z
loop_
_atom_site_type_symbol
_atom_site_label
_atom_site_fract_x
_atom_site_fract_y
_atom_site_fract_z
Si Si1 0.361940 0.122879 0.955955
Si Si2 0.252044 0.629657 0.033286
Si Si3 0.633604 0.468953 0.714913
Si Si4 0.164985 0.943689 0.247860
Si Si5 0.695730 0.250920 0.090494
Si Si6 0.285734 0.310672 0.178731
O O1 0.361315 0.139648 0.805719
O O2 0.019038 0.103649 0.888689
O O3 0.525035 0.065167 0.060360
O O4 0.524049 0.185588 0.044417
O O5 0.278011 0.592827 0.901875
O O6 0.398149 0.698586 0.042822
O O7 0.910767 0.649735 0.967721
O O8 0.337289 0.586249 0.170894
O O9 0.403021 0.517575 0.723498
O O10 0.930760 0.505709 0.750867
O O11 0.578024 0.281775 0.193167
O O12 0.046544 0.257366 0.167016
#
# Coordination Sequence:
#
# PCOD9250441 Si02
#       6
#     4   4   4   4   4   4
#     4  11  26  45  72  98 143 171 229 284 339 407
#     4   9  24  44  71  99 135 179 230 279 332 402
#     4  12  26  42  72 102 135 185 232 267 337 408
#     4  11  26  45  67  99 143 183 224 279 333 394
#     4  10  24  42  71  97 132 178 221 278 348 395
#     4   9  24  42  67  97 136 171 215 278 348 386
#
# _framework density 23.955158000000001
#
# number of rings (size 3 to 8) (size 9 to 14) (size 15 to 20)
#    1.000    0.667    0.000    2.000    9.333    6.667 
#    0.000    0.000    0.000    0.000    0.000    0.000 
#    0.000    0.000    0.000    0.000    0.000    0.000 
#
# Total GULP energy -133893.962754 kJ/mol
# GULP energy per Si atom -5578.915115 kJ/mol
# Density = 2.390063 g / cm^3
# Si number density = 23.955158 Si / 1000 Ang^3
#
#
#
# Elastic Constant Matrix: (Units=GPa)
#
#
# Indices 1 2 3 4 5 6 
#
# 1 99.4778 16.5686 4.6483 0.0000 -3.6911 0.0000
# 2 16.5686 110.2423 39.3717 0.0000 -3.0769 0.0000
# 3 4.6483 39.3717 77.5214 0.0000 2.1011 0.0000
# 4 0.0000 0.0000 0.0000 15.3451 0.0000 6.6984
# 5 -3.6911 -3.0769 2.1011 0.0000 12.4335 0.0000
# 6 0.0000 0.0000 0.0000 6.6984 0.0000 11.6972
#
#
#
# Elastic Compliance Matrix: (Units=1/GPa)
#
#
# Indices 1 2 3 4 5 6 
#
# 1 0.010401 -0.001514 0.000072 0.000000 0.002701 0.000000
# 2 -0.001514 0.011474 -0.005828 0.000000 0.003375 0.000000
# 3 0.000072 -0.005828 0.015967 0.000000 -0.004119 0.000000
# 4 0.000000 0.000000 0.000000 0.086887 0.000000 -0.049756
# 5 0.002701 0.003375 -0.004119 0.000000 0.082761 0.000000
# 6 0.000000 0.000000 0.000000 -0.049756 0.000000 0.113984
#
#
# Mechanical properties :
#
#
# Convention : Reuss Voigt Hill
#
# Bulk Modulus (GPa) = 42.91346 45.37987 44.14666
# Shear Modulus (GPa) = 14.54410 23.00534 18.77472
#
# Velocity S-wave (km/s) = 2.46669 3.10231 2.80258
# Velocity P-wave (km/s) = 5.10546 5.64068 5.37973
#
# Compressibility (1/GPa) = 0.02330271
#
# Stress axis : x y z
#
# Youngs Moduli (GPa) = 96.14040 87.15309 62.62904
#
# Poissons Ratio (x) = 0.13191 -0.00450
# Poissons Ratio (y) = 0.14551 0.36501
# Poissons Ratio (z) = -0.00690 0.50794
#
# Static dielectric constant tensor:
#      x y z
#    x 1.925540 0.000000 -0.008970 
#    y 0.000000 1.980990 0.000000 
#    z -0.008970 0.000000 1.906960 
# 
# From -- ./inp_files/21642.got.cif
#   From: 2010.05.17/outbox.cif.g08.bks.cpg/sg14_11_cif.got.tgz:21642.got - 2010.06.03 17:49:19.
