data_PCOD9250491
_publ_section_title
;
Structure prediction by ZEFSAII (Michael W. Deem and Ramdas Pophale) SiO2 
 PCOD9250491
Probable space group: P 21/C
;
_chemical_formula_sum "Si O2"
_cell_formula_units_Z 28
_cell_length_a 6.028296
_cell_length_b 16.979122
_cell_length_c 13.715263
_cell_angle_alpha 90.000000
_cell_angle_beta 53.226033
_cell_angle_gamma 90.000000
_cell_volume 1124.471184
_symmetry_space_group_name_H-M "P 21/C"
_symmetry_group_IT_number 14
_symmetry_cell_setting 'monoclinic'
loop_
_space_group_symop_operation_xyz
x,y,z
-x,1/2+y,1/2-z
-x,-y,-z
x,1/2-y,1/2+z
loop_
_atom_site_type_symbol
_atom_site_label
_atom_site_fract_x
_atom_site_fract_y
_atom_site_fract_z
Si Si1 0.262275 0.423032 0.433043
Si Si2 0.211863 0.950500 0.806142
Si Si3 0.368895 0.333185 0.740510
Si Si4 0.464343 0.281942 0.493316
Si Si5 0.863013 0.048827 0.403660
Si Si6 0.732020 0.881998 0.419825
Si Si7 0.057790 0.186505 0.836077
O O1 0.382662 0.487691 0.328377
O O2 0.454471 0.355859 0.423925
O O3 0.038973 0.376766 0.425894
O O4 0.094772 0.457632 0.568007
O O5 0.344721 0.866297 0.793964
O O6 0.204952 0.962485 0.694008
O O7 0.375743 0.317875 0.621841
O O8 0.306143 0.245827 0.793658
O O9 0.131985 0.395623 0.834771
O O10 0.292647 0.202280 0.518640
O O11 0.786314 0.260421 0.407510
O O12 0.585062 0.089995 0.517828
O O13 0.876762 0.956922 0.433900
O O14 0.880796 0.858290 0.280213
#
# Coordination Sequence:
#
# PCOD9250491 Si02
#       7
#     4   4   4   4   4   4   4
#     4  11  24  41  68  98 133 164 220 276 325 375
#     4  11  24  41  65 103 128 170 215 275 324 387
#     4  11  24  40  68  95 134 175 217 265 330 385
#     4  11  23  43  67  98 125 175 218 268 326 384
#     4  11  22  46  63  94 138 174 213 265 327 398
#     4  10  24  43  67  88 136 178 210 264 325 391
#     4  11  23  44  64  99 133 168 220 273 321 386
#
# _framework density 24.900593000000001
#
# number of rings (size 3 to 8) (size 9 to 14) (size 15 to 20)
#    0.000    1.143    5.714    0.000    4.000    0.571 
#    0.000    5.714    0.000    0.000    0.000    0.000 
#    0.000    0.000    0.000    0.000    0.000    0.000 
#
# Total GULP energy -156487.702094 kJ/mol
# GULP energy per Si atom -5588.846503 kJ/mol
# Density = 2.484392 g / cm^3
# Si number density = 24.900593 Si / 1000 Ang^3
#
#
#
# Elastic Constant Matrix: (Units=GPa)
#
#
# Indices 1 2 3 4 5 6 
#
# 1 3.3144 1.6821 8.1107 0.0000 0.6946 0.0000
# 2 1.6821 116.3522 9.4269 0.0000 -1.8484 0.0000
# 3 8.1107 9.4269 104.0400 0.0000 -3.2700 0.0000
# 4 0.0000 0.0000 0.0000 36.8097 0.0000 -9.1791
# 5 0.6946 -1.8484 -3.2700 0.0000 26.4561 0.0000
# 6 0.0000 0.0000 0.0000 -9.1791 0.0000 36.7031
#
#
#
# Elastic Compliance Matrix: (Units=1/GPa)
#
#
# Indices 1 2 3 4 5 6 
#
# 1 0.378900 -0.003293 -0.029675 0.000000 -0.013846 0.000000
# 2 -0.003293 0.008694 -0.000511 0.000000 0.000631 0.000000
# 3 -0.029675 -0.000511 0.012042 0.000000 0.002232 0.000000
# 4 0.000000 0.000000 0.000000 0.028974 0.000000 0.007246
# 5 -0.013846 0.000631 0.002232 0.000000 0.038482 0.000000
# 6 0.000000 0.000000 0.000000 0.007246 0.000000 0.029058
#
#
# Mechanical properties :
#
#
# Convention : Reuss Voigt Hill
#
# Bulk Modulus (GPa) = 3.00593 29.12736 16.06664
# Shear Modulus (GPa) = 7.41840 33.62623 20.52231
#
# Velocity S-wave (km/s) = 1.72791 3.67879 2.87395
# Velocity P-wave (km/s) = 2.27831 5.45596 4.18080
#
# Compressibility (1/GPa) = 0.33267602
#
# Stress axis : x y z
#
# Youngs Moduli (GPa) = 2.63922 115.02656 83.04582
#
# Poissons Ratio (x) = 0.37884 2.46439
# Poissons Ratio (y) = 0.00869 0.04245
# Poissons Ratio (z) = 0.07832 0.05880
#
# Static dielectric constant tensor:
#      x y z
#    x 1.966610 0.000000 0.040710 
#    y 0.000000 1.971340 0.000000 
#    z 0.040710 0.000000 1.950220 
# 
# From -- ./inp_files/37800.got.cif
#   From: 2010.05.17/outbox.cif.g08.bks.cpg/sg14_19_cif.got.tgz:37800.got - 2010.06.03 17:49:19.
