data_PCOD9250161
_publ_section_title
;
Structure prediction by ZEFSAII (Michael W. Deem and Ramdas Pophale) SiO2 
 PCOD9250161
Probable space group: P 21/C
;
_chemical_formula_sum "Si O2"
_cell_formula_units_Z 20
_cell_length_a 12.599232
_cell_length_b 6.519405
_cell_length_c 11.056857
_cell_angle_alpha 90.000000
_cell_angle_beta 89.667195
_cell_angle_gamma 90.000000
_cell_volume 908.189341
_symmetry_space_group_name_H-M "P 21/C"
_symmetry_group_IT_number 14
_symmetry_cell_setting 'monoclinic'
loop_
_space_group_symop_operation_xyz
x,y,z
-x,1/2+y,1/2-z
-x,-y,-z
x,1/2-y,1/2+z
loop_
_atom_site_type_symbol
_atom_site_label
_atom_site_fract_x
_atom_site_fract_y
_atom_site_fract_z
Si Si1 0.644006 0.401526 0.749861
Si Si2 0.102962 0.139193 0.496820
Si Si3 0.490921 0.182123 0.905448
Si Si4 0.687141 0.490333 0.105237
Si Si5 0.176627 0.225012 0.749259
O O1 0.600443 0.289597 0.868839
O O2 0.556090 0.570359 0.713810
O O3 0.755453 0.516761 0.754834
O O4 0.649971 0.231699 0.644524
O O5 0.210453 0.004012 0.481042
O O6 0.115527 0.253785 0.624411
O O7 0.106763 0.270627 0.372554
O O8 0.000000 0.000000 0.500000
O O9 0.403996 0.354717 0.939273
O O10 0.500000 0.000000 0.000000
O O11 0.737093 0.595647 0.227068
#
# Coordination Sequence:
#
# PCOD9250161 Si02
#       5
#     4   4   4   4   4
#     4  11  22  42  62 101 136 184 225 282 343 414
#     4  10  23  47  71  99 133 176 233 292 347 415
#     4  11  24  36  66  99 139 186 228 277 345 411
#     4   9  23  41  64  97 137 176 235 280 340 407
#     4   9  24  44  70  99 138 177 229 287 350 419
#
# _framework density 22.021837999999999
#
# number of rings (size 3 to 8) (size 9 to 14) (size 15 to 20)
#    1.200    0.800    2.000    0.000    5.600    2.400 
#    0.000    2.000    0.000    0.000    0.000    0.000 
#    0.000    0.000    0.000    0.000    0.000    0.000 
#
# Total GULP energy -111579.733340 kJ/mol
# GULP energy per Si atom -5578.986667 kJ/mol
# Density = 2.197172 g / cm^3
# Si number density = 22.021838 Si / 1000 Ang^3
#
#
#
# Elastic Constant Matrix: (Units=GPa)
#
#
# Indices 1 2 3 4 5 6 
#
# 1 104.7933 46.2339 61.4369 0.0000 -21.7569 0.0000
# 2 46.2339 84.1313 31.5094 0.0000 -17.9742 0.0000
# 3 61.4369 31.5094 139.8479 0.0000 -19.6291 0.0000
# 4 0.0000 0.0000 0.0000 39.1140 0.0000 -9.9151
# 5 -21.7569 -17.9742 -19.6291 0.0000 19.2096 0.0000
# 6 0.0000 0.0000 0.0000 -9.9151 0.0000 34.4242
#
#
#
# Elastic Compliance Matrix: (Units=1/GPa)
#
#
# Indices 1 2 3 4 5 6 
#
# 1 0.016596 -0.005436 -0.004835 0.000000 0.008770 0.000000
# 2 -0.005436 0.016962 -0.000082 0.000000 0.009630 0.000000
# 3 -0.004835 -0.000082 0.009939 0.000000 0.004603 0.000000
# 4 0.000000 0.000000 0.000000 0.027580 0.000000 0.007944
# 5 0.008770 0.009630 0.004603 0.000000 0.075705 0.000000
# 6 0.000000 0.000000 0.000000 0.007944 0.000000 0.031337
#
#
# Mechanical properties :
#
#
# Convention : Reuss Voigt Hill
#
# Bulk Modulus (GPa) = 43.87629 67.45920 55.66774
# Shear Modulus (GPa) = 24.22208 31.18904 27.70556
#
# Velocity S-wave (km/s) = 3.32009 3.76743 3.55081
# Velocity P-wave (km/s) = 5.88766 7.04444 6.49187
#
# Compressibility (1/GPa) = 0.02279136
#
# Stress axis : x y z
#
# Youngs Moduli (GPa) = 60.25385 58.95680 100.60957
#
# Poissons Ratio (x) = 0.32048 0.48648
# Poissons Ratio (y) = 0.32753 0.00824
# Poissons Ratio (z) = 0.29134 0.00483
#
# Static dielectric constant tensor:
#      x y z
#    x 1.780610 0.000000 0.031290 
#    y 0.000000 1.791590 0.000000 
#    z 0.031290 0.000000 1.915580 
# 
# From -- ./inp_files/31110.got.cif
#   From: 2010.05.17/outbox.cif.g08.bks.cpg/sg14_16_cif.got.tgz:31110.got - 2010.06.03 17:49:19.
