data_PCOD9250395
_publ_section_title
;
Structure prediction by ZEFSAII (Michael W. Deem and Ramdas Pophale) SiO2 
 PCOD9250395
Probable space group: P 21/C
;
_chemical_formula_sum "Si O2"
_cell_formula_units_Z 16
_cell_length_a 4.710997
_cell_length_b 8.649674
_cell_length_c 16.514751
_cell_angle_alpha 90.000000
_cell_angle_beta 124.390876
_cell_angle_gamma 90.000000
_cell_volume 555.322967
_symmetry_space_group_name_H-M "P 21/C"
_symmetry_group_IT_number 14
_symmetry_cell_setting 'monoclinic'
loop_
_space_group_symop_operation_xyz
x,y,z
-x,1/2+y,1/2-z
-x,-y,-z
x,1/2-y,1/2+z
loop_
_atom_site_type_symbol
_atom_site_label
_atom_site_fract_x
_atom_site_fract_y
_atom_site_fract_z
Si Si1 0.336449 0.703993 0.058832
Si Si2 0.893368 0.944439 0.358363
Si Si3 0.290683 0.368712 0.608256
Si Si4 0.092175 0.446231 0.328557
O O1 0.703526 0.787398 0.121052
O O2 0.261204 0.594698 0.123022
O O3 0.234899 0.603250 0.963872
O O4 0.036970 0.833749 0.000905
O O5 0.655756 0.793882 0.337227
O O6 0.976721 0.957009 0.277937
O O7 0.619396 0.419873 0.611061
O O8 0.214505 0.497808 0.664099
#
# Coordination Sequence:
#
# PCOD9250395 Si02
#       4
#     4   4   4   4
#     4   9  21  45  65 101 133 177 222 280 343 398
#     4   9  22  42  68  98 139 175 223 280 340 403
#     4  10  24  42  66  98 133 178 223 279 336 401
#     4  12  22  43  70  99 133 179 227 276 335 408
#
# _framework density 28.812059000000001
#
# number of rings (size 3 to 8) (size 9 to 14) (size 15 to 20)
#    1.500    0.500    0.000    3.000    0.000    4.000 
#    0.000   10.000    0.000    0.000    0.000    0.000 
#    0.000    0.000    0.000    0.000    0.000    0.000 
#
# Total GULP energy -89816.419123 kJ/mol
# GULP energy per Si atom -5613.526195 kJ/mol
# Density = 2.874648 g / cm^3
# Si number density = 28.812059 Si / 1000 Ang^3
#
#
#
# Elastic Constant Matrix: (Units=GPa)
#
#
# Indices 1 2 3 4 5 6 
#
# 1 103.4179 50.9311 39.7500 0.0000 -12.8399 0.0000
# 2 50.9311 157.3941 51.7164 0.0000 -1.8848 0.0000
# 3 39.7500 51.7164 165.1036 0.0000 -28.5783 0.0000
# 4 0.0000 0.0000 0.0000 58.7168 0.0000 7.8362
# 5 -12.8399 -1.8848 -28.5783 0.0000 30.0029 0.0000
# 6 0.0000 0.0000 0.0000 7.8362 0.0000 59.5535
#
#
#
# Elastic Compliance Matrix: (Units=1/GPa)
#
#
# Indices 1 2 3 4 5 6 
#
# 1 0.012370 -0.003569 -0.001177 0.000000 0.003949 0.000000
# 2 -0.003569 0.008213 -0.002261 0.000000 -0.003165 0.000000
# 3 -0.001177 -0.002261 0.008306 0.000000 0.007266 0.000000
# 4 0.000000 0.000000 0.000000 0.017335 0.000000 -0.002281
# 5 0.003949 -0.003165 0.007266 0.000000 0.041742 0.000000
# 6 0.000000 0.000000 0.000000 -0.002281 0.000000 0.017092
#
#
# Mechanical properties :
#
#
# Convention : Reuss Voigt Hill
#
# Bulk Modulus (GPa) = 67.22531 78.96785 73.09658
# Shear Modulus (GPa) = 40.31260 48.55584 44.43422
#
# Velocity S-wave (km/s) = 3.74459 4.10965 3.93136
# Velocity P-wave (km/s) = 6.48683 7.07010 6.78474
#
# Compressibility (1/GPa) = 0.01487535
#
# Stress axis : x y z
#
# Youngs Moduli (GPa) = 80.84367 121.75166 120.39200
#
# Poissons Ratio (x) = 0.43450 0.14167
# Poissons Ratio (y) = 0.28851 0.27226
# Poissons Ratio (z) = 0.09513 0.27534
#
# Static dielectric constant tensor:
#      x y z
#    x 2.112980 0.000000 0.062890 
#    y 0.000000 2.297270 0.000000 
#    z 0.062890 0.000000 2.261660 
# 
# From -- ./inp_files/52434.got.cif
#   From: 2010.05.17/outbox.cif.g08.bks.cpg/sg14_27_cif.got.tgz:52434.got - 2010.06.03 17:49:19.
