data_PCOD9250263
_publ_section_title
;
Structure prediction by ZEFSAII (Michael W. Deem and Ramdas Pophale) SiO2 
 PCOD9250263
Probable space group: P 21/C
;
_chemical_formula_sum "Si O2"
_cell_formula_units_Z 30
_cell_length_a 14.795746
_cell_length_b 9.109575
_cell_length_c 8.390264
_cell_angle_alpha 90.000000
_cell_angle_beta 106.067265
_cell_angle_gamma 90.000000
_cell_volume 1086.690129
_symmetry_space_group_name_H-M "P 21/C"
_symmetry_group_IT_number 14
_symmetry_cell_setting 'monoclinic'
loop_
_space_group_symop_operation_xyz
x,y,z
-x,1/2+y,1/2-z
-x,-y,-z
x,1/2-y,1/2+z
loop_
_atom_site_type_symbol
_atom_site_label
_atom_site_fract_x
_atom_site_fract_y
_atom_site_fract_z
Si Si1 0.342650 0.050776 0.152763
Si Si2 0.674801 0.262791 0.520680
Si Si3 0.853802 0.951017 0.409199
Si Si4 0.076375 0.203590 0.869787
Si Si5 0.680094 0.824199 0.197671
Si Si6 0.110702 0.782688 0.778565
Si Si7 0.434224 0.939884 0.751974
Si Si8 0.000000 0.500000 0.500000
O O1 0.307867 0.152235 0.277984
O O2 0.454524 0.074393 0.202997
O O3 0.319566 0.880896 0.122890
O O4 0.302504 0.126249 0.973000
O O5 0.784052 0.237827 0.622035
O O6 0.616203 0.350484 0.627794
O O7 0.614705 0.125065 0.430538
O O8 0.903054 0.869359 0.576947
O O9 0.883416 0.858592 0.268654
O O10 0.744522 0.918568 0.349622
O O11 0.878802 0.114903 0.374130
O O12 0.963728 0.155793 0.812942
O O13 0.096260 0.100432 0.029879
O O14 0.580870 0.889248 0.207434
O O15 0.051875 0.875422 0.880996
#
# Coordination Sequence:
#
# PCOD9250263 Si02
#       8
#     4   4   4   4   4   4   4   2
#     4  11  22  43  68  93 130 166 216 272 336 390
#     4  11  25  42  68  95 133 171 219 272 324 398
#     4  11  22  41  64  94 129 169 221 261 324 378
#     4  11  23  41  64  93 130 171 213 267 315 388
#     4  11  23  41  66  96 128 168 216 274 320 398
#     4  11  23  43  64  92 131 171 219 263 324 375
#     4  11  23  44  65  96 127 172 212 274 336 393
#     4  10  24  40  62  92 126 166 210 266 316 374
#
# _framework density 27.606763999999998
#
# number of rings (size 3 to 8) (size 9 to 14) (size 15 to 20)
#    0.000    1.067    4.000    4.400    3.733    1.067 
#    4.800    2.667    0.000    0.000    0.000    0.000 
#    0.000    0.000    0.000    0.000    0.000    0.000 
#
# Total GULP energy -167429.931244 kJ/mol
# GULP energy per Si atom -5580.997708 kJ/mol
# Density = 2.754393 g / cm^3
# Si number density = 27.606764 Si / 1000 Ang^3
#
#
#
# Elastic Constant Matrix: (Units=GPa)
#
#
# Indices 1 2 3 4 5 6 
#
# 1 94.1222 -1.3650 33.7656 0.0000 14.4342 0.0000
# 2 -1.3650 70.8268 35.4753 0.0000 -3.2137 0.0000
# 3 33.7656 35.4753 80.1827 0.0000 17.0226 0.0000
# 4 0.0000 0.0000 0.0000 44.5076 0.0000 -8.3439
# 5 14.4342 -3.2137 17.0226 0.0000 42.5555 0.0000
# 6 0.0000 0.0000 0.0000 -8.3439 0.0000 37.5761
#
#
#
# Elastic Compliance Matrix: (Units=1/GPa)
#
#
# Indices 1 2 3 4 5 6 
#
# 1 0.013400 0.003673 -0.006952 0.000000 -0.001487 0.000000
# 2 0.003673 0.020176 -0.011510 0.000000 0.004882 0.000000
# 3 -0.006952 -0.011510 0.022048 0.000000 -0.007330 0.000000
# 4 0.000000 0.000000 0.000000 0.023444 0.000000 0.005206
# 5 -0.001487 0.004882 -0.007330 0.000000 0.027304 0.000000
# 6 0.000000 0.000000 0.000000 0.005206 0.000000 0.027769
#
#
# Mechanical properties :
#
#
# Convention : Reuss Voigt Hill
#
# Bulk Modulus (GPa) = 38.39396 42.32037 40.35716
# Shear Modulus (GPa) = 29.00238 36.74489 32.87364
#
# Velocity S-wave (km/s) = 3.24474 3.65226 3.45451
# Velocity P-wave (km/s) = 5.28918 5.75746 5.52828
#
# Compressibility (1/GPa) = 0.02604576
#
# Stress axis : x y z
#
# Youngs Moduli (GPa) = 74.62805 49.56356 45.35646
#
# Poissons Ratio (x) = -0.18204 0.31533
# Poissons Ratio (y) = -0.27410 0.52204
# Poissons Ratio (z) = 0.51883 0.57046
#
# Static dielectric constant tensor:
#      x y z
#    x 2.162850 0.000000 0.154410 
#    y 0.000000 1.375760 0.000000 
#    z 0.154410 0.000000 1.699390 
# 
# From -- ./inp_files/15598.got.cif
#   From: 2010.05.17/outbox.cif.g08.bks.cpg/sg14_8_cif.got.tgz:15598.got - 2010.06.03 17:49:19.
