data_PCOD9250678
_publ_section_title
;
Structure prediction by ZEFSAII (Michael W. Deem and Ramdas Pophale) SiO2 
 PCOD9250678
Probable space group: P 21/C
;
_chemical_formula_sum "Si O2"
_cell_formula_units_Z 12
_cell_length_a 12.531408
_cell_length_b 8.064370
_cell_length_c 10.985237
_cell_angle_alpha 90.000000
_cell_angle_beta 22.396452
_cell_angle_gamma 90.000000
_cell_volume 422.979852
_symmetry_space_group_name_H-M "P 21/C"
_symmetry_group_IT_number 14
_symmetry_cell_setting 'monoclinic'
loop_
_space_group_symop_operation_xyz
x,y,z
-x,1/2+y,1/2-z
-x,-y,-z
x,1/2-y,1/2+z
loop_
_atom_site_type_symbol
_atom_site_label
_atom_site_fract_x
_atom_site_fract_y
_atom_site_fract_z
Si Si1 0.266393 0.249709 0.039844
Si Si2 0.706451 0.345197 0.265110
Si Si3 0.932667 0.092308 0.196753
O O1 0.204749 0.444061 0.082368
O O2 0.025970 0.158497 0.377865
O O3 0.204333 0.156403 0.979694
O O4 0.544742 0.249349 0.826525
O O5 0.500000 0.500000 0.500000
O O6 0.747819 0.247968 0.348907
O O7 0.000000 0.000000 0.000000
#
# Coordination Sequence:
#
# PCOD9250678 Si02
#       3
#     4   4   4
#     4  11  24  42  68  98 136 183 229 288 352 414
#     4  11  24  43  68 100 135 180 234 291 350 417
#     4  10  24  45  69 102 141 183 234 291 349 419
#
# _framework density 28.370145999999998
#
# number of rings (size 3 to 8) (size 9 to 14) (size 15 to 20)
#    0.000    1.333    0.000    4.000    0.000   16.000 
#    0.000    0.000    0.000    0.000    0.000    0.000 
#    0.000    0.000    0.000    0.000    0.000    0.000 
#
# Total GULP energy -67185.906208 kJ/mol
# GULP energy per Si atom -5598.825517 kJ/mol
# Density = 2.830557 g / cm^3
# Si number density = 28.370146 Si / 1000 Ang^3
#
#
#
# Elastic Constant Matrix: (Units=GPa)
#
#
# Indices 1 2 3 4 5 6 
#
# 1 135.5837 12.8177 24.6243 0.0000 -31.6980 0.0000
# 2 12.8177 114.7669 -3.9356 0.0000 -9.1308 0.0000
# 3 24.6243 -3.9356 132.7116 0.0000 -31.0760 0.0000
# 4 0.0000 0.0000 0.0000 49.8720 0.0000 -15.4113
# 5 -31.6980 -9.1308 -31.0760 0.0000 54.8267 0.0000
# 6 0.0000 0.0000 0.0000 -15.4113 0.0000 84.0229
#
#
#
# Elastic Compliance Matrix: (Units=1/GPa)
#
#
# Indices 1 2 3 4 5 6 
#
# 1 0.008599 -0.000616 -0.000546 0.000000 0.004559 0.000000
# 2 -0.000616 0.008931 0.000743 0.000000 0.001552 0.000000
# 3 -0.000546 0.000743 0.008779 0.000000 0.004784 0.000000
# 4 0.000000 0.000000 0.000000 0.021256 0.000000 0.003899
# 5 0.004559 0.001552 0.004784 0.000000 0.023845 0.000000
# 6 0.000000 0.000000 0.000000 0.003899 0.000000 0.012617
#
#
# Mechanical properties :
#
#
# Convention : Reuss Voigt Hill
#
# Bulk Modulus (GPa) = 39.26375 50.00834 44.63604
# Shear Modulus (GPa) = 53.55848 61.04803 57.30325
#
# Velocity S-wave (km/s) = 4.34965 4.64383 4.49914
# Velocity P-wave (km/s) = 6.25266 6.81314 6.53891
#
# Compressibility (1/GPa) = 0.02546879
#
# Stress axis : x y z
#
# Youngs Moduli (GPa) = 116.29428 111.96837 113.91259
#
# Poissons Ratio (x) = 0.06901 0.06222
# Poissons Ratio (y) = 0.07168 -0.08459
# Poissons Ratio (z) = 0.06352 -0.08315
#
# Static dielectric constant tensor:
#      x y z
#    x 2.294780 0.000000 0.220620 
#    y 0.000000 2.313570 0.000000 
#    z 0.220620 0.000000 2.285620 
# 
# From -- ./inp_files/20078.got.cif
#   From: 2010.05.17/outbox.cif.g08.bks.cpg/sg14_11_cif.got.tgz:20078.got - 2010.06.03 17:49:19.
