data_PCOD9250813
_publ_section_title
;
Structure prediction by ZEFSAII (Michael W. Deem and Ramdas Pophale) SiO2 
 PCOD9250813
Probable space group: P 21/C
;
_chemical_formula_sum "Si O2"
_cell_formula_units_Z 16
_cell_length_a 4.612437
_cell_length_b 23.455202
_cell_length_c 6.372438
_cell_angle_alpha 90.000000
_cell_angle_beta 52.450384
_cell_angle_gamma 90.000000
_cell_volume 546.579150
_symmetry_space_group_name_H-M "P 21/C"
_symmetry_group_IT_number 14
_symmetry_cell_setting 'monoclinic'
loop_
_space_group_symop_operation_xyz
x,y,z
-x,1/2+y,1/2-z
-x,-y,-z
x,1/2-y,1/2+z
loop_
_atom_site_type_symbol
_atom_site_label
_atom_site_fract_x
_atom_site_fract_y
_atom_site_fract_z
Si Si1 0.803650 0.752750 0.785551
Si Si2 0.410872 0.654410 0.556555
Si Si3 0.611301 0.952050 0.758570
Si Si4 0.578308 0.070581 0.600469
O O1 0.665290 0.754036 0.597486
O O2 0.122246 0.705266 0.639520
O O3 0.804885 0.821142 0.809313
O O4 0.344543 0.597052 0.456627
O O5 0.436667 0.631150 0.780349
O O6 0.675441 0.934012 0.486963
O O7 0.019853 0.944651 0.663847
O O8 0.492392 0.017988 0.797138
#
# Coordination Sequence:
#
# PCOD9250813 Si02
#       4
#     4   4   4   4
#     4  12  30  50  74 110 156 208 272 318 392 468
#     4  12  27  46  76 108 157 208 258 336 384 486
#     4  10  24  46  76 114 153 201 261 328 402 474
#     4  10  24  46  76 114 153 201 261 328 402 474
#
# _framework density 29.272977999999998
#
# number of rings (size 3 to 8) (size 9 to 14) (size 15 to 20)
#    0.000    1.000    0.000    3.750   14.000    0.000 
#    0.000    7.500    0.000    0.000    0.000    0.000 
#    0.000    0.000    0.000    0.000    0.000    0.000 
#
# Total GULP energy -89099.887735 kJ/mol
# GULP energy per Si atom -5568.742983 kJ/mol
# Density = 2.920635 g / cm^3
# Si number density = 29.272978 Si / 1000 Ang^3
#
#
#
# Elastic Constant Matrix: (Units=GPa)
#
#
# Indices 1 2 3 4 5 6 
#
# 1 87.9675 44.4562 43.8470 0.0000 10.1029 0.0000
# 2 44.4562 144.4006 75.3162 0.0000 -17.0635 0.0000
# 3 43.8470 75.3162 121.3153 0.0000 -0.2854 0.0000
# 4 0.0000 0.0000 0.0000 79.5395 0.0000 -10.5497
# 5 10.1029 -17.0635 -0.2854 0.0000 39.2445 0.0000
# 6 0.0000 0.0000 0.0000 -10.5497 0.0000 35.1404
#
#
#
# Elastic Compliance Matrix: (Units=1/GPa)
#
#
# Indices 1 2 3 4 5 6 
#
# 1 0.015554 -0.003722 -0.003324 0.000000 -0.005647 0.000000
# 2 -0.003722 0.011956 -0.006063 0.000000 0.006112 0.000000
# 3 -0.003324 -0.006063 0.013204 0.000000 -0.001684 0.000000
# 4 0.000000 0.000000 0.000000 0.013094 0.000000 0.003931
# 5 -0.005647 0.006112 -0.001684 0.000000 0.029580 0.000000
# 6 0.000000 0.000000 0.000000 0.003931 0.000000 0.029637
#
#
# Mechanical properties :
#
#
# Convention : Reuss Voigt Hill
#
# Bulk Modulus (GPa) = 68.98381 75.65802 72.32092
# Shear Modulus (GPa) = 34.70385 43.45580 39.07983
#
# Velocity S-wave (km/s) = 3.44688 3.85710 3.65775
# Velocity P-wave (km/s) = 6.28157 6.76300 6.52673
#
# Compressibility (1/GPa) = 0.01449616
#
# Stress axis : x y z
#
# Youngs Moduli (GPa) = 64.29055 83.64315 75.73192
#
# Poissons Ratio (x) = 0.31132 0.25176
# Poissons Ratio (y) = 0.23929 0.45914
# Poissons Ratio (z) = 0.21372 0.50711
#
# Static dielectric constant tensor:
#      x y z
#    x 2.320990 0.000000 0.024850 
#    y 0.000000 2.271710 0.000000 
#    z 0.024850 0.000000 2.421310 
# 
# From -- ./inp_files/380.got.cif
#   From: 2010.05.17/outbox.cif.g08.bks.cpg/sg14_1_cif.got.tgz:380.got - 2010.06.03 17:49:19.
