data_PCOD9250976
_publ_section_title
;
Structure prediction by ZEFSAII (Michael W. Deem and Ramdas Pophale) SiO2 
 PCOD9250976
Probable space group: P 21/C
;
_chemical_formula_sum "Si O2"
_cell_formula_units_Z 20
_cell_length_a 9.378904
_cell_length_b 10.281512
_cell_length_c 9.368960
_cell_angle_alpha 90.000000
_cell_angle_beta 108.564056
_cell_angle_gamma 90.000000
_cell_volume 856.434761
_symmetry_space_group_name_H-M "P 21/C"
_symmetry_group_IT_number 14
_symmetry_cell_setting 'monoclinic'
loop_
_space_group_symop_operation_xyz
x,y,z
-x,1/2+y,1/2-z
-x,-y,-z
x,1/2-y,1/2+z
loop_
_atom_site_type_symbol
_atom_site_label
_atom_site_fract_x
_atom_site_fract_y
_atom_site_fract_z
Si Si1 0.065405 0.710504 0.584390
Si Si2 0.218488 0.379854 0.968289
Si Si3 0.687589 0.398885 0.817447
Si Si4 0.663913 0.851361 0.812413
Si Si5 0.140193 0.995190 0.896167
O O1 0.231882 0.759383 0.667171
O O2 0.070790 0.639168 0.432337
O O3 0.952032 0.832493 0.557253
O O4 0.992201 0.600744 0.662562
O O5 0.255829 0.526453 0.023770
O O6 0.316647 0.287182 0.103504
O O7 0.264940 0.350810 0.821646
O O8 0.509859 0.388949 0.753826
O O9 0.757866 0.477626 0.707878
O O10 0.755771 0.949291 0.943501
#
# Coordination Sequence:
#
# PCOD9250976 Si02
#       5
#     4   4   4   4   4
#     4  10  25  43  70 102 138 185 228 287 349 412
#     4  11  25  47  67 104 142 182 231 292 343 420
#     4  12  26  42  79 100 139 183 239 287 348 413
#     4  11  26  46  70 101 145 182 231 288 355 410
#     4  10  25  46  71 100 143 181 235 289 347 414
#
# _framework density 23.352626000000001
#
# number of rings (size 3 to 8) (size 9 to 14) (size 15 to 20)
#    0.000    1.200    0.000    4.200   16.800    1.600 
#    0.000    0.000    0.000    0.000    0.000    0.000 
#    0.000    0.000    0.000    0.000    0.000    0.000 
#
# Total GULP energy -112026.139891 kJ/mol
# GULP energy per Si atom -5601.306995 kJ/mol
# Density = 2.329947 g / cm^3
# Si number density = 23.352626 Si / 1000 Ang^3
#
#
#
# Elastic Constant Matrix: (Units=GPa)
#
#
# Indices 1 2 3 4 5 6 
#
# 1 122.7640 43.0328 36.5502 0.0000 13.4633 0.0000
# 2 43.0328 66.5144 35.1247 0.0000 0.3033 0.0000
# 3 36.5502 35.1247 111.5338 0.0000 -11.4503 0.0000
# 4 0.0000 0.0000 0.0000 31.0363 0.0000 7.0691
# 5 13.4633 0.3033 -11.4503 0.0000 23.4391 0.0000
# 6 0.0000 0.0000 0.0000 7.0691 0.0000 37.8071
#
#
#
# Elastic Compliance Matrix: (Units=1/GPa)
#
#
# Indices 1 2 3 4 5 6 
#
# 1 0.012100 -0.006297 -0.002829 0.000000 -0.008251 0.000000
# 2 -0.006297 0.021536 -0.004607 0.000000 0.001087 0.000000
# 3 -0.002829 -0.004607 0.012125 0.000000 0.007608 0.000000
# 4 0.000000 0.000000 0.000000 0.033654 0.000000 -0.006292
# 5 -0.008251 0.001087 0.007608 0.000000 0.051106 0.000000
# 6 0.000000 0.000000 0.000000 -0.006292 0.000000 0.027627
#
#
# Mechanical properties :
#
#
# Convention : Reuss Voigt Hill
#
# Bulk Modulus (GPa) = 54.66003 58.91417 56.78710
# Shear Modulus (GPa) = 26.08080 30.86345 28.47213
#
# Velocity S-wave (km/s) = 3.34552 3.63936 3.49553
# Velocity P-wave (km/s) = 6.19520 6.55307 6.37665
#
# Compressibility (1/GPa) = 0.01829490
#
# Stress axis : x y z
#
# Youngs Moduli (GPa) = 82.64360 46.43375 82.47385
#
# Poissons Ratio (x) = 0.29238 0.23335
# Poissons Ratio (y) = 0.52038 0.37997
# Poissons Ratio (z) = 0.23383 0.21393
#
# Static dielectric constant tensor:
#      x y z
#    x 1.820700 0.000000 0.020960 
#    y 0.000000 1.942970 0.000000 
#    z 0.020960 0.000000 1.867110 
# 
# From -- ./inp_files/7949.got.cif
#   From: 2010.05.17/outbox.cif.g08.bks.cpg/sg14_4_cif.got.tgz:7949.got - 2010.06.03 17:49:19.
