data_PCOD9250333
_publ_section_title
;
Structure prediction by ZEFSAII (Michael W. Deem and Ramdas Pophale) SiO2 
 PCOD9250333
Probable space group: P 21/C
;
_chemical_formula_sum "Si O2"
_cell_formula_units_Z 28
_cell_length_a 13.705201
_cell_length_b 6.085804
_cell_length_c 22.613708
_cell_angle_alpha 90.000000
_cell_angle_beta 134.114791
_cell_angle_gamma 90.000000
_cell_volume 1354.151663
_symmetry_space_group_name_H-M "P 21/C"
_symmetry_group_IT_number 14
_symmetry_cell_setting 'monoclinic'
loop_
_space_group_symop_operation_xyz
x,y,z
-x,1/2+y,1/2-z
-x,-y,-z
x,1/2-y,1/2+z
loop_
_atom_site_type_symbol
_atom_site_label
_atom_site_fract_x
_atom_site_fract_y
_atom_site_fract_z
Si Si1 0.820557 0.029575 0.678690
Si Si2 0.052363 0.316516 0.476903
Si Si3 0.194848 0.010839 0.617572
Si Si4 0.356928 0.574540 0.411977
Si Si5 0.532195 0.177048 0.290407
Si Si6 0.317382 0.209134 0.786981
Si Si7 0.903923 0.836118 0.139602
O O1 0.688387 0.174282 0.609350
O O2 0.956461 0.134964 0.764282
O O3 0.772776 0.859674 0.708810
O O4 0.864577 0.915284 0.636278
O O5 0.076726 0.393951 0.420579
O O6 0.000000 0.500000 0.500000
O O7 0.940083 0.125158 0.426675
O O8 0.179244 0.197796 0.561432
O O9 0.306465 0.839269 0.642332
O O10 0.235944 0.127688 0.695712
O O11 0.500000 0.500000 0.500000
O O12 0.358540 0.494254 0.345020
O O13 0.225497 0.467081 0.389032
O O14 0.502254 0.429638 0.252734
O O15 0.450788 0.174375 0.317364
#
# Coordination Sequence:
#
# PCOD9250333 Si02
#       7
#     4   4   4   4   4   4   4
#     4  11  23  42  72  97 136 183 243 292 361 446
#     4  11  25  40  67 100 143 182 232 306 364 436
#     4  10  24  43  64 101 135 186 240 289 369 438
#     4  11  26  44  67 106 139 183 234 306 372 425
#     4  10  24  41  68 102 136 186 237 294 356 436
#     4  10  24  43  71  97 138 184 238 295 363 445
#     4  11  24  42  69 101 134 186 240 293 362 438
#
# _framework density 20.677153000000001
#
# number of rings (size 3 to 8) (size 9 to 14) (size 15 to 20)
#    0.000    1.429    1.429    1.714   12.000    8.000 
#    2.571    0.000    0.000    0.000    0.000    0.000 
#    0.000    0.000    0.000    0.000    0.000    0.000 
#
# Total GULP energy -155990.849904 kJ/mol
# GULP energy per Si atom -5571.101782 kJ/mol
# Density = 2.063009 g / cm^3
# Si number density = 20.677153 Si / 1000 Ang^3
#
#
#
# Elastic Constant Matrix: (Units=GPa)
#
#
# Indices 1 2 3 4 5 6 
#
# 1 92.8854 13.5331 18.4554 0.0000 -13.5178 0.0000
# 2 13.5331 58.1995 4.5574 0.0000 -13.5387 0.0000
# 3 18.4554 4.5574 73.0919 0.0000 -14.0907 0.0000
# 4 0.0000 0.0000 0.0000 19.2795 0.0000 0.7343
# 5 -13.5178 -13.5387 -14.0907 0.0000 20.0392 0.0000
# 6 0.0000 0.0000 0.0000 0.7343 0.0000 37.1713
#
#
#
# Elastic Compliance Matrix: (Units=1/GPa)
#
#
# Indices 1 2 3 4 5 6 
#
# 1 0.012201 -0.001279 -0.001829 0.000000 0.006080 0.000000
# 2 -0.001279 0.020684 0.001806 0.000000 0.014381 0.000000
# 3 -0.001829 0.001806 0.016228 0.000000 0.011397 0.000000
# 4 0.000000 0.000000 0.000000 0.051908 0.000000 -0.001025
# 5 0.006080 0.014381 0.011397 0.000000 0.071733 0.000000
# 6 0.000000 0.000000 0.000000 -0.001025 0.000000 0.026923
#
#
# Mechanical properties :
#
#
# Convention : Reuss Voigt Hill
#
# Bulk Modulus (GPa) = 21.50222 33.02985 27.26603
# Shear Modulus (GPa) = 22.95871 27.80674 25.38272
#
# Velocity S-wave (km/s) = 3.33579 3.67114 3.50748
# Velocity P-wave (km/s) = 5.02576 5.82910 5.44228
#
# Compressibility (1/GPa) = 0.04650684
#
# Stress axis : x y z
#
# Youngs Moduli (GPa) = 81.96373 48.34724 61.62319
#
# Poissons Ratio (x) = 0.06186 0.11269
# Poissons Ratio (y) = 0.10487 -0.11127
# Poissons Ratio (z) = 0.14989 -0.08730
#
# Static dielectric constant tensor:
#      x y z
#    x 1.726240 0.000000 0.035030 
#    y 0.000000 1.766830 0.000000 
#    z 0.035030 0.000000 1.747890 
# 
# From -- ./inp_files/67884.got.cif
#   From: 2010.05.17/outbox.cif.g08.bks.cpg/sg14_34_cif.got.tgz:67884.got - 2010.06.03 17:49:19.
