data_PCOD9250301
_publ_section_title
;
Structure prediction by ZEFSAII (Michael W. Deem and Ramdas Pophale) SiO2 
 PCOD9250301
Probable space group: P 21/C
;
_chemical_formula_sum "Si O2"
_cell_formula_units_Z 32
_cell_length_a 14.525261
_cell_length_b 11.223230
_cell_length_c 9.155845
_cell_angle_alpha 90.000000
_cell_angle_beta 105.078260
_cell_angle_gamma 90.000000
_cell_volume 1441.201269
_symmetry_space_group_name_H-M "P 21/C"
_symmetry_group_IT_number 14
_symmetry_cell_setting 'monoclinic'
loop_
_space_group_symop_operation_xyz
x,y,z
-x,1/2+y,1/2-z
-x,-y,-z
x,1/2-y,1/2+z
loop_
_atom_site_type_symbol
_atom_site_label
_atom_site_fract_x
_atom_site_fract_y
_atom_site_fract_z
Si Si1 0.548066 0.126211 0.316699
Si Si2 0.338660 0.396090 0.240787
Si Si3 0.640087 0.661609 0.424083
Si Si4 0.632482 0.323137 0.148625
Si Si5 0.818087 0.302283 0.628855
Si Si6 0.788058 0.013259 0.862823
Si Si7 0.128937 0.017055 0.663698
Si Si8 0.926581 0.052146 0.676264
O O1 0.444050 0.104348 0.207808
O O2 0.582654 0.249938 0.256799
O O3 0.558834 0.135387 0.494972
O O4 0.616780 0.020763 0.290483
O O5 0.354284 0.297620 0.123997
O O6 0.381378 0.355259 0.413932
O O7 0.226292 0.412141 0.220641
O O8 0.738985 0.596231 0.424569
O O9 0.708005 0.234518 0.101773
O O10 0.702069 0.426019 0.235533
O O11 0.823765 0.387687 0.491871
O O12 0.848971 0.381490 0.779313
O O13 0.880460 0.183473 0.647134
O O14 0.874986 0.987857 0.789917
O O15 0.040520 0.059535 0.725145
O O16 0.099479 0.017361 0.482602
#
# Coordination Sequence:
#
# PCOD9250301 Si02
#       8
#     4   4   4   4   4   4   4   4
#     4  12  25  45  73 101 141 182 242 285 345 417
#     4  12  27  49  68 100 148 185 230 293 353 413
#     4  12  29  45  69 101 143 191 231 288 354 415
#     4  11  22  40  72 101 132 183 231 297 335 406
#     4  11  20  43  67 101 131 179 228 285 343 411
#     4  11  23  42  68  98 137 174 238 280 341 412
#     4  11  23  46  68  98 141 175 222 292 351 412
#     4  10  24  40  71 103 131 178 232 281 349 420
#
# _framework density 22.203697999999999
#
# number of rings (size 3 to 8) (size 9 to 14) (size 15 to 20)
#    0.000    0.750    3.750    4.125    5.250    2.000 
#    4.500    0.000    0.000    0.000    0.000    0.000 
#    0.000    0.000    0.000    0.000    0.000    0.000 
#
# Total GULP energy -179122.067155 kJ/mol
# GULP energy per Si atom -5597.564599 kJ/mol
# Density = 2.215316 g / cm^3
# Si number density = 22.203698 Si / 1000 Ang^3
#
#
#
# Elastic Constant Matrix: (Units=GPa)
#
#
# Indices 1 2 3 4 5 6 
#
# 1 92.5164 7.6335 -7.3427 0.0000 7.7915 0.0000
# 2 7.6335 37.9645 5.8425 0.0000 0.1983 0.0000
# 3 -7.3427 5.8425 58.8511 0.0000 1.4576 0.0000
# 4 0.0000 0.0000 0.0000 2.0139 0.0000 2.0272
# 5 7.7915 0.1983 1.4576 0.0000 32.4860 0.0000
# 6 0.0000 0.0000 0.0000 2.0272 0.0000 24.9079
#
#
#
# Elastic Compliance Matrix: (Units=1/GPa)
#
#
# Indices 1 2 3 4 5 6 
#
# 1 0.011393 -0.002544 0.001743 0.000000 -0.002795 0.000000
# 2 -0.002544 0.027317 -0.003044 0.000000 0.000580 0.000000
# 3 0.001743 -0.003044 0.017541 0.000000 -0.001187 0.000000
# 4 0.000000 0.000000 0.000000 0.540849 0.000000 -0.044018
# 5 -0.002795 0.000580 -0.001187 0.000000 0.031503 0.000000
# 6 0.000000 0.000000 0.000000 -0.044018 0.000000 0.043730
#
#
# Mechanical properties :
#
#
# Convention : Reuss Voigt Hill
#
# Bulk Modulus (GPa) = 20.59255 22.39985 21.49620
# Shear Modulus (GPa) = 7.18175 24.09482 15.63828
#
# Velocity S-wave (km/s) = 1.80042 3.29777 2.65676
# Velocity P-wave (km/s) = 3.69006 4.96091 4.37191
#
# Compressibility (1/GPa) = 0.04856124
#
# Stress axis : x y z
#
# Youngs Moduli (GPa) = 87.77642 36.60673 57.00894
#
# Poissons Ratio (x) = 0.09314 -0.09938
# Poissons Ratio (y) = 0.22334 0.17352
# Poissons Ratio (z) = -0.15302 0.11142
#
# Static dielectric constant tensor:
#      x y z
#    x 1.811180 0.000000 0.005520 
#    y 0.000000 1.793700 0.000000 
#    z 0.005520 0.000000 1.810510 
# 
# From -- ./inp_files/15850.got.cif
#   From: 2010.05.17/outbox.cif.g08.bks.cpg/sg14_8_cif.got.tgz:15850.got - 2010.06.03 17:49:19.
