data_PCOD9250543
_publ_section_title
;
Structure prediction by ZEFSAII (Michael W. Deem and Ramdas Pophale) SiO2 
 PCOD9250543
Probable space group: P 21/C
;
_chemical_formula_sum "Si O2"
_cell_formula_units_Z 20
_cell_length_a 15.686366
_cell_length_b 8.567966
_cell_length_c 9.861581
_cell_angle_alpha 90.000000
_cell_angle_beta 144.641464
_cell_angle_gamma 90.000000
_cell_volume 766.996615
_symmetry_space_group_name_H-M "P 21/C"
_symmetry_group_IT_number 14
_symmetry_cell_setting 'monoclinic'
loop_
_space_group_symop_operation_xyz
x,y,z
-x,1/2+y,1/2-z
-x,-y,-z
x,1/2-y,1/2+z
loop_
_atom_site_type_symbol
_atom_site_label
_atom_site_fract_x
_atom_site_fract_y
_atom_site_fract_z
Si Si1 0.634758 0.641200 0.526375
Si Si2 0.473075 0.663047 0.036928
Si Si3 0.185606 0.815788 0.730720
Si Si4 0.026708 0.924005 0.181958
Si Si5 0.113973 0.256434 0.811250
O O1 0.515166 0.644209 0.249978
O O2 0.564346 0.701113 0.575249
O O3 0.726275 0.478220 0.643050
O O4 0.755080 0.760464 0.623501
O O5 0.500000 0.500000 0.000000
O O6 0.302597 0.706145 0.808719
O O7 0.134817 0.722983 0.800653
O O8 0.031865 0.814407 0.450279
O O9 0.876190 0.865127 0.053542
O O10 0.093794 0.071969 0.345071
O O11 0.000000 0.000000 0.000000
#
# Coordination Sequence:
#
# PCOD9250543 Si02
#       5
#     4   4   4   4   4
#     4  12  28  48  77 110 152 201 256 315 382 454
#     4  12  29  49  75 108 156 203 255 313 385 454
#     4  11  26  47  76 107 149 199 252 310 384 452
#     4  10  24  43  73 109 149 192 245 308 380 446
#     4  11  25  43  78 107 154 185 256 306 382 443
#
# _framework density 26.075734000000001
#
# number of rings (size 3 to 8) (size 9 to 14) (size 15 to 20)
#    0.000    0.800    0.000    4.800   19.600    0.000 
#    0.000    0.000    0.000    0.000    0.000    0.000 
#    0.000    0.000    0.000    0.000    0.000    0.000 
#
# Total GULP energy -111920.419178 kJ/mol
# GULP energy per Si atom -5596.020959 kJ/mol
# Density = 2.601638 g / cm^3
# Si number density = 26.075734 Si / 1000 Ang^3
#
#
#
# Elastic Constant Matrix: (Units=GPa)
#
#
# Indices 1 2 3 4 5 6 
#
# 1 84.1680 0.1537 4.0212 0.0000 6.5628 0.0000
# 2 0.1537 103.7515 -18.4643 0.0000 -10.1577 0.0000
# 3 4.0212 -18.4643 98.7754 0.0000 -9.0485 0.0000
# 4 0.0000 0.0000 0.0000 35.2759 0.0000 2.4503
# 5 6.5628 -10.1577 -9.0485 0.0000 43.3802 0.0000
# 6 0.0000 0.0000 0.0000 2.4503 0.0000 58.8153
#
#
#
# Elastic Compliance Matrix: (Units=1/GPa)
#
#
# Indices 1 2 3 4 5 6 
#
# 1 0.012078 -0.000353 -0.000747 0.000000 -0.002066 0.000000
# 2 -0.000353 0.010320 0.002212 0.000000 0.002931 0.000000
# 3 -0.000747 0.002212 0.010833 0.000000 0.002890 0.000000
# 4 0.000000 0.000000 0.000000 0.028430 0.000000 -0.001184
# 5 -0.002066 0.002931 0.002890 0.000000 0.024654 0.000000
# 6 0.000000 0.000000 0.000000 -0.001184 0.000000 0.017052
#
#
# Mechanical properties :
#
#
# Convention : Reuss Voigt Hill
#
# Bulk Modulus (GPa) = 28.20520 28.67958 28.44239
# Shear Modulus (GPa) = 44.26320 47.55991 45.91155
#
# Velocity S-wave (km/s) = 4.12453 4.27536 4.20062
# Velocity P-wave (km/s) = 5.78985 5.94929 5.87012
#
# Compressibility (1/GPa) = 0.03545446
#
# Stress axis : x y z
#
# Youngs Moduli (GPa) = 82.79239 96.90331 92.31342
#
# Poissons Ratio (x) = 0.03421 0.06895
# Poissons Ratio (y) = 0.02923 -0.20419
# Poissons Ratio (z) = 0.06184 -0.21434
#
# Static dielectric constant tensor:
#      x y z
#    x 2.100530 0.000000 -0.125770 
#    y 0.000000 2.179580 0.000000 
#    z -0.125770 0.000000 2.158870 
# 
# From -- ./inp_files/22980.got.cif
#   From: 2010.05.17/outbox.cif.g08.bks.cpg/sg14_12_cif.got.tgz:22980.got - 2010.06.03 17:49:19.
