data_PCOD9250071
_publ_section_title
;
Structure prediction by ZEFSAII (Michael W. Deem and Ramdas Pophale) SiO2 
 PCOD9250071
Probable space group: P 21/C
;
_chemical_formula_sum "Si O2"
_cell_formula_units_Z 16
_cell_length_a 5.110484
_cell_length_b 14.238360
_cell_length_c 11.328519
_cell_angle_alpha 90.000000
_cell_angle_beta 55.376305
_cell_angle_gamma 90.000000
_cell_volume 678.333045
_symmetry_space_group_name_H-M "P 21/C"
_symmetry_group_IT_number 14
_symmetry_cell_setting 'monoclinic'
loop_
_space_group_symop_operation_xyz
x,y,z
-x,1/2+y,1/2-z
-x,-y,-z
x,1/2-y,1/2+z
loop_
_atom_site_type_symbol
_atom_site_label
_atom_site_fract_x
_atom_site_fract_y
_atom_site_fract_z
Si Si1 0.232361 0.815019 0.231905
Si Si2 0.136881 0.534954 0.588402
Si Si3 0.477216 0.535609 0.850844
Si Si4 0.632785 0.652129 0.032080
O O1 0.151729 0.855182 0.121955
O O2 0.401540 0.901324 0.256779
O O3 0.444413 0.724754 0.159483
O O4 0.924348 0.797784 0.391059
O O5 0.500000 0.500000 0.500000
O O6 0.000000 0.500000 0.500000
O O7 0.850659 0.503999 0.749864
O O8 0.282383 0.439696 0.912806
O O9 0.444190 0.603939 0.971485
#
# Coordination Sequence:
#
# PCOD9250071 Si02
#       4
#     4   4   4   4
#     4  11  24  44  71 109 142 196 248 304 370 440
#     4  11  23  43  73 106 142 185 241 297 361 432
#     4  10  23  46  68 103 148 198 239 307 372 436
#     4  10  25  43  70 103 148 193 246 305 369 443
#
# _framework density 23.587235
#
# number of rings (size 3 to 8) (size 9 to 14) (size 15 to 20)
#    0.000    1.500    2.500    0.750    3.500    6.000 
#    0.000    0.000    0.000    0.000    0.000    0.000 
#    0.000    0.000    0.000    0.000    0.000    0.000 
#
# Total GULP energy -89280.826527 kJ/mol
# GULP energy per Si atom -5580.051658 kJ/mol
# Density = 2.353355 g / cm^3
# Si number density = 23.587235 Si / 1000 Ang^3
#
#
#
# Elastic Constant Matrix: (Units=GPa)
#
#
# Indices 1 2 3 4 5 6 
#
# 1 110.1486 38.1273 44.0037 0.0000 -3.3954 0.0000
# 2 38.1273 148.7009 95.6324 0.0000 0.1001 0.0000
# 3 44.0037 95.6324 126.5393 0.0000 -17.8495 0.0000
# 4 0.0000 0.0000 0.0000 58.1121 0.0000 -2.2660
# 5 -3.3954 0.1001 -17.8495 0.0000 42.3835 0.0000
# 6 0.0000 0.0000 0.0000 -2.2660 0.0000 22.9251
#
#
#
# Elastic Compliance Matrix: (Units=1/GPa)
#
#
# Indices 1 2 3 4 5 6 
#
# 1 0.010589 -0.000577 -0.003324 0.000000 -0.000550 0.000000
# 2 -0.000577 0.013960 -0.011015 0.000000 -0.004718 0.000000
# 3 -0.003324 -0.011015 0.018445 0.000000 0.007528 0.000000
# 4 0.000000 0.000000 0.000000 0.017275 0.000000 0.001708
# 5 -0.000550 -0.004718 0.007528 0.000000 0.026731 0.000000
# 6 0.000000 0.000000 0.000000 0.001708 0.000000 0.043789
#
#
# Mechanical properties :
#
#
# Convention : Reuss Voigt Hill
#
# Bulk Modulus (GPa) = 75.97507 82.32396 79.14951
# Shear Modulus (GPa) = 30.30116 38.52583 34.41350
#
# Velocity S-wave (km/s) = 3.58808 4.04584 3.82381
# Velocity P-wave (km/s) = 7.03178 7.53676 7.28864
#
# Compressibility (1/GPa) = 0.01316221
#
# Stress axis : x y z
#
# Youngs Moduli (GPa) = 94.43490 71.63200 54.21439
#
# Poissons Ratio (x) = 0.04134 0.18020
# Poissons Ratio (y) = 0.05450 0.59719
# Poissons Ratio (z) = 0.31389 0.78905
#
# Static dielectric constant tensor:
#      x y z
#    x 1.945780 0.000000 0.020640 
#    y 0.000000 1.852900 0.000000 
#    z 0.020640 0.000000 1.933750 
# 
# From -- ./inp_files/20591.got.cif
#   From: 2010.05.17/outbox.cif.g08.bks.cpg/sg14_11_cif.got.tgz:20591.got - 2010.06.03 17:49:19.
