data_PCOD9250339
_publ_section_title
;
Structure prediction by ZEFSAII (Michael W. Deem and Ramdas Pophale) SiO2 
 PCOD9250339
Probable space group: P 21/C
;
_chemical_formula_sum "Si O2"
_cell_formula_units_Z 20
_cell_length_a 11.462075
_cell_length_b 8.158421
_cell_length_c 8.771607
_cell_angle_alpha 90.000000
_cell_angle_beta 99.637835
_cell_angle_gamma 90.000000
_cell_volume 808.676997
_symmetry_space_group_name_H-M "P 21/C"
_symmetry_group_IT_number 14
_symmetry_cell_setting 'monoclinic'
loop_
_space_group_symop_operation_xyz
x,y,z
-x,1/2+y,1/2-z
-x,-y,-z
x,1/2-y,1/2+z
loop_
_atom_site_type_symbol
_atom_site_label
_atom_site_fract_x
_atom_site_fract_y
_atom_site_fract_z
Si Si1 0.488276 0.363115 0.126341
Si Si2 0.373659 0.917860 0.031860
Si Si3 0.254342 0.414849 0.246098
Si Si4 0.994881 0.842877 0.389443
Si Si5 0.850545 0.220328 0.849987
O O1 0.550172 0.426117 0.296049
O O2 0.350363 0.352121 0.144584
O O3 0.500000 0.500000 0.000000
O O4 0.558686 0.207339 0.069808
O O5 0.252880 0.854095 0.075371
O O6 0.328347 0.068450 0.918245
O O7 0.132419 0.313768 0.213154
O O8 0.202789 0.598445 0.201012
O O9 0.034980 0.706504 0.516382
O O10 0.102495 0.857843 0.294470
O O11 0.000000 0.000000 0.500000
#
# Coordination Sequence:
#
# PCOD9250339 Si02
#       5
#     4   4   4   4   4
#     4  12  24  43  71 105 137 185 233 284 353 418
#     4  12  23  43  73 101 142 185 228 289 349 415
#     4  11  24  43  68 101 138 185 227 287 344 409
#     4  10  24  41  69 103 136 183 233 282 350 408
#     4  11  20  45  69  97 141 177 230 285 342 415
#
# _framework density 24.731750999999999
#
# number of rings (size 3 to 8) (size 9 to 14) (size 15 to 20)
#    0.000    0.800    6.000    0.600    2.800    2.400 
#    0.000    0.000    0.000    0.000    0.000    0.000 
#    0.000    0.000    0.000    0.000    0.000    0.000 
#
# Total GULP energy -111625.178443 kJ/mol
# GULP energy per Si atom -5581.258922 kJ/mol
# Density = 2.467546 g / cm^3
# Si number density = 24.731751 Si / 1000 Ang^3
#
#
#
# Elastic Constant Matrix: (Units=GPa)
#
#
# Indices 1 2 3 4 5 6 
#
# 1 190.1269 39.7524 87.2699 0.0000 -7.5083 0.0000
# 2 39.7524 45.8481 56.0589 0.0000 -6.6402 0.0000
# 3 87.2699 56.0589 183.0803 0.0000 -3.3637 0.0000
# 4 0.0000 0.0000 0.0000 44.3853 0.0000 -8.9180
# 5 -7.5083 -6.6402 -3.3637 0.0000 59.5548 0.0000
# 6 0.0000 0.0000 0.0000 -8.9180 0.0000 33.6592
#
#
#
# Elastic Compliance Matrix: (Units=1/GPa)
#
#
# Indices 1 2 3 4 5 6 
#
# 1 0.007022 -0.003111 -0.002387 0.000000 0.000404 0.000000
# 2 -0.003111 0.036897 -0.009757 0.000000 0.003171 0.000000
# 3 -0.002387 -0.009757 0.009572 0.000000 -0.000848 0.000000
# 4 0.000000 0.000000 0.000000 0.023797 0.000000 0.006305
# 5 0.000404 0.003171 -0.000848 0.000000 0.017148 0.000000
# 6 0.000000 0.000000 0.000000 0.006305 0.000000 0.031380
#
#
# Mechanical properties :
#
#
# Convention : Reuss Voigt Hill
#
# Bulk Modulus (GPa) = 43.51356 87.24642 65.37999
# Shear Modulus (GPa) = 30.49045 43.25145 36.87095
#
# Velocity S-wave (km/s) = 3.51500 4.18643 3.86532
# Velocity P-wave (km/s) = 5.84004 7.66302 6.81278
#
# Compressibility (1/GPa) = 0.02298134
#
# Stress axis : x y z
#
# Youngs Moduli (GPa) = 142.41488 27.10219 104.47272
#
# Poissons Ratio (x) = 0.08431 0.24939
# Poissons Ratio (y) = 0.44305 1.01931
# Poissons Ratio (z) = 0.33996 0.26443
#
# Static dielectric constant tensor:
#      x y z
#    x 1.506000 0.000000 0.164480 
#    y 0.000000 1.989870 0.000000 
#    z 0.164480 0.000000 1.967890 
# 
# From -- ./inp_files/11893.got.cif
#   From: 2010.05.17/outbox.cif.g08.bks.cpg/sg14_6_cif.got.tgz:11893.got - 2010.06.03 17:49:19.
