data_PCOD9250578
_publ_section_title
;
Structure prediction by ZEFSAII (Michael W. Deem and Ramdas Pophale) SiO2 
 PCOD9250578
Probable space group: P 21/C
;
_chemical_formula_sum "Si O2"
_cell_formula_units_Z 32
_cell_length_a 8.224086
_cell_length_b 18.830075
_cell_length_c 9.158419
_cell_angle_alpha 90.000000
_cell_angle_beta 83.714546
_cell_angle_gamma 90.000000
_cell_volume 1409.748642
_symmetry_space_group_name_H-M "P 21/C"
_symmetry_group_IT_number 14
_symmetry_cell_setting 'monoclinic'
loop_
_space_group_symop_operation_xyz
x,y,z
-x,1/2+y,1/2-z
-x,-y,-z
x,1/2-y,1/2+z
loop_
_atom_site_type_symbol
_atom_site_label
_atom_site_fract_x
_atom_site_fract_y
_atom_site_fract_z
Si Si1 0.613224 0.452117 0.773576
Si Si2 0.554366 0.409808 0.102114
Si Si3 0.892464 0.209514 0.025356
Si Si4 0.515593 0.170269 0.106151
Si Si5 0.028594 0.321987 0.219741
Si Si6 0.016914 0.941021 0.872099
Si Si7 0.390984 0.290463 0.297082
Si Si8 0.095097 0.528733 0.851890
O O1 0.567294 0.532656 0.814380
O O2 0.529061 0.413098 0.644466
O O3 0.806226 0.447335 0.723670
O O4 0.555869 0.411705 0.926769
O O5 0.509004 0.336170 0.179699
O O6 0.732724 0.437560 0.126082
O O7 0.703703 0.198248 0.086055
O O8 0.989885 0.139069 0.069596
O O9 0.981526 0.278927 0.079012
O O10 0.901375 0.208098 0.850532
O O11 0.424885 0.209985 0.246921
O O12 0.432036 0.189168 0.959770
O O13 0.206962 0.307061 0.265855
O O14 0.005982 0.405712 0.204462
O O15 0.887306 0.964636 0.763712
O O16 0.000000 0.000000 0.000000
O O17 0.000000 0.500000 0.000000
#
# Coordination Sequence:
#
# PCOD9250578 Si02
#       8
#     4   4   4   4   4   4   4   4
#     4  10  24  44  67 102 135 179 229 283 348 412
#     4  11  24  42  70  99 139 181 229 286 346 418
#     4  11  25  44  73  99 138 184 235 286 343 423
#     4  11  24  46  70  99 137 184 233 282 355 416
#     4  12  27  45  68 104 138 181 235 289 350 412
#     4  11  23  45  71 100 143 180 230 290 349 419
#     4  12  26  44  70  98 143 180 230 292 349 417
#     4  12  25  44  71 102 140 186 234 285 351 422
#
# _framework density 22.699081
#
# number of rings (size 3 to 8) (size 9 to 14) (size 15 to 20)
#    0.000    0.750    2.500    4.500    5.250    3.500 
#    0.000    0.000    0.000    0.000    0.000    0.000 
#    0.000    0.000    0.000    0.000    0.000    0.000 
#
# Total GULP energy -179052.131384 kJ/mol
# GULP energy per Si atom -5595.379106 kJ/mol
# Density = 2.264742 g / cm^3
# Si number density = 22.699081 Si / 1000 Ang^3
#
#
#
# Elastic Constant Matrix: (Units=GPa)
#
#
# Indices 1 2 3 4 5 6 
#
# 1 74.2944 -1.1651 -7.2263 0.0000 0.4385 0.0000
# 2 -1.1651 39.2100 11.1276 0.0000 -0.3354 0.0000
# 3 -7.2263 11.1276 73.2140 0.0000 5.5118 0.0000
# 4 0.0000 0.0000 0.0000 46.2989 0.0000 3.5246
# 5 0.4385 -0.3354 5.5118 0.0000 33.2303 0.0000
# 6 0.0000 0.0000 0.0000 3.5246 0.0000 31.8703
#
#
#
# Elastic Compliance Matrix: (Units=1/GPa)
#
#
# Indices 1 2 3 4 5 6 
#
# 1 0.013596 0.000011 0.001371 0.000000 -0.000407 0.000000
# 2 0.000011 0.026683 -0.004126 0.000000 0.000954 0.000000
# 3 0.001371 -0.004126 0.014608 0.000000 -0.002483 0.000000
# 4 0.000000 0.000000 0.000000 0.021782 0.000000 -0.002409
# 5 -0.000407 0.000954 -0.002483 0.000000 0.030520 0.000000
# 6 0.000000 0.000000 0.000000 -0.002409 0.000000 0.031644
#
#
# Mechanical properties :
#
#
# Convention : Reuss Voigt Hill
#
# Bulk Modulus (GPa) = 20.24323 21.35453 20.79888
# Shear Modulus (GPa) = 31.09710 34.54538 32.82124
#
# Velocity S-wave (km/s) = 3.70533 3.90537 3.80666
# Velocity P-wave (km/s) = 5.21952 5.45563 5.33888
#
# Compressibility (1/GPa) = 0.04939923
#
# Stress axis : x y z
#
# Youngs Moduli (GPa) = 73.55172 37.47678 68.45596
#
# Poissons Ratio (x) = -0.00043 -0.09384
# Poissons Ratio (y) = -0.00084 0.28246
# Poissons Ratio (z) = -0.10083 0.15464
#
# Static dielectric constant tensor:
#      x y z
#    x 1.879280 0.000000 -0.012290 
#    y 0.000000 11.248390 0.000000 
#    z -0.012290 0.000000 1.934650 
# 
# From -- ./inp_files/10190.got.cif
#   From: 2010.05.17/outbox.cif.g08.bks.cpg/sg14_6_cif.got.tgz:10190.got - 2010.06.03 17:49:19.
