data_PCOD9250541
_publ_section_title
;
Structure prediction by ZEFSAII (Michael W. Deem and Ramdas Pophale) SiO2 
 PCOD9250541
Probable space group: P 21/C
;
_chemical_formula_sum "Si O2"
_cell_formula_units_Z 24
_cell_length_a 9.341730
_cell_length_b 19.217220
_cell_length_c 11.355327
_cell_angle_alpha 90.000000
_cell_angle_beta 24.902449
_cell_angle_gamma 90.000000
_cell_volume 858.373982
_symmetry_space_group_name_H-M "P 21/C"
_symmetry_group_IT_number 14
_symmetry_cell_setting 'monoclinic'
loop_
_space_group_symop_operation_xyz
x,y,z
-x,1/2+y,1/2-z
-x,-y,-z
x,1/2-y,1/2+z
loop_
_atom_site_type_symbol
_atom_site_label
_atom_site_fract_x
_atom_site_fract_y
_atom_site_fract_z
Si Si1 0.952722 0.596281 0.462097
Si Si2 0.153175 0.749129 0.819780
Si Si3 0.233337 0.370093 0.775661
Si Si4 0.240199 0.964019 0.514995
Si Si5 0.068346 0.749571 0.631782
Si Si6 0.024911 0.901444 0.178352
O O1 0.932913 0.679694 0.481270
O O2 0.204111 0.573866 0.169873
O O3 0.595826 0.560874 0.697934
O O4 0.043131 0.574574 0.528264
O O5 0.960588 0.674907 0.979541
O O6 0.301525 0.754107 0.841346
O O7 0.284251 0.753010 0.588872
O O8 0.038765 0.436226 0.868491
O O9 0.599465 0.392335 0.547746
O O10 0.182636 0.314376 0.704581
O O11 0.181141 0.043997 0.590406
O O12 0.872467 0.676337 0.785981
#
# Coordination Sequence:
#
# PCOD9250541 Si02
#       6
#     4   4   4   4   4   4
#     4  11  25  46  76 106 151 203 257 315 378 468
#     4   9  20  41  69 103 147 191 262 304 385 436
#     4  10  24  43  73 105 154 194 256 316 383 450
#     4  12  26  49  76 112 155 205 251 318 393 465
#     4   9  21  42  66 105 146 196 249 315 371 451
#     4  11  25  45  71 114 153 200 255 318 388 464
#
# _framework density 27.959841999999998
#
# number of rings (size 3 to 8) (size 9 to 14) (size 15 to 20)
#    1.000    0.667    1.667    1.500    2.333    5.333 
#    6.000    2.500    0.000    0.000    0.000    0.000 
#    0.000    0.000    0.000    0.000    0.000    0.000 
#
# Total GULP energy -134318.973187 kJ/mol
# GULP energy per Si atom -5596.623883 kJ/mol
# Density = 2.789620 g / cm^3
# Si number density = 27.959842 Si / 1000 Ang^3
#
#
#
# Elastic Constant Matrix: (Units=GPa)
#
#
# Indices 1 2 3 4 5 6 
#
# 1 175.4366 16.4609 44.8347 0.0000 17.8166 0.0000
# 2 16.4609 131.3221 15.4556 0.0000 1.2156 0.0000
# 3 44.8347 15.4556 101.9021 0.0000 32.7776 0.0000
# 4 0.0000 0.0000 0.0000 39.8429 0.0000 4.5225
# 5 17.8166 1.2156 32.7776 0.0000 52.7865 0.0000
# 6 0.0000 0.0000 0.0000 4.5225 0.0000 46.2851
#
#
#
# Elastic Compliance Matrix: (Units=1/GPa)
#
#
# Indices 1 2 3 4 5 6 
#
# 1 0.006466 -0.000501 -0.002587 0.000000 -0.000564 0.000000
# 2 -0.000501 0.007812 -0.001201 0.000000 0.000735 0.000000
# 3 -0.002587 -0.001201 0.013551 0.000000 -0.007513 0.000000
# 4 0.000000 0.000000 0.000000 0.025380 0.000000 -0.002480
# 5 -0.000564 0.000735 -0.007513 0.000000 0.023783 0.000000
# 6 0.000000 0.000000 0.000000 -0.002480 0.000000 0.021848
#
#
# Mechanical properties :
#
#
# Convention : Reuss Voigt Hill
#
# Bulk Modulus (GPa) = 51.94706 62.46258 57.20482
# Shear Modulus (GPa) = 43.92380 49.91022 46.91701
#
# Velocity S-wave (km/s) = 3.96783 4.22959 4.10080
# Velocity P-wave (km/s) = 6.29374 6.80009 6.55180
#
# Compressibility (1/GPa) = 0.01925037
#
# Stress axis : x y z
#
# Youngs Moduli (GPa) = 154.66592 128.00550 73.79788
#
# Poissons Ratio (x) = 0.06409 0.19094
# Poissons Ratio (y) = 0.07744 0.08863
# Poissons Ratio (z) = 0.40016 0.15373
#
# Static dielectric constant tensor:
#      x y z
#    x 2.115860 0.000000 -0.027880 
#    y 0.000000 2.204550 0.000000 
#    z -0.027880 0.000000 2.258570 
# 
# From -- ./inp_files/25708.got.cif
#   From: 2010.05.17/outbox.cif.g08.bks.cpg/sg14_13_cif.got.tgz:25708.got - 2010.06.03 17:49:19.
