data_PCOD9250544
_publ_section_title
;
Structure prediction by ZEFSAII (Michael W. Deem and Ramdas Pophale) SiO2 
 PCOD9250544
Probable space group: P 21/C
;
_chemical_formula_sum "Si O2"
_cell_formula_units_Z 28
_cell_length_a 8.097051
_cell_length_b 8.073368
_cell_length_c 26.342459
_cell_angle_alpha 90.000000
_cell_angle_beta 137.471005
_cell_angle_gamma 90.000000
_cell_volume 1164.021512
_symmetry_space_group_name_H-M "P 21/C"
_symmetry_group_IT_number 14
_symmetry_cell_setting 'monoclinic'
loop_
_space_group_symop_operation_xyz
x,y,z
-x,1/2+y,1/2-z
-x,-y,-z
x,1/2-y,1/2+z
loop_
_atom_site_type_symbol
_atom_site_label
_atom_site_fract_x
_atom_site_fract_y
_atom_site_fract_z
Si Si1 0.594654 0.463377 0.266726
Si Si2 0.208263 0.139473 0.039039
Si Si3 0.731425 0.441673 0.084245
Si Si4 0.055630 0.216190 0.891982
Si Si5 0.842145 0.721297 0.867927
Si Si6 0.772434 0.936482 0.696334
Si Si7 0.281393 0.055755 0.847398
O O1 0.317890 0.408769 0.200207
O O2 0.695383 0.610846 0.323535
O O3 0.663894 0.508284 0.225065
O O4 0.767593 0.315322 0.324944
O O5 0.164853 0.279019 0.072607
O O6 0.468825 0.045789 0.099880
O O7 0.164221 0.207096 0.972616
O O8 0.000000 0.000000 0.000000
O O9 0.895306 0.605757 0.119547
O O10 0.679487 0.434698 0.132180
O O11 0.884763 0.295850 0.092592
O O12 0.500000 0.500000 0.000000
O O13 0.189586 0.085917 0.884669
O O14 0.701403 0.744926 0.669942
O O15 0.064059 0.960852 0.768974
#
# Coordination Sequence:
#
# PCOD9250544 Si02
#       7
#     4   4   4   4   4   4   4
#     4  11  25  46  71 107 139 185 240 292 362 424
#     4  12  27  43  71 104 147 190 232 293 368 427
#     4  11  27  46  70 102 141 183 241 297 360 434
#     4  10  24  47  70  99 143 186 239 292 357 428
#     4  12  28  45  74 105 148 187 236 301 365 428
#     4  10  24  43  74  99 136 186 239 295 354 422
#     4  10  24  43  74 101 141 187 248 291 355 432
#
# _framework density 24.054538000000001
#
# number of rings (size 3 to 8) (size 9 to 14) (size 15 to 20)
#    0.000    1.143    1.429    2.143   16.000    4.000 
#    0.000    0.000    0.000    0.000    0.000    0.000 
#    0.000    0.000    0.000    0.000    0.000    0.000 
#
# Total GULP energy -156636.632637 kJ/mol
# GULP energy per Si atom -5594.165451 kJ/mol
# Density = 2.399979 g / cm^3
# Si number density = 24.054538 Si / 1000 Ang^3
#
#
#
# Elastic Constant Matrix: (Units=GPa)
#
#
# Indices 1 2 3 4 5 6 
#
# 1 52.2828 -3.5056 33.0990 0.0000 -9.5859 0.0000
# 2 -3.5056 61.3827 -2.6865 0.0000 0.0626 0.0000
# 3 33.0990 -2.6865 107.5055 0.0000 -16.2846 0.0000
# 4 0.0000 0.0000 0.0000 29.6807 0.0000 3.7701
# 5 -9.5859 0.0626 -16.2846 0.0000 55.8232 0.0000
# 6 0.0000 0.0000 0.0000 3.7701 0.0000 30.0038
#
#
#
# Elastic Compliance Matrix: (Units=1/GPa)
#
#
# Indices 1 2 3 4 5 6 
#
# 1 0.024050 0.001062 -0.007065 0.000000 0.002068 0.000000
# 2 0.001062 0.016357 0.000111 0.000000 0.000197 0.000000
# 3 -0.007065 0.000111 0.011818 0.000000 0.002234 0.000000
# 4 0.000000 0.000000 0.000000 0.034238 0.000000 -0.004302
# 5 0.002068 0.000197 0.002234 0.000000 0.018920 0.000000
# 6 0.000000 0.000000 0.000000 -0.004302 0.000000 0.033870
#
#
# Mechanical properties :
#
#
# Convention : Reuss Voigt Hill
#
# Bulk Modulus (GPa) = 24.72658 30.55386 27.64022
# Shear Modulus (GPa) = 30.39226 36.05247 33.22237
#
# Velocity S-wave (km/s) = 3.55839 3.87561 3.72038
# Velocity P-wave (km/s) = 5.21388 5.72334 5.47454
#
# Compressibility (1/GPa) = 0.04044230
#
# Stress axis : x y z
#
# Youngs Moduli (GPa) = 41.58076 61.13751 84.61543
#
# Poissons Ratio (x) = -0.06494 0.59778
# Poissons Ratio (y) = -0.04417 -0.00943
# Poissons Ratio (z) = 0.29376 -0.00682
#
# Static dielectric constant tensor:
#      x y z
#    x 2.056320 0.000000 -0.047320 
#    y 0.000000 2.023430 0.000000 
#    z -0.047320 0.000000 1.995300 
# 
# From -- ./inp_files/76514.got.cif
#   From: 2010.05.17/outbox.cif.g08.bks.cpg/sg14_39_cif.got.tgz:76514.got - 2010.06.03 17:49:19.
