data_PCOD9250078
_publ_section_title
;
Structure prediction by ZEFSAII (Michael W. Deem and Ramdas Pophale) SiO2 
 PCOD9250078
Probable space group: P 21/C
;
_chemical_formula_sum "Si O2"
_cell_formula_units_Z 20
_cell_length_a 19.320732
_cell_length_b 5.015875
_cell_length_c 13.707162
_cell_angle_alpha 90.000000
_cell_angle_beta 144.782866
_cell_angle_gamma 90.000000
_cell_volume 766.037793
_symmetry_space_group_name_H-M "P 21/C"
_symmetry_group_IT_number 14
_symmetry_cell_setting 'monoclinic'
loop_
_space_group_symop_operation_xyz
x,y,z
-x,1/2+y,1/2-z
-x,-y,-z
x,1/2-y,1/2+z
loop_
_atom_site_type_symbol
_atom_site_label
_atom_site_fract_x
_atom_site_fract_y
_atom_site_fract_z
Si Si1 0.186868 0.179883 0.149594
Si Si2 0.852124 0.060086 0.565966
Si Si3 0.393069 0.054328 0.529502
Si Si4 0.349614 0.557623 0.612518
Si Si5 0.970399 0.727964 0.368021
O O1 0.311370 0.101191 0.341798
O O2 0.110103 0.356687 0.140189
O O3 0.207260 0.345138 0.074998
O O4 0.090438 0.937584 0.033503
O O5 0.881730 0.972833 0.709351
O O6 0.769585 0.321436 0.476315
O O7 0.981607 0.084355 0.662292
O O8 0.353363 0.268398 0.567144
O O9 0.536158 0.088406 0.684687
O O10 0.373265 0.761645 0.550308
#
# Coordination Sequence:
#
# PCOD9250078 Si02
#       5
#     4   4   4   4   4
#     4  11  25  42  68  98 140 178 232 276 347 404
#     4  12  24  40  68  98 137 184 226 285 335 417
#     4  10  23  46  70 100 137 182 226 287 337 403
#     4  10  24  44  72  99 137 181 229 282 345 391
#     4  11  25  42  63 103 139 179 227 282 345 402
#
# _framework density 26.108374999999999
#
# number of rings (size 3 to 8) (size 9 to 14) (size 15 to 20)
#    0.000    1.200    4.000    0.600    8.400    0.800 
#    0.000    1.000    0.000    0.000    0.000    0.000 
#    0.000    0.000    0.000    0.000    0.000    0.000 
#
# Total GULP energy -111977.758540 kJ/mol
# GULP energy per Si atom -5598.887927 kJ/mol
# Density = 2.604895 g / cm^3
# Si number density = 26.108375 Si / 1000 Ang^3
#
#
#
# Elastic Constant Matrix: (Units=GPa)
#
#
# Indices 1 2 3 4 5 6 
#
# 1 109.7380 11.5976 17.2661 0.0000 0.8351 0.0000
# 2 11.5976 55.8929 13.3461 0.0000 0.2429 0.0000
# 3 17.2661 13.3461 208.2550 0.0000 7.0099 0.0000
# 4 0.0000 0.0000 0.0000 31.6346 0.0000 7.2264
# 5 0.8351 0.2429 7.0099 0.0000 28.8610 0.0000
# 6 0.0000 0.0000 0.0000 7.2264 0.0000 33.3726
#
#
#
# Elastic Compliance Matrix: (Units=1/GPa)
#
#
# Indices 1 2 3 4 5 6 
#
# 1 0.009407 -0.001793 -0.000662 0.000000 -0.000096 0.000000
# 2 -0.001793 0.018512 -0.001043 0.000000 0.000149 0.000000
# 3 -0.000662 -0.001043 0.004963 0.000000 -0.001178 0.000000
# 4 0.000000 0.000000 0.000000 0.033256 0.000000 -0.007201
# 5 -0.000096 0.000149 -0.001178 0.000000 0.034936 0.000000
# 6 0.000000 0.000000 0.000000 -0.007201 0.000000 0.031524
#
#
# Mechanical properties :
#
#
# Convention : Reuss Voigt Hill
#
# Bulk Modulus (GPa) = 38.63068 50.92283 44.77675
# Shear Modulus (GPa) = 33.73301 40.88539 37.30920
#
# Velocity S-wave (km/s) = 3.59839 3.96155 3.78433
# Velocity P-wave (km/s) = 5.66507 6.36175 6.02349
#
# Compressibility (1/GPa) = 0.02588616
#
# Stress axis : x y z
#
# Youngs Moduli (GPa) = 106.30375 54.01948 201.48595
#
# Poissons Ratio (x) = 0.09688 0.13333
# Poissons Ratio (y) = 0.19066 0.21008
# Poissons Ratio (z) = 0.07035 0.05632
#
# Static dielectric constant tensor:
#      x y z
#    x 2.178040 0.000000 -0.025070 
#    y 0.000000 2.122570 0.000000 
#    z -0.025070 0.000000 2.033800 
# 
# From -- ./inp_files/42498.got.cif
#   From: 2010.05.17/outbox.cif.g08.bks.cpg/sg14_22_cif.got.tgz:42498.got - 2010.06.03 17:49:19.
