data_PCOD9250613
_publ_section_title
;
Structure prediction by ZEFSAII (Michael W. Deem and Ramdas Pophale) SiO2 
 PCOD9250613
Probable space group: P 21/C
;
_chemical_formula_sum "Si O2"
_cell_formula_units_Z 24
_cell_length_a 15.792135
_cell_length_b 5.322755
_cell_length_c 8.767178
_cell_angle_alpha 90.000000
_cell_angle_beta 56.278112
_cell_angle_gamma 90.000000
_cell_volume 612.951107
_symmetry_space_group_name_H-M "P 21/C"
_symmetry_group_IT_number 14
_symmetry_cell_setting 'monoclinic'
loop_
_space_group_symop_operation_xyz
x,y,z
-x,1/2+y,1/2-z
-x,-y,-z
x,1/2-y,1/2+z
loop_
_atom_site_type_symbol
_atom_site_label
_atom_site_fract_x
_atom_site_fract_y
_atom_site_fract_z
Si Si1 0.500000 0.500000 0.000000
Si Si2 0.187154 0.562200 0.297098
Si Si3 0.000000 0.500000 0.500000
Si Si4 0.687155 0.562199 0.328593
Si Si5 0.000000 0.500000 0.000000
Si Si6 0.646116 0.220409 0.596470
Si Si7 0.853885 0.720409 0.388701
Si Si8 0.500000 0.500000 0.500000
O O1 0.425663 0.529995 0.925395
O O2 0.419819 0.225339 0.134321
O O3 0.080181 0.725339 0.473959
O O4 0.261491 0.768552 0.144701
O O5 0.097615 0.473771 0.258867
O O6 0.225577 0.464885 0.426482
O O7 0.928224 0.744148 0.477365
O O8 0.597615 0.473771 0.545903
O O9 0.725577 0.464885 0.122363
O O10 0.761491 0.768552 0.332317
O O11 0.925663 0.529995 0.223279
O O12 0.571776 0.244148 0.833815
#
# Coordination Sequence:
#
# PCOD9250613 Si02
#       8
#     2   4   2   4   2   4   4   2
#     4  10  24  44  70 104 144 192 246 304 372 442
#     4  11  24  43  71 106 148 197 251 312 379 452
#     4  10  24  44  70 104 144 192 246 304 372 442
#     4  11  24  43  71 106 148 197 251 312 379 452
#     4  10  24  44  70 104 144 192 246 304 372 442
#     4  11  24  43  71 106 148 197 251 312 379 452
#     4  11  24  43  71 106 148 197 251 312 379 452
#     4  10  24  44  70 104 144 192 246 304 372 442
#
# _framework density 39.154834000000001
#
# number of rings (size 3 to 8) (size 9 to 14) (size 15 to 20)
#    0.000    1.333    0.000    4.000    0.000   13.333 
#    0.000    0.000    0.000    0.000    0.000    0.000 
#    0.000    0.000    0.000    0.000    0.000    0.000 
#
# Total GULP energy -133719.937651 kJ/mol
# GULP energy per Si atom -5571.664069 kJ/mol
# Density = 3.906572 g / cm^3
# Si number density = 39.154834 Si / 1000 Ang^3
#
#
#
# Elastic Constant Matrix: (Units=GPa)
#
#
# Indices 1 2 3 4 5 6 
#
# 1 384.7607 60.4473 123.9787 0.0000 2.3703 0.0000
# 2 60.4473 412.5519 117.0035 0.0000 29.5540 0.0000
# 3 123.9787 117.0035 471.3411 0.0000 42.8727 0.0000
# 4 0.0000 0.0000 0.0000 148.5674 0.0000 20.8743
# 5 2.3703 29.5540 42.8727 0.0000 153.8241 0.0000
# 6 0.0000 0.0000 0.0000 20.8743 0.0000 108.6214
#
#
#
# Elastic Compliance Matrix: (Units=1/GPa)
#
#
# Indices 1 2 3 4 5 6 
#
# 1 0.002864 -0.000231 -0.000714 0.000000 0.000199 0.000000
# 2 -0.000231 0.002643 -0.000564 0.000000 -0.000347 0.000000
# 3 -0.000714 -0.000564 0.002502 0.000000 -0.000578 0.000000
# 4 0.000000 0.000000 0.000000 0.006918 0.000000 -0.001329
# 5 0.000199 -0.000347 -0.000578 0.000000 0.006726 0.000000
# 6 0.000000 0.000000 0.000000 -0.001329 0.000000 0.009462
#
#
# Mechanical properties :
#
#
# Convention : Reuss Voigt Hill
#
# Bulk Modulus (GPa) = 200.37663 207.94588 204.16125
# Shear Modulus (GPa) = 139.68265 146.68419 143.18342
#
# Velocity S-wave (km/s) = 5.97929 6.12731 6.05375
# Velocity P-wave (km/s) = 9.94765 10.16280 10.05580
#
# Compressibility (1/GPa) = 0.00499060
#
# Stress axis : x y z
#
# Youngs Moduli (GPa) = 349.13273 378.42496 399.69681
#
# Poissons Ratio (x) = 0.08758 0.28541
# Poissons Ratio (y) = 0.08080 0.22524
# Poissons Ratio (z) = 0.24931 0.21325
#
# Static dielectric constant tensor:
#      x y z
#    x 3.513510 0.000000 -0.147050 
#    y 0.000000 4.371240 0.000000 
#    z -0.147050 0.000000 3.232040 
# 
# From -- ./inp_files/17253.got.cif
#   From: 2010.05.17/outbox.cif.g08.bks.cpg/sg14_9_cif.got.tgz:17253.got - 2010.06.03 17:49:19.
