data_PCOD9250141
_publ_section_title
;
Structure prediction by ZEFSAII (Michael W. Deem and Ramdas Pophale) SiO2 
 PCOD9250141
Probable space group: P 21/C
;
_chemical_formula_sum "Si O2"
_cell_formula_units_Z 28
_cell_length_a 5.255504
_cell_length_b 17.510237
_cell_length_c 14.483244
_cell_angle_alpha 90.000000
_cell_angle_beta 58.563680
_cell_angle_gamma 90.000000
_cell_volume 1137.191096
_symmetry_space_group_name_H-M "P 21/C"
_symmetry_group_IT_number 14
_symmetry_cell_setting 'monoclinic'
loop_
_space_group_symop_operation_xyz
x,y,z
-x,1/2+y,1/2-z
-x,-y,-z
x,1/2-y,1/2+z
loop_
_atom_site_type_symbol
_atom_site_label
_atom_site_fract_x
_atom_site_fract_y
_atom_site_fract_z
Si Si1 0.000036 0.284289 0.138440
Si Si2 0.476163 0.589822 0.974455
Si Si3 0.464116 0.106831 0.753083
Si Si4 0.661069 0.580239 0.455072
Si Si5 0.733088 0.331965 0.818204
Si Si6 0.358430 0.560365 0.330175
Si Si7 0.769123 0.792585 0.069478
O O1 0.259420 0.346016 0.070157
O O2 0.736295 0.338003 0.221238
O O3 0.992544 0.217574 0.218121
O O4 0.966176 0.239385 0.046553
O O5 0.468893 0.587028 0.865550
O O6 0.500000 0.500000 0.000000
O O7 0.227851 0.630469 0.087600
O O8 0.186044 0.157194 0.846012
O O9 0.454977 0.027007 0.805636
O O10 0.500000 0.500000 0.500000
O O11 0.563674 0.598259 0.368756
O O12 0.588466 0.650858 0.534482
O O13 0.005729 0.565201 0.415313
O O14 0.633089 0.400690 0.770850
O O15 0.445793 0.277484 0.870388
#
# Coordination Sequence:
#
# PCOD9250141 Si02
#       7
#     4   4   4   4   4   4   4
#     4  10  24  47  68 106 149 193 252 311 386 442
#     4  11  24  44  70 104 149 197 257 304 379 457
#     4  11  25  43  73 108 147 195 254 305 377 453
#     4  12  26  47  77 114 149 197 253 314 379 443
#     4  10  23  47  69 109 149 196 252 310 383 449
#     4  12  26  47  76 114 149 196 255 314 374 450
#     4  10  23  47  70 110 148 194 252 315 380 450
#
# _framework density 24.622070000000001
#
# number of rings (size 3 to 8) (size 9 to 14) (size 15 to 20)
#    0.000    1.143    4.286    0.429    2.000    6.286 
#    5.143    0.000    0.000    0.000    0.000    0.000 
#    0.000    0.000    0.000    0.000    0.000    0.000 
#
# Total GULP energy -155974.733605 kJ/mol
# GULP energy per Si atom -5570.526200 kJ/mol
# Density = 2.456603 g / cm^3
# Si number density = 24.622070 Si / 1000 Ang^3
#
#
#
# Elastic Constant Matrix: (Units=GPa)
#
#
# Indices 1 2 3 4 5 6 
#
# 1 57.2004 31.5573 23.5145 0.0000 4.2592 0.0000
# 2 31.5573 153.0492 53.8911 0.0000 -14.5067 0.0000
# 3 23.5145 53.8911 142.4016 0.0000 3.1263 0.0000
# 4 0.0000 0.0000 0.0000 79.7423 0.0000 1.5584
# 5 4.2592 -14.5067 3.1263 0.0000 30.7092 0.0000
# 6 0.0000 0.0000 0.0000 1.5584 0.0000 32.1233
#
#
#
# Elastic Compliance Matrix: (Units=1/GPa)
#
#
# Indices 1 2 3 4 5 6 
#
# 1 0.020827 -0.004107 -0.001783 0.000000 -0.004647 0.000000
# 2 -0.004107 0.008834 -0.002775 0.000000 0.005025 0.000000
# 3 -0.001783 -0.002775 0.008409 0.000000 -0.001920 0.000000
# 4 0.000000 0.000000 0.000000 0.012552 0.000000 -0.000609
# 5 -0.004647 0.005025 -0.001920 0.000000 0.035778 0.000000
# 6 0.000000 0.000000 0.000000 -0.000609 0.000000 0.031160
#
#
# Mechanical properties :
#
#
# Convention : Reuss Voigt Hill
#
# Bulk Modulus (GPa) = 48.21574 63.39741 55.80657
# Shear Modulus (GPa) = 35.25987 44.76084 40.01036
#
# Velocity S-wave (km/s) = 3.78834 4.26833 4.03548
# Velocity P-wave (km/s) = 6.22577 7.07782 6.66543
#
# Compressibility (1/GPa) = 0.02074012
#
# Stress axis : x y z
#
# Youngs Moduli (GPa) = 48.01406 113.19528 118.91631
#
# Poissons Ratio (x) = 0.46491 0.21201
# Poissons Ratio (y) = 0.19720 0.33004
# Poissons Ratio (z) = 0.08560 0.31416
#
# Static dielectric constant tensor:
#      x y z
#    x 1.983900 0.000000 -0.009360 
#    y 0.000000 1.951140 0.000000 
#    z -0.009360 0.000000 2.205720 
# 
# From -- ./inp_files/37816.got.cif
#   From: 2010.05.17/outbox.cif.g08.bks.cpg/sg14_19_cif.got.tgz:37816.got - 2010.06.03 17:49:19.
