data_PCOD9250258
_publ_section_title
;
Structure prediction by ZEFSAII (Michael W. Deem and Ramdas Pophale) SiO2 
 PCOD9250258
Probable space group: P 21/C
;
_chemical_formula_sum "Si O2"
_cell_formula_units_Z 32
_cell_length_a 13.363910
_cell_length_b 17.619156
_cell_length_c 8.484429
_cell_angle_alpha 90.000000
_cell_angle_beta 139.697431
_cell_angle_gamma 90.000000
_cell_volume 1292.192963
_symmetry_space_group_name_H-M "P 21/C"
_symmetry_group_IT_number 14
_symmetry_cell_setting 'monoclinic'
loop_
_space_group_symop_operation_xyz
x,y,z
-x,1/2+y,1/2-z
-x,-y,-z
x,1/2-y,1/2+z
loop_
_atom_site_type_symbol
_atom_site_label
_atom_site_fract_x
_atom_site_fract_y
_atom_site_fract_z
Si Si1 0.514172 0.541865 0.761163
Si Si2 0.597911 0.288460 0.828633
Si Si3 0.399266 0.909265 0.415920
Si Si4 0.362430 0.216270 0.792686
Si Si5 0.983615 0.882325 0.432036
Si Si6 0.859036 0.720147 0.228956
Si Si7 0.846644 0.341110 0.537774
Si Si8 0.757409 0.007706 0.302442
O O1 0.507019 0.606043 0.889855
O O2 0.371887 0.543358 0.469228
O O3 0.665054 0.527874 0.837474
O O4 0.508544 0.468344 0.867198
O O5 0.479469 0.249350 0.806841
O O6 0.481452 0.322786 0.556559
O O7 0.660076 0.351247 0.021759
O O8 0.723565 0.229222 0.910983
O O9 0.240516 0.917008 0.125831
O O10 0.231158 0.181862 0.524287
O O11 0.257537 0.274553 0.766059
O O12 0.072677 0.853455 0.696757
O O13 0.904941 0.809311 0.257465
O O14 0.852616 0.942717 0.324569
O O15 0.117502 0.928059 0.500913
O O16 0.022940 0.680062 0.431959
#
# Coordination Sequence:
#
# PCOD9250258 Si02
#       8
#     4   4   4   4   4   4   4   4
#     4  10  24  45  71  96 129 181 236 292 334 393
#     4  11  24  42  66  97 139 177 221 278 343 409
#     4  11  24  42  67  99 135 171 233 282 333 408
#     4  10  24  40  59 100 130 177 219 267 334 410
#     4  11  24  42  66  98 139 176 226 278 345 411
#     4  11  24  42  64  97 143 177 217 278 349 413
#     4  12  24  42  67 105 140 180 221 279 345 433
#     4  10  24  45  70  96 129 183 234 288 337 398
#
# _framework density 24.764105000000001
#
# number of rings (size 3 to 8) (size 9 to 14) (size 15 to 20)
#    0.000    1.250    3.750    0.750    5.250    2.000 
#    0.000    0.625    0.000    0.000    0.000    0.000 
#    0.000    0.000    0.000    0.000    0.000    0.000 
#
# Total GULP energy -178356.769744 kJ/mol
# GULP energy per Si atom -5573.649054 kJ/mol
# Density = 2.470774 g / cm^3
# Si number density = 24.764105 Si / 1000 Ang^3
#
#
#
# Elastic Constant Matrix: (Units=GPa)
#
#
# Indices 1 2 3 4 5 6 
#
# 1 135.9289 21.6470 49.7281 0.0000 11.6603 0.0000
# 2 21.6470 56.9998 27.2620 0.0000 0.8161 0.0000
# 3 49.7281 27.2620 112.8049 0.0000 -6.7157 0.0000
# 4 0.0000 0.0000 0.0000 31.6811 0.0000 3.8145
# 5 11.6603 0.8161 -6.7157 0.0000 39.9887 0.0000
# 6 0.0000 0.0000 0.0000 3.8145 0.0000 28.6084
#
#
#
# Elastic Compliance Matrix: (Units=1/GPa)
#
#
# Indices 1 2 3 4 5 6 
#
# 1 0.009338 -0.001622 -0.003924 0.000000 -0.003349 0.000000
# 2 -0.001622 0.020178 -0.004200 0.000000 -0.000644 0.000000
# 3 -0.003924 -0.004200 0.011801 0.000000 0.003212 0.000000
# 4 0.000000 0.000000 0.000000 0.032080 0.000000 -0.004277
# 5 -0.003349 -0.000644 0.003212 0.000000 0.026536 0.000000
# 6 0.000000 0.000000 0.000000 -0.004277 0.000000 0.035525
#
#
# Mechanical properties :
#
#
# Convention : Reuss Voigt Hill
#
# Bulk Modulus (GPa) = 45.81779 55.88978 50.85378
# Shear Modulus (GPa) = 30.82175 33.86206 32.34191
#
# Velocity S-wave (km/s) = 3.53174 3.70183 3.61778
# Velocity P-wave (km/s) = 5.93066 6.39447 6.16693
#
# Compressibility (1/GPa) = 0.02182558
#
# Stress axis : x y z
#
# Youngs Moduli (GPa) = 107.09165 49.55958 84.73959
#
# Poissons Ratio (x) = 0.08036 0.33251
# Poissons Ratio (y) = 0.17366 0.35590
# Poissons Ratio (z) = 0.42021 0.20815
#
# Static dielectric constant tensor:
#      x y z
#    x 1.998880 0.000000 -0.008190 
#    y 0.000000 2.128720 0.000000 
#    z -0.008190 0.000000 1.957450 
# 
# From -- ./inp_files/16859.got.cif
#   From: 2010.05.17/outbox.cif.g08.bks.cpg/sg14_9_cif.got.tgz:16859.got - 2010.06.03 17:49:19.
