data_PCOD9250084
_publ_section_title
;
Structure prediction by ZEFSAII (Michael W. Deem and Ramdas Pophale) SiO2 
 PCOD9250084
Probable space group: P 21/C
;
_chemical_formula_sum "Si O2"
_cell_formula_units_Z 20
_cell_length_a 27.596345
_cell_length_b 5.029067
_cell_length_c 18.440903
_cell_angle_alpha 90.000000
_cell_angle_beta 15.349571
_cell_angle_gamma 90.000000
_cell_volume 677.465773
_symmetry_space_group_name_H-M "P 21/C"
_symmetry_group_IT_number 14
_symmetry_cell_setting 'monoclinic'
loop_
_space_group_symop_operation_xyz
x,y,z
-x,1/2+y,1/2-z
-x,-y,-z
x,1/2-y,1/2+z
loop_
_atom_site_type_symbol
_atom_site_label
_atom_site_fract_x
_atom_site_fract_y
_atom_site_fract_z
Si Si1 0.856230 0.735507 0.881173
Si Si2 0.903919 0.154423 0.701999
Si Si3 0.487914 0.563280 0.603465
Si Si4 0.421972 0.643768 0.901557
Si Si5 0.197316 0.435671 0.379421
O O1 0.794604 0.933210 0.907040
O O2 0.812414 0.857619 0.022318
O O3 0.075812 0.704969 0.556544
O O4 0.728306 0.469810 0.065057
O O5 0.000000 0.000000 0.500000
O O6 0.057861 0.269725 0.531770
O O7 0.786118 0.366228 0.827275
O O8 0.500000 0.500000 0.500000
O O9 0.571584 0.331133 0.534813
O O10 0.395278 0.162378 0.564561
O O11 0.490284 0.347546 0.784513
#
# Coordination Sequence:
#
# PCOD9250084 Si02
#       5
#     4   4   4   4   4
#     4  11  23  45  71 101 148 192 244 314 371 451
#     4  12  25  42  71 104 143 191 248 309 380 442
#     4  10  23  46  70 105 147 196 255 306 384 457
#     4  12  26  48  72 105 150 196 247 316 381 449
#     4  11  23  44  71 102 143 194 248 306 377 451
#
# _framework density 29.521788000000001
#
# number of rings (size 3 to 8) (size 9 to 14) (size 15 to 20)
#    0.000    0.800    6.000    1.200    0.000    2.400 
#    0.000    2.000    0.000    0.000    0.000    0.000 
#    0.000    0.000    0.000    0.000    0.000    0.000 
#
# Total GULP energy -111885.052892 kJ/mol
# GULP energy per Si atom -5594.252645 kJ/mol
# Density = 2.945459 g / cm^3
# Si number density = 29.521788 Si / 1000 Ang^3
#
#
#
# Elastic Constant Matrix: (Units=GPa)
#
#
# Indices 1 2 3 4 5 6 
#
# 1 117.2171 3.8577 10.8917 0.0000 25.4227 0.0000
# 2 3.8577 117.1984 10.7684 0.0000 -3.8595 0.0000
# 3 10.8917 10.7684 109.9638 0.0000 6.0854 0.0000
# 4 0.0000 0.0000 0.0000 37.5401 0.0000 -1.6200
# 5 25.4227 -3.8595 6.0854 0.0000 62.6376 0.0000
# 6 0.0000 0.0000 0.0000 -1.6200 0.0000 28.7268
#
#
#
# Elastic Compliance Matrix: (Units=1/GPa)
#
#
# Indices 1 2 3 4 5 6 
#
# 1 0.009428 -0.000372 -0.000688 0.000000 -0.003782 0.000000
# 2 -0.000372 0.008648 -0.000853 0.000000 0.000767 0.000000
# 3 -0.000688 -0.000853 0.009283 0.000000 -0.000675 0.000000
# 4 0.000000 0.000000 0.000000 0.026703 0.000000 0.001506
# 5 -0.003782 0.000767 -0.000675 0.000000 0.017613 0.000000
# 6 0.000000 0.000000 0.000000 0.001506 0.000000 0.034896
#
#
# Mechanical properties :
#
#
# Convention : Reuss Voigt Hill
#
# Bulk Modulus (GPa) = 42.49093 43.93501 43.21297
# Shear Modulus (GPa) = 42.28687 47.03832 44.66260
#
# Velocity S-wave (km/s) = 3.78881 3.99600 3.89378
# Velocity P-wave (km/s) = 5.79348 6.01708 5.90634
#
# Compressibility (1/GPa) = 0.02353443
#
# Stress axis : x y z
#
# Youngs Moduli (GPa) = 106.07035 115.62897 107.72500
#
# Poissons Ratio (x) = 0.04298 0.07412
# Poissons Ratio (y) = 0.03942 0.09184
# Poissons Ratio (z) = 0.07298 0.09858
#
# Static dielectric constant tensor:
#      x y z
#    x 2.430960 0.000000 0.058980 
#    y 0.000000 2.071440 0.000000 
#    z 0.058980 0.000000 2.343600 
# 
# From -- ./inp_files/62117.got.cif
#   From: 2010.05.17/outbox.cif.g08.bks.cpg/sg14_32_cif.got.tgz:62117.got - 2010.06.03 17:49:19.
