data_PCOD9250419
_publ_section_title
;
Structure prediction by ZEFSAII (Michael W. Deem and Ramdas Pophale) SiO2 
 PCOD9250419
Probable space group: P 21/C
;
_chemical_formula_sum "Si O2"
_cell_formula_units_Z 24
_cell_length_a 12.477420
_cell_length_b 10.677874
_cell_length_c 8.717413
_cell_angle_alpha 90.000000
_cell_angle_beta 68.973989
_cell_angle_gamma 90.000000
_cell_volume 1084.109653
_symmetry_space_group_name_H-M "P 21/C"
_symmetry_group_IT_number 14
_symmetry_cell_setting 'monoclinic'
loop_
_space_group_symop_operation_xyz
x,y,z
-x,1/2+y,1/2-z
-x,-y,-z
x,1/2-y,1/2+z
loop_
_atom_site_type_symbol
_atom_site_label
_atom_site_fract_x
_atom_site_fract_y
_atom_site_fract_z
Si Si1 0.545819 0.635083 0.022383
Si Si2 0.738759 0.827507 0.953867
Si Si3 0.029060 0.610975 0.868182
Si Si4 0.407847 0.739506 0.845879
Si Si5 0.295289 0.587451 0.651955
Si Si6 0.901939 0.695474 0.639940
O O1 0.448913 0.669894 0.193521
O O2 0.500000 0.500000 0.000000
O O3 0.665895 0.698304 0.013317
O O4 0.522999 0.708786 0.877394
O O5 0.831819 0.797926 0.774423
O O6 0.671941 0.950733 0.930557
O O7 0.808067 0.862547 0.072796
O O8 0.161202 0.600597 0.755531
O O9 0.958282 0.610767 0.743913
O O10 0.000000 0.500000 0.000000
O O11 0.994184 0.736223 0.981791
O O12 0.357412 0.620590 0.780852
O O13 0.326147 0.809146 0.007485
#
# Coordination Sequence:
#
# PCOD9250419 Si02
#       6
#     4   4   4   4   4   4
#     4  11  26  43  70 100 139 179 238 299 361 423
#     4  11  24  43  71 102 137 191 236 298 348 441
#     4  11  22  45  68 103 140 183 228 298 348 424
#     4  10  26  43  65 100 130 192 225 299 357 417
#     4  11  24  46  68  98 144 182 242 287 362 433
#     4  10  24  42  69 106 138 185 239 285 368 419
#
# _framework density 22.137982000000001
#
# number of rings (size 3 to 8) (size 9 to 14) (size 15 to 20)
#    0.000    1.333    1.667    2.000    9.333    2.000 
#    6.000    0.000    0.000    0.000    0.000    0.000 
#    0.000    0.000    0.000    0.000    0.000    0.000 
#
# Total GULP energy -133810.860826 kJ/mol
# GULP energy per Si atom -5575.452534 kJ/mol
# Density = 2.208759 g / cm^3
# Si number density = 22.137982 Si / 1000 Ang^3
#
#
#
# Elastic Constant Matrix: (Units=GPa)
#
#
# Indices 1 2 3 4 5 6 
#
# 1 86.5374 9.7516 30.6921 0.0000 16.8457 0.0000
# 2 9.7516 57.9397 20.2629 0.0000 2.9205 0.0000
# 3 30.6921 20.2629 91.9170 0.0000 16.7114 0.0000
# 4 0.0000 0.0000 0.0000 17.7046 0.0000 -0.1885
# 5 16.8457 2.9205 16.7114 0.0000 41.9066 0.0000
# 6 0.0000 0.0000 0.0000 -0.1885 0.0000 20.7463
#
#
#
# Elastic Compliance Matrix: (Units=1/GPa)
#
#
# Indices 1 2 3 4 5 6 
#
# 1 0.013730 -0.000824 -0.003677 0.000000 -0.003996 0.000000
# 2 -0.000824 0.018756 -0.003970 0.000000 0.000607 0.000000
# 3 -0.003677 -0.003970 0.013653 0.000000 -0.003690 0.000000
# 4 0.000000 0.000000 0.000000 0.056488 0.000000 0.000513
# 5 -0.003996 0.000607 -0.003690 0.000000 0.026898 0.000000
# 6 0.000000 0.000000 0.000000 0.000513 0.000000 0.048206
#
#
# Mechanical properties :
#
#
# Convention : Reuss Voigt Hill
#
# Bulk Modulus (GPa) = 34.24833 39.75636 37.00235
# Shear Modulus (GPa) = 24.46128 27.78400 26.12264
#
# Velocity S-wave (km/s) = 3.32768 3.54649 3.43883
# Velocity P-wave (km/s) = 5.50169 5.89641 5.70246
#
# Compressibility (1/GPa) = 0.02919850
#
# Stress axis : x y z
#
# Youngs Moduli (GPa) = 72.83146 53.31695 73.24344
#
# Poissons Ratio (x) = 0.04392 0.26929
# Poissons Ratio (y) = 0.05999 0.29078
# Poissons Ratio (z) = 0.26778 0.21167
#
# Static dielectric constant tensor:
#      x y z
#    x 1.833650 0.000000 0.035710 
#    y 0.000000 1.318170 0.000000 
#    z 0.035710 0.000000 1.795820 
# 
# From -- ./inp_files/12368.got.cif
#   From: 2010.05.17/outbox.cif.g08.bks.cpg/sg14_7_cif.got.tgz:12368.got - 2010.06.03 17:49:19.
