data_PCOD9250591
_publ_section_title
;
Structure prediction by ZEFSAII (Michael W. Deem and Ramdas Pophale) SiO2 
 PCOD9250591
Probable space group: P 21/C
;
_chemical_formula_sum "Si O2"
_cell_formula_units_Z 28
_cell_length_a 15.361022
_cell_length_b 7.285618
_cell_length_c 12.159681
_cell_angle_alpha 90.000000
_cell_angle_beta 120.709485
_cell_angle_gamma 90.000000
_cell_volume 1170.010707
_symmetry_space_group_name_H-M "P 21/C"
_symmetry_group_IT_number 14
_symmetry_cell_setting 'monoclinic'
loop_
_space_group_symop_operation_xyz
x,y,z
-x,1/2+y,1/2-z
-x,-y,-z
x,1/2-y,1/2+z
loop_
_atom_site_type_symbol
_atom_site_label
_atom_site_fract_x
_atom_site_fract_y
_atom_site_fract_z
Si Si1 0.900175 0.061158 0.803292
Si Si2 0.061795 0.785997 0.865226
Si Si3 0.240091 0.020980 0.878581
Si Si4 0.389670 0.992809 0.636621
Si Si5 0.804882 0.335306 0.886394
Si Si6 0.618210 0.919492 0.834230
Si Si7 0.690815 0.935098 0.635434
O O1 0.964378 0.200005 0.770997
O O2 0.860644 0.143536 0.891399
O O3 0.792883 0.042923 0.673600
O O4 0.961416 0.874424 0.851426
O O5 0.144443 0.944466 0.887244
O O6 0.108963 0.617603 0.967813
O O7 0.272106 0.226849 0.861613
O O8 0.217208 0.927607 0.745469
O O9 0.331188 0.987966 0.025986
O O10 0.359613 0.201271 0.647420
O O11 0.391537 0.998723 0.505525
O O12 0.302349 0.859500 0.623802
O O13 0.497708 0.946604 0.757183
O O14 0.657569 0.974686 0.738516
#
# Coordination Sequence:
#
# PCOD9250591 Si02
#       7
#     4   4   4   4   4   4   4
#     4  11  24  40  74  99 141 186 235 293 359 434
#     4  11  23  45  68 106 141 184 236 291 361 431
#     4  10  24  44  68 101 144 184 238 292 349 423
#     4  11  25  44  67 102 143 191 239 296 353 418
#     4  11  23  45  67 101 143 186 232 294 357 414
#     4  11  25  42  70 101 143 190 245 291 350 421
#     4  11  22  46  68 102 143 188 237 297 358 417
#
# _framework density 23.931404000000001
#
# number of rings (size 3 to 8) (size 9 to 14) (size 15 to 20)
#    0.000    1.143    2.857    2.571    4.000    0.571 
#    0.000    7.857    0.000    0.000    0.000    0.000 
#    0.000    0.000    0.000    0.000    0.000    0.000 
#
# Total GULP energy -155934.236070 kJ/mol
# GULP energy per Si atom -5569.079860 kJ/mol
# Density = 2.387694 g / cm^3
# Si number density = 23.931404 Si / 1000 Ang^3
#
#
#
# Elastic Constant Matrix: (Units=GPa)
#
#
# Indices 1 2 3 4 5 6 
#
# 1 79.6307 18.6368 34.1040 0.0000 -8.0214 0.0000
# 2 18.6368 52.5568 -0.6494 0.0000 -9.3344 0.0000
# 3 34.1040 -0.6494 68.8013 0.0000 -14.7946 0.0000
# 4 0.0000 0.0000 0.0000 24.4117 0.0000 2.0552
# 5 -8.0214 -9.3344 -14.7946 0.0000 50.5614 0.0000
# 6 0.0000 0.0000 0.0000 2.0552 0.0000 36.0539
#
#
#
# Elastic Compliance Matrix: (Units=1/GPa)
#
#
# Indices 1 2 3 4 5 6 
#
# 1 0.017946 -0.006668 -0.009189 0.000000 -0.001073 0.000000
# 2 -0.006668 0.022218 0.004449 0.000000 0.004346 0.000000
# 3 -0.009189 0.004449 0.020270 0.000000 0.005295 0.000000
# 4 0.000000 0.000000 0.000000 0.041162 0.000000 -0.002346
# 5 -0.001073 0.004346 0.005295 0.000000 0.021959 0.000000
# 6 0.000000 0.000000 0.000000 -0.002346 0.000000 0.027870
#
#
# Mechanical properties :
#
#
# Convention : Reuss Voigt Hill
#
# Bulk Modulus (GPa) = 26.58218 33.90796 30.24507
# Shear Modulus (GPa) = 26.76940 32.13187 29.45064
#
# Velocity S-wave (km/s) = 3.34816 3.66822 3.51184
# Velocity P-wave (km/s) = 5.10673 5.66927 5.39534
#
# Compressibility (1/GPa) = 0.03761919
#
# Stress axis : x y z
#
# Youngs Moduli (GPa) = 55.72274 45.00795 49.33353
#
# Poissons Ratio (x) = 0.30010 0.45334
# Poissons Ratio (y) = 0.37155 -0.21950
# Poissons Ratio (z) = 0.51205 -0.20026
#
# Static dielectric constant tensor:
#      x y z
#    x 1.856530 0.000000 -0.000430 
#    y 0.000000 2.007600 0.000000 
#    z -0.000430 0.000000 2.077640 
# 
# From -- ./inp_files/31663.got.cif
#   From: 2010.05.17/outbox.cif.g08.bks.cpg/sg14_16_cif.got.tgz:31663.got - 2010.06.03 17:49:19.
