data_PCOD9250253
_publ_section_title
;
Structure prediction by ZEFSAII (Michael W. Deem and Ramdas Pophale) SiO2 
 PCOD9250253
Probable space group: P 21/C
;
_chemical_formula_sum "Si O2"
_cell_formula_units_Z 20
_cell_length_a 9.274112
_cell_length_b 12.659693
_cell_length_c 8.729707
_cell_angle_alpha 90.000000
_cell_angle_beta 47.172203
_cell_angle_gamma 90.000000
_cell_volume 751.685497
_symmetry_space_group_name_H-M "P 21/C"
_symmetry_group_IT_number 14
_symmetry_cell_setting 'monoclinic'
loop_
_space_group_symop_operation_xyz
x,y,z
-x,1/2+y,1/2-z
-x,-y,-z
x,1/2-y,1/2+z
loop_
_atom_site_type_symbol
_atom_site_label
_atom_site_fract_x
_atom_site_fract_y
_atom_site_fract_z
Si Si1 0.188335 0.367933 0.295280
Si Si2 0.788335 0.165670 0.922129
Si Si3 0.759971 0.843285 0.900870
Si Si4 0.849528 0.110565 0.524488
Si Si5 0.482438 0.503651 0.251078
O O1 0.978499 0.387356 0.368909
O O2 0.145517 0.327495 0.499071
O O3 0.286591 0.270128 0.135365
O O4 0.343378 0.461008 0.214215
O O5 0.788774 0.288207 0.965694
O O6 0.594353 0.115063 0.136775
O O7 0.815085 0.142745 0.724610
O O8 0.920714 0.900715 0.679279
O O9 0.582537 0.920374 0.068094
O O10 0.712532 0.014230 0.571013
#
# Coordination Sequence:
#
# PCOD9250253 Si02
#       5
#     4   4   4   4   4
#     4   9  19  39  63  86 126 160 198 249 302 352
#     4  11  22  43  63  91 127 160 200 261 304 355
#     4   9  20  38  62  90 121 161 199 245 306 351
#     4  11  23  40  65  87 128 161 200 255 308 355
#     4  10  24  39  67  90 121 163 210 244 304 369
#
# _framework density 26.606871999999999
#
# number of rings (size 3 to 8) (size 9 to 14) (size 15 to 20)
#    1.200    0.800    0.000    6.000    2.800    0.800 
#    0.000    8.000    0.000    0.000    0.000    0.000 
#    0.000    0.000    0.000    0.000    0.000    0.000 
#
# Total GULP energy -112071.655853 kJ/mol
# GULP energy per Si atom -5603.582793 kJ/mol
# Density = 2.654631 g / cm^3
# Si number density = 26.606872 Si / 1000 Ang^3
#
#
#
# Elastic Constant Matrix: (Units=GPa)
#
#
# Indices 1 2 3 4 5 6 
#
# 1 86.7193 -2.9134 45.5255 0.0000 31.0244 0.0000
# 2 -2.9134 40.0975 23.6846 0.0000 13.5346 0.0000
# 3 45.5255 23.6846 114.7921 0.0000 18.8498 0.0000
# 4 0.0000 0.0000 0.0000 49.4696 0.0000 -0.4822
# 5 31.0244 13.5346 18.8498 0.0000 35.3559 0.0000
# 6 0.0000 0.0000 0.0000 -0.4822 0.0000 42.1326
#
#
#
# Elastic Compliance Matrix: (Units=1/GPa)
#
#
# Indices 1 2 3 4 5 6 
#
# 1 0.025065 0.015001 -0.009295 0.000000 -0.022782 0.000000
# 2 0.015001 0.039912 -0.010427 0.000000 -0.022883 0.000000
# 3 -0.009295 -0.010427 0.013759 0.000000 0.004812 0.000000
# 4 0.000000 0.000000 0.000000 0.020217 0.000000 0.000231
# 5 -0.022782 -0.022883 0.004812 0.000000 0.054469 0.000000
# 6 0.000000 0.000000 0.000000 0.000231 0.000000 0.023737
#
#
# Mechanical properties :
#
#
# Convention : Reuss Voigt Hill
#
# Bulk Modulus (GPa) = 14.43096 41.57805 28.00451
# Shear Modulus (GPa) = 23.84385 37.07911 30.46148
#
# Velocity S-wave (km/s) = 2.99683 3.73713 3.38727
# Velocity P-wave (km/s) = 4.17255 5.85511 5.08392
#
# Compressibility (1/GPa) = 0.06929544
#
# Stress axis : x y z
#
# Youngs Moduli (GPa) = 39.89587 25.05512 72.68105
#
# Poissons Ratio (x) = -0.37586 0.67556
# Poissons Ratio (y) = -0.59849 0.75782
# Poissons Ratio (z) = 0.37083 0.26124
#
# Static dielectric constant tensor:
#      x y z
#    x 2.077140 0.000000 0.003600 
#    y 0.000000 2.052970 0.000000 
#    z 0.003600 0.000000 2.083100 
# 
# From -- ./inp_files/8689.got.cif
#   From: 2010.05.17/outbox.cif.g08.bks.cpg/sg14_5_cif.got.tgz:8689.got - 2010.06.03 17:49:19.
