data_PCOD9250046
_publ_section_title
;
Structure prediction by ZEFSAII (Michael W. Deem and Ramdas Pophale) SiO2 
 PCOD9250046
Probable space group: P 21/C
;
_chemical_formula_sum "Si O2"
_cell_formula_units_Z 28
_cell_length_a 19.167355
_cell_length_b 5.160826
_cell_length_c 9.645930
_cell_angle_alpha 90.000000
_cell_angle_beta 94.258119
_cell_angle_gamma 90.000000
_cell_volume 951.535635
_symmetry_space_group_name_H-M "P 21/C"
_symmetry_group_IT_number 14
_symmetry_cell_setting 'monoclinic'
loop_
_space_group_symop_operation_xyz
x,y,z
-x,1/2+y,1/2-z
-x,-y,-z
x,1/2-y,1/2+z
loop_
_atom_site_type_symbol
_atom_site_label
_atom_site_fract_x
_atom_site_fract_y
_atom_site_fract_z
Si Si1 0.774420 0.903472 0.374849
Si Si2 0.502248 0.316186 0.161791
Si Si3 0.201184 0.715734 0.854121
Si Si4 0.051290 0.653383 0.883213
Si Si5 0.650768 0.285332 0.199227
Si Si6 0.081024 0.153615 0.071595
Si Si7 0.359731 0.403878 0.535806
O O1 0.837043 0.702245 0.401417
O O2 0.700521 0.785594 0.414028
O O3 0.792594 0.142808 0.482439
O O4 0.786257 0.010589 0.220857
O O5 0.520901 0.072457 0.262476
O O6 0.438268 0.203559 0.065250
O O7 0.579445 0.392291 0.119745
O O8 0.121251 0.653269 0.798616
O O9 0.274054 0.582260 0.817376
O O10 0.347354 0.991500 0.879274
O O11 0.976225 0.763451 0.818619
O O12 0.057456 0.382451 0.962199
O O13 0.068447 0.882013 0.996817
O O14 0.643435 0.347016 0.360753
#
# Coordination Sequence:
#
# PCOD9250046 Si02
#       7
#     4   4   4   4   4   4   4
#     4  11  25  46  73 107 150 200 254 316 385 456
#     4  10  23  45  74 110 149 194 251 315 382 456
#     4  11  24  45  70 103 146 194 247 310 374 449
#     4   9  19  39  68 101 140 188 244 301 369 442
#     4  11  24  46  72 105 148 196 250 311 378 452
#     4   9  19  40  68 100 140 189 243 304 367 442
#     4  11  25  47  74 107 148 198 251 314 383 458
#
# _framework density 29.426117999999999
#
# number of rings (size 3 to 8) (size 9 to 14) (size 15 to 20)
#    0.000    1.714    0.000    3.000    0.000    8.000 
#    0.000   22.857    0.000    0.000    0.000    0.000 
#    0.000    0.000    0.000    0.000    0.000    0.000 
#
# Total GULP energy -156429.621859 kJ/mol
# GULP energy per Si atom -5586.772209 kJ/mol
# Density = 2.935914 g / cm^3
# Si number density = 29.426118 Si / 1000 Ang^3
#
#
#
# Elastic Constant Matrix: (Units=GPa)
#
#
# Indices 1 2 3 4 5 6 
#
# 1 245.4332 7.7876 12.3137 0.0000 20.2348 0.0000
# 2 7.7876 147.8953 49.3690 0.0000 -0.0315 0.0000
# 3 12.3137 49.3690 55.3957 0.0000 9.4941 0.0000
# 4 0.0000 0.0000 0.0000 52.8894 0.0000 -8.5520
# 5 20.2348 -0.0315 9.4941 0.0000 39.8628 0.0000
# 6 0.0000 0.0000 0.0000 -8.5520 0.0000 49.8826
#
#
#
# Elastic Compliance Matrix: (Units=1/GPa)
#
#
# Indices 1 2 3 4 5 6 
#
# 1 0.004272 -0.000035 -0.000570 0.000000 -0.002033 0.000000
# 2 -0.000035 0.009803 -0.009105 0.000000 0.002194 0.000000
# 3 -0.000570 -0.009105 0.027361 0.000000 -0.006235 0.000000
# 4 0.000000 0.000000 0.000000 0.019446 0.000000 0.003334
# 5 -0.002033 0.002194 -0.006235 0.000000 0.027604 0.000000
# 6 0.000000 0.000000 0.000000 0.003334 0.000000 0.020619
#
#
# Mechanical properties :
#
#
# Convention : Reuss Voigt Hill
#
# Bulk Modulus (GPa) = 45.42023 65.29610 55.35817
# Shear Modulus (GPa) = 36.80137 53.81056 45.30597
#
# Velocity S-wave (km/s) = 3.54027 4.28093 3.92810
# Velocity P-wave (km/s) = 5.67276 6.83178 6.27907
#
# Compressibility (1/GPa) = 0.02201662
#
# Stress axis : x y z
#
# Youngs Moduli (GPa) = 234.09787 102.00793 36.54775
#
# Poissons Ratio (x) = 0.00359 0.02083
# Poissons Ratio (y) = 0.00823 0.33276
# Poissons Ratio (z) = 0.13340 0.92877
#
# Static dielectric constant tensor:
#      x y z
#    x 2.478040 0.000000 -0.066020 
#    y 0.000000 2.280010 0.000000 
#    z -0.066020 0.000000 2.371450 
# 
# From -- ./inp_files/34698.got.cif
#   From: 2010.05.17/outbox.cif.g08.bks.cpg/sg14_18_cif.got.tgz:34698.got - 2010.06.03 17:49:19.
