data_PCOD9250510
_publ_section_title
;
Structure prediction by ZEFSAII (Michael W. Deem and Ramdas Pophale) SiO2 
 PCOD9250510
Probable space group: P 21/C
;
_chemical_formula_sum "Si O2"
_cell_formula_units_Z 16
_cell_length_a 4.836044
_cell_length_b 28.447976
_cell_length_c 5.141441
_cell_angle_alpha 90.000000
_cell_angle_beta 124.922205
_cell_angle_gamma 90.000000
_cell_volume 579.967012
_symmetry_space_group_name_H-M "P 21/C"
_symmetry_group_IT_number 14
_symmetry_cell_setting 'monoclinic'
loop_
_space_group_symop_operation_xyz
x,y,z
-x,1/2+y,1/2-z
-x,-y,-z
x,1/2-y,1/2+z
loop_
_atom_site_type_symbol
_atom_site_label
_atom_site_fract_x
_atom_site_fract_y
_atom_site_fract_z
Si Si1 0.797867 0.964952 0.713545
Si Si2 0.690002 0.843525 0.345716
Si Si3 0.072907 0.781530 0.904524
Si Si4 0.689522 0.400778 0.758727
O O1 0.626789 0.918996 0.749991
O O2 0.053063 0.943940 0.641044
O O3 0.500000 0.000000 0.500000
O O4 0.000000 0.000000 0.000000
O O5 0.794980 0.821606 0.684979
O O6 0.072811 0.860863 0.479261
O O7 0.450850 0.802708 0.101498
O O8 0.456736 0.885882 0.104155
O O9 0.037034 0.742995 0.660808
#
# Coordination Sequence:
#
# PCOD9250510 Si02
#       4
#     4   4   4   4
#     4  12  24  42  68  98 137 184 235 294 354 426
#     4  10  24  43  69 101 142 188 234 297 357 427
#     4  11  24  44  71 105 142 190 242 297 361 432
#     4  11  24  43  66 102 139 186 237 292 360 427
#
# _framework density 27.587779999999999
#
# number of rings (size 3 to 8) (size 9 to 14) (size 15 to 20)
#    0.000    1.000    0.000    6.000    0.000    8.000 
#    0.000    0.000    0.000    0.000    0.000    0.000 
#    0.000    0.000    0.000    0.000    0.000    0.000 
#
# Total GULP energy -89324.111137 kJ/mol
# GULP energy per Si atom -5582.756946 kJ/mol
# Density = 2.752499 g / cm^3
# Si number density = 27.587780 Si / 1000 Ang^3
#
#
#
# Elastic Constant Matrix: (Units=GPa)
#
#
# Indices 1 2 3 4 5 6 
#
# 1 113.5387 43.1910 46.2805 0.0000 18.2817 0.0000
# 2 43.1910 131.0117 56.2437 0.0000 20.1771 0.0000
# 3 46.2805 56.2437 207.1674 0.0000 60.3194 0.0000
# 4 0.0000 0.0000 0.0000 85.6599 0.0000 28.3037
# 5 18.2817 20.1771 60.3194 0.0000 53.4022 0.0000
# 6 0.0000 0.0000 0.0000 28.3037 0.0000 46.9172
#
#
#
# Elastic Compliance Matrix: (Units=1/GPa)
#
#
# Indices 1 2 3 4 5 6 
#
# 1 0.010561 -0.002758 -0.001283 0.000000 -0.001124 0.000000
# 2 -0.002758 0.009390 -0.001751 0.000000 -0.000626 0.000000
# 3 -0.001283 -0.001751 0.007850 0.000000 -0.007766 0.000000
# 4 0.000000 0.000000 0.000000 0.014580 0.000000 -0.008796
# 5 -0.001124 -0.000626 -0.007766 0.000000 0.028119 0.000000
# 6 0.000000 0.000000 0.000000 -0.008796 0.000000 0.026620
#
#
# Mechanical properties :
#
#
# Convention : Reuss Voigt Hill
#
# Bulk Modulus (GPa) = 61.66242 82.57200 72.11721
# Shear Modulus (GPa) = 43.81706 57.59604 50.70655
#
# Velocity S-wave (km/s) = 3.98964 4.57413 4.29185
# Velocity P-wave (km/s) = 6.60476 7.60872 7.12445
#
# Compressibility (1/GPa) = 0.01621733
#
# Stress axis : x y z
#
# Youngs Moduli (GPa) = 94.69135 106.49490 127.38323
#
# Poissons Ratio (x) = 0.29366 0.16348
# Poissons Ratio (y) = 0.26111 0.22305
# Poissons Ratio (z) = 0.12152 0.18647
#
# Static dielectric constant tensor:
#      x y z
#    x 2.091970 0.000000 -0.084870 
#    y 0.000000 2.198460 0.000000 
#    z -0.084870 0.000000 2.099750 
# 
# From -- ./inp_files/639.got.cif
#   From: 2010.05.17/outbox.cif.g08.bks.cpg/sg14_1_cif.got.tgz:639.got - 2010.06.03 17:49:19.
