data_PCOD9250398
_publ_section_title
;
Structure prediction by ZEFSAII (Michael W. Deem and Ramdas Pophale) SiO2 
 PCOD9250398
Probable space group: P 21/C
;
_chemical_formula_sum "Si O2"
_cell_formula_units_Z 32
_cell_length_a 16.829570
_cell_length_b 7.904888
_cell_length_c 9.518746
_cell_angle_alpha 90.000000
_cell_angle_beta 81.272970
_cell_angle_gamma 90.000000
_cell_volume 1251.673523
_symmetry_space_group_name_H-M "P 21/C"
_symmetry_group_IT_number 14
_symmetry_cell_setting 'monoclinic'
loop_
_space_group_symop_operation_xyz
x,y,z
-x,1/2+y,1/2-z
-x,-y,-z
x,1/2-y,1/2+z
loop_
_atom_site_type_symbol
_atom_site_label
_atom_site_fract_x
_atom_site_fract_y
_atom_site_fract_z
Si Si1 0.781858 0.004503 0.545538
Si Si2 0.881984 0.304734 0.829427
Si Si3 0.513425 0.485731 0.749207
Si Si4 0.955774 0.636562 0.668978
Si Si5 0.404146 0.366149 0.529333
Si Si6 0.746106 0.429247 0.355256
Si Si7 0.133533 0.327705 0.581549
Si Si8 0.383830 0.973286 0.524416
O O1 0.857481 0.124845 0.490703
O O2 0.753989 0.964655 0.709349
O O3 0.809179 0.830794 0.467781
O O4 0.702534 0.091163 0.499460
O O5 0.918172 0.463274 0.736073
O O6 0.951589 0.165823 0.818736
O O7 0.796713 0.236302 0.794340
O O8 0.559236 0.618896 0.636666
O O9 0.531224 0.884279 0.862997
O O10 0.578617 0.404976 0.839979
O O11 0.446284 0.548125 0.878970
O O12 0.062328 0.340969 0.489038
O O13 0.906387 0.786339 0.759233
O O14 0.341996 0.522671 0.566239
O O15 0.371993 0.175555 0.549186
O O16 0.808587 0.512316 0.446359
#
# Coordination Sequence:
#
# PCOD9250398 Si02
#       8
#     4   4   4   4   4   4   4   4
#     4  11  25  47  72 111 144 196 244 312 366 441
#     4  11  29  48  74 110 154 188 254 301 383 437
#     4  10  24  42  67 111 137 186 240 298 356 444
#     4  11  26  47  77 110 143 197 241 309 363 451
#     4  11  23  45  73 102 144 194 247 297 371 434
#     4  12  25  46  72 109 149 193 244 313 365 443
#     4  11  24  45  80 106 141 189 254 297 369 434
#     4  11  22  47  74 102 146 191 248 303 368 436
#
# _framework density 25.565774000000001
#
# number of rings (size 3 to 8) (size 9 to 14) (size 15 to 20)
#    0.000    1.000    3.750    1.500    3.500    4.000 
#   13.500    0.000    0.000    0.000    0.000    0.000 
#    0.000    0.000    0.000    0.000    0.000    0.000 
#
# Total GULP energy -178807.528502 kJ/mol
# GULP energy per Si atom -5587.735266 kJ/mol
# Density = 2.550758 g / cm^3
# Si number density = 25.565774 Si / 1000 Ang^3
#
#
#
# Elastic Constant Matrix: (Units=GPa)
#
#
# Indices 1 2 3 4 5 6 
#
# 1 124.5391 29.3446 20.8524 0.0000 -2.8261 0.0000
# 2 29.3446 70.1561 4.7711 0.0000 -13.2773 0.0000
# 3 20.8524 4.7711 127.2862 0.0000 0.4082 0.0000
# 4 0.0000 0.0000 0.0000 27.0248 0.0000 -5.3327
# 5 -2.8261 -13.2773 0.4082 0.0000 31.1457 0.0000
# 6 0.0000 0.0000 0.0000 -5.3327 0.0000 43.5147
#
#
#
# Elastic Compliance Matrix: (Units=1/GPa)
#
#
# Indices 1 2 3 4 5 6 
#
# 1 0.009154 -0.003890 -0.001351 0.000000 -0.000810 0.000000
# 2 -0.003890 0.017205 -0.000030 0.000000 0.006982 0.000000
# 3 -0.001351 -0.000030 0.008080 0.000000 -0.000241 0.000000
# 4 0.000000 0.000000 0.000000 0.037920 0.000000 0.004647
# 5 -0.000810 0.006982 -0.000241 0.000000 0.035013 0.000000
# 6 0.000000 0.000000 0.000000 0.004647 0.000000 0.023550
#
#
# Mechanical properties :
#
#
# Convention : Reuss Voigt Hill
#
# Bulk Modulus (GPa) = 41.84956 47.99085 44.92020
# Shear Modulus (GPa) = 33.46056 38.13793 35.79925
#
# Velocity S-wave (km/s) = 3.62166 3.86652 3.74609
# Velocity P-wave (km/s) = 5.82181 6.22459 6.02657
#
# Compressibility (1/GPa) = 0.02389512
#
# Stress axis : x y z
#
# Youngs Moduli (GPa) = 109.24021 58.12428 123.76894
#
# Poissons Ratio (x) = 0.22613 0.16724
# Poissons Ratio (y) = 0.42498 0.00371
# Poissons Ratio (z) = 0.14761 0.00174
#
# Static dielectric constant tensor:
#      x y z
#    x 2.035620 0.000000 0.025660 
#    y 0.000000 2.207030 0.000000 
#    z 0.025660 0.000000 1.966740 
# 
# From -- ./inp_files/33582.got.cif
#   From: 2010.05.17/outbox.cif.g08.bks.cpg/sg14_17_cif.got.tgz:33582.got - 2010.06.03 17:49:19.
