data_PCOD9250298
_publ_section_title
;
Structure prediction by ZEFSAII (Michael W. Deem and Ramdas Pophale) SiO2 
 PCOD9250298
Probable space group: P 21/C
;
_chemical_formula_sum "Si O2"
_cell_formula_units_Z 24
_cell_length_a 11.261909
_cell_length_b 8.409589
_cell_length_c 17.197860
_cell_angle_alpha 90.000000
_cell_angle_beta 41.494117
_cell_angle_gamma 90.000000
_cell_volume 1079.133956
_symmetry_space_group_name_H-M "P 21/C"
_symmetry_group_IT_number 14
_symmetry_cell_setting 'monoclinic'
loop_
_space_group_symop_operation_xyz
x,y,z
-x,1/2+y,1/2-z
-x,-y,-z
x,1/2-y,1/2+z
loop_
_atom_site_type_symbol
_atom_site_label
_atom_site_fract_x
_atom_site_fract_y
_atom_site_fract_z
Si Si1 0.541128 0.369099 0.912258
Si Si2 0.988695 0.436358 0.918508
Si Si3 0.739985 0.623786 0.393847
Si Si4 0.356922 0.121293 0.230106
Si Si5 0.596437 0.090371 0.649187
Si Si6 0.100840 0.820829 0.226552
O O1 0.516276 0.460408 0.843582
O O2 0.737883 0.296757 0.829570
O O3 0.500000 0.500000 0.000000
O O4 0.391304 0.229306 0.989399
O O5 0.152829 0.313754 0.836874
O O6 0.041886 0.569977 0.829308
O O7 0.000000 0.500000 0.000000
O O8 0.783899 0.388950 0.010987
O O9 0.626354 0.597291 0.370082
O O10 0.817777 0.448828 0.374699
O O11 0.921585 0.727234 0.291490
O O12 0.373056 0.968697 0.277764
O O13 0.493368 0.246969 0.195168
#
# Coordination Sequence:
#
# PCOD9250298 Si02
#       6
#     4   4   4   4   4   4
#     4  12  24  42  69  98 133 182 229 286 340 403
#     4   9  21  43  66  94 135 176 220 272 338 399
#     4  11  23  43  64 103 130 179 223 282 339 408
#     4  10  24  40  70  95 134 180 223 276 337 411
#     4  11  23  44  69  95 137 177 225 278 345 397
#     4  11  24  41  70  95 139 175 227 282 341 401
#
# _framework density 22.240057
#
# number of rings (size 3 to 8) (size 9 to 14) (size 15 to 20)
#    0.000    1.333    3.333    1.500    9.333    0.000 
#    0.000    0.833    0.000    0.000    0.000    0.000 
#    0.000    0.000    0.000    0.000    0.000    0.000 
#
# Total GULP energy -133987.891444 kJ/mol
# GULP energy per Si atom -5582.828810 kJ/mol
# Density = 2.218944 g / cm^3
# Si number density = 22.240057 Si / 1000 Ang^3
#
#
#
# Elastic Constant Matrix: (Units=GPa)
#
#
# Indices 1 2 3 4 5 6 
#
# 1 83.3339 19.8129 19.9884 0.0000 -15.2500 0.0000
# 2 19.8129 61.9755 30.1976 0.0000 -22.2607 0.0000
# 3 19.9884 30.1976 89.2323 0.0000 -31.6203 0.0000
# 4 0.0000 0.0000 0.0000 44.0589 0.0000 -9.5314
# 5 -15.2500 -22.2607 -31.6203 0.0000 46.2558 0.0000
# 6 0.0000 0.0000 0.0000 -9.5314 0.0000 44.6307
#
#
#
# Elastic Compliance Matrix: (Units=1/GPa)
#
#
# Indices 1 2 3 4 5 6 
#
# 1 0.013384 -0.002891 -0.001253 0.000000 0.002165 0.000000
# 2 -0.002891 0.021482 -0.004350 0.000000 0.006411 0.000000
# 3 -0.001253 -0.004350 0.015930 0.000000 0.008383 0.000000
# 4 0.000000 0.000000 0.000000 0.023796 0.000000 0.005082
# 5 0.002165 0.006411 0.008383 0.000000 0.031149 0.000000
# 6 0.000000 0.000000 0.000000 0.005082 0.000000 0.023491
#
#
# Mechanical properties :
#
#
# Convention : Reuss Voigt Hill
#
# Bulk Modulus (GPa) = 29.57806 41.61549 35.59678
# Shear Modulus (GPa) = 31.74806 37.95857 34.85332
#
# Velocity S-wave (km/s) = 3.78235 4.13578 3.96301
# Velocity P-wave (km/s) = 5.69238 6.44662 6.08120
#
# Compressibility (1/GPa) = 0.03380884
#
# Stress axis : x y z
#
# Youngs Moduli (GPa) = 74.71699 46.55026 62.77380
#
# Poissons Ratio (x) = 0.13456 0.07863
# Poissons Ratio (y) = 0.21598 0.27309
# Poissons Ratio (z) = 0.09359 0.20251
#
# Static dielectric constant tensor:
#      x y z
#    x 1.834200 0.000000 0.002480 
#    y 0.000000 1.849460 0.000000 
#    z 0.002480 0.000000 1.890300 
# 
# From -- ./inp_files/66765.got.cif
#   From: 2010.05.17/outbox.cif.g08.bks.cpg/sg14_34_cif.got.tgz:66765.got - 2010.06.03 17:49:19.
