data_PCOD9250001
_publ_section_title
;
Structure prediction by ZEFSAII (Michael W. Deem and Ramdas Pophale) SiO2 
 PCOD9250001
Probable space group: P 21/C
;
_chemical_formula_sum "Si O2"
_cell_formula_units_Z 28
_cell_length_a 10.932984
_cell_length_b 12.800605
_cell_length_c 9.287529
_cell_angle_alpha 90.000000
_cell_angle_beta 60.253030
_cell_angle_gamma 90.000000
_cell_volume 1128.500371
_symmetry_space_group_name_H-M "P 21/C"
_symmetry_group_IT_number 14
_symmetry_cell_setting 'monoclinic'
loop_
_space_group_symop_operation_xyz
x,y,z
-x,1/2+y,1/2-z
-x,-y,-z
x,1/2-y,1/2+z
loop_
_atom_site_type_symbol
_atom_site_label
_atom_site_fract_x
_atom_site_fract_y
_atom_site_fract_z
Si Si1 0.520612 0.165668 0.574695
Si Si2 0.797137 0.552734 0.351991
Si Si3 0.222173 0.143474 0.452021
Si Si4 0.940992 0.366024 0.619307
Si Si5 0.296199 0.005707 0.653726
Si Si6 0.072150 0.671381 0.708868
Si Si7 0.552858 0.825608 0.093743
O O1 0.598595 0.091392 0.416356
O O2 0.509859 0.279615 0.516009
O O3 0.564511 0.165496 0.714577
O O4 0.367965 0.108252 0.676458
O O5 0.800358 0.618055 0.201358
O O6 0.839396 0.432396 0.307824
O O7 0.642767 0.571828 0.507155
O O8 0.913952 0.602720 0.388914
O O9 0.336449 0.234053 0.418355
O O10 0.075956 0.166331 0.619061
O O11 0.270146 0.037794 0.504029
O O12 0.842717 0.468239 0.685930
O O13 0.867252 0.279106 0.764412
O O14 0.951197 0.327449 0.449529
#
# Coordination Sequence:
#
# PCOD9250001 Si02
#       7
#     4   4   4   4   4   4   4
#     4  10  23  45  69  93 123 179 222 275 315 388
#     4  12  24  41  68 101 136 169 217 271 333 395
#     4  11  23  41  68  99 130 172 213 270 327 403
#     4  12  26  41  65 101 136 179 211 273 332 396
#     4  10  24  44  69  89 136 172 224 266 335 378
#     4  12  26  39  64 100 141 172 216 263 335 398
#     4  11  22  41  70  97 126 166 226 266 327 388
#
# _framework density 24.811691
#
# number of rings (size 3 to 8) (size 9 to 14) (size 15 to 20)
#    0.000    0.857    4.286    2.571    6.000    1.143 
#    0.000    2.143    0.000    0.000    0.000    0.000 
#    0.000    0.000    0.000    0.000    0.000    0.000 
#
# Total GULP energy -156727.322745 kJ/mol
# GULP energy per Si atom -5597.404384 kJ/mol
# Density = 2.475522 g / cm^3
# Si number density = 24.811691 Si / 1000 Ang^3
#
#
#
# Elastic Constant Matrix: (Units=GPa)
#
#
# Indices 1 2 3 4 5 6 
#
# 1 31.2758 2.5226 10.3659 0.0000 8.6830 0.0000
# 2 2.5226 94.3449 -3.6311 0.0000 1.2761 0.0000
# 3 10.3659 -3.6311 115.6926 0.0000 34.8301 0.0000
# 4 0.0000 0.0000 0.0000 44.6564 0.0000 -5.6938
# 5 8.6830 1.2761 34.8301 0.0000 21.9302 0.0000
# 6 0.0000 0.0000 0.0000 -5.6938 0.0000 31.3370
#
#
#
# Elastic Compliance Matrix: (Units=1/GPa)
#
#
# Indices 1 2 3 4 5 6 
#
# 1 0.036215 -0.000655 0.001993 0.000000 -0.017466 0.000000
# 2 -0.000655 0.010680 0.000964 0.000000 -0.001892 0.000000
# 3 0.001993 0.000964 0.016767 0.000000 -0.027474 0.000000
# 4 0.000000 0.000000 0.000000 0.022924 0.000000 0.004165
# 5 -0.017466 -0.001892 -0.027474 0.000000 0.096260 0.000000
# 6 0.000000 0.000000 0.000000 0.004165 0.000000 0.032668
#
#
# Mechanical properties :
#
#
# Convention : Reuss Voigt Hill
#
# Bulk Modulus (GPa) = 14.64915 28.86978 21.75946
# Shear Modulus (GPa) = 21.39808 35.05512 28.22660
#
# Velocity S-wave (km/s) = 2.93988 3.76286 3.37654
# Velocity P-wave (km/s) = 4.17622 5.52627 4.89798
#
# Compressibility (1/GPa) = 0.06826337
#
# Stress axis : x y z
#
# Youngs Moduli (GPa) = 27.61287 93.63637 59.64234
#
# Poissons Ratio (x) = 0.06137 -0.11886
# Poissons Ratio (y) = 0.01810 -0.05747
# Poissons Ratio (z) = -0.05503 -0.09023
#
# Static dielectric constant tensor:
#      x y z
#    x 2.051210 0.000000 -0.006290 
#    y 0.000000 2.051920 0.000000 
#    z -0.006290 0.000000 1.975590 
# 
# From -- ./inp_files/12897.got.cif
#   From: 2010.05.17/outbox.cif.g08.bks.cpg/sg14_7_cif.got.tgz:12897.got - 2010.06.03 17:49:19.
