data_PCOD9250266
_publ_section_title
;
Structure prediction by ZEFSAII (Michael W. Deem and Ramdas Pophale) SiO2 
 PCOD9250266
Probable space group: P 21/C
;
_chemical_formula_sum "Si O2"
_cell_formula_units_Z 28
_cell_length_a 7.360505
_cell_length_b 20.492497
_cell_length_c 11.839424
_cell_angle_alpha 90.000000
_cell_angle_beta 43.060559
_cell_angle_gamma 90.000000
_cell_volume 1219.293122
_symmetry_space_group_name_H-M "P 21/C"
_symmetry_group_IT_number 14
_symmetry_cell_setting 'monoclinic'
loop_
_space_group_symop_operation_xyz
x,y,z
-x,1/2+y,1/2-z
-x,-y,-z
x,1/2-y,1/2+z
loop_
_atom_site_type_symbol
_atom_site_label
_atom_site_fract_x
_atom_site_fract_y
_atom_site_fract_z
Si Si1 0.925076 0.144123 0.166392
Si Si2 0.203549 0.715029 0.858158
Si Si3 0.152355 0.208391 0.287562
Si Si4 0.278439 0.991864 0.693396
Si Si5 0.260309 0.817123 0.069463
Si Si6 0.742396 0.456224 0.353102
Si Si7 0.442610 0.396013 0.290742
O O1 0.805254 0.206447 0.154343
O O2 0.998081 0.165512 0.261973
O O3 0.738291 0.080820 0.248407
O O4 0.204205 0.125176 0.981750
O O5 0.259989 0.695625 0.703709
O O6 0.427767 0.670458 0.818273
O O7 0.930680 0.692533 0.045033
O O8 0.002578 0.278079 0.346552
O O9 0.460458 0.205509 0.112222
O O10 0.326925 0.049552 0.760463
O O11 0.004522 0.002837 0.751599
O O12 0.500000 0.000000 0.500000
O O13 0.238660 0.894445 0.071417
O O14 0.500000 0.500000 0.500000
O O15 0.674196 0.431354 0.258768
#
# Coordination Sequence:
#
# PCOD9250266 Si02
#       7
#     4   4   4   4   4   4   4
#     4  11  23  46  69 110 145 193 260 313 373 460
#     4  10  24  41  69 103 148 192 245 315 372 443
#     4  11  22  41  68  97 146 187 250 299 383 439
#     4  12  27  46  78 111 151 204 258 313 388 468
#     4  10  24  40  63 103 138 187 244 310 363 457
#     4  11  23  45  72 101 147 197 246 310 386 448
#     4  11  24  48  74 106 154 195 255 317 377 451
#
# _framework density 22.964127000000001
#
# number of rings (size 3 to 8) (size 9 to 14) (size 15 to 20)
#    0.000    1.143    4.286    1.286    4.000    2.857 
#    2.571    1.429    0.000    0.000    0.000    0.000 
#    0.000    0.000    0.000    0.000    0.000    0.000 
#
# Total GULP energy -156316.475167 kJ/mol
# GULP energy per Si atom -5582.731256 kJ/mol
# Density = 2.291186 g / cm^3
# Si number density = 22.964127 Si / 1000 Ang^3
#
#
#
# Elastic Constant Matrix: (Units=GPa)
#
#
# Indices 1 2 3 4 5 6 
#
# 1 85.0990 34.1608 32.9360 0.0000 -5.0076 0.0000
# 2 34.1608 133.0974 36.6015 0.0000 11.1907 0.0000
# 3 32.9360 36.6015 168.9705 0.0000 15.3773 0.0000
# 4 0.0000 0.0000 0.0000 28.4748 0.0000 -4.7407
# 5 -5.0076 11.1907 15.3773 0.0000 26.3699 0.0000
# 6 0.0000 0.0000 0.0000 -4.7407 0.0000 34.7103
#
#
#
# Elastic Compliance Matrix: (Units=1/GPa)
#
#
# Indices 1 2 3 4 5 6 
#
# 1 0.014493 -0.003490 -0.002592 0.000000 0.005745 0.000000
# 2 -0.003490 0.008991 -0.000908 0.000000 -0.003949 0.000000
# 3 -0.002592 -0.000908 0.007001 0.000000 -0.004190 0.000000
# 4 0.000000 0.000000 0.000000 0.035936 0.000000 0.004908
# 5 0.005745 -0.003949 -0.004190 0.000000 0.043132 0.000000
# 6 0.000000 0.000000 0.000000 0.004908 0.000000 0.029480
#
#
# Mechanical properties :
#
#
# Convention : Reuss Voigt Hill
#
# Bulk Modulus (GPa) = 60.58526 66.06265 63.32395
# Shear Modulus (GPa) = 31.54281 36.80892 34.17586
#
# Velocity S-wave (km/s) = 3.71019 4.00795 3.86194
# Velocity P-wave (km/s) = 6.69282 7.08861 6.89356
#
# Compressibility (1/GPa) = 0.01650567
#
# Stress axis : x y z
#
# Youngs Moduli (GPa) = 68.99789 111.22564 142.82986
#
# Poissons Ratio (x) = 0.38819 0.37019
# Poissons Ratio (y) = 0.24081 0.12967
# Poissons Ratio (z) = 0.17883 0.10098
#
# Static dielectric constant tensor:
#      x y z
#    x 1.965130 0.000000 0.055530 
#    y 0.000000 2.003340 0.000000 
#    z 0.055530 0.000000 1.846550 
# 
# From -- ./inp_files/42024.got.cif
#   From: 2010.05.17/outbox.cif.g08.bks.cpg/sg14_22_cif.got.tgz:42024.got - 2010.06.03 17:49:19.
