data_PCOD9250800
_publ_section_title
;
Structure prediction by ZEFSAII (Michael W. Deem and Ramdas Pophale) SiO2 
 PCOD9250800
Probable space group: P 21/C
;
_chemical_formula_sum "Si O2"
_cell_formula_units_Z 32
_cell_length_a 28.805063
_cell_length_b 5.860893
_cell_length_c 17.176721
_cell_angle_alpha 90.000000
_cell_angle_beta 150.836301
_cell_angle_gamma 90.000000
_cell_volume 1413.107138
_symmetry_space_group_name_H-M "P 21/C"
_symmetry_group_IT_number 14
_symmetry_cell_setting 'monoclinic'
loop_
_space_group_symop_operation_xyz
x,y,z
-x,1/2+y,1/2-z
-x,-y,-z
x,1/2-y,1/2+z
loop_
_atom_site_type_symbol
_atom_site_label
_atom_site_fract_x
_atom_site_fract_y
_atom_site_fract_z
Si Si1 0.959729 0.148155 0.370697
Si Si2 0.470163 0.810486 0.517731
Si Si3 0.226044 0.605477 0.842225
Si Si4 0.947382 0.537132 0.688494
Si Si5 0.607910 0.524296 0.812846
Si Si6 0.840856 0.690789 0.397097
Si Si7 0.458723 0.184898 0.620808
Si Si8 0.691195 0.052028 0.161523
O O1 0.874826 0.304913 0.275808
O O2 0.051109 0.284384 0.473852
O O3 0.926377 0.995552 0.248898
O O4 0.000000 0.000000 0.500000
O O5 0.561174 0.649993 0.670355
O O6 0.369283 0.681917 0.360000
O O7 0.500000 0.000000 0.500000
O O8 0.443997 0.949265 0.556868
O O9 0.212709 0.424652 0.753229
O O10 0.277716 0.809116 0.870213
O O11 0.284226 0.502691 0.000496
O O12 0.854771 0.552857 0.497259
O O13 0.001098 0.292200 0.744506
O O14 0.562914 0.272774 0.750972
O O15 0.559643 0.651770 0.815881
O O16 0.786001 0.927350 0.331250
O O17 0.385991 0.368001 0.480106
#
# Coordination Sequence:
#
# PCOD9250800 Si02
#       8
#     4   4   4   4   4   4   4   4
#     4  11  23  44  75 106 147 194 252 318 388 468
#     4  11  25  44  71 100 150 194 247 311 383 456
#     4  12  23  41  72 110 142 185 255 321 377 463
#     4  10  24  46  74 106 148 211 257 313 403 478
#     4  11  21  37  71 100 137 188 248 300 377 451
#     4  11  23  43  76 101 151 195 253 310 398 473
#     4  11  20  41  69  95 127 189 235 294 363 456
#     4  11  22  40  73 103 137 188 249 300 390 458
#
# _framework density 22.645133000000001
#
# number of rings (size 3 to 8) (size 9 to 14) (size 15 to 20)
#    0.000    1.000    5.000    1.875    1.750    3.000 
#    0.000    3.750   16.500    0.000    0.000    0.000 
#    0.000    0.000    0.000    0.000    0.000    0.000 
#
# Total GULP energy -178504.782007 kJ/mol
# GULP energy per Si atom -5578.274438 kJ/mol
# Density = 2.259359 g / cm^3
# Si number density = 22.645133 Si / 1000 Ang^3
#
#
#
# Elastic Constant Matrix: (Units=GPa)
#
#
# Indices 1 2 3 4 5 6 
#
# 1 77.3244 24.6138 36.9510 0.0000 4.4111 0.0000
# 2 24.6138 71.9381 28.7073 0.0000 17.6794 0.0000
# 3 36.9510 28.7073 111.8068 0.0000 21.7434 0.0000
# 4 0.0000 0.0000 0.0000 39.1129 0.0000 -4.4142
# 5 4.4111 17.6794 21.7434 0.0000 20.9914 0.0000
# 6 0.0000 0.0000 0.0000 -4.4142 0.0000 43.1813
#
#
#
# Elastic Compliance Matrix: (Units=1/GPa)
#
#
# Indices 1 2 3 4 5 6 
#
# 1 0.016835 -0.005164 -0.005505 0.000000 0.006514 0.000000
# 2 -0.005164 0.019493 -0.000396 0.000000 -0.014922 0.000000
# 3 -0.005505 -0.000396 0.013243 0.000000 -0.012227 0.000000
# 4 0.000000 0.000000 0.000000 0.025865 0.000000 0.002644
# 5 0.006514 -0.014922 -0.012227 0.000000 0.071502 0.000000
# 6 0.000000 0.000000 0.000000 0.002644 0.000000 0.023428
#
#
# Mechanical properties :
#
#
# Convention : Reuss Voigt Hill
#
# Bulk Modulus (GPa) = 36.44252 49.06816 42.75534
# Shear Modulus (GPa) = 24.79614 32.04361 28.41988
#
# Velocity S-wave (km/s) = 3.31265 3.76577 3.54646
# Velocity P-wave (km/s) = 5.54611 6.37365 5.97423
#
# Compressibility (1/GPa) = 0.02744047
#
# Stress axis : x y z
#
# Youngs Moduli (GPa) = 59.39888 51.30006 75.51317
#
# Poissons Ratio (x) = 0.26493 0.41567
# Poissons Ratio (y) = 0.30676 0.02993
# Poissons Ratio (z) = 0.32697 0.02034
#
# Static dielectric constant tensor:
#      x y z
#    x 1.956350 0.000000 -0.045230 
#    y 0.000000 1.886130 0.000000 
#    z -0.045230 0.000000 1.891860 
# 
# From -- ./inp_files/62464.got.cif
#   From: 2010.05.17/outbox.cif.g08.bks.cpg/sg14_32_cif.got.tgz:62464.got - 2010.06.03 17:49:19.
