data_PCOD9250685
_publ_section_title
;
Structure prediction by ZEFSAII (Michael W. Deem and Ramdas Pophale) SiO2 
 PCOD9250685
Probable space group: P 21/C
;
_chemical_formula_sum "Si O2"
_cell_formula_units_Z 32
_cell_length_a 21.911409
_cell_length_b 13.486742
_cell_length_c 7.864428
_cell_angle_alpha 90.000000
_cell_angle_beta 37.065852
_cell_angle_gamma 90.000000
_cell_volume 1400.777390
_symmetry_space_group_name_H-M "P 21/C"
_symmetry_group_IT_number 14
_symmetry_cell_setting 'monoclinic'
loop_
_space_group_symop_operation_xyz
x,y,z
-x,1/2+y,1/2-z
-x,-y,-z
x,1/2-y,1/2+z
loop_
_atom_site_type_symbol
_atom_site_label
_atom_site_fract_x
_atom_site_fract_y
_atom_site_fract_z
Si Si1 0.191493 0.249776 0.493617
Si Si2 0.525677 0.122191 0.534985
Si Si3 0.974354 0.583622 0.193691
Si Si4 0.808980 0.414390 0.161593
Si Si5 0.615881 0.323390 0.476082
Si Si6 0.182802 0.452066 0.190682
Si Si7 0.291836 0.108740 0.989950
Si Si8 0.605913 0.466619 0.184357
O O1 0.169314 0.163083 0.677484
O O2 0.226987 0.179454 0.260500
O O3 0.282243 0.325197 0.342037
O O4 0.095411 0.323108 0.701656
O O5 0.556405 0.224911 0.558089
O O6 0.557185 0.126135 0.266424
O O7 0.584851 0.049298 0.531737
O O8 0.405774 0.103451 0.806058
O O9 0.906679 0.525268 0.481717
O O10 0.082848 0.620776 0.016701
O O11 0.000000 0.500000 0.000000
O O12 0.729657 0.326563 0.299850
O O13 0.758819 0.499591 0.395026
O O14 0.824999 0.477432 0.954307
O O15 0.627501 0.375750 0.266123
O O16 0.296430 0.465550 0.007229
O O17 0.500000 0.500000 0.500000
#
# Coordination Sequence:
#
# PCOD9250685 Si02
#       8
#     4   4   4   4   4   4   4   4
#     4  11  22  42  68 102 136 177 236 291 355 416
#     4  12  24  43  74 102 148 196 233 302 364 439
#     4  12  24  43  71 101 135 185 242 293 359 426
#     4  10  24  46  66  98 142 180 233 296 359 423
#     4  11  25  45  67 106 144 188 246 289 363 442
#     4  10  24  45  69  98 143 182 232 299 349 430
#     4  11  23  42  67 101 139 177 236 292 347 429
#     4  11  25  45  71 107 144 189 240 298 374 429
#
# _framework density 22.844456999999998
#
# number of rings (size 3 to 8) (size 9 to 14) (size 15 to 20)
#    0.000    1.000    3.750    3.375    3.500    3.000 
#    2.250    2.500    0.000    0.000    0.000    0.000 
#    0.000    0.000    0.000    0.000    0.000    0.000 
#
# Total GULP energy -178615.933633 kJ/mol
# GULP energy per Si atom -5581.747926 kJ/mol
# Density = 2.279246 g / cm^3
# Si number density = 22.844457 Si / 1000 Ang^3
#
#
#
# Elastic Constant Matrix: (Units=GPa)
#
#
# Indices 1 2 3 4 5 6 
#
# 1 106.2831 39.4104 34.1674 0.0000 -28.2997 0.0000
# 2 39.4104 69.1796 17.8777 0.0000 -7.6687 0.0000
# 3 34.1674 17.8777 109.7403 0.0000 -8.6477 0.0000
# 4 0.0000 0.0000 0.0000 31.8429 0.0000 -4.4904
# 5 -28.2997 -7.6687 -8.6477 0.0000 59.5202 0.0000
# 6 0.0000 0.0000 0.0000 -4.4904 0.0000 39.8166
#
#
#
# Elastic Compliance Matrix: (Units=1/GPa)
#
#
# Indices 1 2 3 4 5 6 
#
# 1 0.014339 -0.006802 -0.002922 0.000000 0.005517 0.000000
# 2 -0.006802 0.018470 -0.000970 0.000000 -0.000995 0.000000
# 3 -0.002922 -0.000970 0.010177 0.000000 -0.000035 0.000000
# 4 0.000000 0.000000 0.000000 0.031912 0.000000 0.003599
# 5 0.005517 -0.000995 -0.000035 0.000000 0.019291 0.000000
# 6 0.000000 0.000000 0.000000 0.003599 0.000000 0.025521
#
#
# Mechanical properties :
#
#
# Convention : Reuss Voigt Hill
#
# Bulk Modulus (GPa) = 46.29608 52.01266 49.15437
# Shear Modulus (GPa) = 33.71598 39.15243 36.43421
#
# Velocity S-wave (km/s) = 3.84590 4.14438 3.99793
# Velocity P-wave (km/s) = 6.32701 6.76157 6.54790
#
# Compressibility (1/GPa) = 0.02160010
#
# Stress axis : x y z
#
# Youngs Moduli (GPa) = 69.73800 54.14040 98.25860
#
# Poissons Ratio (x) = 0.36828 0.28708
# Poissons Ratio (y) = 0.47438 0.09527
# Poissons Ratio (z) = 0.20375 0.05249
#
# Static dielectric constant tensor:
#      x y z
#    x 2.040210 0.000000 0.041430 
#    y 0.000000 1.933060 0.000000 
#    z 0.041430 0.000000 1.862020 
# 
# From -- ./inp_files/19542.got.cif
#   From: 2010.05.17/outbox.cif.g08.bks.cpg/sg14_10_cif.got.tgz:19542.got - 2010.06.03 17:49:19.
