data_PCOD9250447
_publ_section_title
;
Structure prediction by ZEFSAII (Michael W. Deem and Ramdas Pophale) SiO2 
 PCOD9250447
Probable space group: P 21/C
;
_chemical_formula_sum "Si O2"
_cell_formula_units_Z 18
_cell_length_a 9.101463
_cell_length_b 4.812919
_cell_length_c 18.160940
_cell_angle_alpha 90.000000
_cell_angle_beta 53.091493
_cell_angle_gamma 90.000000
_cell_volume 636.104440
_symmetry_space_group_name_H-M "P 21/C"
_symmetry_group_IT_number 14
_symmetry_cell_setting 'monoclinic'
loop_
_space_group_symop_operation_xyz
x,y,z
-x,1/2+y,1/2-z
-x,-y,-z
x,1/2-y,1/2+z
loop_
_atom_site_type_symbol
_atom_site_label
_atom_site_fract_x
_atom_site_fract_y
_atom_site_fract_z
Si Si1 0.500000 0.000000 0.000000
Si Si2 0.356771 0.741570 0.932580
Si Si3 0.207579 0.445049 0.113656
Si Si4 0.289680 0.521731 0.246159
Si Si5 0.841588 0.498579 0.133142
O O1 0.409771 0.052204 0.938734
O O2 0.679646 0.835443 0.911972
O O3 0.519788 0.596631 0.840423
O O4 0.180018 0.637152 0.941498
O O5 0.341809 0.659791 0.026512
O O6 0.168786 0.542748 0.207947
O O7 0.029446 0.421955 0.117842
O O8 0.307036 0.820400 0.276398
O O9 0.200886 0.317980 0.334571
#
# Coordination Sequence:
#
# PCOD9250447 Si02
#       5
#     2   4   4   4   4
#     4  10  24  42  72  90 140 180 236 284 350 422
#     4  11  26  45  74 104 144 191 246 290 364 427
#     4  11  26  45  74 104 144 191 246 290 364 427
#     4  11  26  46  71 105 150 188 237 292 372 426
#     4  12  27  46  73 109 146 187 239 307 352 427
#
# _framework density 28.297239999999999
#
# number of rings (size 3 to 8) (size 9 to 14) (size 15 to 20)
#    0.000    0.889    0.000    6.000   18.667    0.889 
#    0.000    0.000    0.000    0.000    0.000    0.000 
#    0.000    0.000    0.000    0.000    0.000    0.000 
#
# Total GULP energy -100362.930742 kJ/mol
# GULP energy per Si atom -5575.718375 kJ/mol
# Density = 2.823283 g / cm^3
# Si number density = 28.297240 Si / 1000 Ang^3
#
#
#
# Elastic Constant Matrix: (Units=GPa)
#
#
# Indices 1 2 3 4 5 6 
#
# 1 211.0073 11.3249 34.2907 0.0000 41.7569 0.0000
# 2 11.3249 91.1730 27.0676 0.0000 12.7049 0.0000
# 3 34.2907 27.0676 93.6543 0.0000 46.7099 0.0000
# 4 0.0000 0.0000 0.0000 62.7435 0.0000 8.9154
# 5 41.7569 12.7049 46.7099 0.0000 61.3440 0.0000
# 6 0.0000 0.0000 0.0000 8.9154 0.0000 25.7825
#
#
#
# Elastic Compliance Matrix: (Units=1/GPa)
#
#
# Indices 1 2 3 4 5 6 
#
# 1 0.005482 -0.000127 -0.000197 0.000000 -0.003555 0.000000
# 2 -0.000127 0.012003 -0.003589 0.000000 0.000333 0.000000
# 3 -0.000197 -0.003589 0.018299 0.000000 -0.013056 0.000000
# 4 0.000000 0.000000 0.000000 0.016761 0.000000 -0.005796
# 5 -0.003555 0.000333 -0.013056 0.000000 0.028593 0.000000
# 6 0.000000 0.000000 0.000000 -0.005796 0.000000 0.040790
#
#
# Mechanical properties :
#
#
# Convention : Reuss Voigt Hill
#
# Bulk Modulus (GPa) = 35.76940 60.13343 47.95142
# Shear Modulus (GPa) = 35.95234 51.51742 43.73488
#
# Velocity S-wave (km/s) = 3.56831 4.27146 3.93562
# Velocity P-wave (km/s) = 5.44474 6.75455 6.13470
#
# Compressibility (1/GPa) = 0.02795686
#
# Stress axis : x y z
#
# Youngs Moduli (GPa) = 182.43150 83.31303 54.64925
#
# Poissons Ratio (x) = 0.01057 0.01079
# Poissons Ratio (y) = 0.02315 0.19612
# Poissons Ratio (z) = 0.03602 0.29898
#
# Static dielectric constant tensor:
#      x y z
#    x 1.342690 0.000000 0.156210 
#    y 0.000000 -4.871610 0.000000 
#    z 0.156210 0.000000 2.243780 
# 
# From -- ./inp_files/20742.got.cif
#   From: 2010.05.17/outbox.cif.g08.bks.cpg/sg14_11_cif.got.tgz:20742.got - 2010.06.03 17:49:19.
