data_PCOD9250636
_publ_section_title
;
Structure prediction by ZEFSAII (Michael W. Deem and Ramdas Pophale) SiO2 
 PCOD9250636
Probable space group: P 21/C
;
_chemical_formula_sum "Si O2"
_cell_formula_units_Z 20
_cell_length_a 9.640073
_cell_length_b 10.352034
_cell_length_c 16.860172
_cell_angle_alpha 90.000000
_cell_angle_beta 29.896507
_cell_angle_gamma 90.000000
_cell_volume 838.641689
_symmetry_space_group_name_H-M "P 21/C"
_symmetry_group_IT_number 14
_symmetry_cell_setting 'monoclinic'
loop_
_space_group_symop_operation_xyz
x,y,z
-x,1/2+y,1/2-z
-x,-y,-z
x,1/2-y,1/2+z
loop_
_atom_site_type_symbol
_atom_site_label
_atom_site_fract_x
_atom_site_fract_y
_atom_site_fract_z
Si Si1 0.071795 0.602371 0.393694
Si Si2 0.314228 0.368712 0.217607
Si Si3 0.230413 0.959907 0.185635
Si Si4 0.527721 0.337733 0.286117
Si Si5 0.863126 0.211564 0.368312
O O1 0.196931 0.511975 0.263407
O O2 0.303642 0.705693 0.298660
O O3 0.000000 0.500000 0.500000
O O4 0.779720 0.671899 0.523018
O O5 0.477564 0.373959 0.219898
O O6 0.040722 0.278941 0.351543
O O7 0.539209 0.313117 0.045876
O O8 0.315992 0.939539 0.235066
O O9 0.123732 0.821028 0.206351
O O10 0.500000 0.000000 0.000000
O O11 0.013210 0.075130 0.285406
#
# Coordination Sequence:
#
# PCOD9250636 Si02
#       5
#     4   4   4   4   4
#     4  10  24  44  72 113 151 187 254 312 386 445
#     4  11  25  47  77 110 148 194 256 321 374 455
#     4  12  29  51  75 112 156 205 256 314 391 466
#     4  11  26  46  78 107 153 199 254 320 379 452
#     4  12  28  49  78 109 156 202 256 318 388 461
#
# _framework density 23.848088000000001
#
# number of rings (size 3 to 8) (size 9 to 14) (size 15 to 20)
#    0.000    0.800    2.000    3.600   14.000    1.600 
#    0.000    0.000    0.000    0.000    0.000    0.000 
#    0.000    0.000    0.000    0.000    0.000    0.000 
#
# Total GULP energy -111847.237747 kJ/mol
# GULP energy per Si atom -5592.361887 kJ/mol
# Density = 2.379381 g / cm^3
# Si number density = 23.848088 Si / 1000 Ang^3
#
#
#
# Elastic Constant Matrix: (Units=GPa)
#
#
# Indices 1 2 3 4 5 6 
#
# 1 121.1355 23.0813 -0.7835 0.0000 -8.1988 0.0000
# 2 23.0813 95.5530 61.7771 0.0000 -22.6689 0.0000
# 3 -0.7835 61.7771 103.6671 0.0000 -35.3433 0.0000
# 4 0.0000 0.0000 0.0000 64.4726 0.0000 -4.4218
# 5 -8.1988 -22.6689 -35.3433 0.0000 27.4954 0.0000
# 6 0.0000 0.0000 0.0000 -4.4218 0.0000 34.0775
#
#
#
# Elastic Compliance Matrix: (Units=1/GPa)
#
#
# Indices 1 2 3 4 5 6 
#
# 1 0.009284 -0.003593 0.003818 0.000000 0.004715 0.000000
# 2 -0.003593 0.018463 -0.011046 0.000000 -0.000048 0.000000
# 3 0.003818 -0.011046 0.024105 0.000000 0.023016 0.000000
# 4 0.000000 0.000000 0.000000 0.015650 0.000000 0.002031
# 5 0.004715 -0.000048 0.023016 0.000000 0.067322 0.000000
# 6 0.000000 0.000000 0.000000 0.002031 0.000000 0.029608
#
#
# Mechanical properties :
#
#
# Convention : Reuss Voigt Hill
#
# Bulk Modulus (GPa) = 33.10076 54.27837 43.68957
# Shear Modulus (GPa) = 25.49162 40.96115 33.22639
#
# Velocity S-wave (km/s) = 3.27298 4.14887 3.73668
# Velocity P-wave (km/s) = 5.30972 6.76464 6.08085
#
# Compressibility (1/GPa) = 0.03021079
#
# Stress axis : x y z
#
# Youngs Moduli (GPa) = 107.71710 54.16093 41.48563
#
# Poissons Ratio (x) = 0.19459 -0.15841
# Poissons Ratio (y) = 0.38700 0.45826
# Poissons Ratio (z) = -0.41132 0.59827
#
# Static dielectric constant tensor:
#      x y z
#    x 2.024890 0.000000 0.012190 
#    y 0.000000 1.898150 0.000000 
#    z 0.012190 0.000000 1.943340 
# 
# From -- ./inp_files/55555.got.cif
#   From: 2010.05.17/outbox.cif.g08.bks.cpg/sg14_28_cif.got.tgz:55555.got - 2010.06.03 17:49:19.
