data_PCOD9250443
_publ_section_title
;
Structure prediction by ZEFSAII (Michael W. Deem and Ramdas Pophale) SiO2 
 PCOD9250443
Probable space group: P 21/C
;
_chemical_formula_sum "Si O2"
_cell_formula_units_Z 26
_cell_length_a 9.431293
_cell_length_b 8.026116
_cell_length_c 18.076277
_cell_angle_alpha 90.000000
_cell_angle_beta 126.636260
_cell_angle_gamma 90.000000
_cell_volume 1097.989586
_symmetry_space_group_name_H-M "P 21/C"
_symmetry_group_IT_number 14
_symmetry_cell_setting 'monoclinic'
loop_
_space_group_symop_operation_xyz
x,y,z
-x,1/2+y,1/2-z
-x,-y,-z
x,1/2-y,1/2+z
loop_
_atom_site_type_symbol
_atom_site_label
_atom_site_fract_x
_atom_site_fract_y
_atom_site_fract_z
Si Si1 0.000000 0.500000 0.500000
Si Si2 0.281666 0.500376 0.056066
Si Si3 0.363470 0.134823 0.300069
Si Si4 0.042033 0.853442 0.610159
Si Si5 0.619176 0.631423 0.366240
Si Si6 0.264648 0.508935 0.311964
Si Si7 0.005623 0.487244 0.644487
O O1 0.220748 0.490582 0.565479
O O2 0.991431 0.637095 0.423140
O O3 0.467614 0.589407 0.097807
O O4 0.168027 0.593919 0.082991
O O5 0.332032 0.321911 0.105817
O O6 0.142656 0.451165 0.949189
O O7 0.429046 0.113080 0.235563
O O8 0.294823 0.320069 0.294377
O O9 0.185096 0.023494 0.247019
O O10 0.008966 0.653310 0.591904
O O11 0.140061 0.891318 0.716445
O O12 0.454534 0.591912 0.367150
O O13 0.162980 0.509937 0.357494
#
# Coordination Sequence:
#
# PCOD9250443 Si02
#       7
#     2   4   4   4   4   4   4
#     4  10  24  42  72 100 130 182 230 288 344 420
#     4  11  23  40  71 101 134 180 229 286 333 410
#     4  11  23  41  68 104 133 186 229 277 352 413
#     4  11  23  43  69 101 138 179 233 286 341 408
#     4  11  21  42  70 101 136 176 235 275 344 413
#     4  12  25  43  70 103 142 183 230 289 350 413
#     4  11  25  45  70  98 143 181 232 290 348 415
#
# _framework density 23.679644
#
# number of rings (size 3 to 8) (size 9 to 14) (size 15 to 20)
#    0.000    0.923    4.615    1.846    4.308    0.615 
#    0.000    3.077    0.000    0.000    0.000    0.000 
#    0.000    0.000    0.000    0.000    0.000    0.000 
#
# Total GULP energy -145123.725970 kJ/mol
# GULP energy per Si atom -5581.681768 kJ/mol
# Density = 2.362575 g / cm^3
# Si number density = 23.679644 Si / 1000 Ang^3
#
#
#
# Elastic Constant Matrix: (Units=GPa)
#
#
# Indices 1 2 3 4 5 6 
#
# 1 180.6235 34.6598 46.3754 0.0000 24.3942 0.0000
# 2 34.6598 75.4140 21.7778 0.0000 5.5337 0.0000
# 3 46.3754 21.7778 100.6357 0.0000 31.6295 0.0000
# 4 0.0000 0.0000 0.0000 30.5754 0.0000 9.5777
# 5 24.3942 5.5337 31.6295 0.0000 30.1882 0.0000
# 6 0.0000 0.0000 0.0000 9.5777 0.0000 15.5959
#
#
#
# Elastic Compliance Matrix: (Units=1/GPa)
#
#
# Indices 1 2 3 4 5 6 
#
# 1 0.006875 -0.002459 -0.001538 0.000000 -0.003493 0.000000
# 2 -0.002459 0.015041 -0.002802 0.000000 0.002166 0.000000
# 3 -0.001538 -0.002802 0.015954 0.000000 -0.014959 0.000000
# 4 0.000000 0.000000 0.000000 0.040496 0.000000 -0.024869
# 5 -0.003493 0.002166 -0.014959 0.000000 0.051224 0.000000
# 6 0.000000 0.000000 0.000000 -0.024869 0.000000 0.079392
#
#
# Mechanical properties :
#
#
# Convention : Reuss Voigt Hill
#
# Bulk Modulus (GPa) = 41.20374 62.47769 51.84071
# Shear Modulus (GPa) = 21.67589 32.19591 26.93590
#
# Velocity S-wave (km/s) = 3.02881 3.69134 3.37636
# Velocity P-wave (km/s) = 5.44700 6.67906 6.09424
#
# Compressibility (1/GPa) = 0.02426964
#
# Stress axis : x y z
#
# Youngs Moduli (GPa) = 145.45560 66.48629 62.68201
#
# Poissons Ratio (x) = 0.16350 0.09641
# Poissons Ratio (y) = 0.35771 0.17567
# Poissons Ratio (z) = 0.22372 0.18633
#
# Static dielectric constant tensor:
#      x y z
#    x 3.493050 0.000000 -1.990330 
#    y 0.000000 3.217880 0.000000 
#    z -1.990330 0.000000 4.406600 
# 
# From -- ./inp_files/64754.got.cif
#   From: 2010.05.17/outbox.cif.g08.bks.cpg/sg14_33_cif.got.tgz:64754.got - 2010.06.03 17:49:19.
