data_PCOD9250802
_publ_section_title
;
Structure prediction by ZEFSAII (Michael W. Deem and Ramdas Pophale) SiO2 
 PCOD9250802
Probable space group: P 21/C
;
_chemical_formula_sum "Si O2"
_cell_formula_units_Z 16
_cell_length_a 24.253575
_cell_length_b 5.271415
_cell_length_c 23.799613
_cell_angle_alpha 90.000000
_cell_angle_beta 11.146346
_cell_angle_gamma 90.000000
_cell_volume 588.220162
_symmetry_space_group_name_H-M "P 21/C"
_symmetry_group_IT_number 14
_symmetry_cell_setting 'monoclinic'
loop_
_space_group_symop_operation_xyz
x,y,z
-x,1/2+y,1/2-z
-x,-y,-z
x,1/2-y,1/2+z
loop_
_atom_site_type_symbol
_atom_site_label
_atom_site_fract_x
_atom_site_fract_y
_atom_site_fract_z
Si Si1 0.891303 0.059301 0.704795
Si Si2 0.187290 0.493891 0.555639
Si Si3 0.420734 0.246971 0.614272
Si Si4 0.432065 0.817280 0.223535
O O1 0.091213 0.198164 0.457944
O O2 0.150030 0.962823 0.485144
O O3 0.621950 0.248853 0.968454
O O4 0.677491 0.816789 0.930655
O O5 0.419137 0.457634 0.372527
O O6 0.994190 0.245088 0.748845
O O7 0.328077 0.554908 0.354946
O O8 0.500000 0.500000 0.500000
O O9 0.500000 0.000000 0.500000
#
# Coordination Sequence:
#
# PCOD9250802 Si02
#       4
#     4   4   4   4
#     4  10  24  46  74 108 142 184 242 306 344 452
#     4  12  26  50  74 104 154 206 246 300 364 430
#     4  11  24  50  73 104 140 184 231 298 382 431
#     4  11  24  48  69 112 146 194 249 290 364 415
#
# _framework density 27.200697999999999
#
# number of rings (size 3 to 8) (size 9 to 14) (size 15 to 20)
#    0.000    1.000    2.500    3.000    0.000    0.000 
#   18.000    0.000    0.000    0.000    0.000    0.000 
#    0.000    0.000    0.000    0.000    0.000    0.000 
#
# Total GULP energy -89112.131620 kJ/mol
# GULP energy per Si atom -5569.508226 kJ/mol
# Density = 2.713879 g / cm^3
# Si number density = 27.200698 Si / 1000 Ang^3
#
#
#
# Elastic Constant Matrix: (Units=GPa)
#
#
# Indices 1 2 3 4 5 6 
#
# 1 66.1870 44.2149 47.9104 0.0000 -13.1601 0.0000
# 2 44.2149 186.3780 75.3467 0.0000 12.3336 0.0000
# 3 47.9104 75.3467 234.1370 0.0000 9.4207 0.0000
# 4 0.0000 0.0000 0.0000 37.3706 0.0000 16.9182
# 5 -13.1601 12.3336 9.4207 0.0000 79.4023 0.0000
# 6 0.0000 0.0000 0.0000 16.9182 0.0000 48.4692
#
#
#
# Elastic Compliance Matrix: (Units=1/GPa)
#
#
# Indices 1 2 3 4 5 6 
#
# 1 0.020965 -0.003980 -0.003189 0.000000 0.004471 0.000000
# 2 -0.003980 0.006965 -0.001363 0.000000 -0.001580 0.000000
# 3 -0.003189 -0.001363 0.005401 0.000000 -0.000958 0.000000
# 4 0.000000 0.000000 0.000000 0.031781 0.000000 -0.011093
# 5 0.004471 -0.001580 -0.000958 0.000000 0.013694 0.000000
# 6 0.000000 0.000000 0.000000 -0.011093 0.000000 0.024504
#
#
# Mechanical properties :
#
#
# Convention : Reuss Voigt Hill
#
# Bulk Modulus (GPa) = 61.47849 91.29401 76.38625
# Shear Modulus (GPa) = 39.74628 54.33042 47.03835
#
# Velocity S-wave (km/s) = 3.82674 4.47407 4.16300
# Velocity P-wave (km/s) = 6.49432 7.76696 7.15897
#
# Compressibility (1/GPa) = 0.01626585
#
# Stress axis : x y z
#
# Youngs Moduli (GPa) = 47.69824 143.56552 185.15546
#
# Poissons Ratio (x) = 0.57143 0.59047
# Poissons Ratio (y) = 0.18985 0.25246
# Poissons Ratio (z) = 0.15211 0.19575
#
# Static dielectric constant tensor:
#      x y z
#    x 2.419710 0.000000 0.033640 
#    y 0.000000 2.148550 0.000000 
#    z 0.033640 0.000000 2.092240 
# 
# From -- ./inp_files/78224.got.cif
#   From: 2010.05.17/outbox.cif.g08.bks.cpg/sg14_40_cif.got.tgz:78224.got - 2010.06.03 17:49:19.
