data_PCOD9250135
_publ_section_title
;
Structure prediction by ZEFSAII (Michael W. Deem and Ramdas Pophale) SiO2 
 PCOD9250135
Probable space group: P 21/C
;
_chemical_formula_sum "Si O2"
_cell_formula_units_Z 30
_cell_length_a 14.966626
_cell_length_b 8.640208
_cell_length_c 11.452561
_cell_angle_alpha 90.000000
_cell_angle_beta 118.732621
_cell_angle_gamma 90.000000
_cell_volume 1298.635354
_symmetry_space_group_name_H-M "P 21/C"
_symmetry_group_IT_number 14
_symmetry_cell_setting 'monoclinic'
loop_
_space_group_symop_operation_xyz
x,y,z
-x,1/2+y,1/2-z
-x,-y,-z
x,1/2-y,1/2+z
loop_
_atom_site_type_symbol
_atom_site_label
_atom_site_fract_x
_atom_site_fract_y
_atom_site_fract_z
Si Si1 0.717891 0.284375 0.957955
Si Si2 0.434448 0.302916 0.603922
Si Si3 0.898991 0.066985 0.086524
Si Si4 0.388114 0.460655 0.232644
Si Si5 0.132797 0.430427 0.684960
Si Si6 0.760394 0.878369 0.159340
Si Si7 0.500000 0.000000 0.500000
Si Si8 0.689718 0.349791 0.185587
O O1 0.669733 0.456626 0.912979
O O2 0.679702 0.214271 0.810375
O O3 0.675818 0.243143 0.060635
O O4 0.835071 0.226726 0.029748
O O5 0.512943 0.442460 0.668806
O O6 0.424638 0.207529 0.717334
O O7 0.322613 0.354418 0.494726
O O8 0.477705 0.177003 0.539839
O O9 0.850598 0.984778 0.167923
O O10 0.877287 0.956060 0.960870
O O11 0.019817 0.082796 0.166313
O O12 0.303647 0.454052 0.277607
O O13 0.193594 0.280333 0.763384
O O14 0.197106 0.581158 0.762561
O O15 0.612090 0.008842 0.628713
#
# Coordination Sequence:
#
# PCOD9250135 Si02
#       8
#     4   4   4   4   4   4   2   4
#     4  11  23  44  69 106 139 189 240 305 362 450
#     4  12  28  44  72 103 151 195 245 306 378 452
#     4  10  25  43  73 100 145 192 246 309 381 444
#     4  12  27  44  72 109 144 197 248 308 376 454
#     4  10  23  47  68 104 141 196 239 311 381 438
#     4  12  25  46  72 107 141 190 253 312 363 463
#     4  12  22  42  68 104 142 204 228 304 370 444
#     4  11  23  43  73 100 148 185 248 294 379 436
#
# _framework density 23.101174
#
# number of rings (size 3 to 8) (size 9 to 14) (size 15 to 20)
#    0.000    0.800    4.000    2.000    5.600    0.000 
#    2.400    0.667    0.000    0.000    0.000    0.000 
#    0.000    0.000    0.000    0.000    0.000    0.000 
#
# Total GULP energy -167159.138651 kJ/mol
# GULP energy per Si atom -5571.971288 kJ/mol
# Density = 2.304860 g / cm^3
# Si number density = 23.101174 Si / 1000 Ang^3
#
#
#
# Elastic Constant Matrix: (Units=GPa)
#
#
# Indices 1 2 3 4 5 6 
#
# 1 80.1600 12.1364 43.6030 0.0000 4.3141 0.0000
# 2 12.1364 54.0316 36.5442 0.0000 -3.9329 0.0000
# 3 43.6030 36.5442 95.4539 0.0000 -5.7854 0.0000
# 4 0.0000 0.0000 0.0000 24.8507 0.0000 -5.9630
# 5 4.3141 -3.9329 -5.7854 0.0000 42.9469 0.0000
# 6 0.0000 0.0000 0.0000 -5.9630 0.0000 35.8727
#
#
#
# Elastic Compliance Matrix: (Units=1/GPa)
#
#
# Indices 1 2 3 4 5 6 
#
# 1 0.017051 0.001824 -0.008651 0.000000 -0.002711 0.000000
# 2 0.001824 0.025213 -0.010442 0.000000 0.000719 0.000000
# 3 -0.008651 -0.010442 0.018572 0.000000 0.002415 0.000000
# 4 0.000000 0.000000 0.000000 0.041912 0.000000 0.006967
# 5 -0.002711 0.000719 0.002415 0.000000 0.023948 0.000000
# 6 0.000000 0.000000 0.000000 0.006967 0.000000 0.029034
#
#
# Mechanical properties :
#
#
# Convention : Reuss Voigt Hill
#
# Bulk Modulus (GPa) = 38.02746 46.02363 42.02555
# Shear Modulus (GPa) = 25.12116 29.89153 27.50635
#
# Velocity S-wave (km/s) = 3.30121 3.60104 3.45438
# Velocity P-wave (km/s) = 5.57025 6.10376 5.84310
#
# Compressibility (1/GPa) = 0.02629679
#
# Stress axis : x y z
#
# Youngs Moduli (GPa) = 58.64858 39.66214 53.84339
#
# Poissons Ratio (x) = -0.07235 0.46582
# Poissons Ratio (y) = -0.10698 0.56225
# Poissons Ratio (z) = 0.50739 0.41417
#
# Static dielectric constant tensor:
#      x y z
#    x 1.851000 0.000000 -0.043550 
#    y 0.000000 2.078580 0.000000 
#    z -0.043550 0.000000 1.949570 
# 
# From -- ./inp_files/31933.got.cif
#   From: 2010.05.17/outbox.cif.g08.bks.cpg/sg14_16_cif.got.tgz:31933.got - 2010.06.03 17:49:19.
