data_PCOD9250177
_publ_section_title
;
Structure prediction by ZEFSAII (Michael W. Deem and Ramdas Pophale) SiO2 
 PCOD9250177
Probable space group: P 21/C
;
_chemical_formula_sum "Si O2"
_cell_formula_units_Z 26
_cell_length_a 13.179240
_cell_length_b 8.260040
_cell_length_c 8.695467
_cell_angle_alpha 90.000000
_cell_angle_beta 88.728127
_cell_angle_gamma 90.000000
_cell_volume 946.364447
_symmetry_space_group_name_H-M "P 21/C"
_symmetry_group_IT_number 14
_symmetry_cell_setting 'monoclinic'
loop_
_space_group_symop_operation_xyz
x,y,z
-x,1/2+y,1/2-z
-x,-y,-z
x,1/2-y,1/2+z
loop_
_atom_site_type_symbol
_atom_site_label
_atom_site_fract_x
_atom_site_fract_y
_atom_site_fract_z
Si Si1 0.620664 0.312906 0.596783
Si Si2 0.000922 0.209355 0.765267
Si Si3 0.135145 0.095946 0.021497
Si Si4 0.000000 0.500000 0.000000
Si Si5 0.741514 0.117917 0.795708
Si Si6 0.682842 0.827601 0.577360
Si Si7 0.442962 0.388555 0.209679
O O1 0.723680 0.271038 0.687173
O O2 0.650380 0.359813 0.423881
O O3 0.562217 0.454755 0.684969
O O4 0.546533 0.158375 0.619534
O O5 0.089429 0.278575 0.646795
O O6 0.941812 0.108124 0.637358
O O7 0.057819 0.091841 0.883901
O O8 0.969077 0.362805 0.868843
O O9 0.164146 0.926533 0.098159
O O10 0.236993 0.184202 0.957439
O O11 0.729446 0.962375 0.686495
O O12 0.645084 0.894310 0.415920
O O13 0.589076 0.751137 0.670644
#
# Coordination Sequence:
#
# PCOD9250177 Si02
#       7
#     4   4   4   2   4   4   4
#     4  12  27  44  62  97 136 186 248 317 380 428
#     4  10  23  47  81 113 156 189 243 275 370 429
#     4  11  21  43  75 104 137 199 231 286 349 442
#     4  10  24  46  82 122 154 196 234 300 332 458
#     4  12  25  45  65  98 138 182 241 304 358 432
#     4  12  22  41  72  94 131 182 244 297 356 433
#     4  12  24  41  65  91 131 185 243 311 372 427
#
# _framework density 27.473562999999999
#
# number of rings (size 3 to 8) (size 9 to 14) (size 15 to 20)
#    0.000    0.615    4.615    2.769    0.000    6.154 
#    0.000    6.154    0.000    0.000    0.000    0.000 
#    0.000    0.000    0.000    0.000    0.000    0.000 
#
# Total GULP energy -145174.444053 kJ/mol
# GULP energy per Si atom -5583.632464 kJ/mol
# Density = 2.741103 g / cm^3
# Si number density = 27.473563 Si / 1000 Ang^3
#
#
#
# Elastic Constant Matrix: (Units=GPa)
#
#
# Indices 1 2 3 4 5 6 
#
# 1 68.4272 -8.9951 18.8943 0.0000 5.4706 0.0000
# 2 -8.9951 72.1206 39.4055 0.0000 6.0108 0.0000
# 3 18.8943 39.4055 211.2467 0.0000 -0.6920 0.0000
# 4 0.0000 0.0000 0.0000 66.8951 0.0000 -1.0070
# 5 5.4706 6.0108 -0.6920 0.0000 43.5888 0.0000
# 6 0.0000 0.0000 0.0000 -1.0070 0.0000 41.0510
#
#
#
# Elastic Compliance Matrix: (Units=1/GPa)
#
#
# Indices 1 2 3 4 5 6 
#
# 1 0.015806 0.003289 -0.002035 0.000000 -0.002470 0.000000
# 2 0.003289 0.016333 -0.003350 0.000000 -0.002718 0.000000
# 3 -0.002035 -0.003350 0.005543 0.000000 0.000805 0.000000
# 4 0.000000 0.000000 0.000000 0.014954 0.000000 0.000367
# 5 -0.002470 -0.002718 0.000805 0.000000 0.023639 0.000000
# 6 0.000000 0.000000 0.000000 0.000367 0.000000 0.024369
#
#
# Mechanical properties :
#
#
# Convention : Reuss Voigt Hill
#
# Bulk Modulus (GPa) = 29.85946 50.04490 39.95218
# Shear Modulus (GPa) = 43.10359 50.47297 46.78828
#
# Velocity S-wave (km/s) = 3.96525 4.29085 4.13125
# Velocity P-wave (km/s) = 5.64414 6.54245 6.10983
#
# Compressibility (1/GPa) = 0.03349023
#
# Stress axis : x y z
#
# Youngs Moduli (GPa) = 63.26748 61.22680 180.39642
#
# Poissons Ratio (x) = -0.20139 0.36717
# Poissons Ratio (y) = -0.20810 0.60429
# Poissons Ratio (z) = 0.12877 0.20510
#
# Static dielectric constant tensor:
#      x y z
#    x 2.346620 0.000000 0.027310 
#    y 0.000000 2.155490 0.000000 
#    z 0.027310 0.000000 2.056540 
# 
# From -- ./inp_files/17571.got.cif
#   From: 2010.05.17/outbox.cif.g08.bks.cpg/sg14_9_cif.got.tgz:17571.got - 2010.06.03 17:49:19.
