data_PCOD9250991
_publ_section_title
;
Structure prediction by ZEFSAII (Michael W. Deem and Ramdas Pophale) SiO2 
 PCOD9250991
Probable space group: P 21/C
;
_chemical_formula_sum "Si O2"
_cell_formula_units_Z 24
_cell_length_a 22.959714
_cell_length_b 5.744045
_cell_length_c 9.131772
_cell_angle_alpha 90.000000
_cell_angle_beta 114.896118
_cell_angle_gamma 90.000000
_cell_volume 1092.399232
_symmetry_space_group_name_H-M "P 21/C"
_symmetry_group_IT_number 14
_symmetry_cell_setting 'monoclinic'
loop_
_space_group_symop_operation_xyz
x,y,z
-x,1/2+y,1/2-z
-x,-y,-z
x,1/2-y,1/2+z
loop_
_atom_site_type_symbol
_atom_site_label
_atom_site_fract_x
_atom_site_fract_y
_atom_site_fract_z
Si Si1 0.582419 0.925891 0.477037
Si Si2 0.020190 0.046004 0.692782
Si Si3 0.767911 0.227961 0.353970
Si Si4 0.279679 0.064167 0.446487
Si Si5 0.499620 0.297529 0.382186
Si Si6 0.170730 0.048364 0.832588
O O1 0.572393 0.203018 0.452177
O O2 0.651085 0.827070 0.510119
O O3 0.528203 0.852205 0.304245
O O4 0.555634 0.866849 0.606855
O O5 0.008541 0.792882 0.767042
O O6 0.096296 0.097579 0.773798
O O7 0.000000 0.000000 0.500000
O O8 0.731368 0.387984 0.199390
O O9 0.805908 0.380796 0.512272
O O10 0.720837 0.067948 0.399385
O O11 0.816712 0.076133 0.309303
O O12 0.218901 0.234008 0.385549
O O13 0.500000 0.500000 0.500000
#
# Coordination Sequence:
#
# PCOD9250991 Si02
#       6
#     4   4   4   4   4   4
#     4  11  26  42  68  96 132 181 230 285 354 419
#     4  12  29  49  81 116 154 207 256 314 382 463
#     4  10  25  44  67 103 137 188 226 309 348 436
#     4  11  26  42  71 100 141 185 238 294 361 431
#     4  11  24  44  64  94 133 175 223 288 341 421
#     4  11  25  46  73 101 147 181 243 294 365 425
#
# _framework density 21.969989000000002
#
# number of rings (size 3 to 8) (size 9 to 14) (size 15 to 20)
#    0.000    1.000    1.667    2.500   16.333    1.333 
#    0.000    0.000    0.000    0.000    0.000    0.000 
#    0.000    0.000    0.000    0.000    0.000    0.000 
#
# Total GULP energy -133857.264180 kJ/mol
# GULP energy per Si atom -5577.386007 kJ/mol
# Density = 2.191998 g / cm^3
# Si number density = 21.969989 Si / 1000 Ang^3
#
#
#
# Elastic Constant Matrix: (Units=GPa)
#
#
# Indices 1 2 3 4 5 6 
#
# 1 125.9224 41.8849 40.1791 0.0000 -1.8831 0.0000
# 2 41.8849 90.9428 39.9677 0.0000 -11.6585 0.0000
# 3 40.1791 39.9677 99.4637 0.0000 -32.4468 0.0000
# 4 0.0000 0.0000 0.0000 23.0387 0.0000 -5.7651
# 5 -1.8831 -11.6585 -32.4468 0.0000 34.2111 0.0000
# 6 0.0000 0.0000 0.0000 -5.7651 0.0000 32.6916
#
#
#
# Elastic Compliance Matrix: (Units=1/GPa)
#
#
# Indices 1 2 3 4 5 6 
#
# 1 0.010422 -0.003495 -0.004354 0.000000 -0.004747 0.000000
# 2 -0.003495 0.014541 -0.004166 0.000000 0.000811 0.000000
# 3 -0.004354 -0.004166 0.018745 0.000000 0.016119 0.000000
# 4 0.000000 0.000000 0.000000 0.045409 0.000000 0.008008
# 5 -0.004747 0.000811 0.016119 0.000000 0.044533 0.000000
# 6 0.000000 0.000000 0.000000 0.008008 0.000000 0.032001
#
#
# Mechanical properties :
#
#
# Convention : Reuss Voigt Hill
#
# Bulk Modulus (GPa) = 50.82127 62.26582 56.54354
# Shear Modulus (GPa) = 25.47868 30.94142 28.21005
#
# Velocity S-wave (km/s) = 3.40914 3.75687 3.58722
# Velocity P-wave (km/s) = 6.21921 6.87180 6.55363
#
# Compressibility (1/GPa) = 0.01967680
#
# Stress axis : x y z
#
# Youngs Moduli (GPa) = 95.94787 68.77254 53.34632
#
# Poissons Ratio (x) = 0.24036 0.23229
# Poissons Ratio (y) = 0.33534 0.22226
# Poissons Ratio (z) = 0.41779 0.28654
#
# Static dielectric constant tensor:
#      x y z
#    x 1.778680 0.000000 0.001430 
#    y 0.000000 1.734360 0.000000 
#    z 0.001430 0.000000 1.765680 
# 
# From -- ./inp_files/19277.got.cif
#   From: 2010.05.17/outbox.cif.g08.bks.cpg/sg14_10_cif.got.tgz:19277.got - 2010.06.03 17:49:19.
