data_PCOD9250973
_publ_section_title
;
Structure prediction by ZEFSAII (Michael W. Deem and Ramdas Pophale) SiO2 
 PCOD9250973
Probable space group: P 21/C
;
_chemical_formula_sum "Si O2"
_cell_formula_units_Z 24
_cell_length_a 23.942992
_cell_length_b 5.387201
_cell_length_c 16.545156
_cell_angle_alpha 90.000000
_cell_angle_beta 152.427576
_cell_angle_gamma 90.000000
_cell_volume 987.804482
_symmetry_space_group_name_H-M "P 21/C"
_symmetry_group_IT_number 14
_symmetry_cell_setting 'monoclinic'
loop_
_space_group_symop_operation_xyz
x,y,z
-x,1/2+y,1/2-z
-x,-y,-z
x,1/2-y,1/2+z
loop_
_atom_site_type_symbol
_atom_site_label
_atom_site_fract_x
_atom_site_fract_y
_atom_site_fract_z
Si Si1 0.063615 0.918740 0.490922
Si Si2 0.204942 0.991691 0.866547
Si Si3 0.205458 0.067016 0.178666
Si Si4 0.606199 0.141819 0.464544
Si Si5 0.633675 0.879911 0.333723
Si Si6 0.195707 0.739789 0.018690
O O1 0.142309 0.168371 0.599212
O O2 0.117443 0.660054 0.594194
O O3 0.078100 0.865544 0.412427
O O4 0.924979 0.947449 0.335879
O O5 0.264020 0.218200 0.990619
O O6 0.304483 0.875234 0.935452
O O7 0.175947 0.795021 0.900070
O O8 0.320458 0.046976 0.384675
O O9 0.231875 0.974718 0.120870
O O10 0.478844 0.216777 0.338384
O O11 0.583090 0.043460 0.344024
O O12 0.693840 0.046447 0.342086
#
# Coordination Sequence:
#
# PCOD9250973 Si02
#       6
#     4   4   4   4   4   4
#     4  10  25  43  69 100 139 169 231 269 353 395
#     4  11  24  42  69  98 134 182 224 282 331 412
#     4  10  25  44  67 106 135 179 214 287 339 403
#     4  11  25  43  70  95 139 176 232 274 336 409
#     4  11  23  44  67 100 131 186 232 278 335 404
#     4   9  24  40  69 100 134 176 224 278 339 395
#
# _framework density 24.296305
#
# number of rings (size 3 to 8) (size 9 to 14) (size 15 to 20)
#    1.000    0.667    1.667    1.000   11.667    2.000 
#    0.000    1.667    0.000    0.000    0.000    0.000 
#    0.000    0.000    0.000    0.000    0.000    0.000 
#
# Total GULP energy -134123.176840 kJ/mol
# GULP energy per Si atom -5588.465702 kJ/mol
# Density = 2.424101 g / cm^3
# Si number density = 24.296305 Si / 1000 Ang^3
#
#
#
# Elastic Constant Matrix: (Units=GPa)
#
#
# Indices 1 2 3 4 5 6 
#
# 1 48.3098 10.5642 11.9415 0.0000 1.3280 0.0000
# 2 10.5642 93.8095 23.7909 0.0000 6.1976 0.0000
# 3 11.9415 23.7909 117.9766 0.0000 8.8682 0.0000
# 4 0.0000 0.0000 0.0000 32.1174 0.0000 -2.6865
# 5 1.3280 6.1976 8.8682 0.0000 26.0955 0.0000
# 6 0.0000 0.0000 0.0000 -2.6865 0.0000 30.8096
#
#
#
# Elastic Compliance Matrix: (Units=1/GPa)
#
#
# Indices 1 2 3 4 5 6 
#
# 1 0.021573 -0.001976 -0.001784 0.000000 -0.000023 0.000000
# 2 -0.001976 0.011513 -0.001974 0.000000 -0.001963 0.000000
# 3 -0.001784 -0.001974 0.009249 0.000000 -0.002584 0.000000
# 4 0.000000 0.000000 0.000000 0.031365 0.000000 0.002735
# 5 -0.000023 -0.001963 -0.002584 0.000000 0.039666 0.000000
# 6 0.000000 0.000000 0.000000 0.002735 0.000000 0.032696
#
#
# Mechanical properties :
#
#
# Convention : Reuss Voigt Hill
#
# Bulk Modulus (GPa) = 32.39547 39.18766 35.79156
# Shear Modulus (GPa) = 29.79427 32.05779 30.92603
#
# Velocity S-wave (km/s) = 3.50564 3.63637 3.57160
# Velocity P-wave (km/s) = 5.45421 5.81334 5.63664
#
# Compressibility (1/GPa) = 0.03086852
#
# Stress axis : x y z
#
# Youngs Moduli (GPa) = 46.35375 86.86059 108.11878
#
# Poissons Ratio (x) = 0.17160 0.19283
# Poissons Ratio (y) = 0.09158 0.21344
# Poissons Ratio (z) = 0.08267 0.17147
#
# Static dielectric constant tensor:
#      x y z
#    x 2.012550 0.000000 -0.045700 
#    y 0.000000 1.982770 0.000000 
#    z -0.045700 0.000000 1.933100 
# 
# From -- ./inp_files/70639.got.cif
#   From: 2010.05.17/outbox.cif.g08.bks.cpg/sg14_36_cif.got.tgz:70639.got - 2010.06.03 17:49:19.
