data_PCOD9250945
_publ_section_title
;
Structure prediction by ZEFSAII (Michael W. Deem and Ramdas Pophale) SiO2 
 PCOD9250945
Probable space group: P 21/C
;
_chemical_formula_sum "Si O2"
_cell_formula_units_Z 32
_cell_length_a 12.750572
_cell_length_b 9.234404
_cell_length_c 14.865057
_cell_angle_alpha 90.000000
_cell_angle_beta 116.819808
_cell_angle_gamma 90.000000
_cell_volume 1561.993511
_symmetry_space_group_name_H-M "P 21/C"
_symmetry_group_IT_number 14
_symmetry_cell_setting 'monoclinic'
loop_
_space_group_symop_operation_xyz
x,y,z
-x,1/2+y,1/2-z
-x,-y,-z
x,1/2-y,1/2+z
loop_
_atom_site_type_symbol
_atom_site_label
_atom_site_fract_x
_atom_site_fract_y
_atom_site_fract_z
Si Si1 0.088930 0.175496 0.215080
Si Si2 0.331767 0.700533 0.779125
Si Si3 0.495162 0.325232 0.293206
Si Si4 0.671201 0.837411 0.446910
Si Si5 0.941964 0.329499 0.314717
Si Si6 0.355422 0.386635 0.866608
Si Si7 0.067429 0.346464 0.018902
Si Si8 0.522046 0.907747 0.922141
O O1 0.223020 0.174073 0.302796
O O2 0.081833 0.265741 0.119900
O O3 0.007450 0.255827 0.256018
O O4 0.054782 0.005309 0.188881
O O5 0.382198 0.732888 0.699287
O O6 0.194196 0.719226 0.737616
O O7 0.359220 0.534560 0.812795
O O8 0.414349 0.796339 0.874120
O O9 0.406439 0.339261 0.173999
O O10 0.442636 0.225909 0.351880
O O11 0.515985 0.485393 0.336515
O O12 0.628523 0.919254 0.520689
O O13 0.803480 0.872920 0.473012
O O14 0.646563 0.672919 0.470261
O O15 0.000507 0.263216 0.426407
O O16 0.000000 0.500000 0.000000
O O17 0.500000 0.000000 0.000000
#
# Coordination Sequence:
#
# PCOD9250945 Si02
#       8
#     4   4   4   4   4   4   4   4
#     4  11  24  44  71 101 140 185 231 295 353 415
#     4  10  25  42  66 100 139 175 228 282 349 414
#     4  11  23  44  71  98 137 178 228 284 350 418
#     4  11  24  44  72  98 139 180 232 288 351 419
#     4  11  25  46  68 102 143 179 237 290 355 426
#     4  11  22  46  71  96 138 182 224 289 349 417
#     4  12  26  44  71 104 136 192 242 287 362 425
#     4  11  24  44  67 102 133 182 230 283 352 416
#
# _framework density 20.486640000000001
#
# number of rings (size 3 to 8) (size 9 to 14) (size 15 to 20)
#    0.000    1.000    3.750    2.625    5.250    4.000 
#    6.750    0.000    0.000    0.000    0.000    0.000 
#    0.000    0.000    0.000    0.000    0.000    0.000 
#
# Total GULP energy -178751.369484 kJ/mol
# GULP energy per Si atom -5585.980296 kJ/mol
# Density = 2.044001 g / cm^3
# Si number density = 20.486640 Si / 1000 Ang^3
#
#
#
# Elastic Constant Matrix: (Units=GPa)
#
#
# Indices 1 2 3 4 5 6 
#
# 1 152.7945 44.0929 27.9299 0.0000 -19.9882 0.0000
# 2 44.0929 67.1518 9.0856 0.0000 -9.0601 0.0000
# 3 27.9299 9.0856 77.3155 0.0000 -21.9868 0.0000
# 4 0.0000 0.0000 0.0000 34.1129 0.0000 -3.3780
# 5 -19.9882 -9.0601 -21.9868 0.0000 27.2230 0.0000
# 6 0.0000 0.0000 0.0000 -3.3780 0.0000 37.4131
#
#
#
# Elastic Compliance Matrix: (Units=1/GPa)
#
#
# Indices 1 2 3 4 5 6 
#
# 1 0.008747 -0.005063 -0.001581 0.000000 0.003461 0.000000
# 2 -0.005063 0.018535 0.000452 0.000000 0.002816 0.000000
# 3 -0.001581 0.000452 0.017090 0.000000 0.012792 0.000000
# 4 0.000000 0.000000 0.000000 0.029579 0.000000 0.002671
# 5 0.003461 0.002816 0.012792 0.000000 0.050544 0.000000
# 6 0.000000 0.000000 0.000000 0.002671 0.000000 0.026970
#
#
# Mechanical properties :
#
#
# Convention : Reuss Voigt Hill
#
# Bulk Modulus (GPa) = 31.26161 51.05316 41.15739
# Shear Modulus (GPa) = 28.65144 34.16004 31.40574
#
# Velocity S-wave (km/s) = 3.74377 4.08785 3.91958
# Velocity P-wave (km/s) = 5.82927 6.87423 6.37320
#
# Compressibility (1/GPa) = 0.03198811
#
# Stress axis : x y z
#
# Youngs Moduli (GPa) = 114.31843 53.95247 58.51429
#
# Poissons Ratio (x) = 0.27316 0.09250
# Poissons Ratio (y) = 0.57878 -0.02643
# Poissons Ratio (z) = 0.18071 -0.02437
#
# Static dielectric constant tensor:
#      x y z
#    x 1.743530 0.000000 -0.026370 
#    y 0.000000 1.827270 0.000000 
#    z -0.026370 0.000000 1.770050 
# 
# From -- ./inp_files/43801.got.cif
#   From: 2010.05.17/outbox.cif.g08.bks.cpg/sg14_22_cif.got.tgz:43801.got - 2010.06.03 17:49:19.
