data_PCOD9250186
_publ_section_title
;
Structure prediction by ZEFSAII (Michael W. Deem and Ramdas Pophale) SiO2 
 PCOD9250186
Probable space group: P 21/C
;
_chemical_formula_sum "Si O2"
_cell_formula_units_Z 20
_cell_length_a 10.966743
_cell_length_b 5.101911
_cell_length_c 17.860473
_cell_angle_alpha 90.000000
_cell_angle_beta 126.511645
_cell_angle_gamma 90.000000
_cell_volume 803.187415
_symmetry_space_group_name_H-M "P 21/C"
_symmetry_group_IT_number 14
_symmetry_cell_setting 'monoclinic'
loop_
_space_group_symop_operation_xyz
x,y,z
-x,1/2+y,1/2-z
-x,-y,-z
x,1/2-y,1/2+z
loop_
_atom_site_type_symbol
_atom_site_label
_atom_site_fract_x
_atom_site_fract_y
_atom_site_fract_z
Si Si1 0.460498 0.963053 0.121637
Si Si2 0.031080 0.381267 0.631284
Si Si3 0.343017 0.980278 0.318248
Si Si4 0.175218 0.242751 0.543754
Si Si5 0.731516 0.146299 0.550614
O O1 0.550889 0.704446 0.177909
O O2 0.579510 0.198825 0.163093
O O3 0.313972 0.059938 0.114054
O O4 0.379263 0.882119 0.013530
O O5 0.173578 0.494593 0.726256
O O6 0.094964 0.176532 0.592417
O O7 0.943868 0.601199 0.551285
O O8 0.898539 0.253070 0.631848
O O9 0.332087 0.018281 0.404157
O O10 0.245220 0.018270 0.517287
#
# Coordination Sequence:
#
# PCOD9250186 Si02
#       5
#     4   4   4   4   4
#     4  11  25  46  71 104 143 188 228 296 358 426
#     4  10  26  43  70 105 140 188 238 295 348 424
#     4  12  27  42  74 109 142 176 246 298 349 414
#     4  10  23  48  70  97 144 195 233 282 364 428
#     4  11  24  44  76  99 148 190 236 287 365 427
#
# _framework density 24.900789
#
# number of rings (size 3 to 8) (size 9 to 14) (size 15 to 20)
#    0.000    1.200    2.000    1.800   11.200    1.600 
#    0.000    0.000    0.000    0.000    0.000    0.000 
#    0.000    0.000    0.000    0.000    0.000    0.000 
#
# Total GULP energy -111944.337541 kJ/mol
# GULP energy per Si atom -5597.216877 kJ/mol
# Density = 2.484411 g / cm^3
# Si number density = 24.900789 Si / 1000 Ang^3
#
#
#
# Elastic Constant Matrix: (Units=GPa)
#
#
# Indices 1 2 3 4 5 6 
#
# 1 44.2328 19.1836 38.7985 0.0000 7.6060 0.0000
# 2 19.1836 118.2845 42.7603 0.0000 13.2007 0.0000
# 3 38.7985 42.7603 153.3960 0.0000 43.6790 0.0000
# 4 0.0000 0.0000 0.0000 25.7338 0.0000 14.0873
# 5 7.6060 13.2007 43.6790 0.0000 41.4797 0.0000
# 6 0.0000 0.0000 0.0000 14.0873 0.0000 39.0907
#
#
#
# Elastic Compliance Matrix: (Units=1/GPa)
#
#
# Indices 1 2 3 4 5 6 
#
# 1 0.030000 -0.002395 -0.007957 0.000000 0.003640 0.000000
# 2 -0.002395 0.009596 -0.001892 0.000000 -0.000622 0.000000
# 3 -0.007957 -0.001892 0.012100 0.000000 -0.010681 0.000000
# 4 0.000000 0.000000 0.000000 0.048410 0.000000 -0.017446
# 5 0.003640 -0.000622 -0.010681 0.000000 0.034886 0.000000
# 6 0.000000 0.000000 0.000000 -0.017446 0.000000 0.031868
#
#
# Mechanical properties :
#
#
# Convention : Reuss Voigt Hill
#
# Bulk Modulus (GPa) = 36.75318 57.48865 47.12092
# Shear Modulus (GPa) = 24.94800 35.60556 30.27678
#
# Velocity S-wave (km/s) = 3.16871 3.78550 3.49075
# Velocity P-wave (km/s) = 5.30844 6.49953 5.93394
#
# Compressibility (1/GPa) = 0.02720853
#
# Stress axis : x y z
#
# Youngs Moduli (GPa) = 33.33373 104.20950 82.64319
#
# Poissons Ratio (x) = 0.24961 0.65755
# Poissons Ratio (y) = 0.07984 0.15635
# Poissons Ratio (z) = 0.26522 0.19715
#
# Static dielectric constant tensor:
#      x y z
#    x 1.966420 0.000000 0.002150 
#    y 0.000000 1.972090 0.000000 
#    z 0.002150 0.000000 1.950840 
# 
# From -- ./inp_files/62466.got.cif
#   From: 2010.05.17/outbox.cif.g08.bks.cpg/sg14_32_cif.got.tgz:62466.got - 2010.06.03 17:49:19.
