data_PCOD9250170
_publ_section_title
;
Structure prediction by ZEFSAII (Michael W. Deem and Ramdas Pophale) SiO2 
 PCOD9250170
Probable space group: P 21/C
;
_chemical_formula_sum "Si O2"
_cell_formula_units_Z 28
_cell_length_a 19.662693
_cell_length_b 11.446542
_cell_length_c 5.551698
_cell_angle_alpha 90.000000
_cell_angle_beta 126.991732
_cell_angle_gamma 90.000000
_cell_volume 998.019376
_symmetry_space_group_name_H-M "P 21/C"
_symmetry_group_IT_number 14
_symmetry_cell_setting 'monoclinic'
loop_
_space_group_symop_operation_xyz
x,y,z
-x,1/2+y,1/2-z
-x,-y,-z
x,1/2-y,1/2+z
loop_
_atom_site_type_symbol
_atom_site_label
_atom_site_fract_x
_atom_site_fract_y
_atom_site_fract_z
Si Si1 0.360333 0.722587 0.712294
Si Si2 0.818160 0.418283 0.095948
Si Si3 0.450614 0.310431 0.400020
Si Si4 0.659359 0.997339 0.574954
Si Si5 0.217401 0.315348 0.431590
Si Si6 0.065955 0.437492 0.351571
Si Si7 0.096495 0.837634 0.621219
O O1 0.316212 0.768126 0.860933
O O2 0.446820 0.798047 0.881960
O O3 0.380102 0.590113 0.824050
O O4 0.732210 0.445639 0.057668
O O5 0.878787 0.528033 0.297542
O O6 0.824631 0.410412 0.822394
O O7 0.861065 0.289782 0.251997
O O8 0.425494 0.270817 0.615450
O O9 0.409530 0.432352 0.236458
O O10 0.709516 0.905780 0.843859
O O11 0.226014 0.223764 0.674209
O O12 0.125344 0.368717 0.293126
O O13 0.985698 0.353616 0.229856
O O14 0.057025 0.571863 0.234012
#
# Coordination Sequence:
#
# PCOD9250170 Si02
#       7
#     4   4   4   4   4   4   4
#     4  10  25  44  73 107 142 183 237 288 353 428
#     4  11  24  43  66 101 142 183 236 298 359 429
#     4  10  23  47  74 107 143 183 240 292 349 434
#     4  11  26  45  71 104 143 193 227 302 363 420
#     4  11  27  46  69 104 142 187 244 293 357 423
#     4  10  25  42  70  98 133 197 237 301 357 414
#     4  11  23  43  68  98 141 181 247 294 359 425
#
# _framework density 28.055565999999999
#
# number of rings (size 3 to 8) (size 9 to 14) (size 15 to 20)
#    0.000    1.429    1.429    1.286    8.000    6.857 
#    2.571    0.000    0.000    0.000    0.000    0.000 
#    0.000    0.000    0.000    0.000    0.000    0.000 
#
# Total GULP energy -156387.703333 kJ/mol
# GULP energy per Si atom -5585.275119 kJ/mol
# Density = 2.799171 g / cm^3
# Si number density = 28.055566 Si / 1000 Ang^3
#
#
#
# Elastic Constant Matrix: (Units=GPa)
#
#
# Indices 1 2 3 4 5 6 
#
# 1 112.6874 37.5634 24.9074 0.0000 29.2695 0.0000
# 2 37.5634 132.2065 60.8298 0.0000 9.4956 0.0000
# 3 24.9074 60.8298 105.6209 0.0000 -14.0496 0.0000
# 4 0.0000 0.0000 0.0000 65.0841 0.0000 -1.2712
# 5 29.2695 9.4956 -14.0496 0.0000 48.5083 0.0000
# 6 0.0000 0.0000 0.0000 -1.2712 0.0000 57.7488
#
#
#
# Elastic Compliance Matrix: (Units=1/GPa)
#
#
# Indices 1 2 3 4 5 6 
#
# 1 0.012087 -0.001459 -0.003060 0.000000 -0.007894 0.000000
# 2 -0.001459 0.011221 -0.006545 0.000000 -0.003212 0.000000
# 3 -0.003060 -0.006545 0.014951 0.000000 0.007458 0.000000
# 4 0.000000 0.000000 0.000000 0.015371 0.000000 0.000338
# 5 -0.007894 -0.003212 0.007458 0.000000 0.028167 0.000000
# 6 0.000000 0.000000 0.000000 0.000338 0.000000 0.017324
#
#
# Mechanical properties :
#
#
# Convention : Reuss Voigt Hill
#
# Bulk Modulus (GPa) = 61.99738 66.34623 64.17180
# Shear Modulus (GPa) = 39.48584 49.41585 44.45084
#
# Velocity S-wave (km/s) = 3.75562 4.20140 3.98475
# Velocity P-wave (km/s) = 6.39940 6.87279 6.64031
#
# Compressibility (1/GPa) = 0.01612972
#
# Stress axis : x y z
#
# Youngs Moduli (GPa) = 82.73139 89.11931 66.88452
#
# Poissons Ratio (x) = 0.13007 0.20466
# Poissons Ratio (y) = 0.12074 0.43779
# Poissons Ratio (z) = 0.25315 0.58333
#
# Static dielectric constant tensor:
#      x y z
#    x 2.200770 0.000000 -0.021360 
#    y 0.000000 2.262150 0.000000 
#    z -0.021360 0.000000 2.717550 
# 
# From -- ./inp_files/4378.got.cif
#   From: 2010.05.17/outbox.cif.g08.bks.cpg/sg14_3_cif.got.tgz:4378.got - 2010.06.03 17:49:19.
