data_PCOD9250627
_publ_section_title
;
Structure prediction by ZEFSAII (Michael W. Deem and Ramdas Pophale) SiO2 
 PCOD9250627
Probable space group: P 21/C
;
_chemical_formula_sum "Si O2"
_cell_formula_units_Z 28
_cell_length_a 11.587310
_cell_length_b 5.324831
_cell_length_c 19.402871
_cell_angle_alpha 90.000000
_cell_angle_beta 57.622073
_cell_angle_gamma 90.000000
_cell_volume 1011.047914
_symmetry_space_group_name_H-M "P 21/C"
_symmetry_group_IT_number 14
_symmetry_cell_setting 'monoclinic'
loop_
_space_group_symop_operation_xyz
x,y,z
-x,1/2+y,1/2-z
-x,-y,-z
x,1/2-y,1/2+z
loop_
_atom_site_type_symbol
_atom_site_label
_atom_site_fract_x
_atom_site_fract_y
_atom_site_fract_z
Si Si1 0.786489 0.477562 0.113971
Si Si2 0.467358 0.209322 0.802510
Si Si3 0.390195 0.973921 0.625435
Si Si4 0.053098 0.720505 0.534163
Si Si5 0.843800 0.260421 0.238945
Si Si6 0.866947 0.551191 0.367613
Si Si7 0.392737 0.662416 0.492703
O O1 0.689968 0.713944 0.137559
O O2 0.771713 0.331430 0.190035
O O3 0.939399 0.569422 0.070359
O O4 0.797382 0.308398 0.041524
O O5 0.484548 0.940377 0.762283
O O6 0.538954 0.251778 0.852819
O O7 0.503841 0.193841 0.593961
O O8 0.239979 0.988191 0.708749
O O9 0.357840 0.893004 0.557281
O O10 0.051195 0.654483 0.614653
O O11 0.000000 0.500000 0.500000
O O12 0.820406 0.457856 0.308144
O O13 0.008625 0.246646 0.179141
O O14 0.735181 0.540012 0.461312
O O15 0.500000 0.500000 0.500000
#
# Coordination Sequence:
#
# PCOD9250627 Si02
#       7
#     4   4   4   4   4   4   4
#     4  11  25  45  70 103 143 190 252 312 380 457
#     4  12  28  45  75 107 147 198 247 314 389 448
#     4  10  24  46  67 103 144 188 256 310 386 458
#     4  11  24  44  69  99 144 191 241 311 377 463
#     4  11  23  44  69 107 144 194 255 327 375 454
#     4  11  24  41  69 102 143 187 248 304 388 444
#     4  10  24  44  71  99 143 195 244 313 384 469
#
# _framework density 27.694037999999999
#
# number of rings (size 3 to 8) (size 9 to 14) (size 15 to 20)
#    0.000    1.143    2.857    1.714    8.000    1.143 
#    2.571    0.000    0.000    0.000    0.000    0.000 
#    0.000    0.000    0.000    0.000    0.000    0.000 
#
# Total GULP energy -156124.055747 kJ/mol
# GULP energy per Si atom -5575.859134 kJ/mol
# Density = 2.763101 g / cm^3
# Si number density = 27.694038 Si / 1000 Ang^3
#
#
#
# Elastic Constant Matrix: (Units=GPa)
#
#
# Indices 1 2 3 4 5 6 
#
# 1 61.9714 4.7597 18.8324 0.0000 -10.0837 0.0000
# 2 4.7597 81.1481 50.5383 0.0000 3.6762 0.0000
# 3 18.8324 50.5383 120.5897 0.0000 10.9798 0.0000
# 4 0.0000 0.0000 0.0000 32.3916 0.0000 -3.2467
# 5 -10.0837 3.6762 10.9798 0.0000 53.6861 0.0000
# 6 0.0000 0.0000 0.0000 -3.2467 0.0000 44.5632
#
#
#
# Elastic Compliance Matrix: (Units=1/GPa)
#
#
# Indices 1 2 3 4 5 6 
#
# 1 0.017793 0.000991 -0.003559 0.000000 0.004002 0.000000
# 2 0.000991 0.016735 -0.007215 0.000000 0.000516 0.000000
# 3 -0.003559 -0.007215 0.012114 0.000000 -0.002652 0.000000
# 4 0.000000 0.000000 0.000000 0.031099 0.000000 0.002266
# 5 0.004002 0.000516 -0.002652 0.000000 0.019885 0.000000
# 6 0.000000 0.000000 0.000000 0.002266 0.000000 0.022605
#
#
# Mechanical properties :
#
#
# Convention : Reuss Voigt Hill
#
# Bulk Modulus (GPa) = 36.93226 45.77442 41.35334
# Shear Modulus (GPa) = 33.59700 38.76674 36.18187
#
# Velocity S-wave (km/s) = 3.48681 3.74548 3.61846
# Velocity P-wave (km/s) = 5.43831 5.93880 5.69406
#
# Compressibility (1/GPa) = 0.02707660
#
# Stress axis : x y z
#
# Youngs Moduli (GPa) = 56.20216 59.75374 82.55113
#
# Poissons Ratio (x) = -0.05923 0.29376
# Poissons Ratio (y) = -0.05571 0.59564
# Poissons Ratio (z) = 0.20000 0.43115
#
# Static dielectric constant tensor:
#      x y z
#    x 2.297780 0.000000 0.032800 
#    y 0.000000 2.551700 0.000000 
#    z 0.032800 0.000000 2.354700 
# 
# From -- ./inp_files/66410.got.cif
#   From: 2010.05.17/outbox.cif.g08.bks.cpg/sg14_34_cif.got.tgz:66410.got - 2010.06.03 17:49:19.
