data_PCOD9250732
_publ_section_title
;
Structure prediction by ZEFSAII (Michael W. Deem and Ramdas Pophale) SiO2 
 PCOD9250732
Probable space group: P 21/C
;
_chemical_formula_sum "Si O2"
_cell_formula_units_Z 20
_cell_length_a 5.043449
_cell_length_b 12.318682
_cell_length_c 11.909225
_cell_angle_alpha 90.000000
_cell_angle_beta 99.432922
_cell_angle_gamma 90.000000
_cell_volume 729.899136
_symmetry_space_group_name_H-M "P 21/C"
_symmetry_group_IT_number 14
_symmetry_cell_setting 'monoclinic'
loop_
_space_group_symop_operation_xyz
x,y,z
-x,1/2+y,1/2-z
-x,-y,-z
x,1/2-y,1/2+z
loop_
_atom_site_type_symbol
_atom_site_label
_atom_site_fract_x
_atom_site_fract_y
_atom_site_fract_z
Si Si1 0.571979 0.441031 0.690338
Si Si2 0.248558 0.346459 0.974299
Si Si3 0.295351 0.557127 0.861296
Si Si4 0.008923 0.324701 0.598769
Si Si5 0.919635 0.632254 0.635611
O O1 0.532218 0.490980 0.810637
O O2 0.285305 0.388576 0.642020
O O3 0.690306 0.541278 0.627098
O O4 0.793799 0.349314 0.679010
O O5 0.151361 0.458260 0.914848
O O6 0.221358 0.250115 0.881162
O O7 0.546809 0.366164 0.041888
O O8 0.090054 0.297654 0.070335
O O9 0.121828 0.609124 0.750385
O O10 0.919614 0.370966 0.470847
#
# Coordination Sequence:
#
# PCOD9250732 Si02
#       5
#     4   4   4   4   4
#     4  12  23  47  80 119 154 210 275 340 393 493
#     4   9  26  51  72 122 162 220 260 347 408 497
#     4  11  24  51  78 117 172 210 276 340 414 490
#     4  10  25  47  77 116 160 205 280 330 406 484
#     4  10  24  45  81 115 156 221 268 337 411 487
#
# _framework density 27.401043999999999
#
# number of rings (size 3 to 8) (size 9 to 14) (size 15 to 20)
#    1.200    0.400    2.000    1.200    2.800    3.200 
#    7.200    4.000    0.000    0.000    0.000    0.000 
#    0.000    0.000    0.000    0.000    0.000    0.000 
#
# Total GULP energy -112016.949315 kJ/mol
# GULP energy per Si atom -5600.847466 kJ/mol
# Density = 2.733868 g / cm^3
# Si number density = 27.401044 Si / 1000 Ang^3
#
#
#
# Elastic Constant Matrix: (Units=GPa)
#
#
# Indices 1 2 3 4 5 6 
#
# 1 158.3133 75.0609 61.7764 0.0000 32.4210 0.0000
# 2 75.0609 171.9342 65.7358 0.0000 18.1694 0.0000
# 3 61.7764 65.7358 104.2129 0.0000 17.5447 0.0000
# 4 0.0000 0.0000 0.0000 58.9311 0.0000 1.8074
# 5 32.4210 18.1694 17.5447 0.0000 62.6774 0.0000
# 6 0.0000 0.0000 0.0000 1.8074 0.0000 36.2047
#
#
#
# Elastic Compliance Matrix: (Units=1/GPa)
#
#
# Indices 1 2 3 4 5 6 
#
# 1 0.009530 -0.002461 -0.003555 0.000000 -0.003221 0.000000
# 2 -0.002461 0.008350 -0.003794 0.000000 -0.000086 0.000000
# 3 -0.003555 -0.003794 0.014274 0.000000 -0.001057 0.000000
# 4 0.000000 0.000000 0.000000 0.016995 0.000000 -0.000848
# 5 -0.003221 -0.000086 -0.001057 0.000000 0.017942 0.000000
# 6 0.000000 0.000000 0.000000 -0.000848 0.000000 0.027663
#
#
# Mechanical properties :
#
#
# Convention : Reuss Voigt Hill
#
# Bulk Modulus (GPa) = 79.77586 93.28960 86.53273
# Shear Modulus (GPa) = 42.17572 47.02182 44.59877
#
# Velocity S-wave (km/s) = 3.92752 4.14703 4.03877
# Velocity P-wave (km/s) = 7.05299 7.55317 7.30736
#
# Compressibility (1/GPa) = 0.01253512
#
# Stress axis : x y z
#
# Youngs Moduli (GPa) = 104.92911 119.75827 70.05767
#
# Poissons Ratio (x) = 0.29474 0.24903
# Poissons Ratio (y) = 0.25824 0.26578
# Poissons Ratio (z) = 0.37299 0.45434
#
# Static dielectric constant tensor:
#      x y z
#    x 2.132280 0.000000 -0.049920 
#    y 0.000000 2.264900 0.000000 
#    z -0.049920 0.000000 2.113470 
# 
# From -- ./inp_files/36842.got.cif
#   From: 2010.05.17/outbox.cif.g08.bks.cpg/sg14_19_cif.got.tgz:36842.got - 2010.06.03 17:49:19.
