data_PCOD9250956
_publ_section_title
;
Structure prediction by ZEFSAII (Michael W. Deem and Ramdas Pophale) SiO2 
 PCOD9250956
Probable space group: P 21/C
;
_chemical_formula_sum "Si O2"
_cell_formula_units_Z 20
_cell_length_a 9.463230
_cell_length_b 4.855541
_cell_length_c 18.835939
_cell_angle_alpha 90.000000
_cell_angle_beta 111.706133
_cell_angle_gamma 90.000000
_cell_volume 804.124842
_symmetry_space_group_name_H-M "P 21/C"
_symmetry_group_IT_number 14
_symmetry_cell_setting 'monoclinic'
loop_
_space_group_symop_operation_xyz
x,y,z
-x,1/2+y,1/2-z
-x,-y,-z
x,1/2-y,1/2+z
loop_
_atom_site_type_symbol
_atom_site_label
_atom_site_fract_x
_atom_site_fract_y
_atom_site_fract_z
Si Si1 0.739690 0.713024 0.244576
Si Si2 0.164576 0.277555 0.388291
Si Si3 0.345089 0.965175 0.543762
Si Si4 0.174660 0.774499 0.650265
Si Si5 0.449798 0.516073 0.394313
O O1 0.831248 0.640804 0.189303
O O2 0.723377 0.444611 0.288677
O O3 0.587572 0.859161 0.186734
O O4 0.174535 0.442472 0.193916
O O5 0.244269 0.093750 0.462968
O O6 0.279350 0.532400 0.394575
O O7 0.995791 0.344427 0.380927
O O8 0.453137 0.209944 0.593708
O O9 0.237833 0.841081 0.584668
O O10 0.457878 0.716099 0.544698
#
# Coordination Sequence:
#
# PCOD9250956 Si02
#       5
#     4   4   4   4   4
#     4  10  25  42  71  94 142 183 240 279 360 424
#     4  10  25  44  72  98 142 186 241 283 359 427
#     4  12  24  44  68 105 137 184 232 301 348 421
#     4  12  24  44  68 105 137 184 233 301 348 417
#     4  10  25  42  71  94 142 182 240 277 362 424
#
# _framework density 24.871758
#
# number of rings (size 3 to 8) (size 9 to 14) (size 15 to 20)
#    1.200    0.000    0.000    5.400    0.000    8.000 
#    0.000    4.000    0.000    0.000    0.000    0.000 
#    0.000    0.000    0.000    0.000    0.000    0.000 
#
# Total GULP energy -111944.662850 kJ/mol
# GULP energy per Si atom -5597.233142 kJ/mol
# Density = 2.481515 g / cm^3
# Si number density = 24.871758 Si / 1000 Ang^3
#
#
#
# Elastic Constant Matrix: (Units=GPa)
#
#
# Indices 1 2 3 4 5 6 
#
# 1 144.7265 21.4288 41.4463 0.0000 -19.9181 0.0000
# 2 21.4288 128.3003 20.1607 0.0000 -6.8805 0.0000
# 3 41.4463 20.1607 80.1841 0.0000 -17.9256 0.0000
# 4 0.0000 0.0000 0.0000 36.5764 0.0000 1.4908
# 5 -19.9181 -6.8805 -17.9256 0.0000 22.6048 0.0000
# 6 0.0000 0.0000 0.0000 1.4908 0.0000 17.9406
#
#
#
# Elastic Compliance Matrix: (Units=1/GPa)
#
#
# Indices 1 2 3 4 5 6 
#
# 1 0.008588 -0.000674 -0.003189 0.000000 0.004833 0.000000
# 2 -0.000674 0.008188 -0.001563 0.000000 0.000659 0.000000
# 3 -0.003189 -0.001563 0.016747 0.000000 0.009995 0.000000
# 4 0.000000 0.000000 0.000000 0.027433 0.000000 -0.002280
# 5 0.004833 0.000659 0.009995 0.000000 0.056623 0.000000
# 6 0.000000 0.000000 0.000000 -0.002280 0.000000 0.055929
#
#
# Mechanical properties :
#
#
# Convention : Reuss Voigt Hill
#
# Bulk Modulus (GPa) = 44.11016 57.69806 50.90411
# Shear Modulus (GPa) = 26.05297 33.43602 29.74450
#
# Velocity S-wave (km/s) = 3.24001 3.67050 3.46195
# Velocity P-wave (km/s) = 5.63653 6.41966 6.04080
#
# Compressibility (1/GPa) = 0.02267051
#
# Stress axis : x y z
#
# Youngs Moduli (GPa) = 116.44425 122.13412 59.71217
#
# Poissons Ratio (x) = 0.08232 0.19042
# Poissons Ratio (y) = 0.07849 0.09333
# Poissons Ratio (z) = 0.37134 0.19089
#
# Static dielectric constant tensor:
#      x y z
#    x 1.983320 0.000000 -0.035710 
#    y 0.000000 1.935780 0.000000 
#    z -0.035710 0.000000 2.080310 
# 
# From -- ./inp_files/64038.got.cif
#   From: 2010.05.17/outbox.cif.g08.bks.cpg/sg14_33_cif.got.tgz:64038.got - 2010.06.03 17:49:19.
