data_PCOD9250245
_publ_section_title
;
Structure prediction by ZEFSAII (Michael W. Deem and Ramdas Pophale) SiO2 
 PCOD9250245
Probable space group: P 21/C
;
_chemical_formula_sum "Si O2"
_cell_formula_units_Z 22
_cell_length_a 13.545936
_cell_length_b 9.485495
_cell_length_c 20.943622
_cell_angle_alpha 90.000000
_cell_angle_beta 20.589146
_cell_angle_gamma 90.000000
_cell_volume 946.344174
_symmetry_space_group_name_H-M "P 21/C"
_symmetry_group_IT_number 14
_symmetry_cell_setting 'monoclinic'
loop_
_space_group_symop_operation_xyz
x,y,z
-x,1/2+y,1/2-z
-x,-y,-z
x,1/2-y,1/2+z
loop_
_atom_site_type_symbol
_atom_site_label
_atom_site_fract_x
_atom_site_fract_y
_atom_site_fract_z
Si Si1 0.684038 0.264483 0.253077
Si Si2 0.147033 0.379988 0.047122
Si Si3 0.878272 0.870678 0.782083
Si Si4 0.649096 0.146663 0.986618
Si Si5 0.000000 0.500000 0.500000
Si Si6 0.485351 0.041752 0.217921
O O1 0.375365 0.201291 0.450761
O O2 0.655048 0.403828 0.227989
O O3 0.852203 0.303658 0.214697
O O4 0.852808 0.144693 0.114243
O O5 0.078365 0.532517 0.116035
O O6 0.286596 0.394308 0.892650
O O7 0.085848 0.749431 0.680331
O O8 0.751469 0.987120 0.907798
O O9 0.618065 0.818788 0.896122
O O10 0.545716 0.146240 0.122607
O O11 0.774200 0.503352 0.576318
#
# Coordination Sequence:
#
# PCOD9250245 Si02
#       6
#     4   4   4   4   2   4
#     4  11  22  41  65 103 142 183 230 294 350 421
#     4  11  25  41  72 101 144 182 238 289 362 416
#     4  11  28  50  73 107 141 196 238 300 358 437
#     4  11  28  49  75 103 148 188 246 294 367 427
#     4  10  24  38  66 106 140 190 234 282 362 418
#     4  11  24  43  71 102 147 184 235 298 352 429
#
# _framework density 23.247354999999999
#
# number of rings (size 3 to 8) (size 9 to 14) (size 15 to 20)
#    0.000    1.091    3.636    0.545    7.636    3.636 
#    0.000    0.000    0.000    0.000    0.000    0.000 
#    0.000    0.000    0.000    0.000    0.000    0.000 
#
# Total GULP energy -122685.737138 kJ/mol
# GULP energy per Si atom -5576.624415 kJ/mol
# Density = 2.319444 g / cm^3
# Si number density = 23.247355 Si / 1000 Ang^3
#
#
#
# Elastic Constant Matrix: (Units=GPa)
#
#
# Indices 1 2 3 4 5 6 
#
# 1 113.3793 36.0832 71.6941 0.0000 -33.3073 0.0000
# 2 36.0832 95.5088 49.1495 0.0000 -33.3945 0.0000
# 3 71.6941 49.1495 115.4291 0.0000 -22.4861 0.0000
# 4 0.0000 0.0000 0.0000 52.2905 0.0000 -16.8270
# 5 -33.3073 -33.3945 -22.4861 0.0000 72.0907 0.0000
# 6 0.0000 0.0000 0.0000 -16.8270 0.0000 26.0691
#
#
#
# Elastic Compliance Matrix: (Units=1/GPa)
#
#
# Indices 1 2 3 4 5 6 
#
# 1 0.015797 0.000298 -0.009039 0.000000 0.004617 0.000000
# 2 0.000298 0.015111 -0.005567 0.000000 0.005401 0.000000
# 3 -0.009039 -0.005567 0.016324 0.000000 -0.001663 0.000000
# 4 0.000000 0.000000 0.000000 0.024138 0.000000 0.015580
# 5 0.004617 0.005401 -0.001663 0.000000 0.017988 0.000000
# 6 0.000000 0.000000 0.000000 0.015580 0.000000 0.048416
#
#
# Mechanical properties :
#
#
# Convention : Reuss Voigt Hill
#
# Bulk Modulus (GPa) = 53.71871 70.90784 62.31328
# Shear Modulus (GPa) = 28.96928 41.24943 35.10935
#
# Velocity S-wave (km/s) = 3.53389 4.21690 3.89041
# Velocity P-wave (km/s) = 6.30942 7.36731 6.85879
#
# Compressibility (1/GPa) = 0.01861549
#
# Stress axis : x y z
#
# Youngs Moduli (GPa) = 63.30129 66.17672 61.25897
#
# Poissons Ratio (x) = -0.01971 0.55374
# Poissons Ratio (y) = -0.01885 0.34103
# Poissons Ratio (z) = 0.57220 0.36841
#
# Static dielectric constant tensor:
#      x y z
#    x 1.907180 0.000000 0.034610 
#    y 0.000000 1.847120 0.000000 
#    z 0.034610 0.000000 1.913460 
# 
# From -- ./inp_files/73700.got.cif
#   From: 2010.05.17/outbox.cif.g08.bks.cpg/sg14_37_cif.got.tgz:73700.got - 2010.06.03 17:49:19.
