data_PCOD9250406
_publ_section_title
;
Structure prediction by ZEFSAII (Michael W. Deem and Ramdas Pophale) SiO2 
 PCOD9250406
Probable space group: P 21/C
;
_chemical_formula_sum "Si O2"
_cell_formula_units_Z 28
_cell_length_a 14.109057
_cell_length_b 8.567428
_cell_length_c 22.668129
_cell_angle_alpha 90.000000
_cell_angle_beta 152.575489
_cell_angle_gamma 90.000000
_cell_volume 1262.027377
_symmetry_space_group_name_H-M "P 21/C"
_symmetry_group_IT_number 14
_symmetry_cell_setting 'monoclinic'
loop_
_space_group_symop_operation_xyz
x,y,z
-x,1/2+y,1/2-z
-x,-y,-z
x,1/2-y,1/2+z
loop_
_atom_site_type_symbol
_atom_site_label
_atom_site_fract_x
_atom_site_fract_y
_atom_site_fract_z
Si Si1 0.095779 0.432369 0.854387
Si Si2 0.419030 0.994826 0.630806
Si Si3 0.183190 0.161616 0.203236
Si Si4 0.641479 0.547887 0.633934
Si Si5 0.117190 0.844370 0.549774
Si Si6 0.895134 0.393480 0.260727
Si Si7 0.628249 0.226813 0.205380
O O1 0.157394 0.510033 0.826861
O O2 0.867385 0.489298 0.742011
O O3 0.063130 0.243203 0.840168
O O4 0.246056 0.509395 0.984798
O O5 0.636367 0.920798 0.733848
O O6 0.325960 0.904287 0.634312
O O7 0.463709 0.180509 0.653513
O O8 0.310718 0.276296 0.318084
O O9 0.049765 0.031809 0.163843
O O10 0.026528 0.249753 0.073811
O O11 0.500000 0.500000 0.500000
O O12 0.571724 0.445679 0.652306
O O13 0.170926 0.770038 0.642289
O O14 0.000000 0.000000 0.500000
O O15 0.694432 0.315445 0.181365
#
# Coordination Sequence:
#
# PCOD9250406 Si02
#       7
#     4   4   4   4   4   4   4
#     4  11  23  45  68 103 149 192 238 304 370 441
#     4  11  27  44  72 106 141 194 248 299 371 436
#     4  11  25  46  73 107 141 195 241 305 364 436
#     4  11  24  43  68 106 145 188 240 296 366 431
#     4  12  24  50  73 102 154 186 248 306 365 434
#     4  10  24  42  68 104 139 190 237 297 373 427
#     4  10  25  45  68 106 141 193 238 306 361 437
#
# _framework density 22.186523000000001
#
# number of rings (size 3 to 8) (size 9 to 14) (size 15 to 20)
#    0.000    1.143    2.857    1.714   10.000    3.429 
#    2.571    0.000    0.000    0.000    0.000    0.000 
#    0.000    0.000    0.000    0.000    0.000    0.000 
#
# Total GULP energy -156135.056105 kJ/mol
# GULP energy per Si atom -5576.252004 kJ/mol
# Density = 2.213603 g / cm^3
# Si number density = 22.186523 Si / 1000 Ang^3
#
#
#
# Elastic Constant Matrix: (Units=GPa)
#
#
# Indices 1 2 3 4 5 6 
#
# 1 70.7401 40.9234 20.3087 0.0000 -5.6922 0.0000
# 2 40.9234 100.2248 6.9876 0.0000 -11.1462 0.0000
# 3 20.3087 6.9876 73.7191 0.0000 -5.3644 0.0000
# 4 0.0000 0.0000 0.0000 36.6647 0.0000 -4.7401
# 5 -5.6922 -11.1462 -5.3644 0.0000 24.2372 0.0000
# 6 0.0000 0.0000 0.0000 -4.7401 0.0000 51.3593
#
#
#
# Elastic Compliance Matrix: (Units=1/GPa)
#
#
# Indices 1 2 3 4 5 6 
#
# 1 0.020052 -0.007850 -0.004777 0.000000 0.000042 0.000000
# 2 -0.007850 0.013620 0.001213 0.000000 0.004688 0.000000
# 3 -0.004777 0.001213 0.014966 0.000000 0.002748 0.000000
# 4 0.000000 0.000000 0.000000 0.027604 0.000000 0.002548
# 5 0.000042 0.004688 0.002748 0.000000 0.044033 0.000000
# 6 0.000000 0.000000 0.000000 0.002548 0.000000 0.019706
#
#
# Mechanical properties :
#
#
# Convention : Reuss Voigt Hill
#
# Bulk Modulus (GPa) = 38.74534 42.34705 40.54619
# Shear Modulus (GPa) = 29.16946 34.21651 31.69298
#
# Velocity S-wave (km/s) = 3.62986 3.93137 3.78362
# Velocity P-wave (km/s) = 5.92193 6.30364 6.11576
#
# Compressibility (1/GPa) = 0.02580956
#
# Stress axis : x y z
#
# Youngs Moduli (GPa) = 49.86957 73.42321 66.81793
#
# Poissons Ratio (x) = 0.57637 0.31919
# Poissons Ratio (y) = 0.39147 -0.08103
# Poissons Ratio (z) = 0.23823 -0.08904
#
# Static dielectric constant tensor:
#      x y z
#    x 1.801260 0.000000 0.132550 
#    y 0.000000 1.914340 0.000000 
#    z 0.132550 0.000000 1.833330 
# 
# From -- ./inp_files/68240.got.cif
#   From: 2010.05.17/outbox.cif.g08.bks.cpg/sg14_35_cif.got.tgz:68240.got - 2010.06.03 17:49:19.
