data_PCOD9250166
_publ_section_title
;
Structure prediction by ZEFSAII (Michael W. Deem and Ramdas Pophale) SiO2 
 PCOD9250166
Probable space group: P 21/C
;
_chemical_formula_sum "Si O2"
_cell_formula_units_Z 20
_cell_length_a 7.516138
_cell_length_b 7.280414
_cell_length_c 16.925200
_cell_angle_alpha 90.000000
_cell_angle_beta 54.684389
_cell_angle_gamma 90.000000
_cell_volume 755.725725
_symmetry_space_group_name_H-M "P 21/C"
_symmetry_group_IT_number 14
_symmetry_cell_setting 'monoclinic'
loop_
_space_group_symop_operation_xyz
x,y,z
-x,1/2+y,1/2-z
-x,-y,-z
x,1/2-y,1/2+z
loop_
_atom_site_type_symbol
_atom_site_label
_atom_site_fract_x
_atom_site_fract_y
_atom_site_fract_z
Si Si1 0.702391 0.621790 0.319050
Si Si2 0.472636 0.287277 0.990379
Si Si3 0.079247 0.453807 0.330531
Si Si4 0.127782 0.191429 0.456027
Si Si5 0.390308 0.755057 0.708770
O O1 0.519508 0.671246 0.431702
O O2 0.779611 0.808239 0.257701
O O3 0.627178 0.462037 0.279598
O O4 0.904612 0.539173 0.315713
O O5 0.500000 0.500000 0.000000
O O6 0.231434 0.248863 0.014131
O O7 0.651944 0.264807 0.875852
O O8 0.016804 0.342211 0.426643
O O9 0.235806 0.629779 0.304501
O O10 0.364651 0.171291 0.354197
O O11 0.000000 0.000000 0.500000
#
# Coordination Sequence:
#
# PCOD9250166 Si02
#       5
#     4   4   4   4   4
#     4  12  24  44  75 104 145 195 250 299 373 434
#     4  10  23  47  73 103 142 196 240 304 368 440
#     4  12  26  45  72 109 146 192 248 309 360 441
#     4  10  27  44  72 106 152 191 239 305 368 439
#     4  10  25  46  72 103 141 195 243 303 366 433
#
# _framework density 26.464625999999999
#
# number of rings (size 3 to 8) (size 9 to 14) (size 15 to 20)
#    1.200    0.000    4.000    0.600    8.400    0.800 
#    3.600    0.000    0.000    0.000    0.000    0.000 
#    0.000    0.000    0.000    0.000    0.000    0.000 
#
# Total GULP energy -111571.367282 kJ/mol
# GULP energy per Si atom -5578.568364 kJ/mol
# Density = 2.640439 g / cm^3
# Si number density = 26.464626 Si / 1000 Ang^3
#
#
#
# Elastic Constant Matrix: (Units=GPa)
#
#
# Indices 1 2 3 4 5 6 
#
# 1 63.3486 17.0510 33.6040 0.0000 1.5609 0.0000
# 2 17.0510 143.7198 71.6881 0.0000 11.8779 0.0000
# 3 33.6040 71.6881 76.7131 0.0000 11.8891 0.0000
# 4 0.0000 0.0000 0.0000 64.7701 0.0000 -4.2523
# 5 1.5609 11.8779 11.8891 0.0000 39.4388 0.0000
# 6 0.0000 0.0000 0.0000 -4.2523 0.0000 43.3719
#
#
#
# Elastic Compliance Matrix: (Units=1/GPa)
#
#
# Indices 1 2 3 4 5 6 
#
# 1 0.021921 0.004080 -0.013732 0.000000 0.002043 0.000000
# 2 0.004080 0.013795 -0.014696 0.000000 0.000114 0.000000
# 3 -0.013732 -0.014696 0.033583 0.000000 -0.005154 0.000000
# 4 0.000000 0.000000 0.000000 0.015539 0.000000 0.001523
# 5 0.002043 0.000114 -0.005154 0.000000 0.026794 0.000000
# 6 0.000000 0.000000 0.000000 0.001523 0.000000 0.023206
#
#
# Mechanical properties :
#
#
# Convention : Reuss Voigt Hill
#
# Bulk Modulus (GPa) = 48.53643 58.71865 53.62754
# Shear Modulus (GPa) = 26.25996 40.27873 33.26934
#
# Velocity S-wave (km/s) = 3.15344 3.90549 3.54944
# Velocity P-wave (km/s) = 5.62484 6.52479 6.09146
#
# Compressibility (1/GPa) = 0.02060308
#
# Stress axis : x y z
#
# Youngs Moduli (GPa) = 45.61743 72.48930 29.77659
#
# Poissons Ratio (x) = -0.29575 0.40889
# Poissons Ratio (y) = -0.18612 0.43761
# Poissons Ratio (z) = 0.62642 1.06533
#
# Static dielectric constant tensor:
#      x y z
#    x 2.238240 0.000000 0.062770 
#    y 0.000000 2.523950 0.000000 
#    z 0.062770 0.000000 2.239980 
# 
# From -- ./inp_files/64102.got.cif
#   From: 2010.05.17/outbox.cif.g08.bks.cpg/sg14_33_cif.got.tgz:64102.got - 2010.06.03 17:49:19.
