data_PCOD9250851
_publ_section_title
;
Structure prediction by ZEFSAII (Michael W. Deem and Ramdas Pophale) SiO2 
 PCOD9250851
Probable space group: P 21/C
;
_chemical_formula_sum "Si O2"
_cell_formula_units_Z 20
_cell_length_a 9.072961
_cell_length_b 14.896959
_cell_length_c 10.674772
_cell_angle_alpha 90.000000
_cell_angle_beta 150.291700
_cell_angle_gamma 90.000000
_cell_volume 715.027895
_symmetry_space_group_name_H-M "P 21/C"
_symmetry_group_IT_number 14
_symmetry_cell_setting 'monoclinic'
loop_
_space_group_symop_operation_xyz
x,y,z
-x,1/2+y,1/2-z
-x,-y,-z
x,1/2-y,1/2+z
loop_
_atom_site_type_symbol
_atom_site_label
_atom_site_fract_x
_atom_site_fract_y
_atom_site_fract_z
Si Si1 0.244801 0.419351 0.180190
Si Si2 0.642869 0.036982 0.431279
Si Si3 0.099572 0.070445 0.179161
Si Si4 0.059874 0.770188 0.098853
Si Si5 0.409061 0.337159 0.557646
O O1 0.117854 0.323928 0.041915
O O2 0.636665 0.598155 0.593766
O O3 0.479851 0.458302 0.253184
O O4 0.000000 0.500000 0.000000
O O5 0.096741 0.479579 0.809705
O O6 0.624818 0.121249 0.323745
O O7 0.451482 0.075594 0.403966
O O8 0.980355 0.167782 0.053811
O O9 0.000000 0.000000 0.000000
O O10 0.900396 0.817972 0.099522
O O11 0.406049 0.745848 0.360825
#
# Coordination Sequence:
#
# PCOD9250851 Si02
#       5
#     4   4   4   4   4
#     4  12  27  47  80 116 160 215 269 336 403 483
#     4  10  24  47  76 113 153 209 262 328 401 474
#     4  10  25  46  78 111 158 208 263 329 408 482
#     4  11  28  47  79 117 160 210 272 335 404 484
#     4  11  27  52  81 120 165 211 273 333 411 481
#
# _framework density 27.970935999999998
#
# number of rings (size 3 to 8) (size 9 to 14) (size 15 to 20)
#    0.000    1.200    2.000    0.600   11.200    4.800 
#    0.000    0.000    0.000    0.000    0.000    0.000 
#    0.000    0.000    0.000    0.000    0.000    0.000 
#
# Total GULP energy -111785.725390 kJ/mol
# GULP energy per Si atom -5589.286270 kJ/mol
# Density = 2.790727 g / cm^3
# Si number density = 27.970936 Si / 1000 Ang^3
#
#
#
# Elastic Constant Matrix: (Units=GPa)
#
#
# Indices 1 2 3 4 5 6 
#
# 1 142.9689 47.3152 47.2907 0.0000 -14.6588 0.0000
# 2 47.3152 171.6923 49.4259 0.0000 -11.7178 0.0000
# 3 47.2907 49.4259 117.0240 0.0000 -29.0337 0.0000
# 4 0.0000 0.0000 0.0000 68.6216 0.0000 -9.8706
# 5 -14.6588 -11.7178 -29.0337 0.0000 56.6637 0.0000
# 6 0.0000 0.0000 0.0000 -9.8706 0.0000 65.2655
#
#
#
# Elastic Compliance Matrix: (Units=1/GPa)
#
#
# Indices 1 2 3 4 5 6 
#
# 1 0.008423 -0.001529 -0.002630 0.000000 0.000515 0.000000
# 2 -0.001529 0.006908 -0.002341 0.000000 -0.000167 0.000000
# 3 -0.002630 -0.002341 0.011809 0.000000 0.004886 0.000000
# 4 0.000000 0.000000 0.000000 0.014897 0.000000 0.002253
# 5 0.000515 -0.000167 0.004886 0.000000 0.020251 0.000000
# 6 0.000000 0.000000 0.000000 0.002253 0.000000 0.015663
#
#
# Mechanical properties :
#
#
# Convention : Reuss Voigt Hill
#
# Bulk Modulus (GPa) = 70.72179 79.97209 75.34694
# Shear Modulus (GPa) = 52.26534 57.28705 54.77619
#
# Velocity S-wave (km/s) = 4.32737 4.53049 4.43010
# Velocity P-wave (km/s) = 7.09275 7.48468 7.29135
#
# Compressibility (1/GPa) = 0.01413991
#
# Stress axis : x y z
#
# Youngs Moduli (GPa) = 118.71646 144.75266 84.67849
#
# Poissons Ratio (x) = 0.22132 0.22274
# Poissons Ratio (y) = 0.18151 0.19825
# Poissons Ratio (z) = 0.31228 0.33890
#
# Static dielectric constant tensor:
#      x y z
#    x 2.577790 0.000000 0.324820 
#    y 0.000000 2.156930 0.000000 
#    z 0.324820 0.000000 2.382840 
# 
# From -- ./inp_files/44681.got.cif
#   From: 2010.05.17/outbox.cif.g08.bks.cpg/sg14_23_cif.got.tgz:44681.got - 2010.06.03 17:49:19.
