data_PCOD9250446
_publ_section_title
;
Structure prediction by ZEFSAII (Michael W. Deem and Ramdas Pophale) SiO2 
 PCOD9250446
Probable space group: P 21/C
;
_chemical_formula_sum "Si O2"
_cell_formula_units_Z 18
_cell_length_a 15.722361
_cell_length_b 4.964763
_cell_length_c 9.144686
_cell_angle_alpha 90.000000
_cell_angle_beta 63.532526
_cell_angle_gamma 90.000000
_cell_volume 638.997415
_symmetry_space_group_name_H-M "P 21/C"
_symmetry_group_IT_number 14
_symmetry_cell_setting 'monoclinic'
loop_
_space_group_symop_operation_xyz
x,y,z
-x,1/2+y,1/2-z
-x,-y,-z
x,1/2-y,1/2+z
loop_
_atom_site_type_symbol
_atom_site_label
_atom_site_fract_x
_atom_site_fract_y
_atom_site_fract_z
Si Si1 0.811572 0.141698 0.182945
Si Si2 0.368262 0.754814 0.843507
Si Si3 0.936688 0.023907 0.812744
Si Si4 0.500000 0.000000 0.500000
Si Si5 0.341325 0.233178 0.562244
O O1 0.728641 0.318805 0.168827
O O2 0.870194 0.334325 0.244013
O O3 0.755382 0.901535 0.308321
O O4 0.880412 0.023893 0.007365
O O5 0.448415 0.806393 0.667020
O O6 0.393444 0.535968 0.948282
O O7 0.335612 0.019591 0.959764
O O8 0.025647 0.229885 0.756913
O O9 0.576105 0.745327 0.384038
#
# Coordination Sequence:
#
# PCOD9250446 Si02
#       5
#     4   4   4   2   4
#     4  11  26  49  76 107 147 193 239 308 373 436
#     4  11  25  44  72 105 148 189 245 295 360 439
#     4  12  28  48  76 110 146 190 250 308 378 452
#     4  10  24  42  72 106 146 198 238 300 354 428
#     4  11  25  44  72 105 148 189 245 295 360 439
#
# _framework density 28.169131
#
# number of rings (size 3 to 8) (size 9 to 14) (size 15 to 20)
#    0.000    0.889    2.222    2.667    3.111   12.444 
#    0.000    0.000    0.000    0.000    0.000    0.000 
#    0.000    0.000    0.000    0.000    0.000    0.000 
#
# Total GULP energy -100822.793723 kJ/mol
# GULP energy per Si atom -5601.266318 kJ/mol
# Density = 2.810502 g / cm^3
# Si number density = 28.169131 Si / 1000 Ang^3
#
#
#
# Elastic Constant Matrix: (Units=GPa)
#
#
# Indices 1 2 3 4 5 6 
#
# 1 155.8510 26.7818 33.0335 0.0000 1.7849 0.0000
# 2 26.7818 128.0929 34.8802 0.0000 11.5662 0.0000
# 3 33.0335 34.8802 198.6057 0.0000 -13.0940 0.0000
# 4 0.0000 0.0000 0.0000 22.9433 0.0000 -0.3881
# 5 1.7849 11.5662 -13.0940 0.0000 54.3825 0.0000
# 6 0.0000 0.0000 0.0000 -0.3881 0.0000 45.6208
#
#
#
# Elastic Compliance Matrix: (Units=1/GPa)
#
#
# Indices 1 2 3 4 5 6 
#
# 1 0.006817 -0.001149 -0.000946 0.000000 -0.000207 0.000000
# 2 -0.001149 0.008641 -0.001469 0.000000 -0.002154 0.000000
# 3 -0.000946 -0.001469 0.005561 0.000000 0.001682 0.000000
# 4 0.000000 0.000000 0.000000 0.043592 0.000000 0.000371
# 5 -0.000207 -0.002154 0.001682 0.000000 0.019258 0.000000
# 6 0.000000 0.000000 0.000000 0.000371 0.000000 0.021923
#
#
# Mechanical properties :
#
#
# Convention : Reuss Voigt Hill
#
# Bulk Modulus (GPa) = 71.97936 74.66007 73.31971
# Shear Modulus (GPa) = 42.53516 50.44626 46.49071
#
# Velocity S-wave (km/s) = 3.89008 4.23642 4.06694
# Velocity P-wave (km/s) = 6.76646 7.10573 6.93817
#
# Compressibility (1/GPa) = 0.01389287
#
# Stress axis : x y z
#
# Youngs Moduli (GPa) = 146.69974 115.72150 179.81671
#
# Poissons Ratio (x) = 0.13297 0.17004
# Poissons Ratio (y) = 0.16856 0.26407
# Poissons Ratio (z) = 0.13873 0.16994
#
# Static dielectric constant tensor:
#      x y z
#    x 2.611070 0.000000 0.040850 
#    y 0.000000 2.306850 0.000000 
#    z 0.040850 0.000000 2.114430 
# 
# From -- ./inp_files/19219.got.cif
#   From: 2010.05.17/outbox.cif.g08.bks.cpg/sg14_10_cif.got.tgz:19219.got - 2010.06.03 17:49:19.
