data_PCOD9250014
_publ_section_title
;
Structure prediction by ZEFSAII (Michael W. Deem and Ramdas Pophale) SiO2 
 PCOD9250014
Probable space group: P 21/C
;
_chemical_formula_sum "Si O2"
_cell_formula_units_Z 32
_cell_length_a 12.494757
_cell_length_b 8.011869
_cell_length_c 14.740966
_cell_angle_alpha 90.000000
_cell_angle_beta 71.075498
_cell_angle_gamma 90.000000
_cell_volume 1395.899941
_symmetry_space_group_name_H-M "P 21/C"
_symmetry_group_IT_number 14
_symmetry_cell_setting 'monoclinic'
loop_
_space_group_symop_operation_xyz
x,y,z
-x,1/2+y,1/2-z
-x,-y,-z
x,1/2-y,1/2+z
loop_
_atom_site_type_symbol
_atom_site_label
_atom_site_fract_x
_atom_site_fract_y
_atom_site_fract_z
Si Si1 0.668866 0.661749 0.945877
Si Si2 0.734125 0.373421 0.606896
Si Si3 0.037269 0.687017 0.760930
Si Si4 0.979278 0.303999 0.526942
Si Si5 0.176710 0.345824 0.723646
Si Si6 0.435521 0.672181 0.504368
Si Si7 0.780826 0.772481 0.596886
Si Si8 0.735382 0.335885 0.820900
O O1 0.742516 0.815041 0.883833
O O2 0.536371 0.695304 0.981981
O O3 0.697169 0.510576 0.872174
O O4 0.715319 0.637152 0.034184
O O5 0.847719 0.282270 0.538714
O O6 0.629710 0.325736 0.572910
O O7 0.752302 0.574720 0.598209
O O8 0.722454 0.328750 0.715993
O O9 0.014240 0.754395 0.868846
O O10 0.099372 0.509660 0.740984
O O11 0.133181 0.805757 0.692784
O O12 0.916565 0.696779 0.745928
O O13 0.000000 0.500000 0.500000
O O14 0.083379 0.207724 0.452827
O O15 0.247630 0.340616 0.796230
O O16 0.500000 0.500000 0.500000
O O17 0.343524 0.702127 0.607769
#
# Coordination Sequence:
#
# PCOD9250014 Si02
#       8
#     4   4   4   4   4   4   4   4
#     4  12  25  47  71 107 143 186 241 295 357 423
#     4  10  23  45  70 105 138 189 234 289 362 417
#     4  11  25  43  68 107 146 186 235 289 371 422
#     4   9  21  39  68  99 138 181 230 284 350 422
#     4  12  26  43  69 107 146 188 232 302 355 441
#     4  12  26  45  74 104 139 186 241 296 353 434
#     4  11  23  42  72 100 143 185 237 290 358 422
#     4  11  26  47  72 104 142 190 236 298 357 429
#
# _framework density 22.924278999999999
#
# number of rings (size 3 to 8) (size 9 to 14) (size 15 to 20)
#    0.000    1.000    3.750    1.875    5.250    4.500 
#    0.000    0.000    0.000    0.000    0.000    0.000 
#    0.000    0.000    0.000    0.000    0.000    0.000 
#
# Total GULP energy -179121.450709 kJ/mol
# GULP energy per Si atom -5597.545335 kJ/mol
# Density = 2.287210 g / cm^3
# Si number density = 22.924279 Si / 1000 Ang^3
#
#
#
# Elastic Constant Matrix: (Units=GPa)
#
#
# Indices 1 2 3 4 5 6 
#
# 1 124.9858 -0.7190 27.8738 0.0000 15.5443 0.0000
# 2 -0.7190 58.7350 2.1459 0.0000 -3.1931 0.0000
# 3 27.8738 2.1459 95.1904 0.0000 14.0073 0.0000
# 4 0.0000 0.0000 0.0000 35.7125 0.0000 -6.2244
# 5 15.5443 -3.1931 14.0073 0.0000 43.2141 0.0000
# 6 0.0000 0.0000 0.0000 -6.2244 0.0000 23.5054
#
#
#
# Elastic Compliance Matrix: (Units=1/GPa)
#
#
# Indices 1 2 3 4 5 6 
#
# 1 0.008800 0.000056 -0.002219 0.000000 -0.002442 0.000000
# 2 0.000056 0.017127 -0.000615 0.000000 0.001445 0.000000
# 3 -0.002219 -0.000615 0.011612 0.000000 -0.003011 0.000000
# 4 0.000000 0.000000 0.000000 0.029356 0.000000 0.007774
# 5 -0.002442 0.001445 -0.003011 0.000000 0.025102 0.000000
# 6 0.000000 0.000000 0.000000 0.007774 0.000000 0.044602
#
#
# Mechanical properties :
#
#
# Convention : Reuss Voigt Hill
#
# Bulk Modulus (GPa) = 31.26618 37.50141 34.38379
# Shear Modulus (GPa) = 32.71915 37.12710 34.92312
#
# Velocity S-wave (km/s) = 3.78202 4.02873 3.90733
# Velocity P-wave (km/s) = 5.72190 6.16727 5.94875
#
# Compressibility (1/GPa) = 0.03198344
#
# Stress axis : x y z
#
# Youngs Moduli (GPa) = 113.63966 58.38622 86.11847
#
# Poissons Ratio (x) = -0.00327 0.19107
# Poissons Ratio (y) = -0.00637 0.05297
# Poissons Ratio (z) = 0.25213 0.03591
#
# Static dielectric constant tensor:
#      x y z
#    x 1.801230 0.000000 -0.012580 
#    y 0.000000 1.913780 0.000000 
#    z -0.012580 0.000000 1.824680 
# 
# From -- ./inp_files/43710.got.cif
#   From: 2010.05.17/outbox.cif.g08.bks.cpg/sg14_22_cif.got.tgz:43710.got - 2010.06.03 17:49:19.
