data_PCOD9250781
_publ_section_title
;
Structure prediction by ZEFSAII (Michael W. Deem and Ramdas Pophale) SiO2 
 PCOD9250781
Probable space group: P 21/C
;
_chemical_formula_sum "Si O2"
_cell_formula_units_Z 32
_cell_length_a 27.360736
_cell_length_b 5.845790
_cell_length_c 17.017148
_cell_angle_alpha 90.000000
_cell_angle_beta 149.459514
_cell_angle_gamma 90.000000
_cell_volume 1383.079652
_symmetry_space_group_name_H-M "P 21/C"
_symmetry_group_IT_number 14
_symmetry_cell_setting 'monoclinic'
loop_
_space_group_symop_operation_xyz
x,y,z
-x,1/2+y,1/2-z
-x,-y,-z
x,1/2-y,1/2+z
loop_
_atom_site_type_symbol
_atom_site_label
_atom_site_fract_x
_atom_site_fract_y
_atom_site_fract_z
Si Si1 0.699168 0.338812 0.550192
Si Si2 0.194026 0.487991 0.902933
Si Si3 0.676796 0.858512 0.869115
Si Si4 0.570284 0.192545 0.631770
Si Si5 0.478782 0.920153 0.089503
Si Si6 0.056542 0.228481 0.091429
Si Si7 0.056125 0.812316 0.326313
Si Si8 0.132236 0.945084 0.594314
O O1 0.701280 0.534425 0.487037
O O2 0.594905 0.360003 0.444533
O O3 0.779408 0.365234 0.729479
O O4 0.726266 0.108922 0.540789
O O5 0.131980 0.317388 0.764560
O O6 0.121851 0.673636 0.839513
O O7 0.246000 0.336917 0.041240
O O8 0.572892 0.737081 0.727318
O O9 0.665407 0.065883 0.792449
O O10 0.578462 0.368960 0.571469
O O11 0.519345 0.323603 0.633661
O O12 0.500000 0.000000 0.500000
O O13 0.116989 0.288327 0.095956
O O14 0.969624 0.371888 0.009126
O O15 0.000000 0.000000 0.000000
O O16 0.005697 0.558149 0.260919
O O17 0.124956 0.853338 0.496910
#
# Coordination Sequence:
#
# PCOD9250781 Si02
#       8
#     4   4   4   4   4   4   4   4
#     4  12  27  42  71 108 145 194 256 305 384 455
#     4  12  26  46  72 109 150 200 251 319 384 468
#     4  11  25  43  70 106 146 192 248 312 376 453
#     4   9  21  46  74  97 140 194 241 308 374 448
#     4  10  24  46  72 105 145 198 244 309 382 449
#     4  11  21  45  71  94 141 185 245 310 383 443
#     4  12  29  50  80 113 153 207 258 324 397 470
#     4  11  25  43  70 105 137 192 248 311 374 468
#
# _framework density 23.136772000000001
#
# number of rings (size 3 to 8) (size 9 to 14) (size 15 to 20)
#    0.000    1.000    3.750    1.500    7.000    5.000 
#    2.250    0.000    0.000    0.000    0.000    0.000 
#    0.000    0.000    0.000    0.000    0.000    0.000 
#
# Total GULP energy -178447.665444 kJ/mol
# GULP energy per Si atom -5576.489545 kJ/mol
# Density = 2.308411 g / cm^3
# Si number density = 23.136772 Si / 1000 Ang^3
#
#
#
# Elastic Constant Matrix: (Units=GPa)
#
#
# Indices 1 2 3 4 5 6 
#
# 1 75.2318 31.4864 -4.9255 0.0000 -5.9086 0.0000
# 2 31.4864 92.1201 28.6367 0.0000 -2.5036 0.0000
# 3 -4.9255 28.6367 113.5592 0.0000 -12.5539 0.0000
# 4 0.0000 0.0000 0.0000 56.5706 0.0000 -0.9930
# 5 -5.9086 -2.5036 -12.5539 0.0000 34.0964 0.0000
# 6 0.0000 0.0000 0.0000 -0.9930 0.0000 23.3469
#
#
#
# Elastic Compliance Matrix: (Units=1/GPa)
#
#
# Indices 1 2 3 4 5 6 
#
# 1 0.016387 -0.006343 0.002682 0.000000 0.003361 0.000000
# 2 -0.006343 0.014236 -0.004035 0.000000 -0.001540 0.000000
# 3 0.002682 -0.004035 0.010381 0.000000 0.003991 0.000000
# 4 0.000000 0.000000 0.000000 0.017690 0.000000 0.000752
# 5 0.003361 -0.001540 0.003991 0.000000 0.031267 0.000000
# 6 0.000000 0.000000 0.000000 0.000752 0.000000 0.042864
#
#
# Mechanical properties :
#
#
# Convention : Reuss Voigt Hill
#
# Bulk Modulus (GPa) = 39.04642 43.47849 41.26245
# Shear Modulus (GPa) = 31.89675 37.85035 34.87355
#
# Velocity S-wave (km/s) = 3.71700 4.04906 3.88658
# Velocity P-wave (km/s) = 5.94428 6.37908 6.16551
#
# Compressibility (1/GPa) = 0.02561055
#
# Stress axis : x y z
#
# Youngs Moduli (GPa) = 61.02523 70.24396 96.32915
#
# Poissons Ratio (x) = 0.44558 -0.25835
# Poissons Ratio (y) = 0.38710 0.38872
# Poissons Ratio (z) = -0.16367 0.28346
#
# Static dielectric constant tensor:
#      x y z
#    x 1.839010 0.000000 -0.061200 
#    y 0.000000 1.678350 0.000000 
#    z -0.061200 0.000000 1.915420 
# 
# From -- ./inp_files/62508.got.cif
#   From: 2010.05.17/outbox.cif.g08.bks.cpg/sg14_32_cif.got.tgz:62508.got - 2010.06.03 17:49:19.
