data_PCOD9250634
_publ_section_title
;
Structure prediction by ZEFSAII (Michael W. Deem and Ramdas Pophale) SiO2 
 PCOD9250634
Probable space group: P 21/C
;
_chemical_formula_sum "Si O2"
_cell_formula_units_Z 22
_cell_length_a 4.742314
_cell_length_b 28.576711
_cell_length_c 5.853347
_cell_angle_alpha 90.000000
_cell_angle_beta 97.785503
_cell_angle_gamma 90.000000
_cell_volume 785.932037
_symmetry_space_group_name_H-M "P 21/C"
_symmetry_group_IT_number 14
_symmetry_cell_setting 'monoclinic'
loop_
_space_group_symop_operation_xyz
x,y,z
-x,1/2+y,1/2-z
-x,-y,-z
x,1/2-y,1/2+z
loop_
_atom_site_type_symbol
_atom_site_label
_atom_site_fract_x
_atom_site_fract_y
_atom_site_fract_z
Si Si1 0.553207 0.935488 0.227420
Si Si2 0.635526 0.840446 0.449196
Si Si3 0.012833 0.940279 0.946997
Si Si4 0.217622 0.651390 0.257316
Si Si5 0.000000 0.500000 0.000000
Si Si6 0.219700 0.749325 0.911576
O O1 0.595659 0.879233 0.251593
O O2 0.732314 0.962261 0.434822
O O3 0.222978 0.950056 0.190121
O O4 0.697571 0.947476 0.001773
O O5 0.477621 0.866963 0.639442
O O6 0.467221 0.790588 0.426191
O O7 0.966476 0.835722 0.546494
O O8 0.082314 0.886637 0.903007
O O9 0.098594 0.969790 0.738888
O O10 0.331197 0.697731 0.392553
O O11 0.069168 0.744861 0.644750
#
# Coordination Sequence:
#
# PCOD9250634 Si02
#       6
#     4   4   4   4   2   4
#     4  12  27  48  78 112 153 202 260 320 394 472
#     4  11  24  47  76 109 152 201 253 323 391 466
#     4  12  27  48  78 112 153 202 260 320 394 472
#     4  11  24  47  76 109 152 201 253 323 391 466
#     4  12  28  50  76 116 150 204 250 338 386 484
#     4  10  24  44  72 110 148 202 260 318 386 470
#
# _framework density 27.992241
#
# number of rings (size 3 to 8) (size 9 to 14) (size 15 to 20)
#    0.000    0.727    1.818    4.364    0.000   10.182 
#    0.000    3.636    0.000    0.000    0.000    0.000 
#    0.000    0.000    0.000    0.000    0.000    0.000 
#
# Total GULP energy -122582.651281 kJ/mol
# GULP energy per Si atom -5571.938695 kJ/mol
# Density = 2.792853 g / cm^3
# Si number density = 27.992241 Si / 1000 Ang^3
#
#
#
# Elastic Constant Matrix: (Units=GPa)
#
#
# Indices 1 2 3 4 5 6 
#
# 1 127.4823 20.3910 23.6847 0.0000 24.3813 0.0000
# 2 20.3910 151.2496 5.1465 0.0000 24.0484 0.0000
# 3 23.6847 5.1465 114.1766 0.0000 11.7170 0.0000
# 4 0.0000 0.0000 0.0000 51.3112 0.0000 3.8936
# 5 24.3813 24.0484 11.7170 0.0000 53.3392 0.0000
# 6 0.0000 0.0000 0.0000 3.8936 0.0000 46.1240
#
#
#
# Elastic Compliance Matrix: (Units=1/GPa)
#
#
# Indices 1 2 3 4 5 6 
#
# 1 0.008873 -0.000595 -0.001458 0.000000 -0.003467 0.000000
# 2 -0.000595 0.007162 0.000107 0.000000 -0.002980 0.000000
# 3 -0.001458 0.000107 0.009200 0.000000 -0.001403 0.000000
# 4 0.000000 0.000000 0.000000 0.019615 0.000000 -0.001656
# 5 -0.003467 -0.002980 -0.001403 0.000000 0.021985 0.000000
# 6 0.000000 0.000000 0.000000 -0.001656 0.000000 0.021820
#
#
# Mechanical properties :
#
#
# Convention : Reuss Voigt Hill
#
# Bulk Modulus (GPa) = 46.85661 54.59477 50.72569
# Shear Modulus (GPa) = 50.16914 53.06732 51.61823
#
# Velocity S-wave (km/s) = 4.23809 4.35879 4.29886
# Velocity P-wave (km/s) = 6.38154 6.69910 6.54225
#
# Compressibility (1/GPa) = 0.02134170
#
# Stress axis : x y z
#
# Youngs Moduli (GPa) = 112.69542 139.62387 108.69630
#
# Poissons Ratio (x) = 0.08313 0.15848
# Poissons Ratio (y) = 0.06710 -0.01158
# Poissons Ratio (z) = 0.16431 -0.01487
#
# Static dielectric constant tensor:
#      x y z
#    x 2.184350 0.000000 -0.222090 
#    y 0.000000 2.348430 0.000000 
#    z -0.222090 0.000000 2.616060 
# 
# From -- ./inp_files/765.got.cif
#   From: 2010.05.17/outbox.cif.g08.bks.cpg/sg14_1_cif.got.tgz:765.got - 2010.06.03 17:49:19.
