data_PCOD9250399
_publ_section_title
;
Structure prediction by ZEFSAII (Michael W. Deem and Ramdas Pophale) SiO2 
 PCOD9250399
Probable space group: P 21/C
;
_chemical_formula_sum "Si O2"
_cell_formula_units_Z 32
_cell_length_a 8.606094
_cell_length_b 21.074781
_cell_length_c 17.746726
_cell_angle_alpha 90.000000
_cell_angle_beta 30.404778
_cell_angle_gamma 90.000000
_cell_volume 1629.028262
_symmetry_space_group_name_H-M "P 21/C"
_symmetry_group_IT_number 14
_symmetry_cell_setting 'monoclinic'
loop_
_space_group_symop_operation_xyz
x,y,z
-x,1/2+y,1/2-z
-x,-y,-z
x,1/2-y,1/2+z
loop_
_atom_site_type_symbol
_atom_site_label
_atom_site_fract_x
_atom_site_fract_y
_atom_site_fract_z
Si Si1 0.364287 0.340771 0.534393
Si Si2 0.765548 0.245318 0.277367
Si Si3 0.656538 0.967537 0.056343
Si Si4 0.926462 0.429759 0.996857
Si Si5 0.178254 0.162002 0.516336
Si Si6 0.683247 0.978455 0.226937
Si Si7 0.792314 0.571685 0.283455
Si Si8 0.557459 0.441765 0.918968
O O1 0.623930 0.290736 0.401108
O O2 0.325523 0.396894 0.486798
O O3 0.428626 0.377187 0.585582
O O4 0.052401 0.300149 0.675338
O O5 0.478853 0.203019 0.370110
O O6 0.910433 0.292821 0.156720
O O7 0.637053 0.971401 0.155947
O O8 0.359506 0.002602 0.147376
O O9 0.952663 0.011955 0.914337
O O10 0.556397 0.426578 0.140570
O O11 0.000000 0.500000 0.000000
O O12 0.039252 0.378462 0.007873
O O13 0.109991 0.420438 0.843253
O O14 0.303296 0.113021 0.528025
O O15 0.569249 0.037696 0.326178
O O16 0.102996 0.578219 0.200658
O O17 0.500000 0.500000 0.000000
#
# Coordination Sequence:
#
# PCOD9250399 Si02
#       8
#     4   4   4   4   4   4   4   4
#     4  11  23  41  62  91 123 170 220 261 315 381
#     4  10  24  42  67  86 122 182 223 259 304 384
#     4  11  23  38  62  95 136 160 210 273 331 383
#     4  12  22  40  65  96 134 168 208 271 338 389
#     4  11  22  44  67  93 126 173 227 257 315 398
#     4  11  22  36  57  96 134 168 200 256 338 388
#     4  12  23  38  64 100 133 164 202 278 333 384
#     4  12  22  36  64 100 137 165 210 265 336 402
#
# _framework density 19.643612999999998
#
# number of rings (size 3 to 8) (size 9 to 14) (size 15 to 20)
#    0.000    0.750    6.250    1.125    1.750    0.000 
#    0.000    1.250    0.000    0.000    0.000    0.000 
#    0.000    0.000    0.000    0.000    0.000    0.000 
#
# Total GULP energy -178239.533977 kJ/mol
# GULP energy per Si atom -5569.985437 kJ/mol
# Density = 1.959890 g / cm^3
# Si number density = 19.643613 Si / 1000 Ang^3
#
#
#
# Elastic Constant Matrix: (Units=GPa)
#
#
# Indices 1 2 3 4 5 6 
#
# 1 55.8392 45.7138 20.0298 0.0000 13.2703 0.0000
# 2 45.7138 123.2497 59.9328 0.0000 11.9790 0.0000
# 3 20.0298 59.9328 103.7103 0.0000 5.2555 0.0000
# 4 0.0000 0.0000 0.0000 44.0147 0.0000 2.6178
# 5 13.2703 11.9790 5.2555 0.0000 26.2201 0.0000
# 6 0.0000 0.0000 0.0000 2.6178 0.0000 26.6455
#
#
#
# Elastic Compliance Matrix: (Units=1/GPa)
#
#
# Indices 1 2 3 4 5 6 
#
# 1 0.027995 -0.009792 0.000751 0.000000 -0.009846 0.000000
# 2 -0.009792 0.015116 -0.006815 0.000000 -0.000584 0.000000
# 3 0.000751 -0.006815 0.013433 0.000000 0.000041 0.000000
# 4 0.000000 0.000000 0.000000 0.022853 0.000000 -0.002245
# 5 -0.009846 -0.000584 0.000041 0.000000 0.043381 0.000000
# 6 0.000000 0.000000 0.000000 -0.002245 0.000000 0.037750
#
#
# Mechanical properties :
#
#
# Convention : Reuss Voigt Hill
#
# Bulk Modulus (GPa) = 40.26860 59.35021 49.80940
# Shear Modulus (GPa) = 24.93548 29.85093 27.39320
#
# Velocity S-wave (km/s) = 3.56672 3.90247 3.73836
# Velocity P-wave (km/s) = 6.12422 7.11229 6.63667
#
# Compressibility (1/GPa) = 0.02483325
#
# Stress axis : x y z
#
# Youngs Moduli (GPa) = 35.72027 66.15555 74.44201
#
# Poissons Ratio (x) = 0.64777 -0.05588
# Poissons Ratio (y) = 0.34976 0.50729
# Poissons Ratio (z) = -0.02681 0.45082
#
# Static dielectric constant tensor:
#      x y z
#    x 1.700000 0.000000 -0.009790 
#    y 0.000000 1.743860 0.000000 
#    z -0.009790 0.000000 1.783320 
# 
# From -- ./inp_files/56228.got.cif
#   From: 2010.05.17/outbox.cif.g08.bks.cpg/sg14_29_cif.got.tgz:56228.got - 2010.06.03 17:49:19.
