data_PCOD9250571
_publ_section_title
;
Structure prediction by ZEFSAII (Michael W. Deem and Ramdas Pophale) SiO2 
 PCOD9250571
Probable space group: P 21/C
;
_chemical_formula_sum "Si O2"
_cell_formula_units_Z 28
_cell_length_a 6.956568
_cell_length_b 28.098775
_cell_length_c 8.936944
_cell_angle_alpha 90.000000
_cell_angle_beta 125.729970
_cell_angle_gamma 90.000000
_cell_volume 1418.106448
_symmetry_space_group_name_H-M "P 21/C"
_symmetry_group_IT_number 14
_symmetry_cell_setting 'monoclinic'
loop_
_space_group_symop_operation_xyz
x,y,z
-x,1/2+y,1/2-z
-x,-y,-z
x,1/2-y,1/2+z
loop_
_atom_site_type_symbol
_atom_site_label
_atom_site_fract_x
_atom_site_fract_y
_atom_site_fract_z
Si Si1 0.330043 0.812699 0.106497
Si Si2 0.223967 0.315687 0.693991
Si Si3 0.554129 0.752376 0.454442
Si Si4 0.053037 0.961369 0.899085
Si Si5 0.259683 0.994629 0.688498
Si Si6 0.441495 0.911170 0.245576
Si Si7 0.444241 0.083728 0.361752
O O1 0.363731 0.782132 0.272520
O O2 0.495646 0.859065 0.206654
O O3 0.427313 0.781628 0.015008
O O4 0.055666 0.823683 0.950934
O O5 0.305046 0.280393 0.598625
O O6 0.373929 0.365010 0.761138
O O7 0.284030 0.288773 0.876989
O O8 0.215461 0.981696 0.841026
O O9 0.806812 0.942263 0.722804
O O10 0.192451 0.922201 0.055392
O O11 0.000000 0.000000 0.000000
O O12 0.403334 0.951772 0.673037
O O13 0.393089 0.044673 0.725600
O O14 0.000000 0.000000 0.500000
O O15 0.432311 0.909837 0.421173
#
# Coordination Sequence:
#
# PCOD9250571 Si02
#       7
#     4   4   4   4   4   4   4
#     4  11  23  43  69  96 132 170 221 273 331 393
#     4  11  23  43  69  96 130 173 218 270 337 384
#     4  10  24  44  66  97 131 169 218 276 329 400
#     4  12  25  44  70  93 135 179 218 276 329 396
#     4  12  26  45  68  99 138 179 222 272 329 398
#     4  12  24  44  66  98 136 174 221 271 332 390
#     4  12  25  44  67  99 137 174 222 275 330 394
#
# _framework density 19.744637999999998
#
# number of rings (size 3 to 8) (size 9 to 14) (size 15 to 20)
#    0.000    0.571    5.714    2.571    2.000    0.000 
#    2.571    1.429    0.000    0.000    0.000    0.000 
#    0.000    0.000    0.000    0.000    0.000    0.000 
#
# Total GULP energy -156394.444121 kJ/mol
# GULP energy per Si atom -5585.515861 kJ/mol
# Density = 1.969970 g / cm^3
# Si number density = 19.744638 Si / 1000 Ang^3
#
#
#
# Elastic Constant Matrix: (Units=GPa)
#
#
# Indices 1 2 3 4 5 6 
#
# 1 71.9271 45.1380 53.2253 0.0000 5.7407 0.0000
# 2 45.1380 140.6319 51.6039 0.0000 -0.8776 0.0000
# 3 53.2253 51.6039 130.3672 0.0000 -10.2935 0.0000
# 4 0.0000 0.0000 0.0000 2.9962 0.0000 40.4048
# 5 5.7407 -0.8776 -10.2935 0.0000 27.6736 0.0000
# 6 0.0000 0.0000 0.0000 40.4048 0.0000 -23.5403
#
#
#
# Elastic Compliance Matrix: (Units=1/GPa)
#
#
# Indices 1 2 3 4 5 6 
#
# 1 0.023728 -0.004532 -0.008544 0.000000 -0.008244 0.000000
# 2 -0.004532 0.009211 -0.001750 0.000000 0.000581 0.000000
# 3 -0.008544 -0.001750 0.012350 0.000000 0.006311 0.000000
# 4 0.000000 0.000000 0.000000 0.013822 0.000000 0.023725
# 5 -0.008244 0.000581 0.006311 0.000000 0.040211 0.000000
# 6 0.000000 0.000000 0.000000 0.023725 0.000000 -0.001759
#
#
# Mechanical properties :
#
#
# Convention : Reuss Voigt Hill
#
# Bulk Modulus (GPa) = 63.95341 71.42896 67.69118
# Shear Modulus (GPa) = 37.75637 14.28983 26.02310
#
# Velocity S-wave (km/s) = 4.37765 2.69315 3.63434
# Velocity P-wave (km/s) = 7.61659 6.77685 7.20895
#
# Compressibility (1/GPa) = 0.01563638
#
# Stress axis : x y z
#
# Youngs Moduli (GPa) = 42.14471 108.56471 80.97119
#
# Poissons Ratio (x) = 0.49201 0.69185
# Poissons Ratio (y) = 0.19100 0.14169
# Poissons Ratio (z) = 0.36010 0.18998
#
# Static dielectric constant tensor:
#      x y z
#    x 1.688310 0.000000 0.042000 
#    y 0.000000 1.683980 0.000000 
#    z 0.042000 0.000000 1.734320 
# 
# From -- ./inp_files/7021.got.cif
#   From: 2010.05.17/outbox.cif.g08.bks.cpg/sg14_4_cif.got.tgz:7021.got - 2010.06.03 17:49:19.
