data_PCOD9250136
_publ_section_title
;
Structure prediction by ZEFSAII (Michael W. Deem and Ramdas Pophale) SiO2 
 PCOD9250136
Probable space group: P 21/C
;
_chemical_formula_sum "Si O2"
_cell_formula_units_Z 32
_cell_length_a 10.104187
_cell_length_b 13.816478
_cell_length_c 23.397187
_cell_angle_alpha 90.000000
_cell_angle_beta 24.323579
_cell_angle_gamma 90.000000
_cell_volume 1345.373847
_symmetry_space_group_name_H-M "P 21/C"
_symmetry_group_IT_number 14
_symmetry_cell_setting 'monoclinic'
loop_
_space_group_symop_operation_xyz
x,y,z
-x,1/2+y,1/2-z
-x,-y,-z
x,1/2-y,1/2+z
loop_
_atom_site_type_symbol
_atom_site_label
_atom_site_fract_x
_atom_site_fract_y
_atom_site_fract_z
Si Si1 0.721776 0.039201 0.362690
Si Si2 0.203455 0.744706 0.521591
Si Si3 0.151964 0.156918 0.731647
Si Si4 0.729893 0.418112 0.596444
Si Si5 0.175538 0.415218 0.895862
Si Si6 0.830682 0.652376 0.486356
Si Si7 0.640470 0.187344 0.303219
Si Si8 0.635920 0.467232 0.385811
O O1 0.626394 0.137465 0.370575
O O2 0.500000 0.000000 0.500000
O O3 0.731372 0.955785 0.309231
O O4 0.087258 0.041088 0.241526
O O5 0.540649 0.786288 0.412849
O O6 0.277820 0.647860 0.456452
O O7 0.964715 0.710740 0.665718
O O8 0.047525 0.829603 0.543258
O O9 0.839735 0.132707 0.815733
O O10 0.392368 0.450758 0.756742
O O11 0.000000 0.500000 0.500000
O O12 0.882745 0.341217 0.581868
O O13 0.422574 0.374736 0.845767
O O14 0.000000 0.500000 0.000000
O O15 0.537965 0.712136 0.625976
O O16 0.661996 0.550361 0.538017
O O17 0.995603 0.687530 0.362792
O O18 0.500000 0.500000 0.500000
#
# Coordination Sequence:
#
# PCOD9250136 Si02
#       8
#     4   4   4   4   4   4   4   4
#     4  10  24  48  69  97 140 185 242 295 361 433
#     4  12  23  49  69 110 150 187 248 301 370 439
#     4  10  26  44  72 101 147 189 237 305 360 433
#     4  11  27  43  71 106 143 195 237 300 365 436
#     4  11  25  44  72 103 144 191 233 295 365 428
#     4  11  24  44  67 100 138 182 235 288 351 424
#     4  11  24  42  68 100 138 177 233 293 352 429
#     4  10  23  47  68  98 136 191 233 295 356 425
#
# _framework density 23.785209999999999
#
# number of rings (size 3 to 8) (size 9 to 14) (size 15 to 20)
#    0.750    0.500    3.750    0.750    8.750    3.000 
#    4.500    0.000    0.000    0.000    0.000    0.000 
#    0.000    0.000    0.000    0.000    0.000    0.000 
#
# Total GULP energy -178531.875923 kJ/mol
# GULP energy per Si atom -5579.121123 kJ/mol
# Density = 2.373107 g / cm^3
# Si number density = 23.785210 Si / 1000 Ang^3
#
#
#
# Elastic Constant Matrix: (Units=GPa)
#
#
# Indices 1 2 3 4 5 6 
#
# 1 53.0597 -6.9357 0.8565 0.0000 -13.8506 0.0000
# 2 -6.9357 79.2610 14.9364 0.0000 -4.2908 0.0000
# 3 0.8565 14.9364 107.6007 0.0000 -6.3383 0.0000
# 4 0.0000 0.0000 0.0000 39.5845 0.0000 -3.1534
# 5 -13.8506 -4.2908 -6.3383 0.0000 25.8236 0.0000
# 6 0.0000 0.0000 0.0000 -3.1534 0.0000 40.3203
#
#
#
# Elastic Compliance Matrix: (Units=1/GPa)
#
#
# Indices 1 2 3 4 5 6 
#
# 1 0.022453 0.002606 0.000197 0.000000 0.012524 0.000000
# 2 0.002606 0.013335 -0.001683 0.000000 0.003200 0.000000
# 3 0.000197 -0.001683 0.009655 0.000000 0.002196 0.000000
# 4 0.000000 0.000000 0.000000 0.025421 0.000000 0.001988
# 5 0.012524 0.003200 0.002196 0.000000 0.046513 0.000000
# 6 0.000000 0.000000 0.000000 0.001988 0.000000 0.024957
#
#
# Mechanical properties :
#
#
# Convention : Reuss Voigt Hill
#
# Bulk Modulus (GPa) = 20.97194 28.62622 24.79908
# Shear Modulus (GPa) = 32.05361 36.54997 34.30179
#
# Velocity S-wave (km/s) = 3.67499 3.92429 3.80168
# Velocity P-wave (km/s) = 5.18109 5.70919 5.45154
#
# Compressibility (1/GPa) = 0.04768275
#
# Stress axis : x y z
#
# Youngs Moduli (GPa) = 44.53661 74.99068 103.57254
#
# Poissons Ratio (x) = -0.19540 -0.02044
# Poissons Ratio (y) = -0.11604 0.17435
# Poissons Ratio (z) = -0.00879 0.12623
#
# Static dielectric constant tensor:
#      x y z
#    x 2.323010 0.000000 -0.078950 
#    y 0.000000 2.033760 0.000000 
#    z -0.078950 0.000000 2.041520 
# 
# From -- ./inp_files/77268.got.cif
#   From: 2010.05.17/outbox.cif.g08.bks.cpg/sg14_39_cif.got.tgz:77268.got - 2010.06.03 17:49:19.
