data_PCOD9250761
_publ_section_title
;
Structure prediction by ZEFSAII (Michael W. Deem and Ramdas Pophale) SiO2 
 PCOD9250761
Probable space group: P 21/C
;
_chemical_formula_sum "Si O2"
_cell_formula_units_Z 24
_cell_length_a 18.158817
_cell_length_b 5.865118
_cell_length_c 18.139104
_cell_angle_alpha 90.000000
_cell_angle_beta 153.299755
_cell_angle_gamma 90.000000
_cell_volume 868.037748
_symmetry_space_group_name_H-M "P 21/C"
_symmetry_group_IT_number 14
_symmetry_cell_setting 'monoclinic'
loop_
_space_group_symop_operation_xyz
x,y,z
-x,1/2+y,1/2-z
-x,-y,-z
x,1/2-y,1/2+z
loop_
_atom_site_type_symbol
_atom_site_label
_atom_site_fract_x
_atom_site_fract_y
_atom_site_fract_z
Si Si1 0.999673 0.404107 0.669932
Si Si2 0.585812 0.418535 0.150459
Si Si3 0.692429 0.901003 0.060457
Si Si4 0.577290 0.661948 0.734678
Si Si5 0.103437 0.407385 0.922207
Si Si6 0.814088 0.426205 0.824538
O O1 0.980799 0.429978 0.742045
O O2 0.952772 0.654733 0.597798
O O3 0.188018 0.317676 0.835391
O O4 0.908895 0.173211 0.561372
O O5 0.482894 0.194338 0.073150
O O6 0.560745 0.577646 0.197050
O O7 0.769525 0.336208 0.300647
O O8 0.500000 0.500000 0.000000
O O9 0.609001 0.067466 0.924812
O O10 0.761537 0.038025 0.192450
O O11 0.708403 0.588624 0.785012
O O12 0.700796 0.623616 0.912870
O O13 0.000000 0.500000 0.000000
#
# Coordination Sequence:
#
# PCOD9250761 Si02
#       6
#     4   4   4   4   4   4
#     4  10  24  47  68  95 129 169 220 274 328 381
#     4  11  21  40  58  87 132 169 206 266 325 383
#     4  11  23  39  62  93 129 170 213 270 323 391
#     4  11  23  40  62  90 128 170 212 265 326 387
#     4  10  24  46  69  94 129 171 218 275 325 386
#     4  11  23  37  59  92 125 166 218 260 320 389
#
# _framework density 27.648567
#
# number of rings (size 3 to 8) (size 9 to 14) (size 15 to 20)
#    0.000    1.333    3.333    2.000    9.333    2.000 
#    3.000    0.000    0.000    0.000    0.000    0.000 
#    0.000    0.000    0.000    0.000    0.000    0.000 
#
# Total GULP energy -133654.264434 kJ/mol
# GULP energy per Si atom -5568.927685 kJ/mol
# Density = 2.758564 g / cm^3
# Si number density = 27.648567 Si / 1000 Ang^3
#
#
#
# Elastic Constant Matrix: (Units=GPa)
#
#
# Indices 1 2 3 4 5 6 
#
# 1 35.3530 23.2916 1.6747 0.0000 -3.8333 0.0000
# 2 23.2916 150.2973 60.6087 0.0000 12.4964 0.0000
# 3 1.6747 60.6087 203.5969 0.0000 12.9177 0.0000
# 4 0.0000 0.0000 0.0000 53.1512 0.0000 13.7771
# 5 -3.8333 12.4964 12.9177 0.0000 38.0560 0.0000
# 6 0.0000 0.0000 0.0000 13.7771 0.0000 32.5874
#
#
#
# Elastic Compliance Matrix: (Units=1/GPa)
#
#
# Indices 1 2 3 4 5 6 
#
# 1 0.032672 -0.005947 0.001195 0.000000 0.004838 0.000000
# 2 -0.005947 0.008760 -0.002390 0.000000 -0.002664 0.000000
# 3 0.001195 -0.002390 0.005678 0.000000 -0.001022 0.000000
# 4 0.000000 0.000000 0.000000 0.021130 0.000000 -0.008933
# 5 0.004838 -0.002664 -0.001022 0.000000 0.027986 0.000000
# 6 0.000000 0.000000 0.000000 -0.008933 0.000000 0.034463
#
#
# Mechanical properties :
#
#
# Convention : Reuss Voigt Hill
#
# Bulk Modulus (GPa) = 30.46367 62.26635 46.36501
# Shear Modulus (GPa) = 32.06826 45.00376 38.53601
#
# Velocity S-wave (km/s) = 3.40936 4.03886 3.73739
# Velocity P-wave (km/s) = 5.15173 6.65728 5.95230
#
# Compressibility (1/GPa) = 0.03282599
#
# Stress axis : x y z
#
# Youngs Moduli (GPa) = 30.60684 114.14971 176.11361
#
# Poissons Ratio (x) = 0.67888 -0.21041
# Poissons Ratio (y) = 0.18203 0.42090
# Poissons Ratio (z) = -0.03657 0.27281
#
# Static dielectric constant tensor:
#      x y z
#    x 2.360070 0.000000 0.026770 
#    y 0.000000 2.163190 0.000000 
#    z 0.026770 0.000000 2.054480 
# 
# From -- ./inp_files/71625.got.cif
#   From: 2010.05.17/outbox.cif.g08.bks.cpg/sg14_36_cif.got.tgz:71625.got - 2010.06.03 17:49:19.
