data_PCOD9250577
_publ_section_title
;
Structure prediction by ZEFSAII (Michael W. Deem and Ramdas Pophale) SiO2 
 PCOD9250577
Probable space group: P 21/C
;
_chemical_formula_sum "Si O2"
_cell_formula_units_Z 20
_cell_length_a 11.478579
_cell_length_b 9.461334
_cell_length_c 9.906842
_cell_angle_alpha 90.000000
_cell_angle_beta 41.052996
_cell_angle_gamma 90.000000
_cell_volume 706.610896
_symmetry_space_group_name_H-M "P 21/C"
_symmetry_group_IT_number 14
_symmetry_cell_setting 'monoclinic'
loop_
_space_group_symop_operation_xyz
x,y,z
-x,1/2+y,1/2-z
-x,-y,-z
x,1/2-y,1/2+z
loop_
_atom_site_type_symbol
_atom_site_label
_atom_site_fract_x
_atom_site_fract_y
_atom_site_fract_z
Si Si1 0.405043 0.797473 0.827015
Si Si2 0.329547 0.903772 0.167112
Si Si3 0.014444 0.426849 0.821499
Si Si4 0.813165 0.557655 0.604897
Si Si5 0.192740 0.190371 0.621936
O O1 0.337325 0.662402 0.805568
O O2 0.615485 0.799426 0.627095
O O3 0.316649 0.936702 0.838838
O O4 0.338604 0.791576 0.038829
O O5 0.156136 0.996076 0.294000
O O6 0.500000 0.000000 0.000000
O O7 0.131640 0.361577 0.584748
O O8 0.013612 0.265585 0.864123
O O9 0.896525 0.550466 0.867689
O O10 0.721845 0.643128 0.804324
O O11 0.000000 0.500000 0.500000
#
# Coordination Sequence:
#
# PCOD9250577 Si02
#       5
#     4   4   4   4   4
#     4  11  25  45  77 101 145 191 243 299 366 431
#     4  11  25  49  71 107 145 186 248 307 357 439
#     4  10  24  44  67 101 149 181 243 308 356 439
#     4   9  22  44  65  98 140 185 233 295 359 432
#     4  11  23  43  70 103 140 193 243 294 372 429
#
# _framework density 28.304120999999999
#
# number of rings (size 3 to 8) (size 9 to 14) (size 15 to 20)
#    0.000    1.600    2.000    0.600    8.400    1.600 
#    7.200    2.000    0.000    0.000    0.000    0.000 
#    0.000    0.000    0.000    0.000    0.000    0.000 
#
# Total GULP energy -111731.118550 kJ/mol
# GULP energy per Si atom -5586.555927 kJ/mol
# Density = 2.823970 g / cm^3
# Si number density = 28.304121 Si / 1000 Ang^3
#
#
#
# Elastic Constant Matrix: (Units=GPa)
#
#
# Indices 1 2 3 4 5 6 
#
# 1 121.4545 48.1469 29.7670 0.0000 -14.8691 0.0000
# 2 48.1469 152.7930 33.4001 0.0000 -5.6921 0.0000
# 3 29.7670 33.4001 88.6535 0.0000 -30.9954 0.0000
# 4 0.0000 0.0000 0.0000 53.4288 0.0000 2.0554
# 5 -14.8691 -5.6921 -30.9954 0.0000 36.8498 0.0000
# 6 0.0000 0.0000 0.0000 2.0554 0.0000 53.6515
#
#
#
# Elastic Compliance Matrix: (Units=1/GPa)
#
#
# Indices 1 2 3 4 5 6 
#
# 1 0.009969 -0.002726 -0.001503 0.000000 0.002337 0.000000
# 2 -0.002726 0.007948 -0.002882 0.000000 -0.002296 0.000000
# 3 -0.001503 -0.002882 0.017711 0.000000 0.013846 0.000000
# 4 0.000000 0.000000 0.000000 0.018744 0.000000 -0.000718
# 5 0.002337 -0.002296 0.013846 0.000000 0.039371 0.000000
# 6 0.000000 0.000000 0.000000 -0.000718 0.000000 0.018666
#
#
# Mechanical properties :
#
#
# Convention : Reuss Voigt Hill
#
# Bulk Modulus (GPa) = 46.71569 65.05879 55.88724
# Shear Modulus (GPa) = 37.37846 45.55849 41.46847
#
# Velocity S-wave (km/s) = 3.63795 4.01634 3.83182
# Velocity P-wave (km/s) = 5.84696 6.67409 6.27417
#
# Compressibility (1/GPa) = 0.02140608
#
# Stress axis : x y z
#
# Youngs Moduli (GPa) = 100.31589 125.81570 56.46140
#
# Poissons Ratio (x) = 0.34292 0.08487
# Poissons Ratio (y) = 0.27341 0.16273
# Poissons Ratio (z) = 0.15080 0.36262
#
# Static dielectric constant tensor:
#      x y z
#    x 2.343560 0.000000 -0.187360 
#    y 0.000000 1.516250 0.000000 
#    z -0.187360 0.000000 3.263220 
# 
# From -- ./inp_files/28891.got.cif
#   From: 2010.05.17/outbox.cif.g08.bks.cpg/sg14_15_cif.got.tgz:28891.got - 2010.06.03 17:49:19.
