data_PCOD9250700
_publ_section_title
;
Structure prediction by ZEFSAII (Michael W. Deem and Ramdas Pophale) SiO2 
 PCOD9250700
Probable space group: P 21/C
;
_chemical_formula_sum "Si O2"
_cell_formula_units_Z 18
_cell_length_a 8.973781
_cell_length_b 5.009689
_cell_length_c 18.026161
_cell_angle_alpha 90.000000
_cell_angle_beta 54.971872
_cell_angle_gamma 90.000000
_cell_volume 663.597331
_symmetry_space_group_name_H-M "P 21/C"
_symmetry_group_IT_number 14
_symmetry_cell_setting 'monoclinic'
loop_
_space_group_symop_operation_xyz
x,y,z
-x,1/2+y,1/2-z
-x,-y,-z
x,1/2-y,1/2+z
loop_
_atom_site_type_symbol
_atom_site_label
_atom_site_fract_x
_atom_site_fract_y
_atom_site_fract_z
Si Si1 0.334528 0.680413 0.464766
Si Si2 0.375102 0.093064 0.802436
Si Si3 0.000000 0.000000 0.500000
Si Si4 0.887912 0.272864 0.192403
Si Si5 0.729456 0.878835 0.863093
O O1 0.317281 0.457161 0.404324
O O2 0.299331 0.547491 0.553695
O O3 0.542548 0.782304 0.404198
O O4 0.180732 0.891119 0.491765
O O5 0.522561 0.867219 0.739006
O O6 0.198347 0.017264 0.803459
O O7 0.090818 0.908126 0.393693
O O8 0.757115 0.421684 0.286868
O O9 0.083250 0.271526 0.175997
#
# Coordination Sequence:
#
# PCOD9250700 Si02
#       5
#     4   4   2   4   4
#     4  10  24  45  71 107 156 197 265 315 405 460
#     4  11  25  47  75 111 150 208 259 323 385 482
#     4  10  24  46  66 108 140 214 246 328 370 492
#     4  11  25  43  74 104 158 197 264 317 402 468
#     4  11  24  46  68 113 151 209 250 340 391 479
#
# _framework density 27.124886
#
# number of rings (size 3 to 8) (size 9 to 14) (size 15 to 20)
#    0.000    1.333    2.222    1.333    3.111   11.556 
#    0.000    0.000    0.000    0.000    0.000    0.000 
#    0.000    0.000    0.000    0.000    0.000    0.000 
#
# Total GULP energy -100612.394725 kJ/mol
# GULP energy per Si atom -5589.577485 kJ/mol
# Density = 2.706315 g / cm^3
# Si number density = 27.124886 Si / 1000 Ang^3
#
#
#
# Elastic Constant Matrix: (Units=GPa)
#
#
# Indices 1 2 3 4 5 6 
#
# 1 210.7322 42.8529 38.3564 0.0000 -7.5543 0.0000
# 2 42.8529 71.2029 36.2562 0.0000 -13.6509 0.0000
# 3 38.3564 36.2562 149.9956 0.0000 19.0347 0.0000
# 4 0.0000 0.0000 0.0000 20.8192 0.0000 4.1371
# 5 -7.5543 -13.6509 19.0347 0.0000 62.3661 0.0000
# 6 0.0000 0.0000 0.0000 4.1371 0.0000 37.4987
#
#
#
# Elastic Compliance Matrix: (Units=1/GPa)
#
#
# Indices 1 2 3 4 5 6 
#
# 1 0.005472 -0.002867 -0.000740 0.000000 0.000261 0.000000
# 2 -0.002867 0.019082 -0.004541 0.000000 0.005215 0.000000
# 3 -0.000740 -0.004541 0.008417 0.000000 -0.003653 0.000000
# 4 0.000000 0.000000 0.000000 0.049109 0.000000 -0.005418
# 5 0.000261 0.005215 -0.003653 0.000000 0.018322 0.000000
# 6 0.000000 0.000000 0.000000 -0.005418 0.000000 0.027265
#
#
# Mechanical properties :
#
#
# Convention : Reuss Voigt Hill
#
# Bulk Modulus (GPa) = 59.96502 74.09574 67.03038
# Shear Modulus (GPa) = 33.43987 45.10116 39.27051
#
# Velocity S-wave (km/s) = 3.51495 4.08207 3.80908
# Velocity P-wave (km/s) = 6.21516 7.04227 6.64160
#
# Compressibility (1/GPa) = 0.01667639
#
# Stress axis : x y z
#
# Youngs Moduli (GPa) = 182.73845 52.40542 118.80501
#
# Poissons Ratio (x) = 0.15024 0.08786
# Poissons Ratio (y) = 0.52388 0.53951
# Poissons Ratio (z) = 0.13514 0.23798
#
# Static dielectric constant tensor:
#      x y z
#    x 2.135020 0.000000 -0.038310 
#    y 0.000000 2.159870 0.000000 
#    z -0.038310 0.000000 2.069490 
# 
# From -- ./inp_files/53905.got.cif
#   From: 2010.05.17/outbox.cif.g08.bks.cpg/sg14_27_cif.got.tgz:53905.got - 2010.06.03 17:49:19.
