data_PCOD9250348
_publ_section_title
;
Structure prediction by ZEFSAII (Michael W. Deem and Ramdas Pophale) SiO2 
 PCOD9250348
Probable space group: P 21/C
;
_chemical_formula_sum "Si O2"
_cell_formula_units_Z 16
_cell_length_a 9.452274
_cell_length_b 15.139622
_cell_length_c 9.195754
_cell_angle_alpha 90.000000
_cell_angle_beta 30.810961
_cell_angle_gamma 90.000000
_cell_volume 674.037937
_symmetry_space_group_name_H-M "P 21/C"
_symmetry_group_IT_number 14
_symmetry_cell_setting 'monoclinic'
loop_
_space_group_symop_operation_xyz
x,y,z
-x,1/2+y,1/2-z
-x,-y,-z
x,1/2-y,1/2+z
loop_
_atom_site_type_symbol
_atom_site_label
_atom_site_fract_x
_atom_site_fract_y
_atom_site_fract_z
Si Si1 0.163513 0.189187 0.544972
Si Si2 0.560393 0.859264 0.281914
Si Si3 0.296454 0.004629 0.313607
Si Si4 0.887899 0.319766 0.592481
O O1 0.309223 0.097961 0.383579
O O2 0.383410 0.269852 0.361050
O O3 0.956974 0.179698 0.862306
O O4 0.983292 0.223270 0.566967
O O5 0.874911 0.884286 0.046233
O O6 0.385418 0.928251 0.345605
O O7 0.397618 0.840312 0.575600
O O8 0.000000 0.000000 0.500000
O O9 0.500000 0.000000 0.000000
#
# Coordination Sequence:
#
# PCOD9250348 Si02
#       4
#     4   4   4   4
#     4  10  26  43  72  99 142 182 227 287 344 407
#     4  10  25  42  67 101 139 175 235 275 343 410
#     4  12  27  44  72 103 141 182 235 283 346 415
#     4  10  24  41  70  96 142 178 229 277 349 400
#
# _framework density 23.737535999999999
#
# number of rings (size 3 to 8) (size 9 to 14) (size 15 to 20)
#    1.500    0.000    0.000    3.000   10.500    2.000 
#    0.000    0.000    0.000    0.000    0.000    0.000 
#    0.000    0.000    0.000    0.000    0.000    0.000 
#
# Total GULP energy -89416.115448 kJ/mol
# GULP energy per Si atom -5588.507215 kJ/mol
# Density = 2.368351 g / cm^3
# Si number density = 23.737536 Si / 1000 Ang^3
#
#
#
# Elastic Constant Matrix: (Units=GPa)
#
#
# Indices 1 2 3 4 5 6 
#
# 1 51.7997 18.5193 21.9291 0.0000 23.1190 0.0000
# 2 18.5193 91.7495 5.6567 0.0000 17.0465 0.0000
# 3 21.9291 5.6567 172.8870 0.0000 25.4742 0.0000
# 4 0.0000 0.0000 0.0000 19.9418 0.0000 7.1748
# 5 23.1190 17.0465 25.4742 0.0000 58.6645 0.0000
# 6 0.0000 0.0000 0.0000 7.1748 0.0000 36.8630
#
#
#
# Elastic Compliance Matrix: (Units=1/GPa)
#
#
# Indices 1 2 3 4 5 6 
#
# 1 0.024891 -0.003422 -0.001866 0.000000 -0.008005 0.000000
# 2 -0.003422 0.011994 0.000381 0.000000 -0.002302 0.000000
# 3 -0.001866 0.000381 0.006321 0.000000 -0.002120 0.000000
# 4 0.000000 0.000000 0.000000 0.053922 0.000000 -0.010495
# 5 -0.008005 -0.002302 -0.002120 0.000000 0.021790 0.000000
# 6 0.000000 0.000000 0.000000 -0.010495 0.000000 0.029170
#
#
# Mechanical properties :
#
#
# Convention : Reuss Voigt Hill
#
# Bulk Modulus (GPa) = 29.94718 45.40518 37.67618
# Shear Modulus (GPa) = 29.58012 41.11595 35.34803
#
# Velocity S-wave (km/s) = 3.53389 4.16637 3.86310
# Velocity P-wave (km/s) = 5.41244 6.50495 5.98368
#
# Compressibility (1/GPa) = 0.03339213
#
# Stress axis : x y z
#
# Youngs Moduli (GPa) = 40.17516 83.37392 158.21030
#
# Poissons Ratio (x) = 0.28530 0.29518
# Poissons Ratio (y) = 0.13747 -0.06025
# Poissons Ratio (z) = 0.07496 -0.03175
#
# Static dielectric constant tensor:
#      x y z
#    x 2.070940 0.000000 -0.085010 
#    y 0.000000 1.904610 0.000000 
#    z -0.085010 0.000000 1.840070 
# 
# From -- ./inp_files/8950.got.cif
#   From: 2010.05.17/outbox.cif.g08.bks.cpg/sg14_5_cif.got.tgz:8950.got - 2010.06.03 17:49:19.
