data_PCOD9250017
_publ_section_title
;
Structure prediction by ZEFSAII (Michael W. Deem and Ramdas Pophale) SiO2 
 PCOD9250017
Probable space group: P 21/C
;
_chemical_formula_sum "Si O2"
_cell_formula_units_Z 28
_cell_length_a 9.139460
_cell_length_b 18.952106
_cell_length_c 9.361011
_cell_angle_alpha 90.000000
_cell_angle_beta 133.949838
_cell_angle_gamma 90.000000
_cell_volume 1167.351680
_symmetry_space_group_name_H-M "P 21/C"
_symmetry_group_IT_number 14
_symmetry_cell_setting 'monoclinic'
loop_
_space_group_symop_operation_xyz
x,y,z
-x,1/2+y,1/2-z
-x,-y,-z
x,1/2-y,1/2+z
loop_
_atom_site_type_symbol
_atom_site_label
_atom_site_fract_x
_atom_site_fract_y
_atom_site_fract_z
Si Si1 0.806273 0.210449 0.173077
Si Si2 0.771107 0.687205 0.881128
Si Si3 0.865317 0.931628 0.058673
Si Si4 0.622937 0.704656 0.495356
Si Si5 0.228966 0.651797 0.671811
Si Si6 0.524234 0.481029 0.177303
Si Si7 0.702004 0.971396 0.220962
O O1 0.598517 0.179920 0.101165
O O2 0.774737 0.292155 0.199803
O O3 0.010436 0.186441 0.393336
O O4 0.812634 0.189823 0.009831
O O5 0.755386 0.729887 0.721189
O O6 0.622506 0.731423 0.883616
O O7 0.719369 0.609835 0.785865
O O8 0.738563 0.860445 0.004262
O O9 0.721237 0.979481 0.867640
O O10 0.877263 0.973662 0.219326
O O11 0.057727 0.904036 0.104681
O O12 0.424363 0.602055 0.785310
O O13 0.336637 0.505698 0.150557
O O14 0.500000 0.500000 0.000000
O O15 0.500000 0.000000 0.000000
#
# Coordination Sequence:
#
# PCOD9250017 Si02
#       7
#     4   4   4   4   4   4   4
#     4  12  26  44  73 110 148 194 244 312 380 454
#     4  11  23  42  72 103 150 190 244 311 372 445
#     4  10  23  45  70  97 150 190 241 313 365 442
#     4  11  23  42  68 103 144 190 243 312 377 445
#     4  12  26  47  69 110 150 186 251 304 379 452
#     4  11  25  46  74 105 142 197 251 303 376 446
#     4   9  21  44  70  97 144 196 244 296 367 439
#
# _framework density 23.985916
#
# number of rings (size 3 to 8) (size 9 to 14) (size 15 to 20)
#    0.000    1.143    1.429    4.714    4.000    2.286 
#    0.000    0.714    0.000    0.000    0.000    0.000 
#    0.000    0.000    0.000    0.000    0.000    0.000 
#
# Total GULP energy -156106.242996 kJ/mol
# GULP energy per Si atom -5575.222964 kJ/mol
# Density = 2.393132 g / cm^3
# Si number density = 23.985916 Si / 1000 Ang^3
#
#
#
# Elastic Constant Matrix: (Units=GPa)
#
#
# Indices 1 2 3 4 5 6 
#
# 1 135.0651 -119.8580 186.6283 0.0000 11.9102 0.0000
# 2 -119.8580-1614.8202 1460.8411 0.0000 417.5629 0.0000
# 3 186.6283 1460.8411-1089.4042 0.0000 -403.0685 0.0000
# 4 0.0000 0.0000 0.0000 7.9212 0.0000 0.2178
# 5 11.9102 417.5629 -403.0685 0.0000 -60.8927 0.0000
# 6 0.0000 0.0000 0.0000 0.2178 0.0000 42.1951
#
#
#
# Elastic Compliance Matrix: (Units=1/GPa)
#
#
# Indices 1 2 3 4 5 6 
#
# 1 0.008688 -0.002553 -0.002701 0.000000 0.002069 0.000000
# 2 -0.002553 0.006536 0.005570 0.000000 0.007453 0.000000
# 3 -0.002701 0.005570 0.005416 0.000000 0.001818 0.000000
# 4 0.000000 0.000000 0.000000 0.126261 0.000000 -0.000652
# 5 0.002069 0.007453 0.001818 0.000000 0.023056 0.000000
# 6 0.000000 0.000000 0.000000 -0.000652 0.000000 0.023703
#
#
# Mechanical properties :
#
#
# Convention : Reuss Voigt Hill
#
# Bulk Modulus (GPa) = 47.01073 54.00705 50.50889
# Shear Modulus (GPa) = 24.98522 -275.27332 -125.14405
#
# Velocity S-wave (km/s) = 3.23098 -10.72444 -7.23099
# Velocity P-wave (km/s) = 5.79317 11.43620 6.97229
#
# Compressibility (1/GPa) = 0.02127174
#
# Stress axis : x y z
#
# Youngs Moduli (GPa) = 115.10637 152.98923 184.64219
#
# Poissons Ratio (x) = 0.39062 0.49870
# Poissons Ratio (y) = 0.29390 -1.02847
# Poissons Ratio (z) = 0.31089 -0.85216
#
# Static dielectric constant tensor:
#      x y z
#    x 2.022400 0.000000 -0.012190 
#    y 0.000000 1.987920 0.000000 
#    z -0.012190 0.000000 1.922550 
# 
# From -- ./inp_files/10445.got.cif
#   From: 2010.05.17/outbox.cif.g08.bks.cpg/sg14_6_cif.got.tgz:10445.got - 2010.06.03 17:49:19.
