data_PCOD9250246
_publ_section_title
;
Structure prediction by ZEFSAII (Michael W. Deem and Ramdas Pophale) SiO2 
 PCOD9250246
Probable space group: P 21/C
;
_chemical_formula_sum "Si O2"
_cell_formula_units_Z 16
_cell_length_a 8.556323
_cell_length_b 5.143576
_cell_length_c 20.125251
_cell_angle_alpha 90.000000
_cell_angle_beta 50.455594
_cell_angle_gamma 90.000000
_cell_volume 683.002053
_symmetry_space_group_name_H-M "P 21/C"
_symmetry_group_IT_number 14
_symmetry_cell_setting 'monoclinic'
loop_
_space_group_symop_operation_xyz
x,y,z
-x,1/2+y,1/2-z
-x,-y,-z
x,1/2-y,1/2+z
loop_
_atom_site_type_symbol
_atom_site_label
_atom_site_fract_x
_atom_site_fract_y
_atom_site_fract_z
Si Si1 0.257155 0.557178 0.694592
Si Si2 0.004628 0.101517 0.137087
Si Si3 0.626004 0.692003 0.734488
Si Si4 0.423555 0.251240 0.979968
O O1 0.120319 0.545613 0.665936
O O2 0.324720 0.274904 0.702605
O O3 0.458089 0.716428 0.620899
O O4 0.125901 0.683654 0.788421
O O5 0.180519 0.227279 0.044872
O O6 0.840321 0.912203 0.148131
O O7 0.469210 0.457036 0.768006
O O8 0.500000 0.500000 0.000000
O O9 0.500000 0.000000 0.000000
#
# Coordination Sequence:
#
# PCOD9250246 Si02
#       4
#     4   4   4   4
#     4  11  22  42  73  99 134 177 231 279 342 398
#     4  11  22  42  73  99 134 177 231 279 342 398
#     4  12  26  42  66  98 138 186 224 274 340 408
#     4  10  24  38  66 109 136 163 228 295 332 395
#
# _framework density 23.425989999999999
#
# number of rings (size 3 to 8) (size 9 to 14) (size 15 to 20)
#    0.000    1.000    5.000    1.500    7.000    0.000 
#    0.000    2.500    0.000    0.000    0.000    0.000 
#    0.000    0.000    0.000    0.000    0.000    0.000 
#
# Total GULP energy -89388.973360 kJ/mol
# GULP energy per Si atom -5586.810835 kJ/mol
# Density = 2.337267 g / cm^3
# Si number density = 23.425990 Si / 1000 Ang^3
#
#
#
# Elastic Constant Matrix: (Units=GPa)
#
#
# Indices 1 2 3 4 5 6 
#
# 1 74.1540 27.2945 48.0277 0.0000 -37.4650 0.0000
# 2 27.2945 150.5062 62.8531 0.0000 -25.2741 0.0000
# 3 48.0277 62.8531 167.2775 0.0000 -57.5528 0.0000
# 4 0.0000 0.0000 0.0000 31.6756 0.0000 -3.1497
# 5 -37.4650 -25.2741 -57.5528 0.0000 38.2085 0.0000
# 6 0.0000 0.0000 0.0000 -3.1497 0.0000 59.3582
#
#
#
# Elastic Compliance Matrix: (Units=1/GPa)
#
#
# Indices 1 2 3 4 5 6 
#
# 1 0.027521 -0.001112 0.003212 0.000000 0.031089 0.000000
# 2 -0.001112 0.007971 -0.002567 0.000000 0.000315 0.000000
# 3 0.003212 -0.002567 0.013534 0.000000 0.021837 0.000000
# 4 0.000000 0.000000 0.000000 0.031737 0.000000 0.001684
# 5 0.031089 0.000315 0.021837 0.000000 0.089757 0.000000
# 6 0.000000 0.000000 0.000000 0.001684 0.000000 0.016936
#
#
# Mechanical properties :
#
#
# Convention : Reuss Voigt Hill
#
# Bulk Modulus (GPa) = 20.79339 74.25425 47.52382
# Shear Modulus (GPa) = 24.45931 42.76597 33.61264
#
# Velocity S-wave (km/s) = 3.23477 4.27731 3.79204
# Velocity P-wave (km/s) = 4.77987 7.49400 6.28519
#
# Compressibility (1/GPa) = 0.04809220
#
# Stress axis : x y z
#
# Youngs Moduli (GPa) = 36.33558 125.45527 73.89035
#
# Poissons Ratio (x) = 0.13949 -0.23736
# Poissons Ratio (y) = 0.04040 0.18970
# Poissons Ratio (z) = -0.11672 0.32208
#
# Static dielectric constant tensor:
#      x y z
#    x 1.914350 0.000000 -0.055520 
#    y 0.000000 1.911400 0.000000 
#    z -0.055520 0.000000 1.898430 
# 
# From -- ./inp_files/45755.got.cif
#   From: 2010.05.17/outbox.cif.g08.bks.cpg/sg14_23_cif.got.tgz:45755.got - 2010.06.03 17:49:19.
