data_PCOD9250506
_publ_section_title
;
Structure prediction by ZEFSAII (Michael W. Deem and Ramdas Pophale) SiO2 
 PCOD9250506
Probable space group: P 21/C
;
_chemical_formula_sum "Si O2"
_cell_formula_units_Z 28
_cell_length_a 9.511998
_cell_length_b 8.573741
_cell_length_c 21.392761
_cell_angle_alpha 90.000000
_cell_angle_beta 42.685811
_cell_angle_gamma 90.000000
_cell_volume 1182.835438
_symmetry_space_group_name_H-M "P 21/C"
_symmetry_group_IT_number 14
_symmetry_cell_setting 'monoclinic'
loop_
_space_group_symop_operation_xyz
x,y,z
-x,1/2+y,1/2-z
-x,-y,-z
x,1/2-y,1/2+z
loop_
_atom_site_type_symbol
_atom_site_label
_atom_site_fract_x
_atom_site_fract_y
_atom_site_fract_z
Si Si1 0.786410 0.117741 0.857717
Si Si2 0.794489 0.388756 0.490095
Si Si3 0.611811 0.175319 0.314173
Si Si4 0.876672 0.877889 0.718841
Si Si5 0.514178 0.332213 0.148948
Si Si6 0.879104 0.157626 0.628723
Si Si7 0.808534 0.680795 0.569698
O O1 0.738308 0.046026 0.940938
O O2 0.620384 0.221545 0.874259
O O3 0.961066 0.244188 0.818169
O O4 0.856604 0.986576 0.786651
O O5 0.653690 0.238107 0.547858
O O6 0.752213 0.512859 0.558921
O O7 0.036094 0.347528 0.423471
O O8 0.805325 0.224194 0.207500
O O9 0.400553 0.227840 0.349186
O O10 0.599443 0.992678 0.330165
O O11 0.655199 0.797944 0.779920
O O12 0.934553 0.995280 0.643799
O O13 0.678109 0.362572 0.150562
O O14 0.058338 0.227465 0.526487
#
# Coordination Sequence:
#
# PCOD9250506 Si02
#       7
#     4   4   4   4   4   4   4
#     4  11  26  44  66  99 137 181 223 276 344 414
#     4  10  24  43  68  99 133 179 224 280 351 398
#     4  11  25  44  66 102 137 178 229 279 340 408
#     4  11  25  43  67 101 139 184 228 278 347 408
#     4  11  24  42  70 101 134 178 230 283 343 403
#     4  10  24  43  71 102 132 181 230 286 341 401
#     4  10  24  44  71 100 136 175 231 287 339 403
#
# _framework density 23.67193
#
# number of rings (size 3 to 8) (size 9 to 14) (size 15 to 20)
#    0.000    1.429    0.000    3.429   12.000    5.143 
#    0.000    0.000    0.000    0.000    0.000    0.000 
#    0.000    0.000    0.000    0.000    0.000    0.000 
#
# Total GULP energy -156821.625496 kJ/mol
# GULP energy per Si atom -5600.772339 kJ/mol
# Density = 2.361805 g / cm^3
# Si number density = 23.671930 Si / 1000 Ang^3
#
#
#
# Elastic Constant Matrix: (Units=GPa)
#
#
# Indices 1 2 3 4 5 6 
#
# 1 87.9800 13.7311 23.7526 0.0000 6.7779 0.0000
# 2 13.7311 92.8296 12.8207 0.0000 -5.9084 0.0000
# 3 23.7526 12.8207 55.6001 0.0000 2.1648 0.0000
# 4 0.0000 0.0000 0.0000 32.6493 0.0000 -3.1411
# 5 6.7779 -5.9084 2.1648 0.0000 37.1869 0.0000
# 6 0.0000 0.0000 0.0000 -3.1411 0.0000 37.2333
#
#
#
# Elastic Compliance Matrix: (Units=1/GPa)
#
#
# Indices 1 2 3 4 5 6 
#
# 1 0.013168 -0.001374 -0.005218 0.000000 -0.002315 0.000000
# 2 -0.001374 0.011409 -0.002129 0.000000 0.002187 0.000000
# 3 -0.005218 -0.002129 0.020729 0.000000 -0.000594 0.000000
# 4 0.000000 0.000000 0.000000 0.030879 0.000000 0.002605
# 5 -0.002315 0.002187 -0.000594 0.000000 0.027695 0.000000
# 6 0.000000 0.000000 0.000000 0.002605 0.000000 0.027077
#
#
# Mechanical properties :
#
#
# Convention : Reuss Voigt Hill
#
# Bulk Modulus (GPa) = 35.89030 37.44651 36.66840
# Shear Modulus (GPa) = 31.70819 33.82093 32.76456
#
# Velocity S-wave (km/s) = 3.66387 3.78396 3.72440
# Velocity P-wave (km/s) = 5.75265 5.91138 5.83256
#
# Compressibility (1/GPa) = 0.02786268
#
# Stress axis : x y z
#
# Youngs Moduli (GPa) = 75.94241 87.65061 48.24190
#
# Poissons Ratio (x) = 0.12046 0.25174
# Poissons Ratio (y) = 0.10437 0.10270
# Poissons Ratio (z) = 0.39629 0.18659
#
# Static dielectric constant tensor:
#      x y z
#    x 1.870630 0.000000 0.002980 
#    y 0.000000 1.886550 0.000000 
#    z 0.002980 0.000000 1.929740 
# 
# From -- ./inp_files/64993.got.cif
#   From: 2010.05.17/outbox.cif.g08.bks.cpg/sg14_33_cif.got.tgz:64993.got - 2010.06.03 17:49:19.
