data_PCOD9250539
_publ_section_title
;
Structure prediction by ZEFSAII (Michael W. Deem and Ramdas Pophale) SiO2 
 PCOD9250539
Probable space group: P 21/C
;
_chemical_formula_sum "Si O2"
_cell_formula_units_Z 28
_cell_length_a 9.861851
_cell_length_b 8.605028
_cell_length_c 15.803871
_cell_angle_alpha 90.000000
_cell_angle_beta 60.340747
_cell_angle_gamma 90.000000
_cell_volume 1165.428960
_symmetry_space_group_name_H-M "P 21/C"
_symmetry_group_IT_number 14
_symmetry_cell_setting 'monoclinic'
loop_
_space_group_symop_operation_xyz
x,y,z
-x,1/2+y,1/2-z
-x,-y,-z
x,1/2-y,1/2+z
loop_
_atom_site_type_symbol
_atom_site_label
_atom_site_fract_x
_atom_site_fract_y
_atom_site_fract_z
Si Si1 0.643385 0.423045 0.503621
Si Si2 0.296039 0.592075 0.077436
Si Si3 0.840973 0.027702 0.102420
Si Si4 0.424554 0.023521 0.385426
Si Si5 0.383119 0.278446 0.259985
Si Si6 0.918884 0.266731 0.223438
Si Si7 0.802022 0.908765 0.810789
O O1 0.500000 0.500000 0.500000
O O2 0.628396 0.243420 0.488743
O O3 0.697299 0.445573 0.582206
O O4 0.779510 0.501149 0.405750
O O5 0.420098 0.524988 0.104733
O O6 0.160851 0.666820 0.175519
O O7 0.282443 0.488154 0.996975
O O8 0.870857 0.174046 0.154111
O O9 0.773272 0.882633 0.177036
O O10 0.000000 0.000000 0.000000
O O11 0.467584 0.884882 0.307664
O O12 0.411838 0.179661 0.335556
O O13 0.343308 0.158516 0.196561
O O14 0.873778 0.447760 0.234328
O O15 0.097951 0.240182 0.192309
#
# Coordination Sequence:
#
# PCOD9250539 Si02
#       7
#     4   4   4   4   4   4   4
#     4  11  24  43  74 105 141 189 244 297 363 434
#     4  10  24  43  72  96 143 183 239 293 365 424
#     4  12  26  48  72 106 148 188 245 304 363 434
#     4  11  26  46  69 108 145 188 241 304 368 434
#     4  12  28  43  74 106 148 190 242 300 371 429
#     4  11  24  47  72 103 144 192 243 302 360 443
#     4  11  26  45  73 103 144 192 242 296 375 430
#
# _framework density 24.025490000000001
#
# number of rings (size 3 to 8) (size 9 to 14) (size 15 to 20)
#    0.000    0.857    2.857    2.571   12.000    2.286 
#    0.000    1.429    0.000    0.000    0.000    0.000 
#    0.000    0.000    0.000    0.000    0.000    0.000 
#
# Total GULP energy -156367.408140 kJ/mol
# GULP energy per Si atom -5584.550291 kJ/mol
# Density = 2.397081 g / cm^3
# Si number density = 24.025490 Si / 1000 Ang^3
#
#
#
# Elastic Constant Matrix: (Units=GPa)
#
#
# Indices 1 2 3 4 5 6 
#
# 1 83.3791 19.7098 17.6341 0.0000 24.0780 0.0000
# 2 19.7098 83.0672 19.3773 0.0000 15.3189 0.0000
# 3 17.6341 19.3773 88.9556 0.0000 18.4367 0.0000
# 4 0.0000 0.0000 0.0000 43.3249 0.0000 8.5506
# 5 24.0780 15.3189 18.4367 0.0000 39.1989 0.0000
# 6 0.0000 0.0000 0.0000 8.5506 0.0000 45.9448
#
#
#
# Elastic Compliance Matrix: (Units=1/GPa)
#
#
# Indices 1 2 3 4 5 6 
#
# 1 0.014940 -0.001855 -0.000893 0.000000 -0.008032 0.000000
# 2 -0.001855 0.013522 -0.001904 0.000000 -0.003249 0.000000
# 3 -0.000893 -0.001904 0.012815 0.000000 -0.004735 0.000000
# 4 0.000000 0.000000 0.000000 0.023962 0.000000 -0.004459
# 5 -0.008032 -0.003249 -0.004735 0.000000 0.033941 0.000000
# 6 0.000000 0.000000 0.000000 -0.004459 0.000000 0.022595
#
#
# Mechanical properties :
#
#
# Convention : Reuss Voigt Hill
#
# Bulk Modulus (GPa) = 31.27749 40.98271 36.13010
# Shear Modulus (GPa) = 35.27649 38.93911 37.10780
#
# Velocity S-wave (km/s) = 3.83599 4.03021 3.93430
# Velocity P-wave (km/s) = 5.71546 6.22510 5.97571
#
# Compressibility (1/GPa) = 0.03197188
#
# Stress axis : x y z
#
# Youngs Moduli (GPa) = 66.93296 73.95298 78.03570
#
# Poissons Ratio (x) = 0.13722 0.06967
# Poissons Ratio (y) = 0.12419 0.14861
# Poissons Ratio (z) = 0.05976 0.14083
#
# Static dielectric constant tensor:
#      x y z
#    x 1.822770 0.000000 -0.492610 
#    y 0.000000 1.936090 0.000000 
#    z -0.492610 0.000000 0.842750 
# 
# From -- ./inp_files/43601.got.cif
#   From: 2010.05.17/outbox.cif.g08.bks.cpg/sg14_22_cif.got.tgz:43601.got - 2010.06.03 17:49:19.
