data_PCOD9250588
_publ_section_title
;
Structure prediction by ZEFSAII (Michael W. Deem and Ramdas Pophale) SiO2 
 PCOD9250588
Probable space group: P 21/C
;
_chemical_formula_sum "Si O2"
_cell_formula_units_Z 28
_cell_length_a 14.626933
_cell_length_b 10.839273
_cell_length_c 8.759704
_cell_angle_alpha 90.000000
_cell_angle_beta 114.653567
_cell_angle_gamma 90.000000
_cell_volume 1262.215205
_symmetry_space_group_name_H-M "P 21/C"
_symmetry_group_IT_number 14
_symmetry_cell_setting 'monoclinic'
loop_
_space_group_symop_operation_xyz
x,y,z
-x,1/2+y,1/2-z
-x,-y,-z
x,1/2-y,1/2+z
loop_
_atom_site_type_symbol
_atom_site_label
_atom_site_fract_x
_atom_site_fract_y
_atom_site_fract_z
Si Si1 0.810632 0.374747 0.561965
Si Si2 0.960454 0.788180 0.766998
Si Si3 0.355038 0.300207 0.767417
Si Si4 0.079594 0.411991 0.472065
Si Si5 0.240839 0.400266 0.980195
Si Si6 0.483215 0.128144 0.076845
Si Si7 0.290315 0.848252 0.683289
O O1 0.822244 0.507844 0.490288
O O2 0.751875 0.379490 0.678710
O O3 0.761622 0.274288 0.417565
O O4 0.925971 0.333754 0.675231
O O5 0.953592 0.647804 0.708352
O O6 0.877043 0.873689 0.627098
O O7 0.924715 0.797990 0.916243
O O8 0.286817 0.198633 0.631953
O O9 0.408416 0.377861 0.670141
O O10 0.294435 0.373874 0.854940
O O11 0.437713 0.224061 0.923214
O O12 0.000000 0.500000 0.500000
O O13 0.264402 0.536657 0.056054
O O14 0.590756 0.169376 0.217036
O O15 0.500000 0.000000 0.000000
#
# Coordination Sequence:
#
# PCOD9250588 Si02
#       7
#     4   4   4   4   4   4   4
#     4  11  27  45  67 103 148 184 236 288 347 427
#     4  11  24  44  72  98 144 187 235 286 347 406
#     4  10  24  47  71 104 137 176 241 295 357 423
#     4  10  24  44  67  99 138 190 237 286 341 407
#     4  11  25  43  74 104 133 186 238 286 356 423
#     4  11  23  48  72 103 140 180 232 297 358 422
#     4  12  27  46  70 104 141 190 235 288 363 424
#
# _framework density 22.183221
#
# number of rings (size 3 to 8) (size 9 to 14) (size 15 to 20)
#    0.000    1.143    1.429    3.429   10.000    2.286 
#    2.571    0.000    0.000    0.000    0.000    0.000 
#    0.000    0.000    0.000    0.000    0.000    0.000 
#
# Total GULP energy -156597.550943 kJ/mol
# GULP energy per Si atom -5592.769677 kJ/mol
# Density = 2.213273 g / cm^3
# Si number density = 22.183221 Si / 1000 Ang^3
#
#
#
# Elastic Constant Matrix: (Units=GPa)
#
#
# Indices 1 2 3 4 5 6 
#
# 1 117.7111 26.4071 48.0257 0.0000 -3.3780 0.0000
# 2 26.4071 66.0265 21.2050 0.0000 -24.1451 0.0000
# 3 48.0257 21.2050 84.8189 0.0000 -3.3915 0.0000
# 4 0.0000 0.0000 0.0000 48.4846 0.0000 -7.4786
# 5 -3.3780 -24.1451 -3.3915 0.0000 65.0722 0.0000
# 6 0.0000 0.0000 0.0000 -7.4786 0.0000 34.8469
#
#
#
# Elastic Compliance Matrix: (Units=1/GPa)
#
#
# Indices 1 2 3 4 5 6 
#
# 1 0.011520 -0.003053 -0.005793 0.000000 -0.000837 0.000000
# 2 -0.003053 0.019905 -0.002965 0.000000 0.007073 0.000000
# 3 -0.005793 -0.002965 0.015788 0.000000 -0.000578 0.000000
# 4 0.000000 0.000000 0.000000 0.021331 0.000000 0.004578
# 5 -0.000837 0.007073 -0.000578 0.000000 0.017918 0.000000
# 6 0.000000 0.000000 0.000000 0.004578 0.000000 0.029679
#
#
# Mechanical properties :
#
#
# Convention : Reuss Voigt Hill
#
# Bulk Modulus (GPa) = 42.38826 51.09245 46.74036
# Shear Modulus (GPa) = 33.86918 41.20866 37.53892
#
# Velocity S-wave (km/s) = 3.91166 4.31472 4.11812
# Velocity P-wave (km/s) = 6.28897 6.92131 6.61270
#
# Compressibility (1/GPa) = 0.02359144
#
# Stress axis : x y z
#
# Youngs Moduli (GPa) = 86.80787 50.23853 63.33935
#
# Poissons Ratio (x) = 0.15337 0.36692
# Poissons Ratio (y) = 0.26501 0.18780
# Poissons Ratio (z) = 0.50287 0.14896
#
# Static dielectric constant tensor:
#      x y z
#    x 1.795860 0.000000 0.026810 
#    y 0.000000 1.861910 0.000000 
#    z 0.026810 0.000000 1.855370 
# 
# From -- ./inp_files/15864.got.cif
#   From: 2010.05.17/outbox.cif.g08.bks.cpg/sg14_8_cif.got.tgz:15864.got - 2010.06.03 17:49:19.
