data_PCOD9250092
_publ_section_title
;
Structure prediction by ZEFSAII (Michael W. Deem and Ramdas Pophale) SiO2 
 PCOD9250092
Probable space group: P 21/C
;
_chemical_formula_sum "Si O2"
_cell_formula_units_Z 28
_cell_length_a 4.902739
_cell_length_b 11.485684
_cell_length_c 21.584051
_cell_angle_alpha 90.000000
_cell_angle_beta 124.322775
_cell_angle_gamma 90.000000
_cell_volume 1003.789180
_symmetry_space_group_name_H-M "P 21/C"
_symmetry_group_IT_number 14
_symmetry_cell_setting 'monoclinic'
loop_
_space_group_symop_operation_xyz
x,y,z
-x,1/2+y,1/2-z
-x,-y,-z
x,1/2-y,1/2+z
loop_
_atom_site_type_symbol
_atom_site_label
_atom_site_fract_x
_atom_site_fract_y
_atom_site_fract_z
Si Si1 0.278657 0.101051 0.227081
Si Si2 0.140456 0.872132 0.501586
Si Si3 0.892254 0.662203 0.099083
Si Si4 0.349787 0.318515 0.330190
Si Si5 0.115079 0.943772 0.312025
Si Si6 0.409035 0.264165 0.624765
Si Si7 0.552829 0.476421 0.578154
O O1 0.341251 0.203973 0.285713
O O2 0.469495 0.159792 0.193897
O O3 0.923572 0.065052 0.149150
O O4 0.325910 0.994631 0.281038
O O5 0.515017 0.858381 0.528875
O O6 0.115887 0.817182 0.567712
O O7 0.911463 0.815989 0.420677
O O8 0.000000 0.000000 0.500000
O O9 0.894210 0.771496 0.145692
O O10 0.940957 0.543429 0.144444
O O11 0.562159 0.410308 0.398007
O O12 0.225263 0.409367 0.262540
O O13 0.298077 0.824844 0.352506
O O14 0.347414 0.361447 0.566032
O O15 0.500000 0.500000 0.500000
#
# Coordination Sequence:
#
# PCOD9250092 Si02
#       7
#     4   4   4   4   4   4   4
#     4  10  25  44  70 104 140 190 251 309 382 449
#     4  12  27  45  74 107 149 196 245 313 371 447
#     4  11  26  49  72 109 146 194 249 308 375 449
#     4  10  23  46  75 103 148 193 250 308 384 453
#     4  10  23  46  71 106 140 193 249 309 370 453
#     4  12  26  42  76 102 146 193 251 312 380 455
#     4  11  25  47  70 104 147 194 245 317 380 456
#
# _framework density 27.894303000000001
#
# number of rings (size 3 to 8) (size 9 to 14) (size 15 to 20)
#    0.000    1.143    2.857    1.286    8.000    2.857 
#    2.571    0.000    0.000    0.000    0.000    0.000 
#    0.000    0.000    0.000    0.000    0.000    0.000 
#
# Total GULP energy -156462.640048 kJ/mol
# GULP energy per Si atom -5587.951430 kJ/mol
# Density = 2.783081 g / cm^3
# Si number density = 27.894303 Si / 1000 Ang^3
#
#
#
# Elastic Constant Matrix: (Units=GPa)
#
#
# Indices 1 2 3 4 5 6 
#
# 1 57.0061 11.8962 26.9737 0.0000 -15.5216 0.0000
# 2 11.8962 180.8659 45.5216 0.0000 -25.8691 0.0000
# 3 26.9737 45.5216 141.0354 0.0000 -15.2684 0.0000
# 4 0.0000 0.0000 0.0000 40.1868 0.0000 -9.8635
# 5 -15.5216 -25.8691 -15.2684 0.0000 48.7587 0.0000
# 6 0.0000 0.0000 0.0000 -9.8635 0.0000 26.1674
#
#
#
# Elastic Compliance Matrix: (Units=1/GPa)
#
#
# Indices 1 2 3 4 5 6 
#
# 1 0.020644 0.000317 -0.003438 0.000000 0.005664 0.000000
# 2 0.000317 0.006380 -0.001804 0.000000 0.002921 0.000000
# 3 -0.003438 -0.001804 0.008392 0.000000 0.000577 0.000000
# 4 0.000000 0.000000 0.000000 0.027421 0.000000 0.010336
# 5 0.005664 0.002921 0.000577 0.000000 0.024043 0.000000
# 6 0.000000 0.000000 0.000000 0.010336 0.000000 0.042111
#
#
# Mechanical properties :
#
#
# Convention : Reuss Voigt Hill
#
# Bulk Modulus (GPa) = 39.10982 60.85450 49.98216
# Shear Modulus (GPa) = 33.92999 42.65698 38.29348
#
# Velocity S-wave (km/s) = 3.49144 3.91479 3.70916
# Velocity P-wave (km/s) = 5.50497 6.50366 6.02504
#
# Compressibility (1/GPa) = 0.02556902
#
# Stress axis : x y z
#
# Youngs Moduli (GPa) = 48.43911 156.74368 119.15405
#
# Poissons Ratio (x) = -0.04976 0.40961
# Poissons Ratio (y) = -0.01538 0.21492
# Poissons Ratio (z) = 0.16652 0.28272
#
# Static dielectric constant tensor:
#      x y z
#    x 2.311550 0.000000 0.112790 
#    y 0.000000 2.345090 0.000000 
#    z 0.112790 0.000000 2.229190 
# 
# From -- ./inp_files/63610.got.cif
#   From: 2010.05.17/outbox.cif.g08.bks.cpg/sg14_32_cif.got.tgz:63610.got - 2010.06.03 17:49:19.
