data_PCOD9250311
_publ_section_title
;
Structure prediction by ZEFSAII (Michael W. Deem and Ramdas Pophale) SiO2 
 PCOD9250311
Probable space group: P 21/C
;
_chemical_formula_sum "Si O2"
_cell_formula_units_Z 32
_cell_length_a 8.336051
_cell_length_b 13.962785
_cell_length_c 13.175426
_cell_angle_alpha 90.000000
_cell_angle_beta 86.881125
_cell_angle_gamma 90.000000
_cell_volume 1531.275473
_symmetry_space_group_name_H-M "P 21/C"
_symmetry_group_IT_number 14
_symmetry_cell_setting 'monoclinic'
loop_
_space_group_symop_operation_xyz
x,y,z
-x,1/2+y,1/2-z
-x,-y,-z
x,1/2-y,1/2+z
loop_
_atom_site_type_symbol
_atom_site_label
_atom_site_fract_x
_atom_site_fract_y
_atom_site_fract_z
Si Si1 0.209995 0.629929 0.082084
Si Si2 0.901202 0.673441 0.973520
Si Si3 0.563221 0.403791 0.557382
Si Si4 0.132319 0.007209 0.909193
Si Si5 0.344591 0.305328 0.423601
Si Si6 0.299026 0.497442 0.909949
Si Si7 0.007806 0.040003 0.694559
Si Si8 0.496088 0.647421 0.210113
O O1 0.108862 0.542423 0.133891
O O2 0.320248 0.670487 0.168626
O O3 0.319857 0.583409 0.988837
O O4 0.068901 0.687939 0.028714
O O5 0.934434 0.639466 0.857954
O O6 0.783447 0.760672 0.993908
O O7 0.802132 0.585819 0.029172
O O8 0.500000 0.500000 0.500000
O O9 0.749877 0.418150 0.574691
O O10 0.507798 0.323272 0.480494
O O11 0.494211 0.377610 0.671331
O O12 0.257694 0.096267 0.896970
O O13 0.037189 0.017850 0.808924
O O14 0.000000 0.000000 0.000000
O O15 0.386142 0.233013 0.330659
O O16 0.449465 0.448580 0.851911
O O17 0.178033 0.532748 0.827679
#
# Coordination Sequence:
#
# PCOD9250311 Si02
#       8
#     4   4   4   4   4   4   4   4
#     4   9  16  33  59  93 124 156 208 258 317 389
#     4   8  17  35  59  89 129 151 205 279 308 372
#     4  10  24  44  62  90 130 169 211 255 320 405
#     4  11  24  42  65  86 121 177 221 258 307 399
#     4  10  24  41  62  93 126 164 215 267 328 374
#     4   8  17  30  57  94 122 159 203 260 320 386
#     4   9  17  34  59  90 120 163 215 252 317 373
#     4  11  20  37  66  91 129 168 201 270 330 376
#
# _framework density 20.897611000000001
#
# number of rings (size 3 to 8) (size 9 to 14) (size 15 to 20)
#    0.000    2.500    1.250    1.875    5.250    1.000 
#    0.000    0.000    8.250    0.000    0.000    0.000 
#    0.000    0.000    0.000    0.000    0.000    0.000 
#
# Total GULP energy -178156.373118 kJ/mol
# GULP energy per Si atom -5567.386660 kJ/mol
# Density = 2.085005 g / cm^3
# Si number density = 20.897611 Si / 1000 Ang^3
#
#
#
# Elastic Constant Matrix: (Units=GPa)
#
#
# Indices 1 2 3 4 5 6 
#
# 1 40.5720 5.0932 35.7355 0.0000 -1.2681 0.0000
# 2 5.0932 27.3946 14.2395 0.0000 -1.1951 0.0000
# 3 35.7355 14.2395 145.0076 0.0000 12.1678 0.0000
# 4 0.0000 0.0000 0.0000 13.8083 0.0000 4.7140
# 5 -1.2681 -1.1951 12.1678 0.0000 28.6703 0.0000
# 6 0.0000 0.0000 0.0000 4.7140 0.0000 6.0276
#
#
#
# Elastic Compliance Matrix: (Units=1/GPa)
#
#
# Indices 1 2 3 4 5 6 
#
# 1 0.032206 -0.001518 -0.008194 0.000000 0.004839 0.000000
# 2 -0.001518 0.038847 -0.003703 0.000000 0.003124 0.000000
# 3 -0.008194 -0.003703 0.009667 0.000000 -0.004619 0.000000
# 4 0.000000 0.000000 0.000000 0.098798 0.000000 -0.077266
# 5 0.004839 0.003124 -0.004619 0.000000 0.037184 0.000000
# 6 0.000000 0.000000 0.000000 -0.077266 0.000000 0.226328
#
#
# Mechanical properties :
#
#
# Convention : Reuss Voigt Hill
#
# Bulk Modulus (GPa) = 18.55594 35.90120 27.22857
# Shear Modulus (GPa) = 10.24963 20.22831 15.23897
#
# Velocity S-wave (km/s) = 2.21706 3.11460 2.70334
# Velocity P-wave (km/s) = 3.93097 5.49101 4.77513
#
# Compressibility (1/GPa) = 0.05389111
#
# Stress axis : x y z
#
# Youngs Moduli (GPa) = 31.04965 25.74230 103.44768
#
# Poissons Ratio (x) = 0.03907 0.84764
# Poissons Ratio (y) = 0.04712 0.38304
# Poissons Ratio (z) = 0.25442 0.09532
#
# Static dielectric constant tensor:
#      x y z
#    x 1.768380 0.000000 0.007510 
#    y 0.000000 1.720200 0.000000 
#    z 0.007510 0.000000 1.794090 
# 
# From -- ./inp_files/25253.got.cif
#   From: 2010.05.17/outbox.cif.g08.bks.cpg/sg14_13_cif.got.tgz:25253.got - 2010.06.03 17:49:19.
