data_PCOD9250217
_publ_section_title
;
Structure prediction by ZEFSAII (Michael W. Deem and Ramdas Pophale) SiO2 
 PCOD9250217
Probable space group: P 21/C
;
_chemical_formula_sum "Si O2"
_cell_formula_units_Z 28
_cell_length_a 7.792907
_cell_length_b 20.267203
_cell_length_c 12.920046
_cell_angle_alpha 90.000000
_cell_angle_beta 30.672163
_cell_angle_gamma 90.000000
_cell_volume 1040.960055
_symmetry_space_group_name_H-M "P 21/C"
_symmetry_group_IT_number 14
_symmetry_cell_setting 'monoclinic'
loop_
_space_group_symop_operation_xyz
x,y,z
-x,1/2+y,1/2-z
-x,-y,-z
x,1/2-y,1/2+z
loop_
_atom_site_type_symbol
_atom_site_label
_atom_site_fract_x
_atom_site_fract_y
_atom_site_fract_z
Si Si1 0.166974 0.730469 0.350778
Si Si2 0.532197 0.819559 0.292648
Si Si3 0.420023 0.791433 0.013056
Si Si4 0.918250 0.901915 0.220939
Si Si5 0.462572 0.483540 0.668819
Si Si6 0.814538 0.912548 0.885126
Si Si7 0.475974 0.401068 0.866573
O O1 0.826275 0.694360 0.558171
O O2 0.203783 0.794482 0.405331
O O3 0.215621 0.759507 0.212598
O O4 0.456917 0.673561 0.209768
O O5 0.555042 0.767236 0.374020
O O6 0.601370 0.889052 0.310638
O O7 0.711111 0.839652 0.902198
O O8 0.166344 0.839053 0.083258
O O9 0.796450 0.905749 0.401296
O O10 0.157485 0.959076 0.057011
O O11 0.225584 0.454013 0.701443
O O12 0.520874 0.560735 0.615536
O O13 0.396216 0.451684 0.814773
O O14 0.171953 0.915320 0.755893
#
# Coordination Sequence:
#
# PCOD9250217 Si02
#       7
#     4   4   4   4   4   4   4
#     4  12  24  37  64  93 130 172 220 263 343 399
#     4  12  23  40  60  93 131 174 210 277 329 400
#     4  11  24  42  60  96 133 168 219 271 333 402
#     4  11  24  42  64  95 133 171 224 280 327 398
#     4  10  23  50  67  99 137 175 228 277 334 392
#     4  10  24  44  74  95 136 182 220 280 333 396
#     4  12  23  43  68 100 130 175 223 279 332 392
#
# _framework density 26.898246
#
# number of rings (size 3 to 8) (size 9 to 14) (size 15 to 20)
#    0.000    0.857    4.286    3.000    4.000    0.571 
#    0.000    7.857    0.000    0.000    0.000    0.000 
#    0.000    0.000    0.000    0.000    0.000    0.000 
#
# Total GULP energy -156900.868080 kJ/mol
# GULP energy per Si atom -5603.602431 kJ/mol
# Density = 2.683702 g / cm^3
# Si number density = 26.898246 Si / 1000 Ang^3
#
#
#
# Elastic Constant Matrix: (Units=GPa)
#
#
# Indices 1 2 3 4 5 6 
#
# 1 113.1544 18.8314 14.7592 0.0000 0.8916 0.0000
# 2 18.8314 53.1309 -4.4644 0.0000 -7.2103 0.0000
# 3 14.7592 -4.4644 69.8997 0.0000 19.7455 0.0000
# 4 0.0000 0.0000 0.0000 31.9424 0.0000 3.3296
# 5 0.8916 -7.2103 19.7455 0.0000 47.5542 0.0000
# 6 0.0000 0.0000 0.0000 3.3296 0.0000 43.6683
#
#
#
# Elastic Compliance Matrix: (Units=1/GPa)
#
#
# Indices 1 2 3 4 5 6 
#
# 1 0.009745 -0.003619 -0.002359 0.000000 0.000248 0.000000
# 2 -0.003619 0.020573 0.001334 0.000000 0.002633 0.000000
# 3 -0.002359 0.001334 0.016789 0.000000 -0.006725 0.000000
# 4 0.000000 0.000000 0.000000 0.031557 0.000000 -0.002406
# 5 0.000248 0.002633 -0.006725 0.000000 0.024215 0.000000
# 6 0.000000 0.000000 0.000000 -0.002406 0.000000 0.023083
#
#
# Mechanical properties :
#
#
# Convention : Reuss Voigt Hill
#
# Bulk Modulus (GPa) = 26.44011 32.71525 29.57768
# Shear Modulus (GPa) = 33.81626 38.43691 36.12659
#
# Velocity S-wave (km/s) = 3.54954 3.78428 3.66879
# Velocity P-wave (km/s) = 5.16236 5.59315 5.38207
#
# Compressibility (1/GPa) = 0.03782132
#
# Stress axis : x y z
#
# Youngs Moduli (GPa) = 102.61216 48.60624 59.56236
#
# Poissons Ratio (x) = 0.17589 0.14050
# Poissons Ratio (y) = 0.37132 -0.07947
# Poissons Ratio (z) = 0.24205 -0.06485
#
# Static dielectric constant tensor:
#      x y z
#    x 2.188200 0.000000 -0.052940 
#    y 0.000000 2.203330 0.000000 
#    z -0.052940 0.000000 2.052040 
# 
# From -- ./inp_files/42094.got.cif
#   From: 2010.05.17/outbox.cif.g08.bks.cpg/sg14_22_cif.got.tgz:42094.got - 2010.06.03 17:49:19.
