data_PCOD9250053
_publ_section_title
;
Structure prediction by ZEFSAII (Michael W. Deem and Ramdas Pophale) SiO2 
 PCOD9250053
Probable space group: P 21/C
;
_chemical_formula_sum "Si O2"
_cell_formula_units_Z 28
_cell_length_a 7.068948
_cell_length_b 12.069187
_cell_length_c 20.536862
_cell_angle_alpha 90.000000
_cell_angle_beta 126.050383
_cell_angle_gamma 90.000000
_cell_volume 1416.598612
_symmetry_space_group_name_H-M "P 21/C"
_symmetry_group_IT_number 14
_symmetry_cell_setting 'monoclinic'
loop_
_space_group_symop_operation_xyz
x,y,z
-x,1/2+y,1/2-z
-x,-y,-z
x,1/2-y,1/2+z
loop_
_atom_site_type_symbol
_atom_site_label
_atom_site_fract_x
_atom_site_fract_y
_atom_site_fract_z
Si Si1 0.059067 0.231379 0.129234
Si Si2 0.651217 0.586687 0.072097
Si Si3 0.155362 0.019953 0.683631
Si Si4 0.224299 0.073379 0.058905
Si Si5 0.487602 0.818974 0.996022
Si Si6 0.475871 0.111150 0.846827
Si Si7 0.465759 0.146183 0.303300
O O1 0.111837 0.362323 0.139308
O O2 0.145699 0.183673 0.078455
O O3 0.217713 0.168051 0.215855
O O4 0.782595 0.204257 0.078529
O O5 0.564674 0.604410 0.128773
O O6 0.916055 0.546599 0.131902
O O7 0.500000 0.500000 0.000000
O O8 0.621603 0.702619 0.029077
O O9 0.228168 0.067371 0.769726
O O10 0.355763 0.938917 0.695074
O O11 0.381410 0.104370 0.029105
O O12 0.363568 0.993325 0.135436
O O13 0.000000 0.000000 0.000000
O O14 0.504975 0.867757 0.072463
O O15 0.552162 0.225226 0.827441
#
# Coordination Sequence:
#
# PCOD9250053 Si02
#       7
#     4   4   4   4   4   4   4
#     4  11  24  43  67 101 136 177 224 275 340 402
#     4  11  25  44  67  99 130 182 224 278 348 392
#     4  11  24  44  70  96 136 173 230 281 333 410
#     4  12  25  40  70  98 130 183 222 270 338 400
#     4  11  25  44  66 100 140 174 225 281 332 410
#     4  10  23  46  62  99 133 174 224 274 335 394
#     4  10  25  43  68  98 135 175 224 284 330 401
#
# _framework density 19.765656
#
# number of rings (size 3 to 8) (size 9 to 14) (size 15 to 20)
#    0.000    1.143    4.286    0.429    6.000    0.571 
#    0.000    2.857    0.000    0.000    0.000    0.000 
#    0.000    0.000    0.000    0.000    0.000    0.000 
#
# Total GULP energy -156087.912824 kJ/mol
# GULP energy per Si atom -5574.568315 kJ/mol
# Density = 1.972067 g / cm^3
# Si number density = 19.765656 Si / 1000 Ang^3
#
#
#
# Elastic Constant Matrix: (Units=GPa)
#
#
# Indices 1 2 3 4 5 6 
#
# 1 83.8732 64.9367 51.4750 0.0000 17.7212 0.0000
# 2 64.9367 148.3491 59.5842 0.0000 14.4227 0.0000
# 3 51.4750 59.5842 104.6676 0.0000 20.0029 0.0000
# 4 0.0000 0.0000 0.0000 5.8521 0.0000 7.9974
# 5 17.7212 14.4227 20.0029 0.0000 28.1221 0.0000
# 6 0.0000 0.0000 0.0000 7.9974 0.0000 33.0132
#
#
#
# Elastic Compliance Matrix: (Units=1/GPa)
#
#
# Indices 1 2 3 4 5 6 
#
# 1 0.021991 -0.006681 -0.005808 0.000000 -0.006300 0.000000
# 2 -0.006681 0.010798 -0.003018 0.000000 0.000819 0.000000
# 3 -0.005808 -0.003018 0.015199 0.000000 -0.005603 0.000000
# 4 0.000000 0.000000 0.000000 0.255444 0.000000 -0.061881
# 5 -0.006300 0.000819 -0.005603 0.000000 0.043095 0.000000
# 6 0.000000 0.000000 0.000000 -0.061881 0.000000 0.045282
#
#
# Mechanical properties :
#
#
# Convention : Reuss Voigt Hill
#
# Bulk Modulus (GPa) = 58.91010 76.54243 67.72627
# Shear Modulus (GPa) = 11.66919 24.12374 17.89646
#
# Velocity S-wave (km/s) = 2.43240 3.49734 3.01230
# Velocity P-wave (km/s) = 6.14473 7.42412 6.81452
#
# Compressibility (1/GPa) = 0.01697502
#
# Stress axis : x y z
#
# Youngs Moduli (GPa) = 45.47386 92.61242 65.79379
#
# Poissons Ratio (x) = 0.61872 0.38211
# Poissons Ratio (y) = 0.30380 0.19854
# Poissons Ratio (z) = 0.26410 0.27947
#
# Static dielectric constant tensor:
#      x y z
#    x 1.679720 0.000000 0.064010 
#    y 0.000000 1.727090 0.000000 
#    z 0.064010 0.000000 1.900970 
# 
# From -- ./inp_files/63589.got.cif
#   From: 2010.05.17/outbox.cif.g08.bks.cpg/sg14_32_cif.got.tgz:63589.got - 2010.06.03 17:49:19.
