data_PCOD9250595
_publ_section_title
;
Structure prediction by ZEFSAII (Michael W. Deem and Ramdas Pophale) SiO2 
 PCOD9250595
Probable space group: P 21/C
;
_chemical_formula_sum "Si O2"
_cell_formula_units_Z 26
_cell_length_a 11.583834
_cell_length_b 7.756700
_cell_length_c 23.373120
_cell_angle_alpha 90.000000
_cell_angle_beta 149.446405
_cell_angle_gamma 90.000000
_cell_volume 1067.588312
_symmetry_space_group_name_H-M "P 21/C"
_symmetry_group_IT_number 14
_symmetry_cell_setting 'monoclinic'
loop_
_space_group_symop_operation_xyz
x,y,z
-x,1/2+y,1/2-z
-x,-y,-z
x,1/2-y,1/2+z
loop_
_atom_site_type_symbol
_atom_site_label
_atom_site_fract_x
_atom_site_fract_y
_atom_site_fract_z
Si Si1 0.547234 0.013202 0.349859
Si Si2 0.000000 0.000000 0.000000
Si Si3 0.735768 0.895997 0.095454
Si Si4 0.022965 0.730365 0.310096
Si Si5 0.982442 0.868247 0.419698
Si Si6 0.514831 0.097449 0.795590
Si Si7 0.451568 0.871014 0.427959
O O1 0.819536 0.009836 0.471766
O O2 0.502267 0.213158 0.316627
O O3 0.444676 0.898878 0.255500
O O4 0.437097 0.961749 0.361809
O O5 0.964909 0.807474 0.950458
O O6 0.265228 0.003877 0.089563
O O7 0.801749 0.800346 0.182792
O O8 0.933998 0.027620 0.164168
O O9 0.670197 0.754575 0.020777
O O10 0.500000 0.000000 0.000000
O O11 0.050067 0.814580 0.383650
O O12 0.222931 0.777884 0.350600
O O13 0.742637 0.967602 0.310723
O O14 0.500000 0.000000 0.500000
#
# Coordination Sequence:
#
# PCOD9250595 Si02
#       7
#     4   2   4   4   4   4   4
#     4  11  25  47  73 111 151 198 257 319 378 470
#     4  10  24  44  68 110 144 194 252 322 374 456
#     4  10  25  43  69 112 153 201 250 308 390 461
#     4  11  24  44  74 113 154 198 253 316 399 462
#     4  11  24  44  78 106 152 198 260 318 386 462
#     4  11  24  46  72 107 148 203 253 314 387 446
#     4  11  23  46  75 112 155 198 254 319 390 462
#
# _framework density 24.353956
#
# number of rings (size 3 to 8) (size 9 to 14) (size 15 to 20)
#    0.000    1.231    3.077    1.385    4.308    2.462 
#    5.538    1.538    0.000    0.000    0.000    0.000 
#    0.000    0.000    0.000    0.000    0.000    0.000 
#
# Total GULP energy -144777.557632 kJ/mol
# GULP energy per Si atom -5568.367601 kJ/mol
# Density = 2.429853 g / cm^3
# Si number density = 24.353956 Si / 1000 Ang^3
#
#
#
# Elastic Constant Matrix: (Units=GPa)
#
#
# Indices 1 2 3 4 5 6 
#
# 1 90.3775 33.0441 -8.0565 0.0000 -15.9864 0.0000
# 2 33.0441 75.6371 24.4253 0.0000 -6.6840 0.0000
# 3 -8.0565 24.4253 68.1987 0.0000 19.3845 0.0000
# 4 0.0000 0.0000 0.0000 49.4997 0.0000 -1.5002
# 5 -15.9864 -6.6840 19.3845 0.0000 48.8571 0.0000
# 6 0.0000 0.0000 0.0000 -1.5002 0.0000 26.5325
#
#
#
# Elastic Compliance Matrix: (Units=1/GPa)
#
#
# Indices 1 2 3 4 5 6 
#
# 1 0.014467 -0.007308 0.003680 0.000000 0.002274 0.000000
# 2 -0.007308 0.019664 -0.009007 0.000000 0.003873 0.000000
# 3 0.003680 -0.009007 0.020662 0.000000 -0.008226 0.000000
# 4 0.000000 0.000000 0.000000 0.020237 0.000000 0.001144
# 5 0.002274 0.003873 -0.008226 0.000000 0.025005 0.000000
# 6 0.000000 0.000000 0.000000 0.001144 0.000000 0.037754
#
#
# Mechanical properties :
#
#
# Convention : Reuss Voigt Hill
#
# Bulk Modulus (GPa) = 33.87106 37.00435 35.43770
# Shear Modulus (GPa) = 28.91856 37.29789 33.10823
#
# Velocity S-wave (km/s) = 3.44965 3.91767 3.69109
# Velocity P-wave (km/s) = 5.45937 5.97424 5.72260
#
# Compressibility (1/GPa) = 0.02952373
#
# Stress axis : x y z
#
# Youngs Moduli (GPa) = 69.12387 50.85353 48.39898
#
# Poissons Ratio (x) = 0.37162 -0.17810
# Poissons Ratio (y) = 0.50513 0.43592
# Poissons Ratio (z) = -0.25437 0.45803
#
# Static dielectric constant tensor:
#      x y z
#    x 1.902680 0.000000 0.007700 
#    y 0.000000 2.009050 0.000000 
#    z 0.007700 0.000000 2.053850 
# 
# From -- ./inp_files/73166.got.cif
#   From: 2010.05.17/outbox.cif.g08.bks.cpg/sg14_37_cif.got.tgz:73166.got - 2010.06.03 17:49:19.
