data_PCOD9250329
_publ_section_title
;
Structure prediction by ZEFSAII (Michael W. Deem and Ramdas Pophale) SiO2 
 PCOD9250329
Probable space group: P 21/C
;
_chemical_formula_sum "Si O2"
_cell_formula_units_Z 28
_cell_length_a 12.732396
_cell_length_b 9.497523
_cell_length_c 14.428219
_cell_angle_alpha 90.000000
_cell_angle_beta 59.326807
_cell_angle_gamma 90.000000
_cell_volume 1500.643886
_symmetry_space_group_name_H-M "P 21/C"
_symmetry_group_IT_number 14
_symmetry_cell_setting 'monoclinic'
loop_
_space_group_symop_operation_xyz
x,y,z
-x,1/2+y,1/2-z
-x,-y,-z
x,1/2-y,1/2+z
loop_
_atom_site_type_symbol
_atom_site_label
_atom_site_fract_x
_atom_site_fract_y
_atom_site_fract_z
Si Si1 0.007757 0.170979 0.598975
Si Si2 0.640512 0.040384 0.437711
Si Si3 0.383788 0.908729 0.344054
Si Si4 0.161827 0.326899 0.208322
Si Si5 0.888320 0.454830 0.614527
Si Si6 0.835295 0.585425 0.145470
Si Si7 0.374842 0.604094 0.259927
O O1 0.072905 0.210905 0.664913
O O2 0.105658 0.160260 0.471463
O O3 0.909412 0.290106 0.621493
O O4 0.939217 0.021917 0.634619
O O5 0.663894 0.105401 0.528013
O O6 0.658172 0.126544 0.334574
O O7 0.500000 0.000000 0.500000
O O8 0.720060 0.899888 0.389581
O O9 0.401663 0.753574 0.294389
O O10 0.282119 0.996802 0.333691
O O11 0.509778 0.998766 0.286306
O O12 0.103150 0.449276 0.298107
O O13 0.191848 0.199140 0.263191
O O14 0.748235 0.467108 0.643103
O O15 0.000000 0.500000 0.500000
#
# Coordination Sequence:
#
# PCOD9250329 Si02
#       7
#     4   4   4   4   4   4   4
#     4  11  22  41  59  95 126 167 211 266 320 370
#     4   9  21  41  64  88 128 164 211 259 324 379
#     4  11  22  44  69  93 127 170 214 268 319 383
#     4  11  22  39  65  90 123 175 207 256 328 375
#     4  11  22  41  60  91 131 158 208 260 315 383
#     4  11  23  38  66  93 125 167 222 258 311 392
#     4  10  24  41  67  94 125 172 212 261 327 379
#
# _framework density 18.658656000000001
#
# number of rings (size 3 to 8) (size 9 to 14) (size 15 to 20)
#    0.000    1.429    4.286    0.857    6.000    0.000 
#    5.143    0.714    0.000    0.000    0.000    0.000 
#    0.000    0.000    0.000    0.000    0.000    0.000 
#
# Total GULP energy -156182.771091 kJ/mol
# GULP energy per Si atom -5577.956110 kJ/mol
# Density = 1.861619 g / cm^3
# Si number density = 18.658656 Si / 1000 Ang^3
#
#
#
# Elastic Constant Matrix: (Units=GPa)
#
#
# Indices 1 2 3 4 5 6 
#
# 1 87.3633 21.0504 43.8603 0.0000 -0.4784 0.0000
# 2 21.0504 77.3821 40.4888 0.0000 12.6275 0.0000
# 3 43.8603 40.4888 92.1827 0.0000 -5.4118 0.0000
# 4 0.0000 0.0000 0.0000 30.8914 0.0000 -0.2714
# 5 -0.4784 12.6275 -5.4118 0.0000 37.3637 0.0000
# 6 0.0000 0.0000 0.0000 -0.2714 0.0000 31.7119
#
#
#
# Elastic Compliance Matrix: (Units=1/GPa)
#
#
# Indices 1 2 3 4 5 6 
#
# 1 0.015069 -0.000264 -0.007098 0.000000 -0.000746 0.000000
# 2 -0.000264 0.018689 -0.008527 0.000000 -0.007554 0.000000
# 3 -0.007098 -0.008527 0.018290 0.000000 0.005440 0.000000
# 4 0.000000 0.000000 0.000000 0.032374 0.000000 0.000277
# 5 -0.000746 -0.007554 0.005440 0.000000 0.030095 0.000000
# 6 0.000000 0.000000 0.000000 0.000277 0.000000 0.031536
#
#
# Mechanical properties :
#
#
# Convention : Reuss Voigt Hill
#
# Bulk Modulus (GPa) = 49.33081 51.96969 50.65025
# Shear Modulus (GPa) = 27.08750 30.09530 28.59140
#
# Velocity S-wave (km/s) = 3.81430 4.02050 3.91876
# Velocity P-wave (km/s) = 6.77455 7.03320 6.90508
#
# Compressibility (1/GPa) = 0.02027131
#
# Stress axis : x y z
#
# Youngs Moduli (GPa) = 66.35967 53.50810 54.67581
#
# Poissons Ratio (x) = 0.01411 0.38809
# Poissons Ratio (y) = 0.01750 0.46620
# Poissons Ratio (z) = 0.47102 0.45624
#
# Static dielectric constant tensor:
#      x y z
#    x 1.556720 0.000000 0.034040 
#    y 0.000000 1.630600 0.000000 
#    z 0.034040 0.000000 1.661430 
# 
# From -- ./inp_files/43296.got.cif
#   From: 2010.05.17/outbox.cif.g08.bks.cpg/sg14_22_cif.got.tgz:43296.got - 2010.06.03 17:49:19.
