data_PCOD9250612
_publ_section_title
;
Structure prediction by ZEFSAII (Michael W. Deem and Ramdas Pophale) SiO2 
 PCOD9250612
Probable space group: P 21/C
;
_chemical_formula_sum "Si O2"
_cell_formula_units_Z 32
_cell_length_a 9.094634
_cell_length_b 14.660319
_cell_length_c 23.270447
_cell_angle_alpha 90.000000
_cell_angle_beta 27.255044
_cell_angle_gamma 90.000000
_cell_volume 1420.867238
_symmetry_space_group_name_H-M "P 21/C"
_symmetry_group_IT_number 14
_symmetry_cell_setting 'monoclinic'
loop_
_space_group_symop_operation_xyz
x,y,z
-x,1/2+y,1/2-z
-x,-y,-z
x,1/2-y,1/2+z
loop_
_atom_site_type_symbol
_atom_site_label
_atom_site_fract_x
_atom_site_fract_y
_atom_site_fract_z
Si Si1 0.580352 0.758805 0.939988
Si Si2 0.852627 0.756341 0.217310
Si Si3 0.424408 0.706734 0.763752
Si Si4 0.455028 0.594426 0.202004
Si Si5 0.227023 0.436362 0.567972
Si Si6 0.698315 0.563514 0.589560
Si Si7 0.125212 0.052204 0.339251
Si Si8 0.258211 0.386333 0.020331
O O1 0.721263 0.737264 0.827934
O O2 0.785031 0.844017 0.891482
O O3 0.617862 0.673022 0.969660
O O4 0.209178 0.791864 0.077039
O O5 0.579060 0.799214 0.272406
O O6 0.885891 0.651429 0.184534
O O7 0.376265 0.811675 0.762942
O O8 0.673084 0.656109 0.634675
O O9 0.088584 0.656078 0.874882
O O10 0.746580 0.555662 0.139325
O O11 0.141566 0.529744 0.308983
O O12 0.539032 0.619167 0.107948
O O13 0.500000 0.500000 0.500000
O O14 0.319057 0.413438 0.470992
O O15 0.393937 0.502541 0.711153
O O16 0.000000 0.500000 0.500000
O O17 0.804659 0.992936 0.445691
#
# Coordination Sequence:
#
# PCOD9250612 Si02
#       8
#     4   4   4   4   4   4   4   4
#     4  12  27  48  68 104 145 189 231 298 365 440
#     4  11  28  46  70 103 146 183 247 291 365 423
#     4  10  25  42  75  99 134 194 238 302 341 432
#     4  11  22  44  71 104 140 182 243 292 356 423
#     4  12  26  42  70 104 144 184 227 296 366 426
#     4  11  23  43  69 103 138 178 243 290 356 417
#     4  10  24  44  70 103 136 183 233 303 340 427
#     4  11  24  44  76  99 142 186 240 282 373 428
#
# _framework density 22.521455
#
# number of rings (size 3 to 8) (size 9 to 14) (size 15 to 20)
#    0.000    1.000    2.500    2.625   10.500    0.500 
#    2.250    0.000    0.000    0.000    0.000    0.000 
#    0.000    0.000    0.000    0.000    0.000    0.000 
#
# Total GULP energy -178923.304490 kJ/mol
# GULP energy per Si atom -5591.353265 kJ/mol
# Density = 2.247020 g / cm^3
# Si number density = 22.521455 Si / 1000 Ang^3
#
#
#
# Elastic Constant Matrix: (Units=GPa)
#
#
# Indices 1 2 3 4 5 6 
#
# 1 145.4658 20.7842 55.5571 0.0000 22.0335 0.0000
# 2 20.7842 44.5002 -0.2935 0.0000 -4.0300 0.0000
# 3 55.5571 -0.2935 87.3801 0.0000 10.1028 0.0000
# 4 0.0000 0.0000 0.0000 33.3425 0.0000 -3.2121
# 5 22.0335 -4.0300 10.1028 0.0000 43.7597 0.0000
# 6 0.0000 0.0000 0.0000 -3.2121 0.0000 36.5069
#
#
#
# Elastic Compliance Matrix: (Units=1/GPa)
#
#
# Indices 1 2 3 4 5 6 
#
# 1 0.010751 -0.005467 -0.006339 0.000000 -0.004453 0.000000
# 2 -0.005467 0.025443 0.003053 0.000000 0.004391 0.000000
# 3 -0.006339 0.003053 0.015497 0.000000 -0.000105 0.000000
# 4 0.000000 0.000000 0.000000 0.030248 0.000000 0.002661
# 5 -0.004453 0.004391 -0.000105 0.000000 0.025523 0.000000
# 6 0.000000 0.000000 0.000000 0.002661 0.000000 0.027626
#
#
# Mechanical properties :
#
#
# Convention : Reuss Voigt Hill
#
# Bulk Modulus (GPa) = 29.25118 47.71573 38.48345
# Shear Modulus (GPa) = 30.48999 36.14170 33.31585
#
# Velocity S-wave (km/s) = 3.68342 4.01030 3.85033
# Velocity P-wave (km/s) = 5.57732 6.53270 6.07382
#
# Compressibility (1/GPa) = 0.03418666
#
# Stress axis : x y z
#
# Youngs Moduli (GPa) = 93.01347 39.30388 64.52810
#
# Poissons Ratio (x) = 0.21486 0.40905
# Poissons Ratio (y) = 0.50846 -0.19703
# Poissons Ratio (z) = 0.58963 -0.12001
#
# Static dielectric constant tensor:
#      x y z
#    x 1.784560 0.000000 0.074620 
#    y 0.000000 1.898650 0.000000 
#    z 0.074620 0.000000 1.598520 
# 
# From -- ./inp_files/72475.got.cif
#   From: 2010.05.17/outbox.cif.g08.bks.cpg/sg14_37_cif.got.tgz:72475.got - 2010.06.03 17:49:19.
