data_PCOD9250267
_publ_section_title
;
Structure prediction by ZEFSAII (Michael W. Deem and Ramdas Pophale) SiO2 
 PCOD9250267
Probable space group: P 21/C
;
_chemical_formula_sum "Si O2"
_cell_formula_units_Z 20
_cell_length_a 7.070267
_cell_length_b 21.544442
_cell_length_c 10.663451
_cell_angle_alpha 90.000000
_cell_angle_beta 39.403789
_cell_angle_gamma 90.000000
_cell_volume 1031.081943
_symmetry_space_group_name_H-M "P 21/C"
_symmetry_group_IT_number 14
_symmetry_cell_setting 'monoclinic'
loop_
_space_group_symop_operation_xyz
x,y,z
-x,1/2+y,1/2-z
-x,-y,-z
x,1/2-y,1/2+z
loop_
_atom_site_type_symbol
_atom_site_label
_atom_site_fract_x
_atom_site_fract_y
_atom_site_fract_z
Si Si1 0.014688 0.252987 0.363526
Si Si2 0.489732 0.835642 0.991551
Si Si3 0.512417 0.337278 0.221768
Si Si4 0.355763 0.035919 0.190752
Si Si5 0.638793 0.468037 0.051038
O O1 0.806417 0.297749 0.388924
O O2 0.795961 0.206709 0.549661
O O3 0.235980 0.211398 0.167453
O O4 0.222882 0.295703 0.343396
O O5 0.535887 0.893225 0.875216
O O6 0.480717 0.858761 0.138338
O O7 0.525875 0.397595 0.126965
O O8 0.435366 0.005867 0.283770
O O9 0.997938 0.033944 0.359049
O O10 0.500000 0.000000 0.000000
O O11 0.500000 0.500000 0.000000
#
# Coordination Sequence:
#
# PCOD9250267 Si02
#       5
#     4   4   4   4   4
#     4  10  24  40  63  96 124 167 206 261 319 372
#     4  11  22  43  66  92 128 165 213 259 318 377
#     4  11  22  43  64  93 127 162 212 262 311 381
#     4  11  24  44  66  91 128 171 208 264 318 373
#     4  11  26  43  65  95 130 167 216 264 317 377
#
# _framework density 19.397099999999998
#
# number of rings (size 3 to 8) (size 9 to 14) (size 15 to 20)
#    0.000    1.200    4.000    1.200    2.800    2.400 
#   14.400    0.000    0.000    0.000    0.000    0.000 
#    0.000    0.000    0.000    0.000    0.000    0.000 
#
# Total GULP energy -111787.277134 kJ/mol
# GULP energy per Si atom -5589.363857 kJ/mol
# Density = 1.935295 g / cm^3
# Si number density = 19.397100 Si / 1000 Ang^3
#
#
#
# Elastic Constant Matrix: (Units=GPa)
#
#
# Indices 1 2 3 4 5 6 
#
# 1 83.7219 53.7661 44.0031 0.0000 3.5913 0.0000
# 2 53.7661 142.1941 43.1359 0.0000 2.6063 0.0000
# 3 44.0031 43.1359 65.6860 0.0000 6.9668 0.0000
# 4 0.0000 0.0000 0.0000 26.6380 0.0000 12.7645
# 5 3.5913 2.6063 6.9668 0.0000 32.3547 0.0000
# 6 0.0000 0.0000 0.0000 12.7645 0.0000 23.3305
#
#
#
# Elastic Compliance Matrix: (Units=1/GPa)
#
#
# Indices 1 2 3 4 5 6 
#
# 1 0.020492 -0.004468 -0.010838 0.000000 0.000419 0.000000
# 2 -0.004468 0.009766 -0.003468 0.000000 0.000456 0.000000
# 3 -0.010838 -0.003468 0.025180 0.000000 -0.003939 0.000000
# 4 0.000000 0.000000 0.000000 0.050879 0.000000 -0.027837
# 5 0.000419 0.000456 -0.003939 0.000000 0.031672 0.000000
# 6 0.000000 0.000000 0.000000 -0.027837 0.000000 0.058092
#
#
# Mechanical properties :
#
#
# Convention : Reuss Voigt Hill
#
# Bulk Modulus (GPa) = 55.90077 63.71248 59.80663
# Shear Modulus (GPa) = 20.86866 26.51110 23.68988
#
# Velocity S-wave (km/s) = 3.28360 3.70098 3.49852
# Velocity P-wave (km/s) = 6.57706 7.15407 6.87162
#
# Compressibility (1/GPa) = 0.01788884
#
# Stress axis : x y z
#
# Youngs Moduli (GPa) = 48.79932 102.39598 39.71459
#
# Poissons Ratio (x) = 0.45754 0.43042
# Poissons Ratio (y) = 0.21805 0.13774
# Poissons Ratio (z) = 0.52887 0.35514
#
# Static dielectric constant tensor:
#      x y z
#    x 1.639920 0.000000 0.000520 
#    y 0.000000 1.672720 0.000000 
#    z 0.000520 0.000000 1.663170 
# 
# From -- ./inp_files/5652.got.cif
#   From: 2010.05.17/outbox.cif.g08.bks.cpg/sg14_3_cif.got.tgz:5652.got - 2010.06.03 17:49:19.
