data_PCOD9250452
_publ_section_title
;
Structure prediction by ZEFSAII (Michael W. Deem and Ramdas Pophale) SiO2 
 PCOD9250452
Probable space group: P 21/C
;
_chemical_formula_sum "Si O2"
_cell_formula_units_Z 20
_cell_length_a 9.423503
_cell_length_b 10.061624
_cell_length_c 9.037932
_cell_angle_alpha 90.000000
_cell_angle_beta 77.104251
_cell_angle_gamma 90.000000
_cell_volume 835.324340
_symmetry_space_group_name_H-M "P 21/C"
_symmetry_group_IT_number 14
_symmetry_cell_setting 'monoclinic'
loop_
_space_group_symop_operation_xyz
x,y,z
-x,1/2+y,1/2-z
-x,-y,-z
x,1/2-y,1/2+z
loop_
_atom_site_type_symbol
_atom_site_label
_atom_site_fract_x
_atom_site_fract_y
_atom_site_fract_z
Si Si1 0.395538 0.661348 0.517393
Si Si2 0.477725 0.498915 0.757971
Si Si3 0.026649 0.108838 0.693818
Si Si4 0.882768 0.176095 0.419061
Si Si5 0.652721 0.668283 0.954281
O O1 0.372508 0.567105 0.662406
O O2 0.402910 0.589706 0.357851
O O3 0.288185 0.786399 0.548104
O O4 0.564773 0.698332 0.500403
O O5 0.567670 0.599927 0.838347
O O6 0.377578 0.415200 0.891388
O O7 0.180319 0.177764 0.620966
O O8 0.925097 0.136770 0.575545
O O9 0.959579 0.187587 0.847634
O O10 0.065354 0.951107 0.690356
#
# Coordination Sequence:
#
# PCOD9250452 Si02
#       5
#     4   4   4   4   4
#     4  11  25  44  74 103 141 185 242 294 356 423
#     4  10  24  42  74 103 138 187 244 290 354 420
#     4  11  29  47  72 104 145 190 237 297 362 428
#     4  11  28  49  72 104 146 190 238 295 361 431
#     4  11  24  43  71  99 139 180 241 293 350 418
#
# _framework density 23.942798
#
# number of rings (size 3 to 8) (size 9 to 14) (size 15 to 20)
#    0.000    1.200    0.000    3.600   19.600    2.400 
#    0.000    0.000    0.000    0.000    0.000    0.000 
#    0.000    0.000    0.000    0.000    0.000    0.000 
#
# Total GULP energy -111916.884642 kJ/mol
# GULP energy per Si atom -5595.844232 kJ/mol
# Density = 2.388830 g / cm^3
# Si number density = 23.942798 Si / 1000 Ang^3
#
#
#
# Elastic Constant Matrix: (Units=GPa)
#
#
# Indices 1 2 3 4 5 6 
#
# 1 82.0088 20.9858 12.7593 0.0000 -6.0014 0.0000
# 2 20.9858 94.4673 21.1365 0.0000 -3.4445 0.0000
# 3 12.7593 21.1365 95.6682 0.0000 -3.6519 0.0000
# 4 0.0000 0.0000 0.0000 40.7590 0.0000 -8.5476
# 5 -6.0014 -3.4445 -3.6519 0.0000 17.0140 0.0000
# 6 0.0000 0.0000 0.0000 -8.5476 0.0000 36.0945
#
#
#
# Elastic Compliance Matrix: (Units=1/GPa)
#
#
# Indices 1 2 3 4 5 6 
#
# 1 0.013306 -0.002576 -0.001055 0.000000 0.003945 0.000000
# 2 -0.002576 0.011686 -0.002201 0.000000 0.000985 0.000000
# 3 -0.001055 -0.002201 0.011140 0.000000 0.001573 0.000000
# 4 0.000000 0.000000 0.000000 0.025817 0.000000 0.006114
# 5 0.003945 0.000985 0.001573 0.000000 0.060704 0.000000
# 6 0.000000 0.000000 0.000000 0.006114 0.000000 0.029153
#
#
# Mechanical properties :
#
#
# Convention : Reuss Voigt Hill
#
# Bulk Modulus (GPa) = 40.86865 42.43417 41.65141
# Shear Modulus (GPa) = 29.13338 33.25770 31.19554
#
# Velocity S-wave (km/s) = 3.49204 3.73104 3.61351
# Velocity P-wave (km/s) = 5.77628 6.02681 5.90288
#
# Compressibility (1/GPa) = 0.02446863
#
# Stress axis : x y z
#
# Youngs Moduli (GPa) = 75.15491 85.57075 89.76853
#
# Poissons Ratio (x) = 0.22043 0.09469
# Poissons Ratio (y) = 0.19360 0.19756
# Poissons Ratio (z) = 0.07928 0.18832
#
# Static dielectric constant tensor:
#      x y z
#    x 1.886490 0.000000 0.004200 
#    y 0.000000 1.971050 0.000000 
#    z 0.004200 0.000000 1.935900 
# 
# From -- ./inp_files/7844.got.cif
#   From: 2010.05.17/outbox.cif.g08.bks.cpg/sg14_4_cif.got.tgz:7844.got - 2010.06.03 17:49:19.
