data_PCOD9250763
_publ_section_title
;
Structure prediction by ZEFSAII (Michael W. Deem and Ramdas Pophale) SiO2 
 PCOD9250763
Probable space group: P 21/C
;
_chemical_formula_sum "Si O2"
_cell_formula_units_Z 24
_cell_length_a 18.412263
_cell_length_b 6.378240
_cell_length_c 10.002828
_cell_angle_alpha 90.000000
_cell_angle_beta 65.375821
_cell_angle_gamma 90.000000
_cell_volume 1067.882689
_symmetry_space_group_name_H-M "P 21/C"
_symmetry_group_IT_number 14
_symmetry_cell_setting 'monoclinic'
loop_
_space_group_symop_operation_xyz
x,y,z
-x,1/2+y,1/2-z
-x,-y,-z
x,1/2-y,1/2+z
loop_
_atom_site_type_symbol
_atom_site_label
_atom_site_fract_x
_atom_site_fract_y
_atom_site_fract_z
Si Si1 0.330224 0.651045 0.780018
Si Si2 0.838803 0.999289 0.659722
Si Si3 0.556111 0.688660 0.407813
Si Si4 0.957762 0.150353 0.140120
Si Si5 0.117606 0.200527 0.644080
Si Si6 0.597937 0.413901 0.008944
O O1 0.239695 0.635222 0.803710
O O2 0.373128 0.426097 0.722765
O O3 0.376182 0.819652 0.654033
O O4 0.342546 0.680626 0.927746
O O5 0.838226 0.868083 0.797173
O O6 0.845898 0.842207 0.528828
O O7 0.915779 0.150483 0.605052
O O8 0.500000 0.500000 0.500000
O O9 0.491542 0.837317 0.383858
O O10 0.593108 0.836956 0.493647
O O11 0.026945 0.222487 0.187992
O O12 0.891293 0.017233 0.269638
O O13 0.000000 0.000000 0.000000
#
# Coordination Sequence:
#
# PCOD9250763 Si02
#       6
#     4   4   4   4   4   4
#     4  11  27  43  70 106 141 185 231 293 361 406
#     4  12  29  44  71 106 145 184 237 299 361 419
#     4   9  22  43  72 102 134 186 237 280 347 418
#     4  12  24  45  74 103 137 184 239 287 355 435
#     4  12  25  47  71 103 136 187 237 294 353 429
#     4  10  24  46  70 100 144 184 236 289 344 428
#
# _framework density 22.474378000000002
#
# number of rings (size 3 to 8) (size 9 to 14) (size 15 to 20)
#    0.000    1.000    3.333    1.500   11.667    1.333 
#    0.000    0.000    0.000    0.000    0.000    0.000 
#    0.000    0.000    0.000    0.000    0.000    0.000 
#
# Total GULP energy -134185.418818 kJ/mol
# GULP energy per Si atom -5591.059117 kJ/mol
# Density = 2.242323 g / cm^3
# Si number density = 22.474378 Si / 1000 Ang^3
#
#
#
# Elastic Constant Matrix: (Units=GPa)
#
#
# Indices 1 2 3 4 5 6 
#
# 1 86.1914 7.6347 16.2043 0.0000 14.3759 0.0000
# 2 7.6347 75.1328 28.4212 0.0000 14.2784 0.0000
# 3 16.2043 28.4212 47.0070 0.0000 27.1222 0.0000
# 4 0.0000 0.0000 0.0000 30.4680 0.0000 2.8290
# 5 14.3759 14.2784 27.1222 0.0000 32.2774 0.0000
# 6 0.0000 0.0000 0.0000 2.8290 0.0000 25.9479
#
#
#
# Elastic Compliance Matrix: (Units=1/GPa)
#
#
# Indices 1 2 3 4 5 6 
#
# 1 0.012651 0.000334 -0.002381 0.000000 -0.003781 0.000000
# 2 0.000334 0.017346 -0.011821 0.000000 0.002111 0.000000
# 3 -0.002381 -0.011821 0.049716 0.000000 -0.035486 0.000000
# 4 0.000000 0.000000 0.000000 0.033157 0.000000 -0.003615
# 5 -0.003781 0.002111 -0.035486 0.000000 0.061550 0.000000
# 6 0.000000 0.000000 0.000000 -0.003615 0.000000 0.038933
#
#
# Mechanical properties :
#
#
# Convention : Reuss Voigt Hill
#
# Bulk Modulus (GPa) = 19.23917 34.76127 27.00022
# Shear Modulus (GPa) = 19.34869 28.14339 23.74604
#
# Velocity S-wave (km/s) = 2.93733 3.54254 3.25404
# Velocity P-wave (km/s) = 4.48140 5.67745 5.11451
#
# Compressibility (1/GPa) = 0.05197729
#
# Stress axis : x y z
#
# Youngs Moduli (GPa) = 79.04596 57.64928 20.11417
#
# Poissons Ratio (x) = -0.01924 0.04789
# Poissons Ratio (y) = -0.02639 0.23777
# Poissons Ratio (z) = 0.18821 0.68146
#
# Static dielectric constant tensor:
#      x y z
#    x 1.847310 0.000000 0.023280 
#    y 0.000000 1.856260 0.000000 
#    z 0.023280 0.000000 1.866510 
# 
# From -- ./inp_files/33356.got.cif
#   From: 2010.05.17/outbox.cif.g08.bks.cpg/sg14_17_cif.got.tgz:33356.got - 2010.06.03 17:49:19.
