data_PCOD9250421
_publ_section_title
;
Structure prediction by ZEFSAII (Michael W. Deem and Ramdas Pophale) SiO2 
 PCOD9250421
Probable space group: P 21/C
;
_chemical_formula_sum "Si O2"
_cell_formula_units_Z 20
_cell_length_a 14.078193
_cell_length_b 4.839797
_cell_length_c 11.040939
_cell_angle_alpha 90.000000
_cell_angle_beta 93.102519
_cell_angle_gamma 90.000000
_cell_volume 751.178338
_symmetry_space_group_name_H-M "P 21/C"
_symmetry_group_IT_number 14
_symmetry_cell_setting 'monoclinic'
loop_
_space_group_symop_operation_xyz
x,y,z
-x,1/2+y,1/2-z
-x,-y,-z
x,1/2-y,1/2+z
loop_
_atom_site_type_symbol
_atom_site_label
_atom_site_fract_x
_atom_site_fract_y
_atom_site_fract_z
Si Si1 0.149366 0.021315 0.505330
Si Si2 0.443131 0.940176 0.705672
Si Si3 0.654614 0.725898 0.495517
Si Si4 0.010418 0.725985 0.667914
Si Si5 0.700332 0.284211 0.134002
O O1 0.191439 0.821515 0.400995
O O2 0.104544 0.841828 0.609078
O O3 0.240610 0.201443 0.551129
O O4 0.071383 0.215491 0.436955
O O5 0.501251 0.150855 0.796408
O O6 0.425239 0.129984 0.588453
O O7 0.339405 0.849356 0.748690
O O8 0.652490 0.406788 0.526692
O O9 0.661597 0.906270 0.619403
O O10 0.013560 0.416465 0.716985
#
# Coordination Sequence:
#
# PCOD9250421 Si02
#       5
#     4   4   4   4   4
#     4   9  26  44  68 101 133 178 226 261 345 396
#     4  12  26  43  67 102 133 175 231 276 337 392
#     4  10  24  42  69  94 133 177 220 273 331 398
#     4  11  26  42  71 100 140 173 219 280 328 402
#     4  10  24  44  67  93 134 174 222 272 329 399
#
# _framework density 26.624835999999998
#
# number of rings (size 3 to 8) (size 9 to 14) (size 15 to 20)
#    1.200    0.400    0.000    2.400    8.400    6.400 
#    0.000    0.000    0.000    0.000    0.000    0.000 
#    0.000    0.000    0.000    0.000    0.000    0.000 
#
# Total GULP energy -111821.194162 kJ/mol
# GULP energy per Si atom -5591.059708 kJ/mol
# Density = 2.656424 g / cm^3
# Si number density = 26.624836 Si / 1000 Ang^3
#
#
#
# Elastic Constant Matrix: (Units=GPa)
#
#
# Indices 1 2 3 4 5 6 
#
# 1 93.7901 19.4846 10.7663 0.0000 -23.3068 0.0000
# 2 19.4846 111.9858 -11.7204 0.0000 -2.2191 0.0000
# 3 10.7663 -11.7204 37.7933 0.0000 -7.9578 0.0000
# 4 0.0000 0.0000 0.0000 40.3617 0.0000 -4.1322
# 5 -23.3068 -2.2191 -7.9578 0.0000 40.5538 0.0000
# 6 0.0000 0.0000 0.0000 -4.1322 0.0000 31.5616
#
#
#
# Elastic Compliance Matrix: (Units=1/GPa)
#
#
# Indices 1 2 3 4 5 6 
#
# 1 0.013242 -0.002492 -0.003100 0.000000 0.006866 0.000000
# 2 -0.002492 0.009747 0.003696 0.000000 -0.000174 0.000000
# 3 -0.003100 0.003696 0.029370 0.000000 0.004184 0.000000
# 4 0.000000 0.000000 0.000000 0.025113 0.000000 0.003288
# 5 0.006866 -0.000174 0.004184 0.000000 0.029416 0.000000
# 6 0.000000 0.000000 0.000000 0.003288 0.000000 0.032115
#
#
# Mechanical properties :
#
#
# Convention : Reuss Voigt Hill
#
# Bulk Modulus (GPa) = 20.59014 31.18111 25.88562
# Shear Modulus (GPa) = 31.45011 37.49800 34.47405
#
# Velocity S-wave (km/s) = 3.44063 3.75692 3.60225
# Velocity P-wave (km/s) = 4.85120 5.52774 5.20049
#
# Compressibility (1/GPa) = 0.04856693
#
# Stress axis : x y z
#
# Youngs Moduli (GPa) = 75.51851 102.59847 34.04841
#
# Poissons Ratio (x) = 0.25571 0.10553
# Poissons Ratio (y) = 0.18822 -0.12585
# Poissons Ratio (z) = 0.23407 -0.37921
#
# Static dielectric constant tensor:
#      x y z
#    x 2.121070 0.000000 -0.047040 
#    y 0.000000 1.953440 0.000000 
#    z -0.047040 0.000000 2.128260 
# 
# From -- ./inp_files/31010.got.cif
#   From: 2010.05.17/outbox.cif.g08.bks.cpg/sg14_16_cif.got.tgz:31010.got - 2010.06.03 17:49:19.
