data_PCOD9250643
_publ_section_title
;
Structure prediction by ZEFSAII (Michael W. Deem and Ramdas Pophale) SiO2 
 PCOD9250643
Probable space group: P 21/C
;
_chemical_formula_sum "Si O2"
_cell_formula_units_Z 28
_cell_length_a 19.786665
_cell_length_b 5.724137
_cell_length_c 10.519562
_cell_angle_alpha 90.000000
_cell_angle_beta 64.953359
_cell_angle_gamma 90.000000
_cell_volume 1079.421240
_symmetry_space_group_name_H-M "P 21/C"
_symmetry_group_IT_number 14
_symmetry_cell_setting 'monoclinic'
loop_
_space_group_symop_operation_xyz
x,y,z
-x,1/2+y,1/2-z
-x,-y,-z
x,1/2-y,1/2+z
loop_
_atom_site_type_symbol
_atom_site_label
_atom_site_fract_x
_atom_site_fract_y
_atom_site_fract_z
Si Si1 0.816570 0.288755 0.142803
Si Si2 0.436841 0.698161 0.537093
Si Si3 0.211045 0.211619 0.953063
Si Si4 0.649034 0.821610 0.987537
Si Si5 0.902737 0.494881 0.277711
Si Si6 0.983473 0.291015 0.419288
Si Si7 0.429805 0.095755 0.694345
O O1 0.782983 0.541736 0.127010
O O2 0.898330 0.280724 0.012899
O O3 0.779726 0.036394 0.134299
O O4 0.839429 0.322895 0.272617
O O5 0.500000 0.500000 0.500000
O O6 0.362073 0.592776 0.541340
O O7 0.483231 0.862515 0.405630
O O8 0.420687 0.819444 0.683274
O O9 0.134375 0.166055 0.090093
O O10 0.271730 0.228953 0.017185
O O11 0.594671 0.800378 0.153466
O O12 0.621299 0.690877 0.882583
O O13 0.973453 0.365684 0.281276
O O14 0.942662 0.636838 0.134103
O O15 0.000000 0.500000 0.500000
#
# Coordination Sequence:
#
# PCOD9250643 Si02
#       7
#     4   4   4   4   4   4   4
#     4  11  25  45  66 100 140 182 242 292 363 435
#     4   9  22  42  70 108 143 184 240 303 378 430
#     4  11  28  45  68 103 140 197 237 296 361 447
#     4  11  26  44  72 106 144 198 247 302 379 444
#     4  11  22  41  71  95 145 178 235 295 367 429
#     4  11  22  41  70 108 131 182 238 303 369 431
#     4  10  24  44  74 105 148 188 247 313 369 452
#
# _framework density 25.939827000000001
#
# number of rings (size 3 to 8) (size 9 to 14) (size 15 to 20)
#    0.000    1.429    0.000    3.857   10.000    5.714 
#    0.000    0.000    0.000    0.000    0.000    0.000 
#    0.000    0.000    0.000    0.000    0.000    0.000 
#
# Total GULP energy -156247.619114 kJ/mol
# GULP energy per Si atom -5580.272111 kJ/mol
# Density = 2.588079 g / cm^3
# Si number density = 25.939827 Si / 1000 Ang^3
#
#
#
# Elastic Constant Matrix: (Units=GPa)
#
#
# Indices 1 2 3 4 5 6 
#
# 1 116.9498 46.9871 6.8380 0.0000 31.9867 0.0000
# 2 46.9871 123.1843 18.3013 0.0000 25.6028 0.0000
# 3 6.8380 18.3013 67.1940 0.0000 19.1221 0.0000
# 4 0.0000 0.0000 0.0000 34.4293 0.0000 15.3071
# 5 31.9867 25.6028 19.1221 0.0000 47.1728 0.0000
# 6 0.0000 0.0000 0.0000 15.3071 0.0000 44.5655
#
#
#
# Elastic Compliance Matrix: (Units=1/GPa)
#
#
# Indices 1 2 3 4 5 6 
#
# 1 0.011619 -0.003268 0.001633 0.000000 -0.006767 0.000000
# 2 -0.003268 0.010159 -0.001691 0.000000 -0.002612 0.000000
# 3 0.001633 -0.001691 0.017217 0.000000 -0.007169 0.000000
# 4 0.000000 0.000000 0.000000 0.034280 0.000000 -0.011774
# 5 -0.006767 -0.002612 -0.007169 0.000000 0.030111 0.000000
# 6 0.000000 0.000000 0.000000 -0.011774 0.000000 0.026483
#
#
# Mechanical properties :
#
#
# Convention : Reuss Voigt Hill
#
# Bulk Modulus (GPa) = 30.91848 50.17565 40.54707
# Shear Modulus (GPa) = 33.94424 40.91363 37.42893
#
# Velocity S-wave (km/s) = 3.62135 3.97577 3.80269
# Velocity P-wave (km/s) = 5.42501 6.36088 5.91149
#
# Compressibility (1/GPa) = 0.03234312
#
# Stress axis : x y z
#
# Youngs Moduli (GPa) = 86.06564 98.43844 58.08303
#
# Poissons Ratio (x) = 0.32171 -0.09488
# Poissons Ratio (y) = 0.28128 0.09822
# Poissons Ratio (z) = -0.14059 0.16645
#
# Static dielectric constant tensor:
#      x y z
#    x 1.973570 0.000000 0.006130 
#    y 0.000000 0.426240 0.000000 
#    z 0.006130 0.000000 2.109300 
# 
# From -- ./inp_files/34701.got.cif
#   From: 2010.05.17/outbox.cif.g08.bks.cpg/sg14_18_cif.got.tgz:34701.got - 2010.06.03 17:49:19.
