data_PCOD9250556
_publ_section_title
;
Structure prediction by ZEFSAII (Michael W. Deem and Ramdas Pophale) SiO2 
 PCOD9250556
Probable space group: P 21/C
;
_chemical_formula_sum "Si O2"
_cell_formula_units_Z 32
_cell_length_a 8.637686
_cell_length_b 15.938806
_cell_length_c 9.881768
_cell_angle_alpha 90.000000
_cell_angle_beta 106.971022
_cell_angle_gamma 90.000000
_cell_volume 1301.221585
_symmetry_space_group_name_H-M "P 21/C"
_symmetry_group_IT_number 14
_symmetry_cell_setting 'monoclinic'
loop_
_space_group_symop_operation_xyz
x,y,z
-x,1/2+y,1/2-z
-x,-y,-z
x,1/2-y,1/2+z
loop_
_atom_site_type_symbol
_atom_site_label
_atom_site_fract_x
_atom_site_fract_y
_atom_site_fract_z
Si Si1 0.856612 0.608420 0.977134
Si Si2 0.406866 0.249619 0.617120
Si Si3 0.706595 0.054454 0.826140
Si Si4 0.929288 0.159148 0.723851
Si Si5 0.628605 0.271227 0.427273
Si Si6 0.846353 0.162487 0.298732
Si Si7 0.796940 0.906536 0.019919
Si Si8 0.658562 0.498577 0.746684
O O1 0.715614 0.676457 0.956862
O O2 0.767069 0.524853 0.904308
O O3 0.963668 0.635863 0.876095
O O4 0.985785 0.613035 0.130511
O O5 0.556545 0.250218 0.553119
O O6 0.477254 0.235836 0.783897
O O7 0.312997 0.336302 0.577210
O O8 0.779303 0.096298 0.709797
O O9 0.690339 0.134452 0.921165
O O10 0.528210 0.014510 0.767309
O O11 0.816143 0.982459 0.919949
O O12 0.888419 0.257584 0.717190
O O13 0.042603 0.137904 0.883315
O O14 0.764661 0.207565 0.408380
O O15 0.712511 0.094824 0.223571
O O16 0.705186 0.944395 0.128750
#
# Coordination Sequence:
#
# PCOD9250556 Si02
#       8
#     4   4   4   4   4   4   4   4
#     4  11  24  45  68  92 145 182 237 286 362 423
#     4  12  23  48  70 104 140 190 238 295 352 424
#     4  11  22  41  68 101 140 176 230 302 344 416
#     4  10  24  44  65 103 137 185 232 297 351 430
#     4  11  26  41  73 103 143 184 240 287 357 420
#     4  11  25  41  69  99 137 189 230 287 362 426
#     4  11  22  42  72 101 140 182 244 295 354 413
#     4  11  23  44  66 102 139 185 233 302 350 421
#
# _framework density 24.592278
#
# number of rings (size 3 to 8) (size 9 to 14) (size 15 to 20)
#    0.000    1.000    3.750    2.625    5.250    1.000 
#    4.500    6.250    0.000    0.000    0.000    0.000 
#    0.000    0.000    0.000    0.000    0.000    0.000 
#
# Total GULP energy -179293.001338 kJ/mol
# GULP energy per Si atom -5602.906292 kJ/mol
# Density = 2.453630 g / cm^3
# Si number density = 24.592278 Si / 1000 Ang^3
#
#
#
# Elastic Constant Matrix: (Units=GPa)
#
#
# Indices 1 2 3 4 5 6 
#
# 1 90.4136 16.7111 5.5176 0.0000 13.8362 0.0000
# 2 16.7111 108.2346 20.0571 0.0000 8.7569 0.0000
# 3 5.5176 20.0571 33.7002 0.0000 5.6958 0.0000
# 4 0.0000 0.0000 0.0000 28.5805 0.0000 10.4868
# 5 13.8362 8.7569 5.6958 0.0000 37.9478 0.0000
# 6 0.0000 0.0000 0.0000 10.4868 0.0000 40.6350
#
#
#
# Elastic Compliance Matrix: (Units=1/GPa)
#
#
# Indices 1 2 3 4 5 6 
#
# 1 0.011960 -0.001447 -0.000427 0.000000 -0.003963 0.000000
# 2 -0.001447 0.010644 -0.005922 0.000000 -0.001040 0.000000
# 3 -0.000427 -0.005922 0.033870 0.000000 -0.003561 0.000000
# 4 0.000000 0.000000 0.000000 0.038649 0.000000 -0.009974
# 5 -0.003963 -0.001040 -0.003561 0.000000 0.028571 0.000000
# 6 0.000000 0.000000 0.000000 -0.009974 0.000000 0.027183
#
#
# Mechanical properties :
#
#
# Convention : Reuss Voigt Hill
#
# Bulk Modulus (GPa) = 24.46098 35.21332 29.83715
# Shear Modulus (GPa) = 27.76265 34.10351 30.93308
#
# Velocity S-wave (km/s) = 3.36358 3.72796 3.55045
# Velocity P-wave (km/s) = 5.00531 5.73412 5.38207
#
# Compressibility (1/GPa) = 0.04088144
#
# Stress axis : x y z
#
# Youngs Moduli (GPa) = 83.61053 93.94805 29.52455
#
# Poissons Ratio (x) = 0.13593 0.01262
# Poissons Ratio (y) = 0.12097 0.17486
# Poissons Ratio (z) = 0.03573 0.55640
#
# Static dielectric constant tensor:
#      x y z
#    x 1.923390 0.000000 0.036080 
#    y 0.000000 1.918440 0.000000 
#    z 0.036080 0.000000 2.012000 
# 
# From -- ./inp_files/25559.got.cif
#   From: 2010.05.17/outbox.cif.g08.bks.cpg/sg14_13_cif.got.tgz:25559.got - 2010.06.03 17:49:19.
