data_PCOD9250884
_publ_section_title
;
Structure prediction by ZEFSAII (Michael W. Deem and Ramdas Pophale) SiO2 
 PCOD9250884
Probable space group: P 21/C
;
_chemical_formula_sum "Si O2"
_cell_formula_units_Z 22
_cell_length_a 4.951534
_cell_length_b 9.670635
_cell_length_c 15.883897
_cell_angle_alpha 90.000000
_cell_angle_beta 80.770591
_cell_angle_gamma 90.000000
_cell_volume 750.745545
_symmetry_space_group_name_H-M "P 21/C"
_symmetry_group_IT_number 14
_symmetry_cell_setting 'monoclinic'
loop_
_space_group_symop_operation_xyz
x,y,z
-x,1/2+y,1/2-z
-x,-y,-z
x,1/2-y,1/2+z
loop_
_atom_site_type_symbol
_atom_site_label
_atom_site_fract_x
_atom_site_fract_y
_atom_site_fract_z
Si Si1 0.000000 0.000000 0.000000
Si Si2 0.027569 0.702958 0.773771
Si Si3 0.671654 0.454474 0.777503
Si Si4 0.409852 0.964029 0.129359
Si Si5 0.220157 0.704390 0.952494
Si Si6 0.668040 0.809410 0.559698
O O1 0.193958 0.868339 0.966971
O O2 0.205411 0.029869 0.073273
O O3 0.052354 0.862999 0.746134
O O4 0.218880 0.639125 0.692148
O O5 0.751105 0.614936 0.782760
O O6 0.147326 0.673015 0.860453
O O7 0.530723 0.437637 0.694307
O O8 0.480606 0.394644 0.860087
O O9 0.652237 0.857796 0.082864
O O10 0.979030 0.651889 0.027138
O O11 0.503583 0.665370 0.981632
#
# Coordination Sequence:
#
# PCOD9250884 Si02
#       6
#     2   4   4   4   4   4
#     4  10  24  48  76 110 154 206 278 324 400 478
#     4  11  27  47  79 117 155 216 265 337 402 490
#     4  11  27  49  81 114 162 211 270 336 409 487
#     4  10  25  46  77 111 153 209 269 339 394 482
#     4  11  26  46  75 116 160 214 265 332 404 486
#     4  10  27  46  74 114 160 206 264 334 403 481
#
# _framework density 29.304206000000001
#
# number of rings (size 3 to 8) (size 9 to 14) (size 15 to 20)
#    0.000    1.455    0.000    1.091   17.818    5.818 
#    0.000    0.000    0.000    0.000    0.000    0.000 
#    0.000    0.000    0.000    0.000    0.000    0.000 
#
# Total GULP energy -123201.939303 kJ/mol
# GULP energy per Si atom -5600.088150 kJ/mol
# Density = 2.923751 g / cm^3
# Si number density = 29.304206 Si / 1000 Ang^3
#
#
#
# Elastic Constant Matrix: (Units=GPa)
#
#
# Indices 1 2 3 4 5 6 
#
# 1 79.8084 24.8543 22.9395 0.0000 14.9252 0.0000
# 2 24.8543 109.6202 0.7127 0.0000 11.8460 0.0000
# 3 22.9395 0.7127 166.8889 0.0000 20.6872 0.0000
# 4 0.0000 0.0000 0.0000 44.8077 0.0000 -6.8715
# 5 14.9252 11.8460 20.6872 0.0000 52.4431 0.0000
# 6 0.0000 0.0000 0.0000 -6.8715 0.0000 33.2299
#
#
#
# Elastic Compliance Matrix: (Units=1/GPa)
#
#
# Indices 1 2 3 4 5 6 
#
# 1 0.014443 -0.002962 -0.001626 0.000000 -0.002800 0.000000
# 2 -0.002962 0.009967 0.000567 0.000000 -0.001632 0.000000
# 3 -0.001626 0.000567 0.006489 0.000000 -0.002225 0.000000
# 4 0.000000 0.000000 0.000000 0.023049 0.000000 0.004766
# 5 -0.002800 -0.001632 -0.002225 0.000000 0.021112 0.000000
# 6 0.000000 0.000000 0.000000 0.004766 0.000000 0.031079
#
#
# Mechanical properties :
#
#
# Convention : Reuss Voigt Hill
#
# Bulk Modulus (GPa) = 43.74808 50.37006 47.05907
# Shear Modulus (GPa) = 41.05174 46.61688 43.83431
#
# Velocity S-wave (km/s) = 3.74690 3.99280 3.87180
# Velocity P-wave (km/s) = 5.80348 6.20343 6.00678
#
# Compressibility (1/GPa) = 0.02285815
#
# Stress axis : x y z
#
# Youngs Moduli (GPa) = 69.23662 100.33563 154.11089
#
# Poissons Ratio (x) = 0.29715 0.25051
# Poissons Ratio (y) = 0.20505 -0.08735
# Poissons Ratio (z) = 0.11254 -0.05687
#
# Static dielectric constant tensor:
#      x y z
#    x 2.348960 0.000000 -0.154940 
#    y 0.000000 2.425620 0.000000 
#    z -0.154940 0.000000 2.177630 
# 
# From -- ./inp_files/37031.got.cif
#   From: 2010.05.17/outbox.cif.g08.bks.cpg/sg14_19_cif.got.tgz:37031.got - 2010.06.03 17:49:19.
