data_PCOD9250579
_publ_section_title
;
Structure prediction by ZEFSAII (Michael W. Deem and Ramdas Pophale) SiO2 
 PCOD9250579
Probable space group: P 21/C
;
_chemical_formula_sum "Si O2"
_cell_formula_units_Z 22
_cell_length_a 27.268018
_cell_length_b 4.844957
_cell_length_c 10.103181
_cell_angle_alpha 90.000000
_cell_angle_beta 35.601602
_cell_angle_gamma 90.000000
_cell_volume 777.022026
_symmetry_space_group_name_H-M "P 21/C"
_symmetry_group_IT_number 14
_symmetry_cell_setting 'monoclinic'
loop_
_space_group_symop_operation_xyz
x,y,z
-x,1/2+y,1/2-z
-x,-y,-z
x,1/2-y,1/2+z
loop_
_atom_site_type_symbol
_atom_site_label
_atom_site_fract_x
_atom_site_fract_y
_atom_site_fract_z
Si Si1 0.839255 0.542920 0.893202
Si Si2 0.500000 0.500000 0.500000
Si Si3 0.054277 0.717837 0.665412
Si Si4 0.803211 0.948630 0.748798
Si Si5 0.469456 0.002681 0.335712
Si Si6 0.672169 0.284452 0.690084
O O1 0.814034 0.697943 0.084981
O O2 0.756803 0.357642 0.052765
O O3 0.919039 0.351772 0.752816
O O4 0.846166 0.769057 0.766881
O O5 0.503612 0.272733 0.348921
O O6 0.396233 0.562577 0.705525
O O7 0.015004 0.419299 0.747896
O O8 0.140952 0.775357 0.395789
O O9 0.707961 0.019394 0.996426
O O10 0.518280 0.742622 0.316247
O O11 0.374626 0.949891 0.589999
#
# Coordination Sequence:
#
# PCOD9250579 Si02
#       6
#     4   2   4   4   4   4
#     4  10  26  46  75 112 153 205 256 333 391 473
#     4  10  24  46  72 102 148 208 254 312 376 468
#     4  10  26  50  79 117 156 209 264 327 410 488
#     4  10  26  45  78 110 156 203 261 326 400 476
#     4  10  24  44  67 102 140 197 253 314 370 449
#     4  11  24  46  70 110 153 203 261 323 390 465
#
# _framework density 28.313226
#
# number of rings (size 3 to 8) (size 9 to 14) (size 15 to 20)
#    1.091    0.727    0.000    1.091   10.182    7.273 
#    6.545    0.000    0.000    0.000    0.000    0.000 
#    0.000    0.000    0.000    0.000    0.000    0.000 
#
# Total GULP energy -122956.341204 kJ/mol
# GULP energy per Si atom -5588.924600 kJ/mol
# Density = 2.824878 g / cm^3
# Si number density = 28.313226 Si / 1000 Ang^3
#
#
#
# Elastic Constant Matrix: (Units=GPa)
#
#
# Indices 1 2 3 4 5 6 
#
# 1 143.4260 28.8491 35.9782 0.0000 14.6979 0.0000
# 2 28.8491 180.3111 35.7056 0.0000 0.7332 0.0000
# 3 35.9782 35.7056 168.2704 0.0000 9.7796 0.0000
# 4 0.0000 0.0000 0.0000 57.6441 0.0000 -15.0049
# 5 14.6979 0.7332 9.7796 0.0000 67.7598 0.0000
# 6 0.0000 0.0000 0.0000 -15.0049 0.0000 54.8188
#
#
#
# Elastic Compliance Matrix: (Units=1/GPa)
#
#
# Indices 1 2 3 4 5 6 
#
# 1 0.007651 -0.000951 -0.001350 0.000000 -0.001455 0.000000
# 2 -0.000951 0.005908 -0.001068 0.000000 0.000296 0.000000
# 3 -0.001350 -0.001068 0.006495 0.000000 -0.000633 0.000000
# 4 0.000000 0.000000 0.000000 0.018679 0.000000 0.005113
# 5 -0.001455 0.000296 -0.000633 0.000000 0.015162 0.000000
# 6 0.000000 0.000000 0.000000 0.005113 0.000000 0.019641
#
#
# Mechanical properties :
#
#
# Convention : Reuss Voigt Hill
#
# Bulk Modulus (GPa) = 75.08732 77.00816 76.04774
# Shear Modulus (GPa) = 59.02389 62.14284 60.58337
#
# Velocity S-wave (km/s) = 4.57078 4.68999 4.63077
# Velocity P-wave (km/s) = 7.37793 7.52235 7.45049
#
# Compressibility (1/GPa) = 0.01331783
#
# Stress axis : x y z
#
# Youngs Moduli (GPa) = 130.69991 169.25265 153.97174
#
# Poissons Ratio (x) = 0.16096 0.20780
# Poissons Ratio (y) = 0.12429 0.16438
# Poissons Ratio (z) = 0.17639 0.18069
#
# Static dielectric constant tensor:
#      x y z
#    x 2.407330 0.000000 0.258900 
#    y 0.000000 2.305710 0.000000 
#    z 0.258900 0.000000 2.169640 
# 
# From -- ./inp_files/36320.got.cif
#   From: 2010.05.17/outbox.cif.g08.bks.cpg/sg14_19_cif.got.tgz:36320.got - 2010.06.03 17:49:19.
