data_PCOD9250951
_publ_section_title
;
Structure prediction by ZEFSAII (Michael W. Deem and Ramdas Pophale) SiO2 
 PCOD9250951
Probable space group: P 21/C
;
_chemical_formula_sum "Si O2"
_cell_formula_units_Z 18
_cell_length_a 19.899073
_cell_length_b 4.648738
_cell_length_c 10.499764
_cell_angle_alpha 90.000000
_cell_angle_beta 40.244463
_cell_angle_gamma 90.000000
_cell_volume 627.500001
_symmetry_space_group_name_H-M "P 21/C"
_symmetry_group_IT_number 14
_symmetry_cell_setting 'monoclinic'
loop_
_space_group_symop_operation_xyz
x,y,z
-x,1/2+y,1/2-z
-x,-y,-z
x,1/2-y,1/2+z
loop_
_atom_site_type_symbol
_atom_site_label
_atom_site_fract_x
_atom_site_fract_y
_atom_site_fract_z
Si Si1 0.500000 0.500000 0.000000
Si Si2 0.355509 0.608473 0.591143
Si Si3 0.164378 0.416723 0.749252
Si Si4 0.012318 0.685596 0.322304
Si Si5 0.626951 0.634741 0.105681
O O1 0.603768 0.287319 0.851192
O O2 0.553913 0.729680 0.816684
O O3 0.232360 0.553707 0.767096
O O4 0.406381 0.297687 0.482276
O O5 0.372042 0.811407 0.444107
O O6 0.254901 0.239746 0.546965
O O7 0.112098 0.660017 0.739063
O O8 0.077764 0.223700 0.942542
O O9 0.020531 0.367920 0.255730
#
# Coordination Sequence:
#
# PCOD9250951 Si02
#       5
#     2   4   4   4   4
#     4  12  24  44  72 100 134 194 230 272 348 420
#     4  10  25  44  65  97 138 177 228 282 339 397
#     4   9  26  46  66 102 143 172 230 295 339 407
#     4  11  26  42  75 101 134 183 235 282 356 423
#     4  10  25  42  68  96 141 177 226 285 332 409
#
# _framework density 28.68526
#
# number of rings (size 3 to 8) (size 9 to 14) (size 15 to 20)
#    1.333    0.444    0.000    1.333    9.333    5.333 
#    0.000    0.000    0.000    0.000    0.000    0.000 
#    0.000    0.000    0.000    0.000    0.000    0.000 
#
# Total GULP energy -100505.883735 kJ/mol
# GULP energy per Si atom -5583.660207 kJ/mol
# Density = 2.861997 g / cm^3
# Si number density = 28.685260 Si / 1000 Ang^3
#
#
#
# Elastic Constant Matrix: (Units=GPa)
#
#
# Indices 1 2 3 4 5 6 
#
# 1 86.7119 -12.6601 37.7138 0.0000 0.9547 0.0000
# 2 -12.6601 125.9310 4.7032 0.0000 8.6198 0.0000
# 3 37.7138 4.7032 125.4689 0.0000 -6.1522 0.0000
# 4 0.0000 0.0000 0.0000 34.3524 0.0000 2.2862
# 5 0.9547 8.6198 -6.1522 0.0000 68.8404 0.0000
# 6 0.0000 0.0000 0.0000 2.2862 0.0000 40.4349
#
#
#
# Elastic Compliance Matrix: (Units=1/GPa)
#
#
# Indices 1 2 3 4 5 6 
#
# 1 0.013589 0.001574 -0.004181 0.000000 -0.000759 0.000000
# 2 0.001574 0.008207 -0.000836 0.000000 -0.001124 0.000000
# 3 -0.004181 -0.000836 0.009307 0.000000 0.000994 0.000000
# 4 0.000000 0.000000 0.000000 0.029220 0.000000 -0.001652
# 5 -0.000759 -0.001124 0.000994 0.000000 0.014767 0.000000
# 6 0.000000 0.000000 0.000000 -0.001652 0.000000 0.024825
#
#
# Mechanical properties :
#
#
# Convention : Reuss Voigt Hill
#
# Bulk Modulus (GPa) = 41.29150 44.18060 42.73605
# Shear Modulus (GPa) = 43.52667 49.28254 46.40460
#
# Velocity S-wave (km/s) = 3.89959 4.14943 4.02645
# Velocity P-wave (km/s) = 5.89081 6.19615 6.04541
#
# Compressibility (1/GPa) = 0.02421806
#
# Stress axis : x y z
#
# Youngs Moduli (GPa) = 73.58873 121.84287 107.44725
#
# Poissons Ratio (x) = -0.19181 0.44922
# Poissons Ratio (y) = -0.11585 0.08982
# Poissons Ratio (z) = 0.30766 0.10186
#
# Static dielectric constant tensor:
#      x y z
#    x 2.291400 0.000000 -0.078710 
#    y 0.000000 2.157550 0.000000 
#    z -0.078710 0.000000 2.217140 
# 
# From -- ./inp_files/34479.got.cif
#   From: 2010.05.17/outbox.cif.g08.bks.cpg/sg14_18_cif.got.tgz:34479.got - 2010.06.03 17:49:19.
