data_PCOD9250116
_publ_section_title
;
Structure prediction by ZEFSAII (Michael W. Deem and Ramdas Pophale) SiO2 
 PCOD9250116
Probable space group: P 21/C
;
_chemical_formula_sum "Si O2"
_cell_formula_units_Z 16
_cell_length_a 4.931357
_cell_length_b 15.587965
_cell_length_c 7.578634
_cell_angle_alpha 90.000000
_cell_angle_beta 108.074206
_cell_angle_gamma 90.000000
_cell_volume 553.821695
_symmetry_space_group_name_H-M "P 21/C"
_symmetry_group_IT_number 14
_symmetry_cell_setting 'monoclinic'
loop_
_space_group_symop_operation_xyz
x,y,z
-x,1/2+y,1/2-z
-x,-y,-z
x,1/2-y,1/2+z
loop_
_atom_site_type_symbol
_atom_site_label
_atom_site_fract_x
_atom_site_fract_y
_atom_site_fract_z
Si Si1 0.201962 0.049728 0.406389
Si Si2 0.196389 0.824271 0.528676
Si Si3 0.500303 0.651266 0.451251
Si Si4 0.888629 0.415424 0.362743
O O1 0.113679 0.148015 0.444764
O O2 0.500000 0.000000 0.500000
O O3 0.000000 0.000000 0.500000
O O4 0.082393 0.014758 0.195221
O O5 0.334039 0.732760 0.503249
O O6 0.193701 0.866301 0.335693
O O7 0.403612 0.857100 0.728458
O O8 0.837786 0.641577 0.527734
O O9 0.382449 0.582538 0.565056
#
# Coordination Sequence:
#
# PCOD9250116 Si02
#       4
#     4   4   4   4
#     4  10  23  46  76 102 142 191 238 298 359 420
#     4  11  26  47  74 104 146 192 237 298 361 424
#     4  12  27  42  75 106 143 189 242 292 364 428
#     4  11  26  47  69 109 143 185 243 299 352 431
#
# _framework density 28.890163000000001
#
# number of rings (size 3 to 8) (size 9 to 14) (size 15 to 20)
#    0.000    1.000    2.500    3.000    3.500   12.000 
#    0.000    0.000    0.000    0.000    0.000    0.000 
#    0.000    0.000    0.000    0.000    0.000    0.000 
#
# Total GULP energy -89267.464495 kJ/mol
# GULP energy per Si atom -5579.216531 kJ/mol
# Density = 2.882441 g / cm^3
# Si number density = 28.890163 Si / 1000 Ang^3
#
#
#
# Elastic Constant Matrix: (Units=GPa)
#
#
# Indices 1 2 3 4 5 6 
#
# 1 192.5495 59.1376 67.8481 0.0000 25.5695 0.0000
# 2 59.1376 140.7236 21.5255 0.0000 -2.7370 0.0000
# 3 67.8481 21.5255 174.6955 0.0000 11.3518 0.0000
# 4 0.0000 0.0000 0.0000 40.9806 0.0000 -13.2076
# 5 25.5695 -2.7370 11.3518 0.0000 55.2969 0.0000
# 6 0.0000 0.0000 0.0000 -13.2076 0.0000 72.8011
#
#
#
# Elastic Compliance Matrix: (Units=1/GPa)
#
#
# Indices 1 2 3 4 5 6 
#
# 1 0.007243 -0.002754 -0.002277 0.000000 -0.003018 0.000000
# 2 -0.002754 0.008306 -0.000064 0.000000 0.001698 0.000000
# 3 -0.002277 -0.000064 0.006637 0.000000 -0.000313 0.000000
# 4 0.000000 0.000000 0.000000 0.025917 0.000000 0.004702
# 5 -0.003018 0.001698 -0.000313 0.000000 0.019628 0.000000
# 6 0.000000 0.000000 0.000000 0.004702 0.000000 0.014589
#
#
# Mechanical properties :
#
#
# Convention : Reuss Voigt Hill
#
# Bulk Modulus (GPa) = 83.37065 89.44345 86.40705
# Shear Modulus (GPa) = 51.80857 57.77955 54.79406
#
# Velocity S-wave (km/s) = 4.23933 4.47696 4.35976
# Velocity P-wave (km/s) = 7.27207 7.59942 7.43755
#
# Compressibility (1/GPa) = 0.01199463
#
# Stress axis : x y z
#
# Youngs Moduli (GPa) = 138.07385 120.39083 150.67115
#
# Poissons Ratio (x) = 0.33155 0.34314
# Poissons Ratio (y) = 0.38024 0.00968
# Poissons Ratio (z) = 0.31445 0.00773
#
# Static dielectric constant tensor:
#      x y z
#    x 3.074870 0.000000 -0.038760 
#    y 0.000000 2.219050 0.000000 
#    z -0.038760 0.000000 2.372100 
# 
# From -- ./inp_files/5594.got.cif
#   From: 2010.05.17/outbox.cif.g08.bks.cpg/sg14_3_cif.got.tgz:5594.got - 2010.06.03 17:49:19.
