data_PCOD9250371
_publ_section_title
;
Structure prediction by ZEFSAII (Michael W. Deem and Ramdas Pophale) SiO2 
 PCOD9250371
Probable space group: P 21/C
;
_chemical_formula_sum "Si O2"
_cell_formula_units_Z 28
_cell_length_a 17.576457
_cell_length_b 10.740283
_cell_length_c 18.953189
_cell_angle_alpha 90.000000
_cell_angle_beta 22.168381
_cell_angle_gamma 90.000000
_cell_volume 1350.051822
_symmetry_space_group_name_H-M "P 21/C"
_symmetry_group_IT_number 14
_symmetry_cell_setting 'monoclinic'
loop_
_space_group_symop_operation_xyz
x,y,z
-x,1/2+y,1/2-z
-x,-y,-z
x,1/2-y,1/2+z
loop_
_atom_site_type_symbol
_atom_site_label
_atom_site_fract_x
_atom_site_fract_y
_atom_site_fract_z
Si Si1 0.825447 0.921851 0.291722
Si Si2 0.591660 0.152388 0.563122
Si Si3 0.005248 0.199489 0.261657
Si Si4 0.857791 0.615068 0.510139
Si Si5 0.104246 0.696750 0.890481
Si Si6 0.469397 0.237474 0.025868
Si Si7 0.119004 0.059175 0.295490
O O1 0.894031 0.819842 0.289871
O O2 0.679832 0.851602 0.362626
O O3 0.698565 0.033473 0.435279
O O4 0.024700 0.984084 0.087706
O O5 0.381655 0.112039 0.777347
O O6 0.542214 0.250048 0.543465
O O7 0.763081 0.208046 0.466412
O O8 0.065390 0.084057 0.260602
O O9 0.083892 0.175142 0.115438
O O10 0.954153 0.701114 0.488044
O O11 0.332739 0.744697 0.692575
O O12 0.099914 0.579723 0.840127
O O13 0.029919 0.644372 0.028899
O O14 0.340304 0.114485 0.121168
#
# Coordination Sequence:
#
# PCOD9250371 Si02
#       7
#     4   4   4   4   4   4   4
#     4  10  24  42  63  95 130 164 209 267 320 380
#     4  11  23  40  65  95 125 172 207 258 327 376
#     4  10  24  44  62  92 133 165 214 270 318 380
#     4  11  24  40  66  94 129 168 209 267 317 381
#     4  11  22  41  67  93 128 169 216 264 313 381
#     4  11  21  41  66  94 126 166 215 259 319 384
#     4  10  24  42  65  95 128 167 219 268 313 380
#
# _framework density 20.739944000000001
#
# number of rings (size 3 to 8) (size 9 to 14) (size 15 to 20)
#    0.000    1.429    4.286    0.857    4.000    6.286 
#    0.000    0.000    0.000    0.000    0.000    0.000 
#    0.000    0.000    0.000    0.000    0.000    0.000 
#
# Total GULP energy -156552.622546 kJ/mol
# GULP energy per Si atom -5591.165091 kJ/mol
# Density = 2.069274 g / cm^3
# Si number density = 20.739944 Si / 1000 Ang^3
#
#
#
# Elastic Constant Matrix: (Units=GPa)
#
#
# Indices 1 2 3 4 5 6 
#
# 1 63.1203 12.5335 20.0525 0.0000 -13.7192 0.0000
# 2 12.5335 17.2273 0.4959 0.0000 -4.7554 0.0000
# 3 20.0525 0.4959 151.8978 0.0000 -7.4469 0.0000
# 4 0.0000 0.0000 0.0000 -23.1782 0.0000 -26.2450
# 5 -13.7192 -4.7554 -7.4469 0.0000 33.7702 0.0000
# 6 0.0000 0.0000 0.0000 -26.2450 0.0000 15.3854
#
#
#
# Elastic Compliance Matrix: (Units=1/GPa)
#
#
# Indices 1 2 3 4 5 6 
#
# 1 0.020514 -0.013214 -0.002373 0.000000 0.005950 0.000000
# 2 -0.013214 0.068914 0.001751 0.000000 0.004722 0.000000
# 3 -0.002373 0.001751 0.006931 0.000000 0.000811 0.000000
# 4 0.000000 0.000000 0.000000 -0.014717 0.000000 -0.025105
# 5 0.005950 0.004722 0.000811 0.000000 0.032873 0.000000
# 6 0.000000 0.000000 0.000000 -0.025105 0.000000 0.022171
#
#
# Mechanical properties :
#
#
# Convention : Reuss Voigt Hill
#
# Bulk Modulus (GPa) = 14.55894 33.15658 23.85776
# Shear Modulus (GPa) = 26.70178 18.47304 22.58741
#
# Velocity S-wave (km/s) = 3.59201 2.98770 3.30370
# Velocity P-wave (km/s) = 4.92325 5.28425 5.10694
#
# Compressibility (1/GPa) = 0.06868632
#
# Stress axis : x y z
#
# Youngs Moduli (GPa) = 48.74795 14.51079 144.28541
#
# Poissons Ratio (x) = 0.19174 0.34243
# Poissons Ratio (y) = 0.64415 -0.25264
# Poissons Ratio (z) = 0.11569 -0.02541
#
# Static dielectric constant tensor:
#      x y z
#    x 1.721580 0.000000 0.005400 
#    y 0.000000 1.752580 0.000000 
#    z 0.005400 0.000000 1.744640 
# 
# From -- ./inp_files/69274.got.cif
#   From: 2010.05.17/outbox.cif.g08.bks.cpg/sg14_35_cif.got.tgz:69274.got - 2010.06.03 17:49:19.
