data_PCOD9250171
_publ_section_title
;
Structure prediction by ZEFSAII (Michael W. Deem and Ramdas Pophale) SiO2 
 PCOD9250171
Probable space group: P 21/C
;
_chemical_formula_sum "Si O2"
_cell_formula_units_Z 20
_cell_length_a 5.012895
_cell_length_b 10.141011
_cell_length_c 14.429163
_cell_angle_alpha 90.000000
_cell_angle_beta 99.255673
_cell_angle_gamma 90.000000
_cell_volume 723.968299
_symmetry_space_group_name_H-M "P 21/C"
_symmetry_group_IT_number 14
_symmetry_cell_setting 'monoclinic'
loop_
_space_group_symop_operation_xyz
x,y,z
-x,1/2+y,1/2-z
-x,-y,-z
x,1/2-y,1/2+z
loop_
_atom_site_type_symbol
_atom_site_label
_atom_site_fract_x
_atom_site_fract_y
_atom_site_fract_z
Si Si1 0.481330 0.261583 0.229252
Si Si2 0.243198 0.936728 0.104714
Si Si3 0.470857 0.204375 0.026479
Si Si4 0.980867 0.084780 0.239608
Si Si5 0.222200 0.053413 0.443701
O O1 0.563896 0.375113 0.304843
O O2 0.523116 0.287014 0.122616
O O3 0.178592 0.207529 0.225407
O O4 0.695695 0.142259 0.256420
O O5 0.348210 0.069776 0.060986
O O6 0.988597 0.987658 0.151187
O O7 0.271638 0.831438 0.022870
O O8 0.267067 0.288462 0.952411
O O9 0.123638 0.020397 0.335707
O O10 0.500000 0.000000 0.500000
O O11 0.000000 0.000000 0.500000
#
# Coordination Sequence:
#
# PCOD9250171 Si02
#       5
#     4   4   4   4   4
#     4  11  24  46  71 106 155 191 255 319 387 457
#     4  10  23  47  76 109 153 197 260 325 378 473
#     4  10  24  47  78 114 149 208 262 316 398 467
#     4  11  25  45  69 108 149 201 249 321 389 457
#     4  12  26  47  77 110 157 203 259 322 397 481
#
# _framework density 27.625519000000001
#
# number of rings (size 3 to 8) (size 9 to 14) (size 15 to 20)
#    0.000    1.200    2.000    2.400    0.000   12.000 
#    0.000    0.000    0.000    0.000    0.000    0.000 
#    0.000    0.000    0.000    0.000    0.000    0.000 
#
# Total GULP energy -112032.838489 kJ/mol
# GULP energy per Si atom -5601.641924 kJ/mol
# Density = 2.756264 g / cm^3
# Si number density = 27.625519 Si / 1000 Ang^3
#
#
#
# Elastic Constant Matrix: (Units=GPa)
#
#
# Indices 1 2 3 4 5 6 
#
# 1 128.9730 40.5296 19.3205 0.0000 -8.5554 0.0000
# 2 40.5296 103.1606 24.7621 0.0000 -23.2648 0.0000
# 3 19.3205 24.7621 174.1607 0.0000 -23.1570 0.0000
# 4 0.0000 0.0000 0.0000 53.3104 0.0000 5.9939
# 5 -8.5554 -23.2648 -23.1570 0.0000 28.9802 0.0000
# 6 0.0000 0.0000 0.0000 5.9939 0.0000 44.0083
#
#
#
# Elastic Compliance Matrix: (Units=1/GPa)
#
#
# Indices 1 2 3 4 5 6 
#
# 1 0.008898 -0.003503 -0.000575 0.000000 -0.000645 0.000000
# 2 -0.003503 0.013250 -0.000244 0.000000 0.009408 0.000000
# 3 -0.000575 -0.000244 0.006480 0.000000 0.004812 0.000000
# 4 0.000000 0.000000 0.000000 0.019050 0.000000 -0.002595
# 5 -0.000645 0.009408 0.004812 0.000000 0.045713 0.000000
# 6 0.000000 0.000000 0.000000 -0.002595 0.000000 0.023076
#
#
# Mechanical properties :
#
#
# Convention : Reuss Voigt Hill
#
# Bulk Modulus (GPa) = 50.04138 63.94652 56.99395
# Shear Modulus (GPa) = 37.94387 46.70525 42.32456
#
# Velocity S-wave (km/s) = 3.71011 4.11622 3.91843
# Velocity P-wave (km/s) = 6.04208 6.76675 6.41466
#
# Compressibility (1/GPa) = 0.01998346
#
# Stress axis : x y z
#
# Youngs Moduli (GPa) = 112.38790 75.47049 154.31679
#
# Poissons Ratio (x) = 0.26439 0.08869
# Poissons Ratio (y) = 0.39372 0.03772
# Poissons Ratio (z) = 0.06459 0.01845
#
# Static dielectric constant tensor:
#      x y z
#    x 2.114800 0.000000 0.055190 
#    y 0.000000 2.268770 0.000000 
#    z 0.055190 0.000000 2.123060 
# 
# From -- ./inp_files/37060.got.cif
#   From: 2010.05.17/outbox.cif.g08.bks.cpg/sg14_19_cif.got.tgz:37060.got - 2010.06.03 17:49:19.
