data_PCOD9250942
_publ_section_title
;
Structure prediction by ZEFSAII (Michael W. Deem and Ramdas Pophale) SiO2 
 PCOD9250942
Probable space group: P 21/C
;
_chemical_formula_sum "Si O2"
_cell_formula_units_Z 16
_cell_length_a 8.029183
_cell_length_b 16.660916
_cell_length_c 9.350225
_cell_angle_alpha 90.000000
_cell_angle_beta 33.087823
_cell_angle_gamma 90.000000
_cell_volume 682.848576
_symmetry_space_group_name_H-M "P 21/C"
_symmetry_group_IT_number 14
_symmetry_cell_setting 'monoclinic'
loop_
_space_group_symop_operation_xyz
x,y,z
-x,1/2+y,1/2-z
-x,-y,-z
x,1/2-y,1/2+z
loop_
_atom_site_type_symbol
_atom_site_label
_atom_site_fract_x
_atom_site_fract_y
_atom_site_fract_z
Si Si1 0.287379 0.147688 0.990334
Si Si2 0.857489 0.489785 0.759425
Si Si3 0.342816 0.228286 0.227576
Si Si4 0.850196 0.374378 0.256978
O O1 0.279200 0.223297 0.104529
O O2 0.983315 0.096573 0.217747
O O3 0.342905 0.184464 0.795497
O O4 0.575302 0.098641 0.847043
O O5 0.000000 0.500000 0.500000
O O6 0.988984 0.554468 0.775741
O O7 0.500000 0.500000 0.000000
O O8 0.086538 0.175844 0.491678
O O9 0.666816 0.182295 0.001448
#
# Coordination Sequence:
#
# PCOD9250942 Si02
#       4
#     4   4   4   4
#     4  10  27  47  77 104 149 193 243 301 369 433
#     4  12  28  45  76 108 149 192 248 300 364 432
#     4  10  25  41  80 102 147 184 250 294 372 425
#     4  10  25  46  71 108 142 192 239 304 358 433
#
# _framework density 23.431258
#
# number of rings (size 3 to 8) (size 9 to 14) (size 15 to 20)
#    1.500    0.000    0.000    2.250   10.500    3.000 
#    0.000    0.000    0.000    0.000    0.000    0.000 
#    0.000    0.000    0.000    0.000    0.000    0.000 
#
# Total GULP energy -89446.930383 kJ/mol
# GULP energy per Si atom -5590.433149 kJ/mol
# Density = 2.337793 g / cm^3
# Si number density = 23.431258 Si / 1000 Ang^3
#
#
#
# Elastic Constant Matrix: (Units=GPa)
#
#
# Indices 1 2 3 4 5 6 
#
# 1 124.6432 36.9739 26.4452 0.0000 -25.3633 0.0000
# 2 36.9739 45.6925 3.1740 0.0000 -22.9895 0.0000
# 3 26.4452 3.1740 125.2156 0.0000 -32.7475 0.0000
# 4 0.0000 0.0000 0.0000 31.3820 0.0000 -0.1356
# 5 -25.3633 -22.9895 -32.7475 0.0000 37.2986 0.0000
# 6 0.0000 0.0000 0.0000 -0.1356 0.0000 44.3015
#
#
#
# Elastic Compliance Matrix: (Units=1/GPa)
#
#
# Indices 1 2 3 4 5 6 
#
# 1 0.011095 -0.008588 -0.001995 0.000000 0.000500 0.000000
# 2 -0.008588 0.041707 0.007726 0.000000 0.026650 0.000000
# 3 -0.001995 0.007726 0.011815 0.000000 0.013779 0.000000
# 4 0.000000 0.000000 0.000000 0.031866 0.000000 0.000098
# 5 0.000500 0.026650 0.013779 0.000000 0.055675 0.000000
# 6 0.000000 0.000000 0.000000 0.000098 0.000000 0.022573
#
#
# Mechanical properties :
#
#
# Convention : Reuss Voigt Hill
#
# Bulk Modulus (GPa) = 16.97663 47.63752 32.30707
# Shear Modulus (GPa) = 24.99006 37.86029 31.42518
#
# Velocity S-wave (km/s) = 3.26931 4.02407 3.66616
# Velocity P-wave (km/s) = 4.63813 6.47809 5.63374
#
# Compressibility (1/GPa) = 0.05890450
#
# Stress axis : x y z
#
# Youngs Moduli (GPa) = 90.12672 23.97692 84.63529
#
# Poissons Ratio (x) = 0.20592 0.16883
# Poissons Ratio (y) = 0.77402 -0.65392
# Poissons Ratio (z) = 0.17979 -0.18525
#
# Static dielectric constant tensor:
#      x y z
#    x 1.888360 0.000000 -0.008470 
#    y 0.000000 1.890600 0.000000 
#    z -0.008470 0.000000 1.847510 
# 
# From -- ./inp_files/9308.got.cif
#   From: 2010.05.17/outbox.cif.g08.bks.cpg/sg14_5_cif.got.tgz:9308.got - 2010.06.03 17:49:19.
