data_PCOD9250934
_publ_section_title
;
Structure prediction by ZEFSAII (Michael W. Deem and Ramdas Pophale) SiO2 
 PCOD9250934
Probable space group: P 21/C
;
_chemical_formula_sum "Si O2"
_cell_formula_units_Z 20
_cell_length_a 7.178343
_cell_length_b 7.625092
_cell_length_c 14.554229
_cell_angle_alpha 90.000000
_cell_angle_beta 81.512491
_cell_angle_gamma 90.000000
_cell_volume 787.908699
_symmetry_space_group_name_H-M "P 21/C"
_symmetry_group_IT_number 14
_symmetry_cell_setting 'monoclinic'
loop_
_space_group_symop_operation_xyz
x,y,z
-x,1/2+y,1/2-z
-x,-y,-z
x,1/2-y,1/2+z
loop_
_atom_site_type_symbol
_atom_site_label
_atom_site_fract_x
_atom_site_fract_y
_atom_site_fract_z
Si Si1 0.171725 0.305630 0.821890
Si Si2 0.450414 0.387911 0.644767
Si Si3 0.815568 0.850696 0.988052
Si Si4 0.200442 0.672712 0.921578
Si Si5 0.775207 0.293690 0.390220
O O1 0.311184 0.295114 0.726925
O O2 0.208095 0.493967 0.865308
O O3 0.949287 0.274899 0.816284
O O4 0.212160 0.175858 0.902835
O O5 0.380415 0.321043 0.550132
O O6 0.660635 0.314968 0.635347
O O7 0.386965 0.595140 0.649724
O O8 0.981830 0.728310 0.939620
O O9 0.854371 0.046906 0.949101
O O10 0.259169 0.653615 0.025908
#
# Coordination Sequence:
#
# PCOD9250934 Si02
#       5
#     4   4   4   4   4
#     4  11  22  40  68 101 128 176 233 277 327 410
#     4  10  25  39  66  98 132 179 223 271 348 401
#     4   9  22  41  67  86 140 177 213 275 351 395
#     4  11  21  41  65  96 128 171 231 283 324 403
#     4   9  21  43  65  86 136 180 209 270 351 394
#
# _framework density 25.383649999999999
#
# number of rings (size 3 to 8) (size 9 to 14) (size 15 to 20)
#    1.200    0.800    0.000    5.400    2.800    4.000 
#    0.000    0.000    0.000    0.000    0.000    0.000 
#    0.000    0.000    0.000    0.000    0.000    0.000 
#
# Total GULP energy -111560.210412 kJ/mol
# GULP energy per Si atom -5578.010521 kJ/mol
# Density = 2.532588 g / cm^3
# Si number density = 25.383650 Si / 1000 Ang^3
#
#
#
# Elastic Constant Matrix: (Units=GPa)
#
#
# Indices 1 2 3 4 5 6 
#
# 1 105.4860 38.1565 25.0202 0.0000 -29.0682 0.0000
# 2 38.1565 90.8355 9.8505 0.0000 -11.2647 0.0000
# 3 25.0202 9.8505 99.9709 0.0000 -32.7551 0.0000
# 4 0.0000 0.0000 0.0000 39.3219 0.0000 -3.7866
# 5 -29.0682 -11.2647 -32.7551 0.0000 45.0283 0.0000
# 6 0.0000 0.0000 0.0000 -3.7866 0.0000 33.2652
#
#
#
# Elastic Compliance Matrix: (Units=1/GPa)
#
#
# Indices 1 2 3 4 5 6 
#
# 1 0.013203 -0.004622 -0.000571 0.000000 0.006951 0.000000
# 2 -0.004622 0.012984 -0.000047 0.000000 0.000230 0.000000
# 3 -0.000571 -0.000047 0.013163 0.000000 0.009195 0.000000
# 4 0.000000 0.000000 0.000000 0.025713 0.000000 0.002927
# 5 0.006951 0.000230 0.009195 0.000000 0.033442 0.000000
# 6 0.000000 0.000000 0.000000 0.002927 0.000000 0.030395
#
#
# Mechanical properties :
#
#
# Convention : Reuss Voigt Hill
#
# Bulk Modulus (GPa) = 34.63933 49.14964 41.89449
# Shear Modulus (GPa) = 33.55623 38.40741 35.98182
#
# Velocity S-wave (km/s) = 3.63982 3.89405 3.76908
# Velocity P-wave (km/s) = 5.59825 6.29467 5.95665
#
# Compressibility (1/GPa) = 0.02886892
#
# Stress axis : x y z
#
# Youngs Moduli (GPa) = 75.74123 77.01728 75.96962
#
# Poissons Ratio (x) = 0.35597 0.04341
# Poissons Ratio (y) = 0.35008 0.00359
# Poissons Ratio (z) = 0.04328 0.00364
#
# Static dielectric constant tensor:
#      x y z
#    x 2.082390 0.000000 0.041660 
#    y 0.000000 2.092760 0.000000 
#    z 0.041660 0.000000 2.008810 
# 
# From -- ./inp_files/54440.got.cif
#   From: 2010.05.17/outbox.cif.g08.bks.cpg/sg14_28_cif.got.tgz:54440.got - 2010.06.03 17:49:19.
