data_PCOD9250089
_publ_section_title
;
Structure prediction by ZEFSAII (Michael W. Deem and Ramdas Pophale) SiO2 
 PCOD9250089
Probable space group: P 21/C
;
_chemical_formula_sum "Si O2"
_cell_formula_units_Z 20
_cell_length_a 11.921610
_cell_length_b 8.372074
_cell_length_c 10.315358
_cell_angle_alpha 90.000000
_cell_angle_beta 131.413775
_cell_angle_gamma 90.000000
_cell_volume 772.121728
_symmetry_space_group_name_H-M "P 21/C"
_symmetry_group_IT_number 14
_symmetry_cell_setting 'monoclinic'
loop_
_space_group_symop_operation_xyz
x,y,z
-x,1/2+y,1/2-z
-x,-y,-z
x,1/2-y,1/2+z
loop_
_atom_site_type_symbol
_atom_site_label
_atom_site_fract_x
_atom_site_fract_y
_atom_site_fract_z
Si Si1 0.572320 0.326432 0.219700
Si Si2 0.021998 0.173356 0.336231
Si Si3 0.190950 0.550593 0.107489
Si Si4 0.419960 0.342994 0.380638
Si Si5 0.865726 0.496668 0.500385
O O1 0.477358 0.328840 0.277891
O O2 0.699528 0.465206 0.318716
O O3 0.672535 0.167599 0.307378
O O4 0.470696 0.299491 0.014496
O O5 0.131984 0.021289 0.428426
O O6 0.115630 0.334487 0.412598
O O7 0.927370 0.146279 0.395905
O O8 0.907394 0.144161 0.132830
O O9 0.247885 0.396392 0.234215
O O10 0.500000 0.500000 0.500000
O O11 0.000000 0.500000 0.500000
#
# Coordination Sequence:
#
# PCOD9250089 Si02
#       5
#     4   4   4   4   4
#     4  11  23  46  74 103 146 193 248 306 372 444
#     4  11  25  43  71 106 145 189 246 306 361 446
#     4  10  23  46  71 102 146 193 239 306 372 429
#     4  10  24  45  72 102 148 189 239 309 363 447
#     4  12  25  43  73 107 142 194 245 306 372 439
#
# _framework density 25.902653999999998
#
# number of rings (size 3 to 8) (size 9 to 14) (size 15 to 20)
#    0.000    1.200    2.000    3.600    5.600    4.800 
#    0.000    5.000    0.000    0.000    0.000    0.000 
#    0.000    0.000    0.000    0.000    0.000    0.000 
#
# Total GULP energy -111940.581367 kJ/mol
# GULP energy per Si atom -5597.029068 kJ/mol
# Density = 2.584370 g / cm^3
# Si number density = 25.902654 Si / 1000 Ang^3
#
#
#
# Elastic Constant Matrix: (Units=GPa)
#
#
# Indices 1 2 3 4 5 6 
#
# 1 115.4829 28.7100 30.4204 0.0000 -5.3890 0.0000
# 2 28.7100 119.4684 50.3134 0.0000 7.2427 0.0000
# 3 30.4204 50.3134 156.8650 0.0000 7.7820 0.0000
# 4 0.0000 0.0000 0.0000 60.1372 0.0000 12.9257
# 5 -5.3890 7.2427 7.7820 0.0000 29.0073 0.0000
# 6 0.0000 0.0000 0.0000 12.9257 0.0000 32.3376
#
#
#
# Elastic Compliance Matrix: (Units=1/GPa)
#
#
# Indices 1 2 3 4 5 6 
#
# 1 0.009617 -0.001885 -0.001391 0.000000 0.002630 0.000000
# 2 -0.001885 0.010121 -0.002775 0.000000 -0.002133 0.000000
# 3 -0.001391 -0.002775 0.007615 0.000000 -0.001608 0.000000
# 4 0.000000 0.000000 0.000000 0.018192 0.000000 -0.007271
# 5 0.002630 -0.002133 -0.001608 0.000000 0.035927 0.000000
# 6 0.000000 0.000000 0.000000 -0.007271 0.000000 0.033830
#
#
# Mechanical properties :
#
#
# Convention : Reuss Voigt Hill
#
# Bulk Modulus (GPa) = 65.56808 67.85597 66.71202
# Shear Modulus (GPa) = 37.73962 43.12124 40.43043
#
# Velocity S-wave (km/s) = 3.82118 4.08455 3.95506
# Velocity P-wave (km/s) = 6.69603 6.96406 6.83136
#
# Compressibility (1/GPa) = 0.01525132
#
# Stress axis : x y z
#
# Youngs Moduli (GPa) = 103.98234 98.80103 131.32805
#
# Poissons Ratio (x) = 0.18622 0.18267
# Poissons Ratio (y) = 0.19598 0.36444
# Poissons Ratio (z) = 0.14464 0.27418
#
# Static dielectric constant tensor:
#      x y z
#    x 1.835730 0.000000 0.130150 
#    y 0.000000 2.134850 0.000000 
#    z 0.130150 0.000000 2.089580 
# 
# From -- ./inp_files/28238.got.cif
#   From: 2010.05.17/outbox.cif.g08.bks.cpg/sg14_15_cif.got.tgz:28238.got - 2010.06.03 17:49:19.
