data_PCOD9250206
_publ_section_title
;
Structure prediction by ZEFSAII (Michael W. Deem and Ramdas Pophale) SiO2 
 PCOD9250206
Probable space group: P 21/C
;
_chemical_formula_sum "Si O2"
_cell_formula_units_Z 20
_cell_length_a 11.192758
_cell_length_b 10.074269
_cell_length_c 10.655535
_cell_angle_alpha 90.000000
_cell_angle_beta 133.151103
_cell_angle_gamma 90.000000
_cell_volume 876.561728
_symmetry_space_group_name_H-M "P 21/C"
_symmetry_group_IT_number 14
_symmetry_cell_setting 'monoclinic'
loop_
_space_group_symop_operation_xyz
x,y,z
-x,1/2+y,1/2-z
-x,-y,-z
x,1/2-y,1/2+z
loop_
_atom_site_type_symbol
_atom_site_label
_atom_site_fract_x
_atom_site_fract_y
_atom_site_fract_z
Si Si1 0.854743 0.396119 0.865490
Si Si2 0.376352 0.303132 0.905047
Si Si3 0.930119 0.858962 0.991767
Si Si4 0.305354 0.040531 0.974244
Si Si5 0.417118 0.973317 0.632270
O O1 0.771716 0.436128 0.674920
O O2 0.723141 0.414147 0.881265
O O3 0.929935 0.250635 0.908767
O O4 0.000000 0.500000 0.000000
O O5 0.211378 0.312644 0.705407
O O6 0.400863 0.152406 0.963426
O O7 0.518906 0.365690 0.922220
O O8 0.361635 0.397242 0.016083
O O9 0.841831 0.881756 0.061375
O O10 0.000000 0.000000 0.000000
O O11 0.427477 0.989386 0.169005
#
# Coordination Sequence:
#
# PCOD9250206 Si02
#       5
#     4   4   4   4   4
#     4  12  25  47  78 109 145 192 246 305 367 437
#     4  10  23  49  71 102 151 189 240 309 359 441
#     4  11  27  46  72 110 146 191 239 309 374 430
#     4  11  25  48  75 105 149 192 254 300 364 443
#     4  10  25  45  73 108 145 199 243 298 375 438
#
# _framework density 22.816420000000001
#
# number of rings (size 3 to 8) (size 9 to 14) (size 15 to 20)
#    0.000    1.200    2.000    1.800    8.400    4.800 
#    7.200    0.000    0.000    0.000    0.000    0.000 
#    0.000    0.000    0.000    0.000    0.000    0.000 
#
# Total GULP energy -112167.263198 kJ/mol
# GULP energy per Si atom -5608.363160 kJ/mol
# Density = 2.276449 g / cm^3
# Si number density = 22.816420 Si / 1000 Ang^3
#
#
#
# Elastic Constant Matrix: (Units=GPa)
#
#
# Indices 1 2 3 4 5 6 
#
# 1 132.5060 45.2919 47.3525 0.0000 -2.1422 0.0000
# 2 45.2919 138.5049 63.3947 0.0000 0.2366 0.0000
# 3 47.3525 63.3947 101.8599 0.0000 -13.9778 0.0000
# 4 0.0000 0.0000 0.0000 39.5077 0.0000 10.8029
# 5 -2.1422 0.2366 -13.9778 0.0000 25.0258 0.0000
# 6 0.0000 0.0000 0.0000 10.8029 0.0000 26.8102
#
#
#
# Elastic Compliance Matrix: (Units=1/GPa)
#
#
# Indices 1 2 3 4 5 6 
#
# 1 0.009295 -0.001375 -0.003633 0.000000 -0.001221 0.000000
# 2 -0.001375 0.010664 -0.006528 0.000000 -0.003865 0.000000
# 3 -0.003633 -0.006528 0.016825 0.000000 0.009148 0.000000
# 4 0.000000 0.000000 0.000000 0.028446 0.000000 -0.011462
# 5 -0.001221 -0.003865 0.009148 0.000000 0.045000 0.000000
# 6 0.000000 0.000000 0.000000 -0.011462 0.000000 0.041918
#
#
# Mechanical properties :
#
#
# Convention : Reuss Voigt Hill
#
# Bulk Modulus (GPa) = 72.92916 76.10545 74.51731
# Shear Modulus (GPa) = 27.81010 32.72420 30.26715
#
# Velocity S-wave (km/s) = 3.49501 3.79124 3.64614
# Velocity P-wave (km/s) = 6.95123 7.25208 7.10325
#
# Compressibility (1/GPa) = 0.01371194
#
# Stress axis : x y z
#
# Youngs Moduli (GPa) = 107.58125 93.77200 59.43600
#
# Poissons Ratio (x) = 0.12890 0.21594
# Poissons Ratio (y) = 0.14788 0.38802
# Poissons Ratio (z) = 0.39086 0.61218
#
# Static dielectric constant tensor:
#      x y z
#    x 1.881530 0.000000 0.009560 
#    y 0.000000 1.820710 0.000000 
#    z 0.009560 0.000000 1.855240 
# 
# From -- ./inp_files/12534.got.cif
#   From: 2010.05.17/outbox.cif.g08.bks.cpg/sg14_7_cif.got.tgz:12534.got - 2010.06.03 17:49:19.
