data_PCOD9250563
_publ_section_title
;
Structure prediction by ZEFSAII (Michael W. Deem and Ramdas Pophale) SiO2 
 PCOD9250563
Probable space group: P 21/C
;
_chemical_formula_sum "Si O2"
_cell_formula_units_Z 22
_cell_length_a 13.114741
_cell_length_b 8.540187
_cell_length_c 21.655423
_cell_angle_alpha 90.000000
_cell_angle_beta 159.594257
_cell_angle_gamma 90.000000
_cell_volume 845.674745
_symmetry_space_group_name_H-M "P 21/C"
_symmetry_group_IT_number 14
_symmetry_cell_setting 'monoclinic'
loop_
_space_group_symop_operation_xyz
x,y,z
-x,1/2+y,1/2-z
-x,-y,-z
x,1/2-y,1/2+z
loop_
_atom_site_type_symbol
_atom_site_label
_atom_site_fract_x
_atom_site_fract_y
_atom_site_fract_z
Si Si1 0.759118 0.207714 0.132175
Si Si2 0.334154 0.392091 0.492572
Si Si3 0.628443 0.826149 0.383799
Si Si4 0.436622 0.393648 0.853682
Si Si5 0.000000 0.000000 0.500000
Si Si6 0.186955 0.792996 0.029083
O O1 0.071021 0.283284 0.319822
O O2 0.753587 0.062893 0.081663
O O3 0.627574 0.147180 0.121628
O O4 0.546727 0.338307 0.982464
O O5 0.381087 0.347877 0.591413
O O6 0.365352 0.864622 0.187104
O O7 0.575391 0.943796 0.410476
O O8 0.905230 0.860978 0.498188
O O9 0.573039 0.264500 0.884086
O O10 0.087474 0.391535 0.650352
O O11 0.945073 0.131037 0.521016
#
# Coordination Sequence:
#
# PCOD9250563 Si02
#       6
#     4   4   4   4   2   4
#     4  11  26  49  69 109 142 195 246 309 370 440
#     4  11  27  46  76 102 147 191 249 306 373 442
#     4  11  25  44  73 106 143 196 241 305 372 439
#     4  11  24  42  70  99 147 185 244 301 361 445
#     4  10  24  44  66 104 152 176 240 294 360 430
#     4  11  23  42  67 104 140 193 234 300 368 437
#
# _framework density 26.01473
#
# number of rings (size 3 to 8) (size 9 to 14) (size 15 to 20)
#    0.000    1.091    1.818    2.727    5.091    7.273 
#    0.000    0.000    0.000    0.000    0.000    0.000 
#    0.000    0.000    0.000    0.000    0.000    0.000 
#
# Total GULP energy -122766.079738 kJ/mol
# GULP energy per Si atom -5580.276352 kJ/mol
# Density = 2.595552 g / cm^3
# Si number density = 26.014730 Si / 1000 Ang^3
#
#
#
# Elastic Constant Matrix: (Units=GPa)
#
#
# Indices 1 2 3 4 5 6 
#
# 1 104.2727 32.3234 38.1865 0.0000 11.5785 0.0000
# 2 32.3234 71.9987 32.6596 0.0000 1.3815 0.0000
# 3 38.1865 32.6596 119.3333 0.0000 2.9025 0.0000
# 4 0.0000 0.0000 0.0000 24.1205 0.0000 -11.0454
# 5 11.5785 1.3815 2.9025 0.0000 28.7076 0.0000
# 6 0.0000 0.0000 0.0000 -11.0454 0.0000 45.3446
#
#
#
# Elastic Compliance Matrix: (Units=1/GPa)
#
#
# Indices 1 2 3 4 5 6 
#
# 1 0.012398 -0.004258 -0.002692 0.000000 -0.004523 0.000000
# 2 -0.004258 0.017323 -0.003408 0.000000 0.001228 0.000000
# 3 -0.002692 -0.003408 0.010169 0.000000 0.000222 0.000000
# 4 0.000000 0.000000 0.000000 0.046664 0.000000 0.011367
# 5 -0.004523 0.001228 0.000222 0.000000 0.036577 0.000000
# 6 0.000000 0.000000 0.000000 0.011367 0.000000 0.024822
#
#
# Mechanical properties :
#
#
# Convention : Reuss Voigt Hill
#
# Bulk Modulus (GPa) = 52.15607 55.77152 53.96380
# Shear Modulus (GPa) = 28.56140 32.46356 30.51248
#
# Velocity S-wave (km/s) = 3.31704 3.53638 3.42847
# Velocity P-wave (km/s) = 5.89598 6.17735 6.03830
#
# Compressibility (1/GPa) = 0.01917323
#
# Stress axis : x y z
#
# Youngs Moduli (GPa) = 80.65549 57.72546 98.34035
#
# Poissons Ratio (x) = 0.24581 0.26474
# Poissons Ratio (y) = 0.34345 0.33518
# Poissons Ratio (z) = 0.21713 0.19675
#
# Static dielectric constant tensor:
#      x y z
#    x 1.981680 0.000000 -0.007700 
#    y 0.000000 2.052380 0.000000 
#    z -0.007700 0.000000 2.041460 
# 
# From -- ./inp_files/73796.got.cif
#   From: 2010.05.17/outbox.cif.g08.bks.cpg/sg14_37_cif.got.tgz:73796.got - 2010.06.03 17:49:19.
