data_PCOD9250948
_publ_section_title
;
Structure prediction by ZEFSAII (Michael W. Deem and Ramdas Pophale) SiO2 
 PCOD9250948
Probable space group: P 21/C
;
_chemical_formula_sum "Si O2"
_cell_formula_units_Z 24
_cell_length_a 29.280636
_cell_length_b 5.183444
_cell_length_c 23.771319
_cell_angle_alpha 90.000000
_cell_angle_beta 160.898097
_cell_angle_gamma 90.000000
_cell_volume 1180.676453
_symmetry_space_group_name_H-M "P 21/C"
_symmetry_group_IT_number 14
_symmetry_cell_setting 'monoclinic'
loop_
_space_group_symop_operation_xyz
x,y,z
-x,1/2+y,1/2-z
-x,-y,-z
x,1/2-y,1/2+z
loop_
_atom_site_type_symbol
_atom_site_label
_atom_site_fract_x
_atom_site_fract_y
_atom_site_fract_z
Si Si1 0.914178 0.363540 0.950213
Si Si2 0.583450 0.007058 0.827223
Si Si3 0.352966 0.977115 0.797414
Si Si4 0.740586 0.044806 0.674876
Si Si5 0.583498 0.533486 0.193796
Si Si6 0.191476 0.448102 0.319982
O O1 0.773235 0.501079 0.805720
O O2 0.854977 0.092811 0.857037
O O3 0.000000 0.500000 0.000000
O O4 0.027292 0.380322 0.131469
O O5 0.479777 0.776629 0.724771
O O6 0.595519 0.009896 0.774268
O O7 0.727761 0.953192 0.027467
O O8 0.352119 0.702328 0.765714
O O9 0.346994 0.202376 0.744801
O O10 0.500000 0.000000 0.000000
O O11 0.582479 0.057730 0.512696
O O12 0.772380 0.282355 0.669228
O O13 0.751791 0.780841 0.653814
#
# Coordination Sequence:
#
# PCOD9250948 Si02
#       6
#     4   4   4   4   4   4
#     4  10  25  42  67  95 132 173 218 267 331 394
#     4  12  22  40  67  96 131 171 223 271 319 391
#     4  12  26  43  65  96 135 172 212 271 333 390
#     4  11  21  38  66  97 129 163 214 273 319 385
#     4  12  24  40  66  98 131 168 222 268 327 385
#     4  11  22  40  62  98 128 167 219 270 321 377
#
# _framework density 20.327331999999998
#
# number of rings (size 3 to 8) (size 9 to 14) (size 15 to 20)
#    0.000    0.667    5.000    3.000    2.333    2.667 
#    0.000    1.667    0.000    0.000    0.000    0.000 
#    0.000    0.000    0.000    0.000    0.000    0.000 
#
# Total GULP energy -134190.850624 kJ/mol
# GULP energy per Si atom -5591.285443 kJ/mol
# Density = 2.028107 g / cm^3
# Si number density = 20.327332 Si / 1000 Ang^3
#
#
#
# Elastic Constant Matrix: (Units=GPa)
#
#
# Indices 1 2 3 4 5 6 
#
# 1 91.8319 12.2201 32.5157 0.0000 5.9384 0.0000
# 2 12.2201 67.1065 3.9141 0.0000 -0.2699 0.0000
# 3 32.5157 3.9141 121.5303 0.0000 5.6207 0.0000
# 4 0.0000 0.0000 0.0000 21.8321 0.0000 3.8506
# 5 5.9384 -0.2699 5.6207 0.0000 39.0791 0.0000
# 6 0.0000 0.0000 0.0000 3.8506 0.0000 34.7684
#
#
#
# Elastic Compliance Matrix: (Units=1/GPa)
#
#
# Indices 1 2 3 4 5 6 
#
# 1 0.012385 -0.002076 -0.003180 0.000000 -0.001439 0.000000
# 2 -0.002076 0.015279 0.000044 0.000000 0.000415 0.000000
# 3 -0.003180 0.000044 0.009116 0.000000 -0.000828 0.000000
# 4 0.000000 0.000000 0.000000 0.046717 0.000000 -0.005174
# 5 -0.001439 0.000415 -0.000828 0.000000 0.025930 0.000000
# 6 0.000000 0.000000 0.000000 -0.005174 0.000000 0.029335
#
#
# Mechanical properties :
#
#
# Convention : Reuss Voigt Hill
#
# Bulk Modulus (GPa) = 37.94163 41.97428 39.95796
# Shear Modulus (GPa) = 31.65168 34.59050 33.12109
#
# Velocity S-wave (km/s) = 3.95029 4.12961 4.04095
# Velocity P-wave (km/s) = 6.28588 6.59032 6.43990
#
# Compressibility (1/GPa) = 0.02635627
#
# Stress axis : x y z
#
# Youngs Moduli (GPa) = 80.74461 65.45043 109.69581
#
# Poissons Ratio (x) = 0.13585 0.34885
# Poissons Ratio (y) = 0.16759 -0.00483
# Poissons Ratio (z) = 0.25678 -0.00288
#
# Static dielectric constant tensor:
#      x y z
#    x 1.705370 0.000000 -0.026940 
#    y 0.000000 1.746940 0.000000 
#    z -0.026940 0.000000 1.771400 
# 
# From -- ./inp_files/75110.got.cif
#   From: 2010.05.17/outbox.cif.g08.bks.cpg/sg14_38_cif.got.tgz:75110.got - 2010.06.03 17:49:19.
