data_PCOD9250910
_publ_section_title
;
Structure prediction by ZEFSAII (Michael W. Deem and Ramdas Pophale) SiO2 
 PCOD9250910
Probable space group: P 21/C
;
_chemical_formula_sum "Si O2"
_cell_formula_units_Z 30
_cell_length_a 11.111416
_cell_length_b 5.283447
_cell_length_c 18.948478
_cell_angle_alpha 90.000000
_cell_angle_beta 84.279249
_cell_angle_gamma 90.000000
_cell_volume 1106.860021
_symmetry_space_group_name_H-M "P 21/C"
_symmetry_group_IT_number 14
_symmetry_cell_setting 'monoclinic'
loop_
_space_group_symop_operation_xyz
x,y,z
-x,1/2+y,1/2-z
-x,-y,-z
x,1/2-y,1/2+z
loop_
_atom_site_type_symbol
_atom_site_label
_atom_site_fract_x
_atom_site_fract_y
_atom_site_fract_z
Si Si1 0.782175 0.721489 0.394268
Si Si2 0.002973 0.924624 0.150276
Si Si3 0.415003 0.338414 0.867973
Si Si4 0.389355 0.111951 0.716235
Si Si5 0.180904 0.723747 0.256526
Si Si6 0.151321 0.039384 0.398185
Si Si7 0.500000 0.000000 0.500000
Si Si8 0.259922 0.725827 0.011410
O O1 0.702117 0.720981 0.327336
O O2 0.752576 0.983576 0.434986
O O3 0.925541 0.680632 0.373561
O O4 0.750566 0.486438 0.446687
O O5 0.959646 0.732284 0.092962
O O6 0.100132 0.791218 0.194540
O O7 0.885277 0.985038 0.203166
O O8 0.413856 0.180858 0.795305
O O9 0.485234 0.584197 0.831803
O O10 0.276621 0.311754 0.901289
O O11 0.492489 0.296882 0.933768
O O12 0.313650 0.850391 0.724866
O O13 0.168819 0.928531 0.318667
O O14 0.161389 0.817713 0.455349
O O15 0.608694 0.169545 0.529032
#
# Coordination Sequence:
#
# PCOD9250910 Si02
#       8
#     4   4   4   4   4   4   2   4
#     4  12  28  49  76 116 156 213 265 334 397 486
#     4  12  25  44  78 106 161 200 272 333 407 470
#     4  11  24  45  72 115 150 200 262 330 397 483
#     4  12  25  45  81 117 157 207 275 336 407 480
#     4  12  24  47  74 114 150 208 265 337 401 479
#     4  11  26  47  73 114 152 212 260 331 405 482
#     4  10  24  50  74 108 162 206 250 330 406 484
#     4  11  28  51  76 113 160 211 268 322 413 486
#
# _framework density 27.103698000000001
#
# number of rings (size 3 to 8) (size 9 to 14) (size 15 to 20)
#    0.000    0.533    4.000    3.200    5.600    1.600 
#    0.000    0.000    0.000    0.000    0.000    0.000 
#    0.000    0.000    0.000    0.000    0.000    0.000 
#
# Total GULP energy -167405.255566 kJ/mol
# GULP energy per Si atom -5580.175186 kJ/mol
# Density = 2.704201 g / cm^3
# Si number density = 27.103698 Si / 1000 Ang^3
#
#
#
# Elastic Constant Matrix: (Units=GPa)
#
#
# Indices 1 2 3 4 5 6 
#
# 1 74.4550 29.3163 35.6467 0.0000 19.9021 0.0000
# 2 29.3163 106.2105 33.4784 0.0000 2.5805 0.0000
# 3 35.6467 33.4784 114.0086 0.0000 11.0989 0.0000
# 4 0.0000 0.0000 0.0000 49.3193 0.0000 -2.7606
# 5 19.9021 2.5805 11.0989 0.0000 53.7739 0.0000
# 6 0.0000 0.0000 0.0000 -2.7606 0.0000 31.3526
#
#
#
# Elastic Compliance Matrix: (Units=1/GPa)
#
#
# Indices 1 2 3 4 5 6 
#
# 1 0.018377 -0.003635 -0.004116 0.000000 -0.005777 0.000000
# 2 -0.003635 0.011095 -0.002246 0.000000 0.001276 0.000000
# 3 -0.004116 -0.002246 0.010775 0.000000 -0.000593 0.000000
# 4 0.000000 0.000000 0.000000 0.020376 0.000000 0.001794
# 5 -0.005777 0.001276 -0.000593 0.000000 0.020796 0.000000
# 6 0.000000 0.000000 0.000000 0.001794 0.000000 0.032053
#
#
# Mechanical properties :
#
#
# Convention : Reuss Voigt Hill
#
# Bulk Modulus (GPa) = 49.37181 54.61745 51.99463
# Shear Modulus (GPa) = 35.65862 39.97134 37.81498
#
# Velocity S-wave (km/s) = 3.63111 3.84442 3.73928
# Velocity P-wave (km/s) = 5.98626 6.31673 6.15372
#
# Compressibility (1/GPa) = 0.02025448
#
# Stress axis : x y z
#
# Youngs Moduli (GPa) = 54.41564 90.12711 92.80318
#
# Poissons Ratio (x) = 0.32758 0.38199
# Poissons Ratio (y) = 0.19778 0.20843
# Poissons Ratio (z) = 0.22398 0.20242
#
# Static dielectric constant tensor:
#      x y z
#    x 2.186960 0.000000 -0.076500 
#    y 0.000000 2.263860 0.000000 
#    z -0.076500 0.000000 2.132040 
# 
# From -- ./inp_files/66306.got.cif
#   From: 2010.05.17/outbox.cif.g08.bks.cpg/sg14_34_cif.got.tgz:66306.got - 2010.06.03 17:49:19.
