data_PCOD9250852
_publ_section_title
;
Structure prediction by ZEFSAII (Michael W. Deem and Ramdas Pophale) SiO2 
 PCOD9250852
Probable space group: P 21/C
;
_chemical_formula_sum "Si O2"
_cell_formula_units_Z 20
_cell_length_a 9.743487
_cell_length_b 9.370909
_cell_length_c 9.987168
_cell_angle_alpha 90.000000
_cell_angle_beta 59.850574
_cell_angle_gamma 90.000000
_cell_volume 788.520925
_symmetry_space_group_name_H-M "P 21/C"
_symmetry_group_IT_number 14
_symmetry_cell_setting 'monoclinic'
loop_
_space_group_symop_operation_xyz
x,y,z
-x,1/2+y,1/2-z
-x,-y,-z
x,1/2-y,1/2+z
loop_
_atom_site_type_symbol
_atom_site_label
_atom_site_fract_x
_atom_site_fract_y
_atom_site_fract_z
Si Si1 0.974544 0.594940 0.695732
Si Si2 0.482334 0.676838 0.649781
Si Si3 0.379826 0.512183 0.183310
Si Si4 0.940063 0.836441 0.511027
Si Si5 0.263654 0.076910 0.163023
O O1 0.804210 0.521784 0.754296
O O2 0.018288 0.707536 0.557095
O O3 0.111184 0.478850 0.654877
O O4 0.952607 0.679933 0.846672
O O5 0.553275 0.595080 0.740320
O O6 0.355869 0.569549 0.646298
O O7 0.401557 0.825584 0.721781
O O8 0.373650 0.183405 0.026322
O O9 0.500000 0.500000 0.000000
O O10 0.776646 0.852053 0.674218
O O11 0.000000 0.000000 0.500000
#
# Coordination Sequence:
#
# PCOD9250852 Si02
#       5
#     4   4   4   4   4
#     4  11  26  47  85 112 160 208 267 328 399 476
#     4  11  28  49  77 114 162 208 266 330 403 476
#     4  12  29  49  79 115 162 212 268 331 406 477
#     4  10  24  47  76 119 157 197 261 330 392 475
#     4  10  25  48  78 114 158 207 258 329 398 478
#
# _framework density 25.363942000000002
#
# number of rings (size 3 to 8) (size 9 to 14) (size 15 to 20)
#    0.000    1.200    0.000    2.400   19.600    4.000 
#    0.000    0.000    0.000    0.000    0.000    0.000 
#    0.000    0.000    0.000    0.000    0.000    0.000 
#
# Total GULP energy -112097.918044 kJ/mol
# GULP energy per Si atom -5604.895902 kJ/mol
# Density = 2.530621 g / cm^3
# Si number density = 25.363942 Si / 1000 Ang^3
#
#
#
# Elastic Constant Matrix: (Units=GPa)
#
#
# Indices 1 2 3 4 5 6 
#
# 1 176.3285 78.0080 33.2085 0.0000 -2.3195 0.0000
# 2 78.0080 170.7007 31.2777 0.0000 6.8333 0.0000
# 3 33.2085 31.2777 132.9647 0.0000 20.6069 0.0000
# 4 0.0000 0.0000 0.0000 39.1941 0.0000 -7.7898
# 5 -2.3195 6.8333 20.6069 0.0000 38.5910 0.0000
# 6 0.0000 0.0000 0.0000 -7.7898 0.0000 24.5252
#
#
#
# Elastic Compliance Matrix: (Units=1/GPa)
#
#
# Indices 1 2 3 4 5 6 
#
# 1 0.007358 -0.003183 -0.001357 0.000000 0.001731 0.000000
# 2 -0.003183 0.007503 -0.000801 0.000000 -0.001092 0.000000
# 3 -0.001357 -0.000801 0.008764 0.000000 -0.004620 0.000000
# 4 0.000000 0.000000 0.000000 0.027233 0.000000 0.008650
# 5 0.001731 -0.001092 -0.004620 0.000000 0.028677 0.000000
# 6 0.000000 0.000000 0.000000 0.008650 0.000000 0.043522
#
#
# Mechanical properties :
#
#
# Convention : Reuss Voigt Hill
#
# Bulk Modulus (GPa) = 77.25967 84.99804 81.12886
# Shear Modulus (GPa) = 36.21792 42.96204 39.58998
#
# Velocity S-wave (km/s) = 3.78289 4.12007 3.95508
# Velocity P-wave (km/s) = 7.04322 7.49783 7.27408
#
# Compressibility (1/GPa) = 0.01294336
#
# Stress axis : x y z
#
# Youngs Moduli (GPa) = 135.91122 133.27559 114.10263
#
# Poissons Ratio (x) = 0.42422 0.15485
# Poissons Ratio (y) = 0.43261 0.09137
# Poissons Ratio (z) = 0.18444 0.10672
#
# Static dielectric constant tensor:
#      x y z
#    x 2.032360 0.000000 0.010690 
#    y 0.000000 2.031760 0.000000 
#    z 0.010690 0.000000 2.126260 
# 
# From -- ./inp_files/27736.got.cif
#   From: 2010.05.17/outbox.cif.g08.bks.cpg/sg14_14_cif.got.tgz:27736.got - 2010.06.03 17:49:19.
