data_PCOD9250780
_publ_section_title
;
Structure prediction by ZEFSAII (Michael W. Deem and Ramdas Pophale) SiO2 
 PCOD9250780
Probable space group: P 21/C
;
_chemical_formula_sum "Si O2"
_cell_formula_units_Z 30
_cell_length_a 11.463054
_cell_length_b 14.316335
_cell_length_c 6.915840
_cell_angle_alpha 90.000000
_cell_angle_beta 73.108642
_cell_angle_gamma 90.000000
_cell_volume 1085.986326
_symmetry_space_group_name_H-M "P 21/C"
_symmetry_group_IT_number 14
_symmetry_cell_setting 'monoclinic'
loop_
_space_group_symop_operation_xyz
x,y,z
-x,1/2+y,1/2-z
-x,-y,-z
x,1/2-y,1/2+z
loop_
_atom_site_type_symbol
_atom_site_label
_atom_site_fract_x
_atom_site_fract_y
_atom_site_fract_z
Si Si1 0.000000 0.500000 0.500000
Si Si2 0.427395 0.765320 0.781190
Si Si3 0.133189 0.371337 0.797542
Si Si4 0.972131 0.689576 0.769006
Si Si5 0.605530 0.929032 0.663052
Si Si6 0.783529 0.475519 0.479184
Si Si7 0.434056 0.411272 0.265340
Si Si8 0.758987 0.231251 0.873983
O O1 0.973065 0.607273 0.614276
O O2 0.857767 0.460014 0.638268
O O3 0.488843 0.866326 0.780020
O O4 0.539413 0.694349 0.702013
O O5 0.391595 0.764894 0.545632
O O6 0.271392 0.755754 0.855945
O O7 0.131472 0.269600 0.699722
O O8 0.265698 0.397351 0.817436
O O9 0.105533 0.460469 0.668680
O O10 0.043033 0.360875 0.018924
O O11 0.096721 0.748771 0.695778
O O12 0.610036 0.921362 0.431089
O O13 0.561349 0.033944 0.726303
O O14 0.668212 0.539506 0.560783
O O15 0.756913 0.382792 0.378114
#
# Coordination Sequence:
#
# PCOD9250780 Si02
#       8
#     2   4   4   4   4   4   4   4
#     4  10  24  46  72 104 140 200 232 314 366 442
#     4  12  24  43  71 103 141 189 239 293 371 440
#     4  12  27  46  73 111 146 195 250 314 366 450
#     4  11  26  48  73 108 147 192 255 301 382 438
#     4  11  26  43  71 110 145 189 243 303 376 443
#     4  11  25  46  73 103 151 190 251 306 376 442
#     4  11  25  47  70 110 151 192 245 313 375 456
#     4  11  25  46  70 103 140 194 238 300 365 454
#
# _framework density 27.624656000000002
#
# number of rings (size 3 to 8) (size 9 to 14) (size 15 to 20)
#    0.000    0.800    2.667    3.200    7.467    4.267 
#    0.000    5.333    0.000    0.000    0.000    0.000 
#    0.000    0.000    0.000    0.000    0.000    0.000 
#
# Total GULP energy -167451.875234 kJ/mol
# GULP energy per Si atom -5581.729174 kJ/mol
# Density = 2.756178 g / cm^3
# Si number density = 27.624656 Si / 1000 Ang^3
#
#
#
# Elastic Constant Matrix: (Units=GPa)
#
#
# Indices 1 2 3 4 5 6 
#
# 1 155.2832 26.9757 28.0654 0.0000 5.5119 0.0000
# 2 26.9757 133.1867 26.2418 0.0000 5.6552 0.0000
# 3 28.0654 26.2418 152.4854 0.0000 12.7302 0.0000
# 4 0.0000 0.0000 0.0000 44.1368 0.0000 -7.0558
# 5 5.5119 5.6552 12.7302 0.0000 37.9365 0.0000
# 6 0.0000 0.0000 0.0000 -7.0558 0.0000 48.8809
#
#
#
# Elastic Compliance Matrix: (Units=1/GPa)
#
#
# Indices 1 2 3 4 5 6 
#
# 1 0.006843 -0.001165 -0.001019 0.000000 -0.000479 0.000000
# 2 -0.001165 0.007990 -0.001106 0.000000 -0.000651 0.000000
# 3 -0.001019 -0.001106 0.007109 0.000000 -0.002073 0.000000
# 4 0.000000 0.000000 0.000000 0.023192 0.000000 0.003348
# 5 -0.000479 -0.000651 -0.002073 0.000000 0.027222 0.000000
# 6 0.000000 0.000000 0.000000 0.003348 0.000000 0.020941
#
#
# Mechanical properties :
#
#
# Convention : Reuss Voigt Hill
#
# Bulk Modulus (GPa) = 65.09769 67.05791 66.07780
# Shear Modulus (GPa) = 47.61983 50.16900 48.89441
#
# Velocity S-wave (km/s) = 4.15639 4.26619 4.21165
# Velocity P-wave (km/s) = 6.83011 6.97098 6.90090
#
# Compressibility (1/GPa) = 0.01536153
#
# Stress axis : x y z
#
# Youngs Moduli (GPa) = 146.12619 125.15962 140.66712
#
# Poissons Ratio (x) = 0.14580 0.14336
# Poissons Ratio (y) = 0.17023 0.15562
# Poissons Ratio (z) = 0.14892 0.13846
#
# Static dielectric constant tensor:
#      x y z
#    x 2.580400 0.000000 0.313660 
#    y 0.000000 2.081010 0.000000 
#    z 0.313660 0.000000 2.477860 
# 
# From -- ./inp_files/13259.got.cif
#   From: 2010.05.17/outbox.cif.g08.bks.cpg/sg14_7_cif.got.tgz:13259.got - 2010.06.03 17:49:19.
