data_PCOD9250971
_publ_section_title
;
Structure prediction by ZEFSAII (Michael W. Deem and Ramdas Pophale) SiO2 
 PCOD9250971
Probable space group: P 21/C
;
_chemical_formula_sum "Si O2"
_cell_formula_units_Z 20
_cell_length_a 15.536192
_cell_length_b 5.845142
_cell_length_c 9.131349
_cell_angle_alpha 90.000000
_cell_angle_beta 88.032746
_cell_angle_gamma 90.000000
_cell_volume 828.740462
_symmetry_space_group_name_H-M "P 21/C"
_symmetry_group_IT_number 14
_symmetry_cell_setting 'monoclinic'
loop_
_space_group_symop_operation_xyz
x,y,z
-x,1/2+y,1/2-z
-x,-y,-z
x,1/2-y,1/2+z
loop_
_atom_site_type_symbol
_atom_site_label
_atom_site_fract_x
_atom_site_fract_y
_atom_site_fract_z
Si Si1 0.732370 0.922102 0.533205
Si Si2 0.108968 0.444797 0.838289
Si Si3 0.401007 0.024435 0.962964
Si Si4 0.312781 0.783711 0.716807
Si Si5 0.944325 0.186060 0.920085
O O1 0.815786 0.791657 0.593917
O O2 0.646132 0.770748 0.536992
O O3 0.726033 0.124303 0.653999
O O4 0.742033 0.029492 0.371165
O O5 0.123730 0.565030 0.681864
O O6 0.017653 0.319414 0.823811
O O7 0.094605 0.637545 0.962727
O O8 0.385557 0.920596 0.802777
O O9 0.500000 0.000000 0.000000
O O10 0.350980 0.879139 0.089449
O O11 0.000000 0.000000 0.000000
#
# Coordination Sequence:
#
# PCOD9250971 Si02
#       5
#     4   4   4   4   4
#     4  11  24  45  69 104 138 178 231 288 342 413
#     4  11  24  42  68  96 139 178 228 279 336 402
#     4  11  26  44  72  98 139 177 229 287 355 412
#     4  10  25  43  68 105 130 179 226 279 349 415
#     4  11  23  42  65 100 133 186 223 276 341 397
#
# _framework density 24.133005000000001
#
# number of rings (size 3 to 8) (size 9 to 14) (size 15 to 20)
#    0.000    1.200    2.000    2.400    5.600    8.000 
#    0.000    0.000    0.000    0.000    0.000    0.000 
#    0.000    0.000    0.000    0.000    0.000    0.000 
#
# Total GULP energy -111796.355288 kJ/mol
# GULP energy per Si atom -5589.817764 kJ/mol
# Density = 2.407808 g / cm^3
# Si number density = 24.133005 Si / 1000 Ang^3
#
#
#
# Elastic Constant Matrix: (Units=GPa)
#
#
# Indices 1 2 3 4 5 6 
#
# 1 91.5426 19.4694 41.8088 0.0000 34.4793 0.0000
# 2 19.4694 64.6606 38.3752 0.0000 12.0389 0.0000
# 3 41.8088 38.3752 157.2336 0.0000 40.1044 0.0000
# 4 0.0000 0.0000 0.0000 36.4450 0.0000 1.4900
# 5 34.4793 12.0389 40.1044 0.0000 49.6383 0.0000
# 6 0.0000 0.0000 0.0000 1.4900 0.0000 27.9082
#
#
#
# Elastic Compliance Matrix: (Units=1/GPa)
#
#
# Indices 1 2 3 4 5 6 
#
# 1 0.015408 -0.002208 -0.001215 0.000000 -0.009185 0.000000
# 2 -0.002208 0.018444 -0.003986 0.000000 0.000281 0.000000
# 3 -0.001215 -0.003986 0.009061 0.000000 -0.005510 0.000000
# 4 0.000000 0.000000 0.000000 0.027499 0.000000 -0.001468
# 5 -0.009185 0.000281 -0.005510 0.000000 0.030909 0.000000
# 6 0.000000 0.000000 0.000000 -0.001468 0.000000 0.035910
#
#
# Mechanical properties :
#
#
# Convention : Reuss Voigt Hill
#
# Bulk Modulus (GPa) = 35.59424 56.97151 46.28287
# Shear Modulus (GPa) = 30.97611 37.05052 34.01332
#
# Velocity S-wave (km/s) = 3.58656 3.92249 3.75828
# Velocity P-wave (km/s) = 5.65088 6.64629 6.16870
#
# Compressibility (1/GPa) = 0.02809443
#
# Stress axis : x y z
#
# Youngs Moduli (GPa) = 64.90079 54.21962 110.35855
#
# Poissons Ratio (x) = 0.11972 0.13413
# Poissons Ratio (y) = 0.14330 0.43988
# Poissons Ratio (z) = 0.07888 0.21612
#
# Static dielectric constant tensor:
#      x y z
#    x 2.046230 0.000000 -0.006800 
#    y 0.000000 2.004030 0.000000 
#    z -0.006800 0.000000 1.869310 
# 
# From -- ./inp_files/17137.got.cif
#   From: 2010.05.17/outbox.cif.g08.bks.cpg/sg14_9_cif.got.tgz:17137.got - 2010.06.03 17:49:19.
