data_PCOD9250820
_publ_section_title
;
Structure prediction by ZEFSAII (Michael W. Deem and Ramdas Pophale) SiO2 
 PCOD9250820
Probable space group: P 21/C
;
_chemical_formula_sum "Si O2"
_cell_formula_units_Z 28
_cell_length_a 5.584296
_cell_length_b 26.874923
_cell_length_c 8.987253
_cell_angle_alpha 90.000000
_cell_angle_beta 121.121783
_cell_angle_gamma 90.000000
_cell_volume 1154.654976
_symmetry_space_group_name_H-M "P 21/C"
_symmetry_group_IT_number 14
_symmetry_cell_setting 'monoclinic'
loop_
_space_group_symop_operation_xyz
x,y,z
-x,1/2+y,1/2-z
-x,-y,-z
x,1/2-y,1/2+z
loop_
_atom_site_type_symbol
_atom_site_label
_atom_site_fract_x
_atom_site_fract_y
_atom_site_fract_z
Si Si1 0.385406 0.003021 0.255805
Si Si2 0.557102 0.234448 0.582647
Si Si3 0.693498 0.096648 0.323177
Si Si4 0.217708 0.680859 0.575730
Si Si5 0.651181 0.688757 0.260901
Si Si6 0.943912 0.954826 0.326991
Si Si7 0.403453 0.922119 0.035986
O O1 0.716369 0.986834 0.347569
O O2 0.282799 0.970555 0.081005
O O3 0.199539 0.982244 0.328873
O O4 0.422150 0.062097 0.273962
O O5 0.771806 0.202813 0.753501
O O6 0.686637 0.275961 0.511896
O O7 0.357233 0.201317 0.415084
O O8 0.378685 0.261918 0.650721
O O9 0.614042 0.154011 0.298772
O O10 0.928578 0.085130 0.518936
O O11 0.744789 0.082421 0.169164
O O12 0.389157 0.629690 0.620443
O O13 0.919108 0.664079 0.418190
O O14 0.737191 0.932336 0.134712
#
# Coordination Sequence:
#
# PCOD9250820 Si02
#       7
#     4   4   4   4   4   4   4
#     4  10  25  48  70 104 150 191 232 299 347 420
#     4  10  24  47  65 102 134 185 228 301 354 426
#     4  12  24  45  69 107 136 188 245 284 358 430
#     4  11  23  45  69 101 139 177 240 286 363 419
#     4  11  25  42  73  98 137 181 234 291 357 423
#     4  10  26  47  70 103 148 191 232 293 353 413
#     4  10  26  42  69 102 143 184 233 295 349 423
#
# _framework density 24.249666999999999
#
# number of rings (size 3 to 8) (size 9 to 14) (size 15 to 20)
#    0.857    0.571    1.429    2.143    4.000    4.000 
#   10.286    0.000    0.000    0.000    0.000    0.000 
#    0.000    0.000    0.000    0.000    0.000    0.000 
#
# Total GULP energy -156299.611944 kJ/mol
# GULP energy per Si atom -5582.128998 kJ/mol
# Density = 2.419447 g / cm^3
# Si number density = 24.249667 Si / 1000 Ang^3
#
#
#
# Elastic Constant Matrix: (Units=GPa)
#
#
# Indices 1 2 3 4 5 6 
#
# 1 75.7308 6.4189 28.3453 0.0000 2.7579 0.0000
# 2 6.4189 59.4341 36.2122 0.0000 1.5260 0.0000
# 3 28.3453 36.2122 130.5023 0.0000 -20.0783 0.0000
# 4 0.0000 0.0000 0.0000 13.5629 0.0000 2.5651
# 5 2.7579 1.5260 -20.0783 0.0000 27.1478 0.0000
# 6 0.0000 0.0000 0.0000 2.5651 0.0000 25.3775
#
#
#
# Elastic Compliance Matrix: (Units=1/GPa)
#
#
# Indices 1 2 3 4 5 6 
#
# 1 0.014881 0.001116 -0.004270 0.000000 -0.004732 0.000000
# 2 0.001116 0.021229 -0.007147 0.000000 -0.006593 0.000000
# 3 -0.004270 -0.007147 0.012076 0.000000 0.009767 0.000000
# 4 0.000000 0.000000 0.000000 0.075167 0.000000 -0.007598
# 5 -0.004732 -0.006593 0.009767 0.000000 0.044910 0.000000
# 6 0.000000 0.000000 0.000000 -0.007598 0.000000 0.040173
#
#
# Mechanical properties :
#
#
# Convention : Reuss Voigt Hill
#
# Bulk Modulus (GPa) = 36.25419 45.29109 40.77264
# Shear Modulus (GPa) = 20.98786 26.19703 23.59245
#
# Velocity S-wave (km/s) = 2.94511 3.29036 3.12251
# Velocity P-wave (km/s) = 5.15245 5.75785 5.46354
#
# Compressibility (1/GPa) = 0.02758302
#
# Stress axis : x y z
#
# Youngs Moduli (GPa) = 67.20167 47.10560 82.80842
#
# Poissons Ratio (x) = -0.05257 0.35358
# Poissons Ratio (y) = -0.07499 0.59186
# Poissons Ratio (z) = 0.28694 0.33668
#
# Static dielectric constant tensor:
#      x y z
#    x 1.978110 0.000000 0.016480 
#    y 0.000000 1.982650 0.000000 
#    z 0.016480 0.000000 1.968670 
# 
# From -- ./inp_files/7022.got.cif
#   From: 2010.05.17/outbox.cif.g08.bks.cpg/sg14_4_cif.got.tgz:7022.got - 2010.06.03 17:49:19.
