data_PCOD9250858
_publ_section_title
;
Structure prediction by ZEFSAII (Michael W. Deem and Ramdas Pophale) SiO2 
 PCOD9250858
Probable space group: P 21/C
;
_chemical_formula_sum "Si O2"
_cell_formula_units_Z 20
_cell_length_a 6.341290
_cell_length_b 13.763843
_cell_length_c 10.241857
_cell_angle_alpha 90.000000
_cell_angle_beta 83.685290
_cell_angle_gamma 90.000000
_cell_volume 888.491001
_symmetry_space_group_name_H-M "P 21/C"
_symmetry_group_IT_number 14
_symmetry_cell_setting 'monoclinic'
loop_
_space_group_symop_operation_xyz
x,y,z
-x,1/2+y,1/2-z
-x,-y,-z
x,1/2-y,1/2+z
loop_
_atom_site_type_symbol
_atom_site_label
_atom_site_fract_x
_atom_site_fract_y
_atom_site_fract_z
Si Si1 0.522468 0.040378 0.354348
Si Si2 0.302590 0.076041 0.016550
Si Si3 0.049368 0.009042 0.782649
Si Si4 0.439717 0.737616 0.060764
Si Si5 0.263261 0.642617 0.810743
O O1 0.438730 0.149861 0.372695
O O2 0.500000 0.000000 0.500000
O O3 0.425102 0.948900 0.285261
O O4 0.765280 0.052520 0.295011
O O5 0.402394 0.182321 0.008382
O O6 0.157308 0.060800 0.899157
O O7 0.500000 0.000000 0.000000
O O8 0.143725 0.054011 0.146794
O O9 0.962108 0.089182 0.687872
O O10 0.301131 0.790424 0.181845
O O11 0.309698 0.695422 0.944917
#
# Coordination Sequence:
#
# PCOD9250858 Si02
#       5
#     4   4   4   4   4
#     4  10  24  48  67 103 156 191 240 313 375 439
#     4  11  23  46  72 108 147 189 250 307 363 444
#     4  11  23  45  75 105 148 194 244 313 370 436
#     4  11  25  46  74 104 151 196 239 312 373 443
#     4  11  25  47  72 109 154 187 252 307 373 446
#
# _framework density 22.510075000000001
#
# number of rings (size 3 to 8) (size 9 to 14) (size 15 to 20)
#    0.000    1.200    4.000    0.000    5.600    3.200 
#   18.000    0.000    0.000    0.000    0.000    0.000 
#    0.000    0.000    0.000    0.000    0.000    0.000 
#
# Total GULP energy -111617.041772 kJ/mol
# GULP energy per Si atom -5580.852089 kJ/mol
# Density = 2.245884 g / cm^3
# Si number density = 22.510075 Si / 1000 Ang^3
#
#
#
# Elastic Constant Matrix: (Units=GPa)
#
#
# Indices 1 2 3 4 5 6 
#
# 1 69.6422 48.1085 32.5287 0.0000 3.5555 0.0000
# 2 48.1085 157.5480 39.1731 0.0000 10.7208 0.0000
# 3 32.5287 39.1731 122.1244 0.0000 8.8653 0.0000
# 4 0.0000 0.0000 0.0000 38.9628 0.0000 1.8136
# 5 3.5555 10.7208 8.8653 0.0000 28.6173 0.0000
# 6 0.0000 0.0000 0.0000 1.8136 0.0000 27.8905
#
#
#
# Elastic Compliance Matrix: (Units=1/GPa)
#
#
# Indices 1 2 3 4 5 6 
#
# 1 0.019546 -0.005112 -0.003610 0.000000 0.000605 0.000000
# 2 -0.005112 0.008342 -0.001159 0.000000 -0.002131 0.000000
# 3 -0.003610 -0.001159 0.009675 0.000000 -0.002114 0.000000
# 4 0.000000 0.000000 0.000000 0.025743 0.000000 -0.001674
# 5 0.000605 -0.002131 -0.002114 0.000000 0.036322 0.000000
# 6 0.000000 0.000000 0.000000 -0.001674 0.000000 0.035963
#
#
# Mechanical properties :
#
#
# Convention : Reuss Voigt Hill
#
# Bulk Modulus (GPa) = 56.18184 65.43727 60.80955
# Shear Modulus (GPa) = 31.00044 34.39441 32.69743
#
# Velocity S-wave (km/s) = 3.71506 3.91315 3.81539
# Velocity P-wave (km/s) = 6.58900 7.03920 6.81782
#
# Compressibility (1/GPa) = 0.01779935
#
# Stress axis : x y z
#
# Youngs Moduli (GPa) = 51.16161 119.88238 103.35486
#
# Poissons Ratio (x) = 0.61284 0.37315
# Poissons Ratio (y) = 0.26154 0.11983
# Poissons Ratio (z) = 0.18471 0.13899
#
# Static dielectric constant tensor:
#      x y z
#    x 1.892540 0.000000 0.046040 
#    y 0.000000 1.845200 0.000000 
#    z 0.046040 0.000000 1.838490 
# 
# From -- ./inp_files/20620.got.cif
#   From: 2010.05.17/outbox.cif.g08.bks.cpg/sg14_11_cif.got.tgz:20620.got - 2010.06.03 17:49:19.
