data_PCOD9250168
_publ_section_title
;
Structure prediction by ZEFSAII (Michael W. Deem and Ramdas Pophale) SiO2 
 PCOD9250168
Probable space group: P 21/C
;
_chemical_formula_sum "Si O2"
_cell_formula_units_Z 16
_cell_length_a 7.269535
_cell_length_b 10.003254
_cell_length_c 8.708964
_cell_angle_alpha 90.000000
_cell_angle_beta 74.100812
_cell_angle_gamma 90.000000
_cell_volume 609.080152
_symmetry_space_group_name_H-M "P 21/C"
_symmetry_group_IT_number 14
_symmetry_cell_setting 'monoclinic'
loop_
_space_group_symop_operation_xyz
x,y,z
-x,1/2+y,1/2-z
-x,-y,-z
x,1/2-y,1/2+z
loop_
_atom_site_type_symbol
_atom_site_label
_atom_site_fract_x
_atom_site_fract_y
_atom_site_fract_z
Si Si1 0.560104 0.121054 0.595322
Si Si2 0.347570 0.330900 0.456716
Si Si3 0.908744 0.031102 0.852376
Si Si4 0.027933 0.823319 0.572060
O O1 0.505242 0.250506 0.511357
O O2 0.429260 0.122421 0.775625
O O3 0.787169 0.133802 0.569935
O O4 0.500000 0.000000 0.500000
O O5 0.289006 0.454090 0.577820
O O6 0.167801 0.226550 0.467471
O O7 0.006547 0.945490 0.696049
O O8 0.921061 0.189621 0.843671
O O9 0.000000 0.000000 0.000000
#
# Coordination Sequence:
#
# PCOD9250168 Si02
#       4
#     4   4   4   4
#     4  12  28  45  75 109 145 192 251 294 360 441
#     4  11  26  47  70 111 144 190 247 301 362 433
#     4  10  23  47  73 105 147 187 241 303 358 432
#     4  11  25  47  78 102 151 191 236 307 365 422
#
# _framework density 26.269117999999999
#
# number of rings (size 3 to 8) (size 9 to 14) (size 15 to 20)
#    0.000    1.000    2.500    3.000   10.500    4.000 
#    0.000    0.000    0.000    0.000    0.000    0.000 
#    0.000    0.000    0.000    0.000    0.000    0.000 
#
# Total GULP energy -89658.839493 kJ/mol
# GULP energy per Si atom -5603.677468 kJ/mol
# Density = 2.620933 g / cm^3
# Si number density = 26.269118 Si / 1000 Ang^3
#
#
#
# Elastic Constant Matrix: (Units=GPa)
#
#
# Indices 1 2 3 4 5 6 
#
# 1 126.4296 20.5141 19.5152 0.0000 -17.1220 0.0000
# 2 20.5141 160.4836 -3.4859 0.0000 -7.1620 0.0000
# 3 19.5152 -3.4859 76.5779 0.0000 -38.4953 0.0000
# 4 0.0000 0.0000 0.0000 32.0583 0.0000 3.6939
# 5 -17.1220 -7.1620 -38.4953 0.0000 44.9746 0.0000
# 6 0.0000 0.0000 0.0000 3.6939 0.0000 39.4550
#
#
#
# Elastic Compliance Matrix: (Units=1/GPa)
#
#
# Indices 1 2 3 4 5 6 
#
# 1 0.008539 -0.001024 -0.001177 0.000000 0.002080 0.000000
# 2 -0.001024 0.006483 0.001543 0.000000 0.001963 0.000000
# 3 -0.001177 0.001543 0.023392 0.000000 0.019820 0.000000
# 4 0.000000 0.000000 0.000000 0.031533 0.000000 -0.002952
# 5 0.002080 0.001963 0.019820 0.000000 0.040304 0.000000
# 6 0.000000 0.000000 0.000000 -0.002952 0.000000 0.025622
#
#
# Mechanical properties :
#
#
# Convention : Reuss Voigt Hill
#
# Bulk Modulus (GPa) = 26.95560 48.50865 37.73213
# Shear Modulus (GPa) = 33.43241 45.09410 39.26325
#
# Velocity S-wave (km/s) = 3.57135 4.14771 3.87027
# Velocity P-wave (km/s) = 5.22395 6.43771 5.86232
#
# Compressibility (1/GPa) = 0.03709804
#
# Stress axis : x y z
#
# Youngs Moduli (GPa) = 117.10779 154.24426 42.74964
#
# Poissons Ratio (x) = 0.15799 0.05031
# Poissons Ratio (y) = 0.11995 -0.06596
# Poissons Ratio (z) = 0.13783 -0.23801
#
# Static dielectric constant tensor:
#      x y z
#    x 2.111500 0.000000 -0.056410 
#    y 0.000000 1.910650 0.000000 
#    z -0.056410 0.000000 2.036520 
# 
# From -- ./inp_files/7349.got.cif
#   From: 2010.05.17/outbox.cif.g08.bks.cpg/sg14_4_cif.got.tgz:7349.got - 2010.06.03 17:49:19.
