data_PCOD9250983
_publ_section_title
;
Structure prediction by ZEFSAII (Michael W. Deem and Ramdas Pophale) SiO2 
 PCOD9250983
Probable space group: P 21/C
;
_chemical_formula_sum "Si O2"
_cell_formula_units_Z 28
_cell_length_a 14.334264
_cell_length_b 8.464982
_cell_length_c 14.083632
_cell_angle_alpha 90.000000
_cell_angle_beta 138.466948
_cell_angle_gamma 90.000000
_cell_volume 1133.088120
_symmetry_space_group_name_H-M "P 21/C"
_symmetry_group_IT_number 14
_symmetry_cell_setting 'monoclinic'
loop_
_space_group_symop_operation_xyz
x,y,z
-x,1/2+y,1/2-z
-x,-y,-z
x,1/2-y,1/2+z
loop_
_atom_site_type_symbol
_atom_site_label
_atom_site_fract_x
_atom_site_fract_y
_atom_site_fract_z
Si Si1 0.821846 0.333142 0.757959
Si Si2 0.553930 0.838478 0.653807
Si Si3 0.861954 0.156667 0.083264
Si Si4 0.594669 0.641115 0.862070
Si Si5 0.089633 0.471274 0.887323
Si Si6 0.539584 0.149549 0.090738
Si Si7 0.832708 0.015897 0.863241
O O1 0.774922 0.367478 0.613975
O O2 0.702726 0.384005 0.740484
O O3 0.822058 0.147472 0.774539
O O4 0.977072 0.406144 0.879232
O O5 0.549065 0.690601 0.721946
O O6 0.479174 0.794351 0.498541
O O7 0.480597 0.988498 0.648995
O O8 0.718880 0.879800 0.759555
O O9 0.891322 0.341592 0.091430
O O10 0.009359 0.076094 0.228118
O O11 0.794781 0.084507 0.938934
O O12 0.761363 0.612784 0.992568
O O13 0.551684 0.793965 0.891404
O O14 0.500000 0.000000 0.000000
O O15 0.000000 0.000000 0.000000
#
# Coordination Sequence:
#
# PCOD9250983 Si02
#       7
#     4   4   4   4   4   4   4
#     4  10  25  44  69 107 139 184 237 297 360 423
#     4  12  29  46  74 107 144 191 244 296 365 430
#     4  10  25  44  74 101 145 183 240 301 355 425
#     4  12  27  47  73 106 145 192 241 300 364 432
#     4  10  25  43  74 100 143 184 241 291 364 420
#     4  12  28  45  74 104 151 188 239 296 367 436
#     4  12  26  45  74 104 143 188 243 297 359 432
#
# _framework density 24.711228999999999
#
# number of rings (size 3 to 8) (size 9 to 14) (size 15 to 20)
#    0.857    0.000    1.429    3.857   14.000    1.714 
#    0.000    0.000    0.000    0.000    0.000    0.000 
#    0.000    0.000    0.000    0.000    0.000    0.000 
#
# Total GULP energy -156533.697628 kJ/mol
# GULP energy per Si atom -5590.489201 kJ/mol
# Density = 2.465499 g / cm^3
# Si number density = 24.711229 Si / 1000 Ang^3
#
#
#
# Elastic Constant Matrix: (Units=GPa)
#
#
# Indices 1 2 3 4 5 6 
#
# 1 67.3346 24.3960 53.4304 0.0000 18.1582 0.0000
# 2 24.3960 61.7479 1.5131 0.0000 7.9509 0.0000
# 3 53.4304 1.5131 88.5340 0.0000 19.5613 0.0000
# 4 0.0000 0.0000 0.0000 40.4970 0.0000 -8.4963
# 5 18.1582 7.9509 19.5613 0.0000 57.1568 0.0000
# 6 0.0000 0.0000 0.0000 -8.4963 0.0000 45.1239
#
#
#
# Elastic Compliance Matrix: (Units=1/GPa)
#
#
# Indices 1 2 3 4 5 6 
#
# 1 0.038573 -0.014359 -0.022466 0.000000 -0.002568 0.000000
# 2 -0.014359 0.021840 0.008606 0.000000 -0.001422 0.000000
# 3 -0.022466 0.008606 0.025308 0.000000 -0.002721 0.000000
# 4 0.000000 0.000000 0.000000 0.025709 0.000000 0.004841
# 5 -0.002568 -0.001422 -0.002721 0.000000 0.019441 0.000000
# 6 0.000000 0.000000 0.000000 0.004841 0.000000 0.023073
#
#
# Mechanical properties :
#
#
# Convention : Reuss Voigt Hill
#
# Bulk Modulus (GPa) = 34.14839 41.81062 37.97951
# Shear Modulus (GPa) = 22.71277 37.77402 30.24340
#
# Velocity S-wave (km/s) = 3.03500 3.91400 3.50218
# Velocity P-wave (km/s) = 5.11181 6.11410 5.63528
#
# Compressibility (1/GPa) = 0.02928396
#
# Stress axis : x y z
#
# Youngs Moduli (GPa) = 25.92489 45.78745 39.51397
#
# Poissons Ratio (x) = 0.65744 0.88772
# Poissons Ratio (y) = 0.37225 -0.34007
# Poissons Ratio (z) = 0.58243 -0.39406
#
# Static dielectric constant tensor:
#      x y z
#    x 2.042610 0.000000 0.050820 
#    y 0.000000 1.961440 0.000000 
#    z 0.050820 0.000000 1.932640 
# 
# From -- ./inp_files/46768.got.cif
#   From: 2010.05.17/outbox.cif.g08.bks.cpg/sg14_24_cif.got.tgz:46768.got - 2010.06.03 17:49:19.
