data_PCOD9250598
_publ_section_title
;
Structure prediction by ZEFSAII (Michael W. Deem and Ramdas Pophale) SiO2 
 PCOD9250598
Probable space group: P 21/C
;
_chemical_formula_sum "Si O2"
_cell_formula_units_Z 28
_cell_length_a 17.727184
_cell_length_b 9.895745
_cell_length_c 6.932338
_cell_angle_alpha 90.000000
_cell_angle_beta 121.755555
_cell_angle_gamma 90.000000
_cell_volume 1034.048172
_symmetry_space_group_name_H-M "P 21/C"
_symmetry_group_IT_number 14
_symmetry_cell_setting 'monoclinic'
loop_
_space_group_symop_operation_xyz
x,y,z
-x,1/2+y,1/2-z
-x,-y,-z
x,1/2-y,1/2+z
loop_
_atom_site_type_symbol
_atom_site_label
_atom_site_fract_x
_atom_site_fract_y
_atom_site_fract_z
Si Si1 0.620612 0.070446 0.005518
Si Si2 0.064799 0.772605 0.464623
Si Si3 0.446799 0.165905 0.840152
Si Si4 0.640923 0.566409 0.146636
Si Si5 0.811105 0.511028 0.835728
Si Si6 0.171326 0.988024 0.097685
Si Si7 0.928312 0.757143 0.029457
O O1 0.572848 0.932768 0.010375
O O2 0.715519 0.058289 0.240503
O O3 0.552541 0.189416 0.968661
O O4 0.630497 0.051625 0.789468
O O5 0.142892 0.663151 0.599727
O O6 0.952452 0.776492 0.312694
O O7 0.038437 0.779040 0.685321
O O8 0.108324 0.917647 0.486090
O O9 0.424796 0.080359 0.619473
O O10 0.380519 0.291828 0.773785
O O11 0.738808 0.545239 0.190920
O O12 0.813281 0.508368 0.607675
O O13 0.841349 0.661670 0.934064
O O14 0.090992 0.085906 0.039565
#
# Coordination Sequence:
#
# PCOD9250598 Si02
#       7
#     4   4   4   4   4   4   4
#     4  10  24  44  68  98 137 182 225 291 357 411
#     4  12  24  43  65  97 137 181 227 285 349 405
#     4  11  22  44  69 101 133 180 230 289 349 425
#     4  11  23  43  71 101 140 176 239 286 351 426
#     4  11  24  47  65  98 145 173 230 295 345 417
#     4  11  25  43  67 103 135 183 232 286 344 414
#     4  12  23  41  72  93 133 183 230 282 342 416
#
# _framework density 27.078042
#
# number of rings (size 3 to 8) (size 9 to 14) (size 15 to 20)
#    0.000    0.857    4.286    3.000    2.000    2.286 
#    7.714    0.000    0.000    0.000    0.000    0.000 
#    0.000    0.000    0.000    0.000    0.000    0.000 
#
# Total GULP energy -156381.030363 kJ/mol
# GULP energy per Si atom -5585.036799 kJ/mol
# Density = 2.701641 g / cm^3
# Si number density = 27.078042 Si / 1000 Ang^3
#
#
#
# Elastic Constant Matrix: (Units=GPa)
#
#
# Indices 1 2 3 4 5 6 
#
# 1 107.4597 16.8703 49.3352 0.0000 33.4920 0.0000
# 2 16.8703 72.5290 3.7194 0.0000 24.5003 0.0000
# 3 49.3352 3.7194 141.6442 0.0000 -5.6773 0.0000
# 4 0.0000 0.0000 0.0000 38.4715 0.0000 2.6647
# 5 33.4920 24.5003 -5.6773 0.0000 62.7341 0.0000
# 6 0.0000 0.0000 0.0000 2.6647 0.0000 22.2706
#
#
#
# Elastic Compliance Matrix: (Units=1/GPa)
#
#
# Indices 1 2 3 4 5 6 
#
# 1 0.014264 -0.000361 -0.005277 0.000000 -0.007951 0.000000
# 2 -0.000361 0.015955 -0.000537 0.000000 -0.006087 0.000000
# 3 -0.005277 -0.000537 0.009066 0.000000 0.003848 0.000000
# 4 0.000000 0.000000 0.000000 0.026210 0.000000 -0.003136
# 5 -0.007951 -0.006087 0.003848 0.000000 0.022911 0.000000
# 6 0.000000 0.000000 0.000000 -0.003136 0.000000 0.045277
#
#
# Mechanical properties :
#
#
# Convention : Reuss Voigt Hill
#
# Bulk Modulus (GPa) = 37.12748 51.27583 44.20166
# Shear Modulus (GPa) = 32.25532 41.47578 36.86555
#
# Velocity S-wave (km/s) = 3.45512 3.91796 3.69379
# Velocity P-wave (km/s) = 5.44593 6.28049 5.87804
#
# Compressibility (1/GPa) = 0.02693423
#
# Stress axis : x y z
#
# Youngs Moduli (GPa) = 70.10871 62.67492 110.29787
#
# Poissons Ratio (x) = 0.02263 0.58207
# Poissons Ratio (y) = 0.02531 0.05925
# Poissons Ratio (z) = 0.36998 0.03367
#
# Static dielectric constant tensor:
#      x y z
#    x 2.343300 0.000000 -0.241350 
#    y 0.000000 1.927940 0.000000 
#    z -0.241350 0.000000 2.354550 
# 
# From -- ./inp_files/18776.got.cif
#   From: 2010.05.17/outbox.cif.g08.bks.cpg/sg14_10_cif.got.tgz:18776.got - 2010.06.03 17:49:19.
