data_PCOD9250394
_publ_section_title
;
Structure prediction by ZEFSAII (Michael W. Deem and Ramdas Pophale) SiO2 
 PCOD9250394
Probable space group: P 21/C
;
_chemical_formula_sum "Si O2"
_cell_formula_units_Z 20
_cell_length_a 12.288854
_cell_length_b 7.287175
_cell_length_c 12.027906
_cell_angle_alpha 90.000000
_cell_angle_beta 57.463149
_cell_angle_gamma 90.000000
_cell_volume 908.054102
_symmetry_space_group_name_H-M "P 21/C"
_symmetry_group_IT_number 14
_symmetry_cell_setting 'monoclinic'
loop_
_space_group_symop_operation_xyz
x,y,z
-x,1/2+y,1/2-z
-x,-y,-z
x,1/2-y,1/2+z
loop_
_atom_site_type_symbol
_atom_site_label
_atom_site_fract_x
_atom_site_fract_y
_atom_site_fract_z
Si Si1 0.661237 0.430445 0.707875
Si Si2 0.786975 0.075685 0.617930
Si Si3 0.922655 0.919081 0.145936
Si Si4 0.531577 0.415457 0.362809
Si Si5 0.997458 0.503815 0.155543
O O1 0.736327 0.269307 0.598144
O O2 0.771328 0.539567 0.712460
O O3 0.579564 0.547796 0.666214
O O4 0.572106 0.300704 0.836553
O O5 0.660575 0.988145 0.741580
O O6 0.867155 0.969432 0.481335
O O7 0.885770 0.121573 0.664522
O O8 0.949656 0.703615 0.143702
O O9 0.980695 0.999639 0.227200
O O10 0.000000 0.000000 0.000000
O O11 0.500000 0.500000 0.500000
#
# Coordination Sequence:
#
# PCOD9250394 Si02
#       5
#     4   4   4   4   4
#     4  10  24  42  66  98 132 174 236 262 340 402
#     4   9  23  44  67  99 137 171 232 268 345 401
#     4  12  25  42  72 100 136 181 224 283 350 401
#     4  10  24  45  68  90 138 179 226 283 328 402
#     4  11  24  44  69 101 143 171 223 292 336 411
#
# _framework density 22.025120000000001
#
# number of rings (size 3 to 8) (size 9 to 14) (size 15 to 20)
#    1.200    0.400    2.000    1.200   11.200    0.000 
#    3.600    2.000    0.000    0.000    0.000    0.000 
#    0.000    0.000    0.000    0.000    0.000    0.000 
#
# Total GULP energy -111582.530403 kJ/mol
# GULP energy per Si atom -5579.126520 kJ/mol
# Density = 2.197499 g / cm^3
# Si number density = 22.025120 Si / 1000 Ang^3
#
#
#
# Elastic Constant Matrix: (Units=GPa)
#
#
# Indices 1 2 3 4 5 6 
#
# 1 145.7680 32.4800 71.6136 0.0000 0.7865 0.0000
# 2 32.4800 73.1717 31.3296 0.0000 -0.0673 0.0000
# 3 71.6136 31.3296 127.5261 0.0000 18.1903 0.0000
# 4 0.0000 0.0000 0.0000 22.2000 0.0000 1.1130
# 5 0.7865 -0.0673 18.1903 0.0000 33.7954 0.0000
# 6 0.0000 0.0000 0.0000 1.1130 0.0000 47.7686
#
#
#
# Elastic Compliance Matrix: (Units=1/GPa)
#
#
# Indices 1 2 3 4 5 6 
#
# 1 0.010012 -0.002088 -0.005497 0.000000 0.002722 0.000000
# 2 -0.002088 0.015864 -0.002964 0.000000 0.001676 0.000000
# 3 -0.005497 -0.002964 0.012607 0.000000 -0.006664 0.000000
# 4 0.000000 0.000000 0.000000 0.045098 0.000000 -0.001051
# 5 0.002722 0.001676 -0.006664 0.000000 0.033117 0.000000
# 6 0.000000 0.000000 0.000000 -0.001051 0.000000 0.020959
#
#
# Mechanical properties :
#
#
# Convention : Reuss Voigt Hill
#
# Bulk Modulus (GPa) = 57.52222 68.59025 63.05623
# Shear Modulus (GPa) = 30.38615 34.82229 32.60422
#
# Velocity S-wave (km/s) = 3.71834 3.98053 3.85167
# Velocity P-wave (km/s) = 6.67893 7.23433 6.96217
#
# Compressibility (1/GPa) = 0.01738459
#
# Stress axis : x y z
#
# Youngs Moduli (GPa) = 99.88503 63.03668 79.31880
#
# Poissons Ratio (x) = 0.13160 0.43605
# Poissons Ratio (y) = 0.20853 0.23510
# Poissons Ratio (z) = 0.54911 0.18684
#
# Static dielectric constant tensor:
#      x y z
#    x 1.827760 0.000000 -0.039290 
#    y 0.000000 1.932730 0.000000 
#    z -0.039290 0.000000 1.796810 
# 
# From -- ./inp_files/27771.got.cif
#   From: 2010.05.17/outbox.cif.g08.bks.cpg/sg14_14_cif.got.tgz:27771.got - 2010.06.03 17:49:19.
