data_PCOD9250449
_publ_section_title
;
Structure prediction by ZEFSAII (Michael W. Deem and Ramdas Pophale) SiO2 
 PCOD9250449
Probable space group: P 21/C
;
_chemical_formula_sum "Si O2"
_cell_formula_units_Z 20
_cell_length_a 4.831600
_cell_length_b 8.770304
_cell_length_c 19.514666
_cell_angle_alpha 90.000000
_cell_angle_beta 112.243415
_cell_angle_gamma 90.000000
_cell_volume 765.389656
_symmetry_space_group_name_H-M "P 21/C"
_symmetry_group_IT_number 14
_symmetry_cell_setting 'monoclinic'
loop_
_space_group_symop_operation_xyz
x,y,z
-x,1/2+y,1/2-z
-x,-y,-z
x,1/2-y,1/2+z
loop_
_atom_site_type_symbol
_atom_site_label
_atom_site_fract_x
_atom_site_fract_y
_atom_site_fract_z
Si Si1 0.136098 0.713528 0.553501
Si Si2 0.319381 0.428185 0.845909
Si Si3 0.088849 0.705739 0.900522
Si Si4 0.296677 0.473133 0.231532
Si Si5 0.677440 0.540465 0.605497
O O1 0.404102 0.822733 0.605993
O O2 0.011687 0.791491 0.473434
O O3 0.333121 0.565034 0.551996
O O4 0.887492 0.658344 0.583567
O O5 0.309461 0.568135 0.899457
O O6 0.401207 0.478866 0.776463
O O7 0.962728 0.399515 0.805122
O O8 0.222546 0.868600 0.895944
O O9 0.813016 0.668940 0.824875
O O10 0.314778 0.433424 0.312027
#
# Coordination Sequence:
#
# PCOD9250449 Si02
#       5
#     4   4   4   4   4
#     4  12  26  44  70 104 139 182 228 290 346 417
#     4  10  24  42  72  95 137 177 237 279 341 407
#     4  10  27  44  72  99 142 181 233 280 353 412
#     4  10  25  42  70  97 136 181 234 280 339 412
#     4  12  27  43  70 101 145 177 233 286 355 404
#
# _framework density 26.130479999999999
#
# number of rings (size 3 to 8) (size 9 to 14) (size 15 to 20)
#    1.200    0.000    0.000    4.200   11.200    0.800 
#    0.000    0.000    0.000    0.000    0.000    0.000 
#    0.000    0.000    0.000    0.000    0.000    0.000 
#
# Total GULP energy -111864.598822 kJ/mol
# GULP energy per Si atom -5593.229941 kJ/mol
# Density = 2.607101 g / cm^3
# Si number density = 26.130480 Si / 1000 Ang^3
#
#
#
# Elastic Constant Matrix: (Units=GPa)
#
#
# Indices 1 2 3 4 5 6 
#
# 1 106.7898 1.8290 -8.7641 0.0000 -23.7972 0.0000
# 2 1.8290 47.3555 27.8837 0.0000 -6.1167 0.0000
# 3 -8.7641 27.8837 108.3435 0.0000 -9.9876 0.0000
# 4 0.0000 0.0000 0.0000 35.4843 0.0000 0.5379
# 5 -23.7972 -6.1167 -9.9876 0.0000 44.4153 0.0000
# 6 0.0000 0.0000 0.0000 0.5379 0.0000 22.3406
#
#
#
# Elastic Compliance Matrix: (Units=1/GPa)
#
#
# Indices 1 2 3 4 5 6 
#
# 1 0.010863 -0.000566 0.001587 0.000000 0.006099 0.000000
# 2 -0.000566 0.025098 -0.006346 0.000000 0.001726 0.000000
# 3 0.001587 -0.006346 0.011222 0.000000 0.002500 0.000000
# 4 0.000000 0.000000 0.000000 0.028192 0.000000 -0.000679
# 5 0.006099 0.001726 0.002500 0.000000 0.026582 0.000000
# 6 0.000000 0.000000 0.000000 -0.000679 0.000000 0.044778
#
#
# Mechanical properties :
#
#
# Convention : Reuss Voigt Hill
#
# Bulk Modulus (GPa) = 27.37272 33.82068 30.59670
# Shear Modulus (GPa) = 29.48737 36.55073 33.01905
#
# Velocity S-wave (km/s) = 3.36291 3.74408 3.55860
# Velocity P-wave (km/s) = 5.05737 5.62690 5.34972
#
# Compressibility (1/GPa) = 0.03653272
#
# Stress axis : x y z
#
# Youngs Moduli (GPa) = 92.05338 39.84323 89.11126
#
# Poissons Ratio (x) = 0.02255 -0.14139
# Poissons Ratio (y) = 0.05210 0.56551
# Poissons Ratio (z) = -0.14606 0.25285
#
# Static dielectric constant tensor:
#      x y z
#    x 1.997970 0.000000 -0.020790 
#    y 0.000000 2.202590 0.000000 
#    z -0.020790 0.000000 2.075240 
# 
# From -- ./inp_files/63100.got.cif
#   From: 2010.05.17/outbox.cif.g08.bks.cpg/sg14_32_cif.got.tgz:63100.got - 2010.06.03 17:49:19.
