data_PCOD9250536
_publ_section_title
;
Structure prediction by ZEFSAII (Michael W. Deem and Ramdas Pophale) SiO2 
 PCOD9250536
Probable space group: P 21/C
;
_chemical_formula_sum "Si O2"
_cell_formula_units_Z 24
_cell_length_a 7.829599
_cell_length_b 14.595321
_cell_length_c 10.000970
_cell_angle_alpha 90.000000
_cell_angle_beta 93.858745
_cell_angle_gamma 90.000000
_cell_volume 1140.275070
_symmetry_space_group_name_H-M "P 21/C"
_symmetry_group_IT_number 14
_symmetry_cell_setting 'monoclinic'
loop_
_space_group_symop_operation_xyz
x,y,z
-x,1/2+y,1/2-z
-x,-y,-z
x,1/2-y,1/2+z
loop_
_atom_site_type_symbol
_atom_site_label
_atom_site_fract_x
_atom_site_fract_y
_atom_site_fract_z
Si Si1 0.808938 0.369410 0.767417
Si Si2 0.790994 0.847447 0.649708
Si Si3 0.315434 0.836305 0.273091
Si Si4 0.627823 0.753408 0.902114
Si Si5 0.383629 0.588896 0.499183
Si Si6 0.808201 0.032596 0.524736
O O1 0.733450 0.267166 0.767739
O O2 0.760242 0.411490 0.622426
O O3 0.010569 0.359140 0.801968
O O4 0.732180 0.432709 0.880757
O O5 0.701080 0.804156 0.774991
O O6 0.762463 0.783782 0.517635
O O7 0.724934 0.947637 0.599116
O O8 0.506460 0.828773 0.343576
O O9 0.194550 0.879694 0.378809
O O10 0.307984 0.897204 0.141295
O O11 0.504020 0.823944 0.972870
O O12 0.500000 0.500000 0.500000
O O13 0.000000 0.000000 0.500000
#
# Coordination Sequence:
#
# PCOD9250536 Si02
#       6
#     4   4   4   4   4   4
#     4  10  24  43  71  95 137 181 225 282 349 417
#     4  11  25  43  67 101 138 175 237 285 348 417
#     4  11  23  44  67  97 134 179 223 283 347 411
#     4  11  24  43  67 102 134 186 225 283 352 406
#     4  11  24  43  65 101 136 179 230 284 343 411
#     4  10  24  44  67 101 133 180 231 285 344 414
#
# _framework density 21.047554000000002
#
# number of rings (size 3 to 8) (size 9 to 14) (size 15 to 20)
#    0.000    1.333    1.667    3.000   11.667    0.667 
#    3.000    4.167    0.000    0.000    0.000    0.000 
#    0.000    0.000    0.000    0.000    0.000    0.000 
#
# Total GULP energy -134102.876409 kJ/mol
# GULP energy per Si atom -5587.619850 kJ/mol
# Density = 2.099965 g / cm^3
# Si number density = 21.047554 Si / 1000 Ang^3
#
#
#
# Elastic Constant Matrix: (Units=GPa)
#
#
# Indices 1 2 3 4 5 6 
#
# 1 74.7155 13.4911 48.8178 0.0000 13.1650 0.0000
# 2 13.4911 55.3196 26.8823 0.0000 9.9738 0.0000
# 3 48.8178 26.8823 144.8907 0.0000 11.3822 0.0000
# 4 0.0000 0.0000 0.0000 28.4528 0.0000 4.1698
# 5 13.1650 9.9738 11.3822 0.0000 37.6555 0.0000
# 6 0.0000 0.0000 0.0000 4.1698 0.0000 13.5254
#
#
#
# Elastic Compliance Matrix: (Units=1/GPa)
#
#
# Indices 1 2 3 4 5 6 
#
# 1 0.017928 -0.000899 -0.005532 0.000000 -0.004358 0.000000
# 2 -0.000899 0.020600 -0.003191 0.000000 -0.004178 0.000000
# 3 -0.005532 -0.003191 0.009362 0.000000 -0.000051 0.000000
# 4 0.000000 0.000000 0.000000 0.036809 0.000000 -0.011348
# 5 -0.004358 -0.004178 -0.000051 0.000000 0.029202 0.000000
# 6 0.000000 0.000000 0.000000 -0.011348 0.000000 0.077433
#
#
# Mechanical properties :
#
#
# Convention : Reuss Voigt Hill
#
# Bulk Modulus (GPa) = 34.90712 50.36757 42.63735
# Shear Modulus (GPa) = 22.71433 28.30904 25.51169
#
# Velocity S-wave (km/s) = 3.28867 3.67141 3.48530
# Velocity P-wave (km/s) = 5.57148 6.47724 6.04136
#
# Compressibility (1/GPa) = 0.02864745
#
# Stress axis : x y z
#
# Youngs Moduli (GPa) = 55.77722 48.54421 106.82037
#
# Poissons Ratio (x) = 0.04362 0.59088
# Poissons Ratio (y) = 0.05012 0.34087
# Poissons Ratio (z) = 0.30853 0.15491
#
# Static dielectric constant tensor:
#      x y z
#    x 1.772610 0.000000 0.003560 
#    y 0.000000 1.773030 0.000000 
#    z 0.003560 0.000000 1.760000 
# 
# From -- ./inp_files/8596.got.cif
#   From: 2010.05.17/outbox.cif.g08.bks.cpg/sg14_5_cif.got.tgz:8596.got - 2010.06.03 17:49:19.
