data_PCOD9250834
_publ_section_title
;
Structure prediction by ZEFSAII (Michael W. Deem and Ramdas Pophale) SiO2 
 PCOD9250834
Probable space group: P 21/C
;
_chemical_formula_sum "Si O2"
_cell_formula_units_Z 28
_cell_length_a 8.282718
_cell_length_b 21.546285
_cell_length_c 13.618963
_cell_angle_alpha 90.000000
_cell_angle_beta 31.560179
_cell_angle_gamma 90.000000
_cell_volume 1272.090203
_symmetry_space_group_name_H-M "P 21/C"
_symmetry_group_IT_number 14
_symmetry_cell_setting 'monoclinic'
loop_
_space_group_symop_operation_xyz
x,y,z
-x,1/2+y,1/2-z
-x,-y,-z
x,1/2-y,1/2+z
loop_
_atom_site_type_symbol
_atom_site_label
_atom_site_fract_x
_atom_site_fract_y
_atom_site_fract_z
Si Si1 0.832194 0.970024 0.354149
Si Si2 0.263397 0.983110 0.944001
Si Si3 0.722655 0.846026 0.316664
Si Si4 0.859496 0.577057 0.190203
Si Si5 0.798206 0.250712 0.376659
Si Si6 0.281861 0.333731 0.553394
Si Si7 0.550428 0.104319 0.727702
O O1 0.783087 0.894541 0.375644
O O2 0.500000 0.000000 0.500000
O O3 0.966240 0.011388 0.374172
O O4 0.085810 0.981621 0.138554
O O5 0.517971 0.927847 0.818670
O O6 0.498453 0.039376 0.807387
O O7 0.000000 0.000000 0.000000
O O8 0.408514 0.806392 0.480198
O O9 0.675772 0.890388 0.248527
O O10 0.978708 0.792738 0.172269
O O11 0.824344 0.612733 0.314032
O O12 0.101128 0.610342 0.991757
O O13 0.562944 0.300331 0.459506
O O14 0.015323 0.217634 0.184656
O O15 0.410649 0.350757 0.381176
#
# Coordination Sequence:
#
# PCOD9250834 Si02
#       7
#     4   4   4   4   4   4   4
#     4  12  22  42  75 105 144 190 229 293 371 432
#     4  12  25  43  66 109 147 182 230 288 361 438
#     4  11  23  44  72  99 137 188 236 291 358 414
#     4  12  25  47  71 106 153 188 231 301 363 439
#     4  10  24  47  71  95 138 192 240 296 349 424
#     4  11  24  46  72 101 140 188 244 292 366 417
#     4  12  25  43  71 106 142 184 236 290 359 435
#
# _framework density 22.011019000000001
#
# number of rings (size 3 to 8) (size 9 to 14) (size 15 to 20)
#    0.000    0.571    5.714    1.714    2.000    1.143 
#    0.000    0.000    0.000    0.000    0.000    0.000 
#    0.000    0.000    0.000    0.000    0.000    0.000 
#
# Total GULP energy -155899.212925 kJ/mol
# GULP energy per Si atom -5567.829033 kJ/mol
# Density = 2.196092 g / cm^3
# Si number density = 22.011019 Si / 1000 Ang^3
#
#
#
# Elastic Constant Matrix: (Units=GPa)
#
#
# Indices 1 2 3 4 5 6 
#
# 1 -7.7990 21.7372 16.0040 0.0000 -39.3071 0.0000
# 2 21.7372 79.9019 32.4460 0.0000 -15.8014 0.0000
# 3 16.0040 32.4460 141.1726 0.0000 -18.8314 0.0000
# 4 0.0000 0.0000 0.0000 46.4102 0.0000 -10.2821
# 5 -39.3071 -15.8014 -18.8314 0.0000 21.6609 0.0000
# 6 0.0000 0.0000 0.0000 -10.2821 0.0000 29.1158
#
#
#
# Elastic Compliance Matrix: (Units=1/GPa)
#
#
# Indices 1 2 3 4 5 6 
#
# 1 -0.012189 -0.000783 -0.001657 0.000000 -0.024130 0.000000
# 2 -0.000783 0.015200 -0.002393 0.000000 0.007587 0.000000
# 3 -0.001657 -0.002393 0.008130 0.000000 0.002316 0.000000
# 4 0.000000 0.000000 0.000000 0.023376 0.000000 0.008255
# 5 -0.024130 0.007587 0.002316 0.000000 0.009926 0.000000
# 6 0.000000 0.000000 0.000000 0.008255 0.000000 0.037261
#
#
# Mechanical properties :
#
#
# Convention : Reuss Voigt Hill
#
# Bulk Modulus (GPa) = 677.41328 39.29445 358.35387
# Shear Modulus (GPa) = 54.42889 28.97661 41.70275
#
# Velocity S-wave (km/s) = 4.97812 3.63224 4.35746
# Velocity P-wave (km/s) = 18.47894 5.95666 13.72868
#
# Compressibility (1/GPa) = 0.00147620
#
# Stress axis : x y z
#
# Youngs Moduli (GPa) = -82.04372 65.78742 122.99813
#
# Poissons Ratio (x) = 0.05153 0.20381
# Poissons Ratio (y) = -0.06426 0.29430
# Poissons Ratio (z) = -0.13595 0.15741
#
# Static dielectric constant tensor:
#      x y z
#    x 1.865760 0.000000 0.041940 
#    y 0.000000 1.950430 0.000000 
#    z 0.041940 0.000000 2.075570 
# 
# From -- ./inp_files/16917.got.cif
#   From: 2010.05.17/outbox.cif.g08.bks.cpg/sg14_9_cif.got.tgz:16917.got - 2010.06.03 17:49:19.
