data_PCOD9250507
_publ_section_title
;
Structure prediction by ZEFSAII (Michael W. Deem and Ramdas Pophale) SiO2 
 PCOD9250507
Probable space group: P 21/C
;
_chemical_formula_sum "Si O2"
_cell_formula_units_Z 24
_cell_length_a 11.743654
_cell_length_b 11.794165
_cell_length_c 23.426749
_cell_angle_alpha 90.000000
_cell_angle_beta 19.633530
_cell_angle_gamma 90.000000
_cell_volume 1090.248214
_symmetry_space_group_name_H-M "P 21/C"
_symmetry_group_IT_number 14
_symmetry_cell_setting 'monoclinic'
loop_
_space_group_symop_operation_xyz
x,y,z
-x,1/2+y,1/2-z
-x,-y,-z
x,1/2-y,1/2+z
loop_
_atom_site_type_symbol
_atom_site_label
_atom_site_fract_x
_atom_site_fract_y
_atom_site_fract_z
Si Si1 0.228508 0.548564 0.673233
Si Si2 0.543265 0.921272 0.631208
Si Si3 0.264364 0.683894 0.761974
Si Si4 0.453250 0.358962 0.641247
Si Si5 0.821646 0.885377 0.261671
Si Si6 0.403267 0.999318 0.818741
O O1 0.500000 0.500000 0.500000
O O2 0.366876 0.646863 0.649391
O O3 0.184170 0.441713 0.736640
O O4 0.922898 0.597671 0.779997
O O5 0.286095 0.816895 0.760629
O O6 0.576464 0.984837 0.675759
O O7 0.888648 0.863324 0.448698
O O8 0.398063 0.009023 0.654689
O O9 0.493302 0.614735 0.698367
O O10 0.360155 0.231311 0.669481
O O11 0.476756 0.397530 0.695858
O O12 0.825076 0.385377 0.440343
O O13 0.000000 0.000000 0.000000
#
# Coordination Sequence:
#
# PCOD9250507 Si02
#       6
#     4   4   4   4   4   4
#     4   9  23  46  71  96 138 183 235 286 358 412
#     4  12  27  43  72 104 143 187 238 289 360 419
#     4  11  27  45  70 105 142 187 239 294 352 428
#     4  10  24  43  69 100 138 182 234 292 348 418
#     4  11  25  43  72 102 136 183 235 289 357 417
#     4  11  23  47  71  98 143 189 233 292 356 415
#
# _framework density 22.013335000000001
#
# number of rings (size 3 to 8) (size 9 to 14) (size 15 to 20)
#    0.000    1.333    1.667    1.500   14.000    3.333 
#    0.000    0.000    0.000    0.000    0.000    0.000 
#    0.000    0.000    0.000    0.000    0.000    0.000 
#
# Total GULP energy -134225.860600 kJ/mol
# GULP energy per Si atom -5592.744192 kJ/mol
# Density = 2.196323 g / cm^3
# Si number density = 22.013335 Si / 1000 Ang^3
#
#
#
# Elastic Constant Matrix: (Units=GPa)
#
#
# Indices 1 2 3 4 5 6 
#
# 1 133.4885 38.2522 -8.2432 0.0000 -7.0358 0.0000
# 2 38.2522 114.0449 -7.5692 0.0000 -29.5233 0.0000
# 3 -8.2432 -7.5692 51.1759 0.0000 -5.3462 0.0000
# 4 0.0000 0.0000 0.0000 38.6030 0.0000 -10.5094
# 5 -7.0358 -29.5233 -5.3462 0.0000 27.5535 0.0000
# 6 0.0000 0.0000 0.0000 -10.5094 0.0000 24.4679
#
#
#
# Elastic Compliance Matrix: (Units=1/GPa)
#
#
# Indices 1 2 3 4 5 6 
#
# 1 0.008348 -0.002980 0.000809 0.000000 -0.000905 0.000000
# 2 -0.002980 0.013741 0.003073 0.000000 0.014559 0.000000
# 3 0.000809 0.003073 0.020915 0.000000 0.007558 0.000000
# 4 0.000000 0.000000 0.000000 0.029335 0.000000 0.012600
# 5 -0.000905 0.014559 0.007558 0.000000 0.053128 0.000000
# 6 0.000000 0.000000 0.000000 0.012600 0.000000 0.046282
#
#
# Mechanical properties :
#
#
# Convention : Reuss Voigt Hill
#
# Bulk Modulus (GPa) = 22.31779 38.17654 30.24717
# Shear Modulus (GPa) = 27.04464 36.54287 31.79376
#
# Velocity S-wave (km/s) = 3.50888 4.07877 3.80451
# Velocity P-wave (km/s) = 5.15525 6.28983 5.75059
#
# Compressibility (1/GPa) = 0.04480730
#
# Stress axis : x y z
#
# Youngs Moduli (GPa) = 119.79442 72.77508 47.81293
#
# Poissons Ratio (x) = 0.21690 -0.03869
# Poissons Ratio (y) = 0.35704 -0.14694
# Poissons Ratio (z) = -0.09694 -0.22365
#
# Static dielectric constant tensor:
#      x y z
#    x 1.808560 0.000000 0.022200 
#    y 0.000000 1.804290 0.000000 
#    z 0.022200 0.000000 1.858180 
# 
# From -- ./inp_files/73269.got.cif
#   From: 2010.05.17/outbox.cif.g08.bks.cpg/sg14_37_cif.got.tgz:73269.got - 2010.06.03 17:49:19.
