data_PCOD9250334
_publ_section_title
;
Structure prediction by ZEFSAII (Michael W. Deem and Ramdas Pophale) SiO2 
 PCOD9250334
Probable space group: P 21/C
;
_chemical_formula_sum "Si O2"
_cell_formula_units_Z 28
_cell_length_a 10.082844
_cell_length_b 15.053957
_cell_length_c 9.813367
_cell_angle_alpha 90.000000
_cell_angle_beta 48.726228
_cell_angle_gamma 90.000000
_cell_volume 1119.486831
_symmetry_space_group_name_H-M "P 21/C"
_symmetry_group_IT_number 14
_symmetry_cell_setting 'monoclinic'
loop_
_space_group_symop_operation_xyz
x,y,z
-x,1/2+y,1/2-z
-x,-y,-z
x,1/2-y,1/2+z
loop_
_atom_site_type_symbol
_atom_site_label
_atom_site_fract_x
_atom_site_fract_y
_atom_site_fract_z
Si Si1 0.614811 0.270164 0.689031
Si Si2 0.164633 0.805306 0.212054
Si Si3 0.971639 0.619195 0.300005
Si Si4 0.724436 0.807366 0.169506
Si Si5 0.125287 0.389321 0.925644
Si Si6 0.549831 0.550125 0.152302
Si Si7 0.220435 0.016460 0.755461
O O1 0.726998 0.323420 0.499021
O O2 0.721123 0.214663 0.728961
O O3 0.483649 0.206518 0.694131
O O4 0.496420 0.345691 0.843307
O O5 0.085955 0.708249 0.231206
O O6 0.015693 0.876349 0.356778
O O7 0.785211 0.654518 0.481880
O O8 0.965461 0.582575 0.152442
O O9 0.055775 0.547297 0.344940
O O10 0.811977 0.712748 0.137753
O O11 0.803937 0.878352 0.219548
O O12 0.303845 0.444537 0.829019
O O13 0.356950 0.506293 0.285227
O O14 0.659861 0.502129 0.959500
#
# Coordination Sequence:
#
# PCOD9250334 Si02
#       7
#     4   4   4   4   4   4   4
#     4  11  22  41  69 105 133 179 232 285 338 406
#     4  11  22  39  71 101 139 173 235 285 339 403
#     4  11  23  43  66 102 136 180 227 284 347 409
#     4  10  25  39  71  98 134 175 235 280 336 410
#     4  10  24  43  68 100 135 178 233 283 337 404
#     4  10  24  41  68  93 136 175 225 277 342 409
#     4  11  23  44  70  96 138 181 226 279 356 411
#
# _framework density 25.011462000000002
#
# number of rings (size 3 to 8) (size 9 to 14) (size 15 to 20)
#    0.000    1.429    2.857    1.286   12.000    0.571 
#    2.571    0.714    0.000    0.000    0.000    0.000 
#    0.000    0.000    0.000    0.000    0.000    0.000 
#
# Total GULP energy -156468.047663 kJ/mol
# GULP energy per Si atom -5588.144559 kJ/mol
# Density = 2.495453 g / cm^3
# Si number density = 25.011462 Si / 1000 Ang^3
#
#
#
# Elastic Constant Matrix: (Units=GPa)
#
#
# Indices 1 2 3 4 5 6 
#
# 1 119.2256 30.1129 27.9083 0.0000 0.2446 0.0000
# 2 30.1129 79.0834 15.1716 0.0000 1.7466 0.0000
# 3 27.9083 15.1716 75.5176 0.0000 4.6767 0.0000
# 4 0.0000 0.0000 0.0000 31.2075 0.0000 -4.0356
# 5 0.2446 1.7466 4.6767 0.0000 19.4003 0.0000
# 6 0.0000 0.0000 0.0000 -4.0356 0.0000 19.3023
#
#
#
# Elastic Compliance Matrix: (Units=1/GPa)
#
#
# Indices 1 2 3 4 5 6 
#
# 1 0.009915 -0.003205 -0.003076 0.000000 0.000905 0.000000
# 2 -0.003205 0.014194 -0.001614 0.000000 -0.000848 0.000000
# 3 -0.003076 -0.001614 0.014914 0.000000 -0.003411 0.000000
# 4 0.000000 0.000000 0.000000 0.032934 0.000000 0.006886
# 5 0.000905 -0.000848 -0.003411 0.000000 0.052433 0.000000
# 6 0.000000 0.000000 0.000000 0.006886 0.000000 0.053247
#
#
# Mechanical properties :
#
#
# Convention : Reuss Voigt Hill
#
# Bulk Modulus (GPa) = 43.04548 46.69023 44.86786
# Shear Modulus (GPa) = 24.85416 27.35760 26.10588
#
# Velocity S-wave (km/s) = 3.15574 3.31086 3.23423
# Velocity P-wave (km/s) = 5.52503 5.77267 5.65021
#
# Compressibility (1/GPa) = 0.02323124
#
# Stress axis : x y z
#
# Youngs Moduli (GPa) = 100.85431 70.45315 67.04897
#
# Poissons Ratio (x) = 0.22582 0.20627
# Poissons Ratio (y) = 0.32327 0.10825
# Poissons Ratio (z) = 0.31027 0.11375
#
# Static dielectric constant tensor:
#      x y z
#    x 1.994130 0.000000 -0.019670 
#    y 0.000000 1.961660 0.000000 
#    z -0.019670 0.000000 2.055110 
# 
# From -- ./inp_files/14124.got.cif
#   From: 2010.05.17/outbox.cif.g08.bks.cpg/sg14_8_cif.got.tgz:14124.got - 2010.06.03 17:49:19.
