data_PCOD9250233
_publ_section_title
;
Structure prediction by ZEFSAII (Michael W. Deem and Ramdas Pophale) SiO2 
 PCOD9250233
Probable space group: P 21/C
;
_chemical_formula_sum "Si O2"
_cell_formula_units_Z 28
_cell_length_a 15.802845
_cell_length_b 19.744755
_cell_length_c 9.270934
_cell_angle_alpha 90.000000
_cell_angle_beta 28.358404
_cell_angle_gamma 90.000000
_cell_volume 1374.013006
_symmetry_space_group_name_H-M "P 21/C"
_symmetry_group_IT_number 14
_symmetry_cell_setting 'monoclinic'
loop_
_space_group_symop_operation_xyz
x,y,z
-x,1/2+y,1/2-z
-x,-y,-z
x,1/2-y,1/2+z
loop_
_atom_site_type_symbol
_atom_site_label
_atom_site_fract_x
_atom_site_fract_y
_atom_site_fract_z
Si Si1 0.855126 0.838268 0.915533
Si Si2 0.855127 0.338268 0.519089
Si Si3 0.500000 0.925549 0.424949
Si Si4 0.499999 0.983178 0.831578
Si Si5 0.117358 0.044877 0.716528
Si Si6 0.882643 0.455124 0.068598
Si Si7 1.000000 0.749999 0.957860
O O1 0.014966 0.888074 0.629345
O O2 0.906210 0.802771 0.989302
O O3 0.857517 0.784245 0.780541
O O4 0.675974 0.882194 0.193017
O O5 0.857517 0.284243 0.646907
O O6 0.906210 0.302773 0.292069
O O7 0.014968 0.388073 0.325759
O O8 0.675976 0.382195 0.779062
O O9 0.500000 0.000000 0.500000
O O10 0.500003 0.946943 0.256845
O O11 0.683721 0.944914 0.521763
O O12 0.316278 0.944913 0.072929
O O13 0.500000 0.000000 0.000000
O O14 0.133555 0.000001 0.549668
O O15 0.000000 0.000000 0.000000
O O16 0.000000 0.500000 0.000000
#
# Coordination Sequence:
#
# PCOD9250233 Si02
#       7
#     4   4   4   4   4   4   4
#     4  11  24  45  67  95 136 172 232 268 322 412
#     4  11  24  45  67  95 136 172 232 268 322 412
#     4  12  26  42  69 107 131 165 219 288 352 390
#     4  10  24  38  59 105 127 169 202 254 368 384
#     4  11  21  38  65  96 133 166 206 281 340 388
#     4  11  21  38  65  96 133 166 206 281 340 388
#     4  10  26  46  66  90 126 202 220 262 326 382
#
# _framework density 20.378264999999999
#
# number of rings (size 3 to 8) (size 9 to 14) (size 15 to 20)
#    0.000    1.143    2.857    2.571    8.000    1.143 
#    0.000    5.714    0.000    0.000    0.000    0.000 
#    0.000    0.000    0.000    0.000    0.000    0.000 
#
# Total GULP energy -156436.965809 kJ/mol
# GULP energy per Si atom -5587.034493 kJ/mol
# Density = 2.033188 g / cm^3
# Si number density = 20.378265 Si / 1000 Ang^3
#
#
#
# Elastic Constant Matrix: (Units=GPa)
#
#
# Indices 1 2 3 4 5 6 
#
# 1 116.2311 47.9975 67.7031 0.0000 11.7379 0.0000
# 2 47.9975 98.8503 55.7107 0.0000 -5.7296 0.0000
# 3 67.7031 55.7107 142.8883 0.0000 -31.5389 0.0000
# 4 0.0000 0.0000 0.0000 42.2739 0.0000 6.2058
# 5 11.7379 -5.7296 -31.5389 0.0000 48.5056 0.0000
# 6 0.0000 0.0000 0.0000 6.2058 0.0000 50.6297
#
#
#
# Elastic Compliance Matrix: (Units=1/GPa)
#
#
# Indices 1 2 3 4 5 6 
#
# 1 0.015862 -0.003624 -0.008225 0.000000 -0.009614 0.000000
# 2 -0.003624 0.013970 -0.003704 0.000000 0.000119 0.000000
# 3 -0.008225 -0.003704 0.014807 0.000000 0.011181 0.000000
# 4 0.000000 0.000000 0.000000 0.024089 0.000000 -0.002953
# 5 -0.009614 0.000119 0.011181 0.000000 0.030227 0.000000
# 6 0.000000 0.000000 0.000000 -0.002953 0.000000 0.020113
#
#
# Mechanical properties :
#
#
# Convention : Reuss Voigt Hill
#
# Bulk Modulus (GPa) = 73.88250 77.86583 75.87416
# Shear Modulus (GPa) = 32.32410 40.71908 36.52159
#
# Velocity S-wave (km/s) = 3.98704 4.47493 4.23801
# Velocity P-wave (km/s) = 7.58482 8.06184 7.82696
#
# Compressibility (1/GPa) = 0.01353501
#
# Stress axis : x y z
#
# Youngs Moduli (GPa) = 63.04485 71.58226 67.53371
#
# Poissons Ratio (x) = 0.25939 0.55546
# Poissons Ratio (y) = 0.22845 0.25011
# Poissons Ratio (z) = 0.51854 0.26511
#
# Static dielectric constant tensor:
#      x y z
#    x 1.766670 0.000000 0.002060 
#    y 0.000000 1.729850 0.000000 
#    z 0.002060 0.000000 1.763900 
# 
# From -- ./inp_files/16909.got.cif
#   From: 2010.05.17/outbox.cif.g08.bks.cpg/sg14_9_cif.got.tgz:16909.got - 2010.06.03 17:49:19.
