data_PCOD9250294
_publ_section_title
;
Structure prediction by ZEFSAII (Michael W. Deem and Ramdas Pophale) SiO2 
 PCOD9250294
Probable space group: P 21/C
;
_chemical_formula_sum "Si O2"
_cell_formula_units_Z 20
_cell_length_a 17.973791
_cell_length_b 5.047116
_cell_length_c 9.199302
_cell_angle_alpha 90.000000
_cell_angle_beta 96.164852
_cell_angle_gamma 90.000000
_cell_volume 829.696098
_symmetry_space_group_name_H-M "P 21/C"
_symmetry_group_IT_number 14
_symmetry_cell_setting 'monoclinic'
loop_
_space_group_symop_operation_xyz
x,y,z
-x,1/2+y,1/2-z
-x,-y,-z
x,1/2-y,1/2+z
loop_
_atom_site_type_symbol
_atom_site_label
_atom_site_fract_x
_atom_site_fract_y
_atom_site_fract_z
Si Si1 0.174456 0.690911 0.584829
Si Si2 0.024827 0.922522 0.668326
Si Si3 0.223396 0.312944 0.951933
Si Si4 0.301463 0.997842 0.721465
Si Si5 0.528616 0.061068 0.168530
O O1 0.105858 0.789559 0.664840
O O2 0.170783 0.398308 0.522980
O O3 0.182644 0.906347 0.455996
O O4 0.253936 0.732128 0.682600
O O5 0.976718 0.689253 0.735177
O O6 0.000000 0.000000 0.500000
O O7 0.298856 0.362074 0.063604
O O8 0.249411 0.177871 0.811730
O O9 0.381526 0.950767 0.804737
O O10 0.497853 0.842234 0.274819
O O11 0.500000 0.000000 0.000000
#
# Coordination Sequence:
#
# PCOD9250294 Si02
#       5
#     4   4   4   4   4
#     4  10  26  41  72  95 140 172 239 272 346 405
#     4  12  28  46  72 104 147 186 234 291 359 419
#     4  10  24  40  69  99 128 175 230 283 329 399
#     4  10  26  42  74  93 141 172 239 271 349 400
#     4  12  28  47  71 105 146 186 234 291 359 420
#
# _framework density 24.10521
#
# number of rings (size 3 to 8) (size 9 to 14) (size 15 to 20)
#    1.200    0.000    0.000    3.600   14.000    0.000 
#    0.000    0.000    0.000    0.000    0.000    0.000 
#    0.000    0.000    0.000    0.000    0.000    0.000 
#
# Total GULP energy -111863.438611 kJ/mol
# GULP energy per Si atom -5593.171931 kJ/mol
# Density = 2.405035 g / cm^3
# Si number density = 24.105210 Si / 1000 Ang^3
#
#
#
# Elastic Constant Matrix: (Units=GPa)
#
#
# Indices 1 2 3 4 5 6 
#
# 1 102.1995 19.6093 30.5378 0.0000 11.5741 0.0000
# 2 19.6093 102.3821 15.6923 0.0000 7.6296 0.0000
# 3 30.5378 15.6923 101.3385 0.0000 17.4165 0.0000
# 4 0.0000 0.0000 0.0000 44.9446 0.0000 -8.0228
# 5 11.5741 7.6296 17.4165 0.0000 36.1124 0.0000
# 6 0.0000 0.0000 0.0000 -8.0228 0.0000 29.8665
#
#
#
# Elastic Compliance Matrix: (Units=1/GPa)
#
#
# Indices 1 2 3 4 5 6 
#
# 1 0.011132 -0.001564 -0.002787 0.000000 -0.001893 0.000000
# 2 -0.001564 0.010299 -0.000911 0.000000 -0.001235 0.000000
# 3 -0.002787 -0.000911 0.011626 0.000000 -0.004521 0.000000
# 4 0.000000 0.000000 0.000000 0.023370 0.000000 0.006278
# 5 -0.001893 -0.001235 -0.004521 0.000000 0.030740 0.000000
# 6 0.000000 0.000000 0.000000 0.006278 0.000000 0.035169
#
#
# Mechanical properties :
#
#
# Convention : Reuss Voigt Hill
#
# Bulk Modulus (GPa) = 44.38062 48.62210 46.50136
# Shear Modulus (GPa) = 35.62014 38.19008 36.90511
#
# Velocity S-wave (km/s) = 3.84825 3.98465 3.91705
# Velocity P-wave (km/s) = 6.18034 6.43308 6.30797
#
# Compressibility (1/GPa) = 0.02253236
#
# Stress axis : x y z
#
# Youngs Moduli (GPa) = 89.83081 97.10097 86.01477
#
# Poissons Ratio (x) = 0.15185 0.23972
# Poissons Ratio (y) = 0.14048 0.07838
# Poissons Ratio (z) = 0.25036 0.08848
#
# Static dielectric constant tensor:
#      x y z
#    x 1.900670 0.000000 0.035610 
#    y 0.000000 1.881220 0.000000 
#    z 0.035610 0.000000 1.988190 
# 
# From -- ./inp_files/17240.got.cif
#   From: 2010.05.17/outbox.cif.g08.bks.cpg/sg14_9_cif.got.tgz:17240.got - 2010.06.03 17:49:19.
