data_PCOD9250495
_publ_section_title
;
Structure prediction by ZEFSAII (Michael W. Deem and Ramdas Pophale) SiO2 
 PCOD9250495
Probable space group: P 21/C
;
_chemical_formula_sum "Si O2"
_cell_formula_units_Z 28
_cell_length_a 6.069309
_cell_length_b 14.108027
_cell_length_c 15.521994
_cell_angle_alpha 90.000000
_cell_angle_beta 71.406557
_cell_angle_gamma 90.000000
_cell_volume 1259.714112
_symmetry_space_group_name_H-M "P 21/C"
_symmetry_group_IT_number 14
_symmetry_cell_setting 'monoclinic'
loop_
_space_group_symop_operation_xyz
x,y,z
-x,1/2+y,1/2-z
-x,-y,-z
x,1/2-y,1/2+z
loop_
_atom_site_type_symbol
_atom_site_label
_atom_site_fract_x
_atom_site_fract_y
_atom_site_fract_z
Si Si1 0.626221 0.107551 0.392062
Si Si2 0.095194 0.795058 0.131321
Si Si3 0.475469 0.071509 0.223058
Si Si4 0.750107 0.371819 0.200810
Si Si5 0.260650 0.955352 0.983217
Si Si6 0.790125 0.601150 0.929169
Si Si7 0.315978 0.238950 0.715518
O O1 0.801551 0.190838 0.395579
O O2 0.588669 0.111929 0.295140
O O3 0.377495 0.120936 0.470222
O O4 0.719433 0.002941 0.403748
O O5 0.163642 0.835809 0.216932
O O6 0.198448 0.863425 0.047097
O O7 0.817310 0.792826 0.180641
O O8 0.285894 0.148289 0.214437
O O9 0.376444 0.970165 0.262100
O O10 0.653045 0.062098 0.123701
O O11 0.581870 0.290163 0.189961
O O12 0.931888 0.395836 0.101839
O O13 0.500000 0.000000 0.000000
O O14 0.000000 0.000000 0.000000
O O15 0.754041 0.681499 0.860752
#
# Coordination Sequence:
#
# PCOD9250495 Si02
#       7
#     4   4   4   4   4   4   4
#     4  11  23  44  68 102 137 184 232 292 361 431
#     4  11  24  45  70 102 143 186 241 297 366 435
#     4  12  24  44  71 102 138 186 246 292 371 433
#     4  11  22  43  69  97 138 179 233 296 357 427
#     4  12  28  48  77 109 148 197 245 310 371 436
#     4  10  24  43  67  95 139 175 230 292 354 430
#     4  11  23  44  68 100 134 187 233 296 355 434
#
# _framework density 22.227264000000002
#
# number of rings (size 3 to 8) (size 9 to 14) (size 15 to 20)
#    0.000    0.857    4.286    2.571    2.000    1.714 
#    7.714    0.000    0.000    0.000    0.000    0.000 
#    0.000    0.000    0.000    0.000    0.000    0.000 
#
# Total GULP energy -156214.840235 kJ/mol
# GULP energy per Si atom -5579.101437 kJ/mol
# Density = 2.217667 g / cm^3
# Si number density = 22.227264 Si / 1000 Ang^3
#
#
#
# Elastic Constant Matrix: (Units=GPa)
#
#
# Indices 1 2 3 4 5 6 
#
# 1 45.7430 13.6204 45.7064 0.0000 -11.7371 0.0000
# 2 13.6204 86.8453 24.6894 0.0000 1.9464 0.0000
# 3 45.7064 24.6894 174.8790 0.0000 -28.6278 0.0000
# 4 0.0000 0.0000 0.0000 -0.8805 0.0000 -2.6387
# 5 -11.7371 1.9464 -28.6278 0.0000 35.9311 0.0000
# 6 0.0000 0.0000 0.0000 -2.6387 0.0000 23.9978
#
#
#
# Elastic Compliance Matrix: (Units=1/GPa)
#
#
# Indices 1 2 3 4 5 6 
#
# 1 0.030824 -0.002993 -0.006852 0.000000 0.004771 0.000000
# 2 -0.002993 0.012454 -0.001433 0.000000 -0.002794 0.000000
# 3 -0.006852 -0.001433 0.008461 0.000000 0.004581 0.000000
# 4 0.000000 0.000000 0.000000 -0.854229 0.000000 -0.093926
# 5 0.004771 -0.002794 0.004581 0.000000 0.033191 0.000000
# 6 0.000000 0.000000 0.000000 -0.093926 0.000000 0.031343
#
#
# Mechanical properties :
#
#
# Convention : Reuss Voigt Hill
#
# Bulk Modulus (GPa) = 34.26839 52.83330 43.55084
# Shear Modulus (GPa) = -7.08546 26.70644 9.81049
#
# Velocity S-wave (km/s) = -1.78736 3.47005 2.10316
# Velocity P-wave (km/s) = 3.34533 6.31476 5.05309
#
# Compressibility (1/GPa) = 0.02918141
#
# Stress axis : x y z
#
# Youngs Moduli (GPa) = 32.44257 80.29347 118.18296
#
# Poissons Ratio (x) = 0.24033 0.80984
# Poissons Ratio (y) = 0.09710 0.16941
# Poissons Ratio (z) = 0.22231 0.11510
#
# Static dielectric constant tensor:
#      x y z
#    x 1.966250 0.000000 -0.034230 
#    y 0.000000 1.849990 0.000000 
#    z -0.034230 0.000000 1.766710 
# 
# From -- ./inp_files/53390.got.cif
#   From: 2010.05.17/outbox.cif.g08.bks.cpg/sg14_27_cif.got.tgz:53390.got - 2010.06.03 17:49:19.
