data_PCOD9250990
_publ_section_title
;
Structure prediction by ZEFSAII (Michael W. Deem and Ramdas Pophale) SiO2 
 PCOD9250990
Probable space group: P 21/C
;
_chemical_formula_sum "Si O2"
_cell_formula_units_Z 20
_cell_length_a 4.904277
_cell_length_b 22.022144
_cell_length_c 7.408919
_cell_angle_alpha 90.000000
_cell_angle_beta 66.728739
_cell_angle_gamma 90.000000
_cell_volume 735.084043
_symmetry_space_group_name_H-M "P 21/C"
_symmetry_group_IT_number 14
_symmetry_cell_setting 'monoclinic'
loop_
_space_group_symop_operation_xyz
x,y,z
-x,1/2+y,1/2-z
-x,-y,-z
x,1/2-y,1/2+z
loop_
_atom_site_type_symbol
_atom_site_label
_atom_site_fract_x
_atom_site_fract_y
_atom_site_fract_z
Si Si1 0.752628 0.927358 0.803749
Si Si2 0.936326 0.316981 0.371491
Si Si3 0.646704 0.120920 0.411170
Si Si4 0.231102 0.935139 0.228349
Si Si5 0.452847 0.734341 0.835688
O O1 0.023629 0.881540 0.760281
O O2 0.580627 0.911169 0.664399
O O3 0.875659 0.995994 0.755581
O O4 0.524429 0.928589 0.028437
O O5 0.658430 0.300131 0.572929
O O6 0.810764 0.291271 0.216620
O O7 0.231886 0.279697 0.337139
O O8 0.987259 0.387085 0.311204
O O9 0.693512 0.084769 0.588082
O O10 0.548582 0.188527 0.491697
#
# Coordination Sequence:
#
# PCOD9250990 Si02
#       5
#     4   4   4   4   4
#     4  11  25  42  72  99 135 186 217 280 348 406
#     4  11  25  43  67  96 136 170 227 281 333 402
#     4  11  24  43  68  98 139 174 231 274 345 402
#     4  10  25  44  67 103 137 174 234 278 337 407
#     4  11  25  43  68  99 130 179 223 279 345 393
#
# _framework density 27.207777
#
# number of rings (size 3 to 8) (size 9 to 14) (size 15 to 20)
#    0.000    1.200    0.000    4.800    5.600   11.200 
#    0.000    0.000    0.000    0.000    0.000    0.000 
#    0.000    0.000    0.000    0.000    0.000    0.000 
#
# Total GULP energy -112224.212640 kJ/mol
# GULP energy per Si atom -5611.210632 kJ/mol
# Density = 2.714585 g / cm^3
# Si number density = 27.207777 Si / 1000 Ang^3
#
#
#
# Elastic Constant Matrix: (Units=GPa)
#
#
# Indices 1 2 3 4 5 6 
#
# 1 135.7898 31.1970 11.3781 0.0000 -10.3458 0.0000
# 2 31.1970 108.6601 19.3575 0.0000 -8.8896 0.0000
# 3 11.3781 19.3575 102.2207 0.0000 -6.6712 0.0000
# 4 0.0000 0.0000 0.0000 43.9970 0.0000 -6.8554
# 5 -10.3458 -8.8896 -6.6712 0.0000 49.0527 0.0000
# 6 0.0000 0.0000 0.0000 -6.8554 0.0000 38.5055
#
#
#
# Elastic Compliance Matrix: (Units=1/GPa)
#
#
# Indices 1 2 3 4 5 6 
#
# 1 0.007979 -0.002117 -0.000406 0.000000 0.001244 0.000000
# 2 -0.002117 0.010196 -0.001618 0.000000 0.001181 0.000000
# 3 -0.000406 -0.001618 0.010200 0.000000 0.001008 0.000000
# 4 0.000000 0.000000 0.000000 0.023377 0.000000 0.004162
# 5 0.001244 0.001181 0.001008 0.000000 0.021000 0.000000
# 6 0.000000 0.000000 0.000000 0.004162 0.000000 0.026711
#
#
# Mechanical properties :
#
#
# Convention : Reuss Voigt Hill
#
# Bulk Modulus (GPa) = 49.76784 52.28178 51.02481
# Shear Modulus (GPa) = 43.68967 45.29358 44.49162
#
# Velocity S-wave (km/s) = 4.01156 4.08454 4.04821
# Velocity P-wave (km/s) = 6.30780 6.44221 6.37536
#
# Compressibility (1/GPa) = 0.02009330
#
# Stress axis : x y z
#
# Youngs Moduli (GPa) = 125.32162 98.08102 98.03749
#
# Poissons Ratio (x) = 0.20762 0.03982
# Poissons Ratio (y) = 0.26528 0.15863
# Poissons Ratio (z) = 0.05090 0.15870
#
# Static dielectric constant tensor:
#      x y z
#    x 1.988090 0.000000 0.016240 
#    y 0.000000 2.136630 0.000000 
#    z 0.016240 0.000000 2.199890 
# 
# From -- ./inp_files/6649.got.cif
#   From: 2010.05.17/outbox.cif.g08.bks.cpg/sg14_4_cif.got.tgz:6649.got - 2010.06.03 17:49:19.
