data_PCOD9250082
_publ_section_title
;
Structure prediction by ZEFSAII (Michael W. Deem and Ramdas Pophale) SiO2 
 PCOD9250082
Probable space group: P 21/C
;
_chemical_formula_sum "Si O2"
_cell_formula_units_Z 28
_cell_length_a 5.286715
_cell_length_b 12.560996
_cell_length_c 18.546304
_cell_angle_alpha 90.000000
_cell_angle_beta 111.102242
_cell_angle_gamma 90.000000
_cell_volume 1149.002059
_symmetry_space_group_name_H-M "P 21/C"
_symmetry_group_IT_number 14
_symmetry_cell_setting 'monoclinic'
loop_
_space_group_symop_operation_xyz
x,y,z
-x,1/2+y,1/2-z
-x,-y,-z
x,1/2-y,1/2+z
loop_
_atom_site_type_symbol
_atom_site_label
_atom_site_fract_x
_atom_site_fract_y
_atom_site_fract_z
Si Si1 0.006720 0.266381 0.724802
Si Si2 0.133108 0.254527 0.073269
Si Si3 0.477219 0.391548 0.309463
Si Si4 0.428412 0.608341 0.841802
Si Si5 0.311283 0.037427 0.044673
Si Si6 0.872769 0.584301 0.136121
Si Si7 0.700555 0.304178 0.917550
O O1 0.103923 0.281695 0.653103
O O2 0.186474 0.169208 0.777493
O O3 0.030276 0.368936 0.776911
O O4 0.705693 0.222261 0.688265
O O5 0.295671 0.365126 0.089539
O O6 0.294077 0.163887 0.047593
O O7 0.847914 0.266394 0.004614
O O8 0.520473 0.434790 0.233149
O O9 0.548225 0.485663 0.370973
O O10 0.666225 0.294290 0.358060
O O11 0.219987 0.536825 0.864374
O O12 0.500000 0.000000 0.000000
O O13 0.000000 0.000000 0.000000
O O14 0.591231 0.647397 0.094176
O O15 0.102075 0.612320 0.102210
#
# Coordination Sequence:
#
# PCOD9250082 Si02
#       7
#     4   4   4   4   4   4   4
#     4  10  24  45  71 100 144 191 235 297 352 435
#     4  11  27  45  69 108 144 182 242 300 359 430
#     4  10  23  46  70 104 143 187 237 296 364 428
#     4  11  25  44  74 102 144 194 241 298 354 432
#     4  12  28  44  76 110 142 187 235 304 373 428
#     4  11  26  46  72 100 139 193 241 287 363 427
#     4  11  25  45  72 100 142 186 236 298 356 426
#
# _framework density 24.368973
#
# number of rings (size 3 to 8) (size 9 to 14) (size 15 to 20)
#    0.000    1.143    2.857    0.857   14.000    2.286 
#    0.000    0.000    0.000    0.000    0.000    0.000 
#    0.000    0.000    0.000    0.000    0.000    0.000 
#
# Total GULP energy -156826.158380 kJ/mol
# GULP energy per Si atom -5600.934228 kJ/mol
# Density = 2.431351 g / cm^3
# Si number density = 24.368973 Si / 1000 Ang^3
#
#
#
# Elastic Constant Matrix: (Units=GPa)
#
#
# Indices 1 2 3 4 5 6 
#
# 1 74.7102 5.3581 23.8600 0.0000 1.3788 0.0000
# 2 5.3581 66.2384 29.9854 0.0000 4.3331 0.0000
# 3 23.8600 29.9854 90.8627 0.0000 23.6754 0.0000
# 4 0.0000 0.0000 0.0000 33.0985 0.0000 -3.0351
# 5 1.3788 4.3331 23.6754 0.0000 30.2092 0.0000
# 6 0.0000 0.0000 0.0000 -3.0351 0.0000 30.4223
#
#
#
# Elastic Compliance Matrix: (Units=1/GPa)
#
#
# Indices 1 2 3 4 5 6 
#
# 1 0.014862 0.000856 -0.004997 0.000000 0.003115 0.000000
# 2 0.000856 0.017958 -0.006873 0.000000 0.002772 0.000000
# 3 -0.004997 -0.006873 0.017931 0.000000 -0.012839 0.000000
# 4 0.000000 0.000000 0.000000 0.030492 0.000000 0.003042
# 5 0.003115 0.002772 -0.012839 0.000000 0.042625 0.000000
# 6 0.000000 0.000000 0.000000 0.003042 0.000000 0.033174
#
#
# Mechanical properties :
#
#
# Convention : Reuss Voigt Hill
#
# Bulk Modulus (GPa) = 34.81509 38.91314 36.86411
# Shear Modulus (GPa) = 26.50486 30.25317 28.37902
#
# Velocity S-wave (km/s) = 3.30153 3.52726 3.41626
# Velocity P-wave (km/s) = 5.37132 5.70892 5.54269
#
# Compressibility (1/GPa) = 0.02872318
#
# Stress axis : x y z
#
# Youngs Moduli (GPa) = 67.28578 55.68593 55.76823
#
# Poissons Ratio (x) = -0.04767 0.27866
# Poissons Ratio (y) = -0.05760 0.38331
# Poissons Ratio (z) = 0.33621 0.38274
#
# Static dielectric constant tensor:
#      x y z
#    x 1.914330 0.000000 0.009410 
#    y 0.000000 1.940010 0.000000 
#    z 0.009410 0.000000 1.927650 
# 
# From -- ./inp_files/53371.got.cif
#   From: 2010.05.17/outbox.cif.g08.bks.cpg/sg14_27_cif.got.tgz:53371.got - 2010.06.03 17:49:19.
