data_PCOD9250323
_publ_section_title
;
Structure prediction by ZEFSAII (Michael W. Deem and Ramdas Pophale) SiO2 
 PCOD9250323
Probable space group: P 21/C
;
_chemical_formula_sum "Si O2"
_cell_formula_units_Z 32
_cell_length_a 13.117897
_cell_length_b 17.437880
_cell_length_c 11.951288
_cell_angle_alpha 90.000000
_cell_angle_beta 146.838548
_cell_angle_gamma 90.000000
_cell_volume 1495.409191
_symmetry_space_group_name_H-M "P 21/C"
_symmetry_group_IT_number 14
_symmetry_cell_setting 'monoclinic'
loop_
_space_group_symop_operation_xyz
x,y,z
-x,1/2+y,1/2-z
-x,-y,-z
x,1/2-y,1/2+z
loop_
_atom_site_type_symbol
_atom_site_label
_atom_site_fract_x
_atom_site_fract_y
_atom_site_fract_z
Si Si1 0.110145 0.692584 0.624209
Si Si2 0.880864 0.315052 0.618705
Si Si3 0.213971 0.478996 0.173998
Si Si4 0.955249 0.034551 0.838045
Si Si5 0.806402 0.804267 0.425776
Si Si6 0.574479 0.208679 0.423196
Si Si7 0.265078 0.529385 0.461034
Si Si8 0.606458 0.463033 0.879409
O O1 0.111725 0.659713 0.501823
O O2 0.039724 0.626252 0.642805
O O3 0.964703 0.762511 0.495526
O O4 0.318177 0.710938 0.858469
O O5 0.738135 0.244699 0.496352
O O6 0.789235 0.382716 0.607276
O O7 0.086245 0.302217 0.856317
O O8 0.228311 0.391393 0.144632
O O9 0.307394 0.490942 0.381018
O O10 0.287728 0.533351 0.142557
O O11 0.000000 0.500000 0.000000
O O12 0.749610 0.012151 0.607029
O O13 0.000000 0.000000 0.000000
O O14 0.093220 0.009133 0.867145
O O15 0.614157 0.757473 0.250322
O O16 0.538722 0.121882 0.350357
O O17 0.436122 0.519928 0.702640
#
# Coordination Sequence:
#
# PCOD9250323 Si02
#       8
#     4   4   4   4   4   4   4   4
#     4  10  24  41  65  95 132 179 223 288 342 407
#     4  11  23  41  67  94 134 174 224 286 344 407
#     4  12  24  43  73 101 140 184 229 290 345 409
#     4  11  22  43  66  96 137 181 230 285 347 413
#     4  11  24  45  67  98 135 180 232 278 349 414
#     4  10  25  44  64  97 137 175 227 281 347 413
#     4  12  24  43  69 103 137 182 232 288 348 410
#     4  11  25  43  68 101 138 177 230 282 345 413
#
# _framework density 21.398826
#
# number of rings (size 3 to 8) (size 9 to 14) (size 15 to 20)
#    0.000    1.000    3.750    1.875    1.750    4.500 
#    2.250    0.000    0.000    0.000    0.000    0.000 
#    0.000    0.000    0.000    0.000    0.000    0.000 
#
# Total GULP energy -178788.163129 kJ/mol
# GULP energy per Si atom -5587.130098 kJ/mol
# Density = 2.135012 g / cm^3
# Si number density = 21.398826 Si / 1000 Ang^3
#
#
#
# Elastic Constant Matrix: (Units=GPa)
#
#
# Indices 1 2 3 4 5 6 
#
# 1 44.8413 28.0090 43.7818 0.0000 1.1083 0.0000
# 2 28.0090 67.2188 47.1392 0.0000 2.2332 0.0000
# 3 43.7818 47.1392 148.1322 0.0000 1.9726 0.0000
# 4 0.0000 0.0000 0.0000 30.5469 0.0000 5.9538
# 5 1.1083 2.2332 1.9726 0.0000 30.0444 0.0000
# 6 0.0000 0.0000 0.0000 5.9538 0.0000 33.1625
#
#
#
# Elastic Compliance Matrix: (Units=1/GPa)
#
#
# Indices 1 2 3 4 5 6 
#
# 1 0.035579 -0.009588 -0.007463 0.000000 -0.000110 0.000000
# 2 -0.009588 0.021766 -0.004079 0.000000 -0.000996 0.000000
# 3 -0.007463 -0.004079 0.010256 0.000000 -0.000095 0.000000
# 4 0.000000 0.000000 0.000000 0.033924 0.000000 -0.006090
# 5 -0.000110 -0.000996 -0.000095 0.000000 0.033368 0.000000
# 6 0.000000 0.000000 0.000000 -0.006090 0.000000 0.031248
#
#
# Mechanical properties :
#
#
# Convention : Reuss Voigt Hill
#
# Bulk Modulus (GPa) = 39.46305 55.33914 47.40109
# Shear Modulus (GPa) = 23.05756 28.16823 25.61290
#
# Velocity S-wave (km/s) = 3.28611 3.63208 3.46342
# Velocity P-wave (km/s) = 5.73409 6.59593 6.18005
#
# Compressibility (1/GPa) = 0.02534016
#
# Stress axis : x y z
#
# Youngs Moduli (GPa) = 28.10625 45.94372 97.50424
#
# Poissons Ratio (x) = 0.44050 0.72770
# Poissons Ratio (y) = 0.26948 0.39775
# Poissons Ratio (z) = 0.20976 0.18742
#
# Static dielectric constant tensor:
#      x y z
#    x 1.765960 0.000000 -0.001260 
#    y 0.000000 1.826750 0.000000 
#    z -0.001260 0.000000 1.821190 
# 
# From -- ./inp_files/33072.got.cif
#   From: 2010.05.17/outbox.cif.g08.bks.cpg/sg14_17_cif.got.tgz:33072.got - 2010.06.03 17:49:19.
