data_PCOD9250351
_publ_section_title
;
Structure prediction by ZEFSAII (Michael W. Deem and Ramdas Pophale) SiO2 
 PCOD9250351
Probable space group: P 21/C
;
_chemical_formula_sum "Si O2"
_cell_formula_units_Z 28
_cell_length_a 10.882867
_cell_length_b 14.093661
_cell_length_c 8.674972
_cell_angle_alpha 90.000000
_cell_angle_beta 125.645123
_cell_angle_gamma 90.000000
_cell_volume 1081.270916
_symmetry_space_group_name_H-M "P 21/C"
_symmetry_group_IT_number 14
_symmetry_cell_setting 'monoclinic'
loop_
_space_group_symop_operation_xyz
x,y,z
-x,1/2+y,1/2-z
-x,-y,-z
x,1/2-y,1/2+z
loop_
_atom_site_type_symbol
_atom_site_label
_atom_site_fract_x
_atom_site_fract_y
_atom_site_fract_z
Si Si1 0.201748 0.676796 0.917711
Si Si2 0.176488 0.320983 0.609008
Si Si3 0.581255 0.551780 0.798937
Si Si4 0.060073 0.841246 0.636959
Si Si5 0.489095 0.211267 0.522828
Si Si6 0.625093 0.903045 0.988492
Si Si7 0.113837 0.016437 0.296579
O O1 0.370775 0.677988 0.976368
O O2 0.105465 0.595292 0.759085
O O3 0.136360 0.779825 0.828073
O O4 0.171847 0.654059 0.074022
O O5 0.079250 0.225643 0.521074
O O6 0.229861 0.355569 0.480658
O O7 0.107880 0.409073 0.653265
O O8 0.332808 0.298375 0.814449
O O9 0.521543 0.648949 0.829853
O O10 0.441368 0.480525 0.676977
O O11 0.647872 0.557302 0.675574
O O12 0.716397 0.522483 0.009330
O O13 0.000802 0.940039 0.661577
O O14 0.497943 0.320570 0.576318
#
# Coordination Sequence:
#
# PCOD9250351 Si02
#       7
#     4   4   4   4   4   4   4
#     4  12  29  46  72 105 145 184 237 290 362 409
#     4  11  23  46  75 101 139 188 239 279 351 420
#     4  10  24  41  71 106 137 178 241 284 353 412
#     4  12  27  50  69 104 143 190 233 287 353 431
#     4  11  24  45  73 102 142 187 228 300 343 413
#     4  11  22  39  70 109 137 176 233 297 340 413
#     4  11  24  49  72  99 141 195 232 290 346 431
#
# _framework density 25.89545
#
# number of rings (size 3 to 8) (size 9 to 14) (size 15 to 20)
#    0.000    0.857    1.429    5.571    8.000    2.857 
#    0.000    0.000    0.000    0.000    0.000    0.000 
#    0.000    0.000    0.000    0.000    0.000    0.000 
#
# Total GULP energy -157065.860868 kJ/mol
# GULP energy per Si atom -5609.495031 kJ/mol
# Density = 2.583651 g / cm^3
# Si number density = 25.895450 Si / 1000 Ang^3
#
#
#
# Elastic Constant Matrix: (Units=GPa)
#
#
# Indices 1 2 3 4 5 6 
#
# 1 115.7926 -5.4491 17.3404 0.0000 -16.4461 0.0000
# 2 -5.4491 65.9282 -13.0937 0.0000 2.3750 0.0000
# 3 17.3404 -13.0937 54.8078 0.0000 3.2046 0.0000
# 4 0.0000 0.0000 0.0000 36.4830 0.0000 -9.5833
# 5 -16.4461 2.3750 3.2046 0.0000 32.1843 0.0000
# 6 0.0000 0.0000 0.0000 -9.5833 0.0000 32.1993
#
#
#
# Elastic Compliance Matrix: (Units=1/GPa)
#
#
# Indices 1 2 3 4 5 6 
#
# 1 0.009923 -0.000065 -0.003472 0.000000 0.005421 0.000000
# 2 -0.000065 0.016003 0.003937 0.000000 -0.001606 0.000000
# 3 -0.003472 0.003937 0.020525 0.000000 -0.004108 0.000000
# 4 0.000000 0.000000 0.000000 0.029735 0.000000 0.008850
# 5 0.005421 -0.001606 -0.004108 0.000000 0.034369 0.000000
# 6 0.000000 0.000000 0.000000 0.008850 0.000000 0.033691
#
#
# Mechanical properties :
#
#
# Convention : Reuss Voigt Hill
#
# Bulk Modulus (GPa) = 21.16310 26.01375 23.58842
# Shear Modulus (GPa) = 31.40831 36.02204 33.71517
#
# Velocity S-wave (km/s) = 3.48643 3.73373 3.61220
# Velocity P-wave (km/s) = 4.93935 5.35305 5.15036
#
# Compressibility (1/GPa) = 0.04725205
#
# Stress axis : x y z
#
# Youngs Moduli (GPa) = 100.77614 62.49019 48.72125
#
# Poissons Ratio (x) = 0.00404 0.16916
# Poissons Ratio (y) = 0.00652 -0.19184
# Poissons Ratio (z) = 0.34989 -0.24605
#
# Static dielectric constant tensor:
#      x y z
#    x 1.979360 0.000000 0.009590 
#    y 0.000000 2.069900 0.000000 
#    z 0.009590 0.000000 2.050140 
# 
# From -- ./inp_files/13205.got.cif
#   From: 2010.05.17/outbox.cif.g08.bks.cpg/sg14_7_cif.got.tgz:13205.got - 2010.06.03 17:49:19.
