data_PCOD9250224
_publ_section_title
;
Structure prediction by ZEFSAII (Michael W. Deem and Ramdas Pophale) SiO2 
 PCOD9250224
Probable space group: P 21/C
;
_chemical_formula_sum "Si O2"
_cell_formula_units_Z 22
_cell_length_a 13.477831
_cell_length_b 7.702656
_cell_length_c 16.044797
_cell_angle_alpha 90.000000
_cell_angle_beta 153.737332
_cell_angle_gamma 90.000000
_cell_volume 737.047078
_symmetry_space_group_name_H-M "P 21/C"
_symmetry_group_IT_number 14
_symmetry_cell_setting 'monoclinic'
loop_
_space_group_symop_operation_xyz
x,y,z
-x,1/2+y,1/2-z
-x,-y,-z
x,1/2-y,1/2+z
loop_
_atom_site_type_symbol
_atom_site_label
_atom_site_fract_x
_atom_site_fract_y
_atom_site_fract_z
Si Si1 0.604523 0.287018 0.148535
Si Si2 0.832579 0.652649 0.276726
Si Si3 0.500000 0.000000 0.000000
Si Si4 0.557267 0.013918 0.333335
Si Si5 0.148237 0.235452 0.524313
Si Si6 0.837155 0.312384 0.630108
O O1 0.731805 0.459191 0.214249
O O2 0.700165 0.098876 0.207837
O O3 0.507668 0.343812 0.162159
O O4 0.000601 0.232458 0.329511
O O5 0.923142 0.721782 0.433300
O O6 0.008465 0.652827 0.334676
O O7 0.607897 0.760131 0.077052
O O8 0.336875 0.953017 0.965876
O O9 0.325287 0.108152 0.143689
O O10 0.694731 0.143665 0.495986
O O11 0.714402 0.942812 0.380354
#
# Coordination Sequence:
#
# PCOD9250224 Si02
#       6
#     4   4   2   4   4   4
#     4  10  23  51  81 117 178 219 293 382 438 532
#     4  10  23  51  85 123 173 231 297 372 454 542
#     4  12  28  46  90 120 164 246 296 356 474 520
#     4  11  27  55  82 127 182 225 305 373 448 557
#     4  11  27  53  89 128 173 244 295 371 467 549
#     4  12  28  54  86 130 181 238 296 383 455 543
#
# _framework density 29.848839999999999
#
# number of rings (size 3 to 8) (size 9 to 14) (size 15 to 20)
#    0.000    1.091    1.818    3.273    2.545    5.091 
#    6.545    4.545    0.000    0.000    0.000    0.000 
#    0.000    0.000    0.000    0.000    0.000    0.000 
#
# Total GULP energy -123044.185021 kJ/mol
# GULP energy per Si atom -5592.917501 kJ/mol
# Density = 2.978090 g / cm^3
# Si number density = 29.848840 Si / 1000 Ang^3
#
#
#
# Elastic Constant Matrix: (Units=GPa)
#
#
# Indices 1 2 3 4 5 6 
#
# 1 319.2736 90.5525 79.6003 0.0000 4.3886 0.0000
# 2 90.5525 143.1298 25.7262 0.0000 -18.8892 0.0000
# 3 79.6003 25.7262 168.7321 0.0000 -41.3520 0.0000
# 4 0.0000 0.0000 0.0000 39.0000 0.0000 20.0069
# 5 4.3886 -18.8892 -41.3520 0.0000 56.3159 0.0000
# 6 0.0000 0.0000 0.0000 20.0069 0.0000 55.7145
#
#
#
# Elastic Compliance Matrix: (Units=1/GPa)
#
#
# Indices 1 2 3 4 5 6 
#
# 1 0.004625 -0.002893 -0.002520 0.000000 -0.003181 0.000000
# 2 -0.002893 0.009174 0.000945 0.000000 0.003997 0.000000
# 3 -0.002520 0.000945 0.008655 0.000000 0.006869 0.000000
# 4 0.000000 0.000000 0.000000 0.031431 0.000000 -0.011287
# 5 -0.003181 0.003997 0.006869 0.000000 0.024389 0.000000
# 6 0.000000 0.000000 0.000000 -0.011287 0.000000 0.022002
#
#
# Mechanical properties :
#
#
# Convention : Reuss Voigt Hill
#
# Bulk Modulus (GPa) = 73.97333 113.65483 93.81408
# Shear Modulus (GPa) = 43.96897 59.22320 51.59608
#
# Velocity S-wave (km/s) = 3.84220 4.45916 4.16213
# Velocity P-wave (km/s) = 6.67232 8.04187 7.38889
#
# Compressibility (1/GPa) = 0.01351839
#
# Stress axis : x y z
#
# Youngs Moduli (GPa) = 216.23489 109.00052 115.54441
#
# Poissons Ratio (x) = 0.31530 0.29121
# Poissons Ratio (y) = 0.62549 -0.10923
# Poissons Ratio (z) = 0.54497 -0.10304
#
# Static dielectric constant tensor:
#      x y z
#    x 2.321230 0.000000 0.095700 
#    y 0.000000 2.735080 0.000000 
#    z 0.095700 0.000000 2.531580 
# 
# From -- ./inp_files/57178.got.cif
#   From: 2010.05.17/outbox.cif.g08.bks.cpg/sg14_29_cif.got.tgz:57178.got - 2010.06.03 17:49:19.
