data_PCOD9250695
_publ_section_title
;
Structure prediction by ZEFSAII (Michael W. Deem and Ramdas Pophale) SiO2 
 PCOD9250695
Probable space group: P 21/C
;
_chemical_formula_sum "Si O2"
_cell_formula_units_Z 32
_cell_length_a 8.031478
_cell_length_b 29.810513
_cell_length_c 11.658388
_cell_angle_alpha 90.000000
_cell_angle_beta 34.530500
_cell_angle_gamma 90.000000
_cell_volume 1582.222811
_symmetry_space_group_name_H-M "P 21/C"
_symmetry_group_IT_number 14
_symmetry_cell_setting 'monoclinic'
loop_
_space_group_symop_operation_xyz
x,y,z
-x,1/2+y,1/2-z
-x,-y,-z
x,1/2-y,1/2+z
loop_
_atom_site_type_symbol
_atom_site_label
_atom_site_fract_x
_atom_site_fract_y
_atom_site_fract_z
Si Si1 0.288142 0.031787 0.692609
Si Si2 0.366367 0.403452 0.576480
Si Si3 0.225008 0.194772 0.449295
Si Si4 0.712890 0.240041 0.318515
Si Si5 0.804180 0.692429 0.307996
Si Si6 0.962527 0.606224 0.812263
Si Si7 0.669695 0.984545 0.077093
Si Si8 0.845186 0.547583 0.102020
O O1 0.233109 0.080171 0.669261
O O2 0.500000 0.000000 0.500000
O O3 0.380506 0.037259 0.770899
O O4 0.992178 0.002349 0.867513
O O5 0.251572 0.355410 0.597987
O O6 0.402148 0.446159 0.472835
O O7 0.125933 0.420246 0.805629
O O8 0.702309 0.392373 0.421715
O O9 0.537844 0.211726 0.321092
O O10 0.215770 0.184070 0.318491
O O11 0.139087 0.153723 0.581748
O O12 0.973487 0.231876 0.611743
O O13 0.460842 0.272993 0.512373
O O14 0.887701 0.212363 0.318552
O O15 0.924846 0.574202 0.944051
O O16 0.484985 0.030223 0.189402
O O17 0.000000 0.500000 0.000000
#
# Coordination Sequence:
#
# PCOD9250695 Si02
#       8
#     4   4   4   4   4   4   4   4
#     4  11  24  41  59  88 133 175 220 273 330 386
#     4  12  24  41  64  97 131 167 231 272 327 406
#     4  11  23  45  70  99 134 170 218 274 344 405
#     4  10  24  45  71 100 129 174 217 272 348 413
#     4  11  23  45  70 100 136 171 220 280 336 410
#     4  12  23  41  64  93 129 173 218 272 335 395
#     4  11  24  40  61  91 127 175 222 269 321 387
#     4  12  22  39  67  89 125 174 219 268 324 385
#
# _framework density 20.224712
#
# number of rings (size 3 to 8) (size 9 to 14) (size 15 to 20)
#    0.000    0.750    6.250    1.875    0.000    1.000 
#    4.500    1.250    0.000    0.000    0.000    0.000 
#    0.000    0.000    0.000    0.000    0.000    0.000 
#
# Total GULP energy -178413.863589 kJ/mol
# GULP energy per Si atom -5575.433237 kJ/mol
# Density = 2.017868 g / cm^3
# Si number density = 20.224712 Si / 1000 Ang^3
#
#
#
# Elastic Constant Matrix: (Units=GPa)
#
#
# Indices 1 2 3 4 5 6 
#
# 1 57.7857 4.6739 13.1112 0.0000 -7.4445 0.0000
# 2 4.6739 69.5721 5.9610 0.0000 -12.5249 0.0000
# 3 13.1112 5.9610 80.6243 0.0000 -6.9156 0.0000
# 4 0.0000 0.0000 0.0000 34.8822 0.0000 -0.2313
# 5 -7.4445 -12.5249 -6.9156 0.0000 26.8721 0.0000
# 6 0.0000 0.0000 0.0000 -0.2313 0.0000 23.7671
#
#
#
# Elastic Compliance Matrix: (Units=1/GPa)
#
#
# Indices 1 2 3 4 5 6 
#
# 1 0.018476 -0.000237 -0.002615 0.000000 0.004335 0.000000
# 2 -0.000237 0.015717 -0.000512 0.000000 0.007128 0.000000
# 3 -0.002615 -0.000512 0.013072 0.000000 0.002401 0.000000
# 4 0.000000 0.000000 0.000000 0.028670 0.000000 0.000279
# 5 0.004335 0.007128 0.002401 0.000000 0.042355 0.000000
# 6 0.000000 0.000000 0.000000 0.000279 0.000000 0.042078
#
#
# Mechanical properties :
#
#
# Convention : Reuss Voigt Hill
#
# Bulk Modulus (GPa) = 24.66878 28.38602 26.52740
# Shear Modulus (GPa) = 27.68428 29.38667 28.53548
#
# Velocity S-wave (km/s) = 3.70379 3.81597 3.76030
# Velocity P-wave (km/s) = 5.52400 5.78630 5.65667
#
# Compressibility (1/GPa) = 0.04053707
#
# Stress axis : x y z
#
# Youngs Moduli (GPa) = 54.12318 63.62704 76.49755
#
# Poissons Ratio (x) = 0.01506 0.20006
# Poissons Ratio (y) = 0.01281 0.03917
# Poissons Ratio (z) = 0.14155 0.03258
#
# Static dielectric constant tensor:
#      x y z
#    x 1.796270 0.000000 -0.024560 
#    y 0.000000 1.859680 0.000000 
#    z -0.024560 0.000000 1.734570 
# 
# From -- ./inp_files/27171.got.cif
#   From: 2010.05.17/outbox.cif.g08.bks.cpg/sg14_14_cif.got.tgz:27171.got - 2010.06.03 17:49:19.
