data_PCOD9250073
_publ_section_title
;
Structure prediction by ZEFSAII (Michael W. Deem and Ramdas Pophale) SiO2 
 PCOD9250073
Probable space group: P 21/C
;
_chemical_formula_sum "Si O2"
_cell_formula_units_Z 20
_cell_length_a 13.945524
_cell_length_b 12.506080
_cell_length_c 11.781532
_cell_angle_alpha 90.000000
_cell_angle_beta 24.827221
_cell_angle_gamma 90.000000
_cell_volume 862.752897
_symmetry_space_group_name_H-M "P 21/C"
_symmetry_group_IT_number 14
_symmetry_cell_setting 'monoclinic'
loop_
_space_group_symop_operation_xyz
x,y,z
-x,1/2+y,1/2-z
-x,-y,-z
x,1/2-y,1/2+z
loop_
_atom_site_type_symbol
_atom_site_label
_atom_site_fract_x
_atom_site_fract_y
_atom_site_fract_z
Si Si1 0.319623 0.260345 0.544650
Si Si2 0.658805 0.096918 0.293012
Si Si3 0.370676 0.559809 0.740680
Si Si4 0.969893 0.893636 0.284137
Si Si5 0.890626 0.286897 0.147007
O O1 0.506860 0.172702 0.375822
O O2 0.443969 0.372126 0.388477
O O3 0.162118 0.212230 0.616381
O O4 0.156114 0.271737 0.830436
O O5 0.756779 0.174552 0.287017
O O6 0.500000 0.000000 0.500000
O O7 0.877938 0.064126 0.983010
O O8 0.500000 0.500000 0.500000
O O9 0.209343 0.644432 0.849627
O O10 0.215145 0.479382 0.977507
O O11 0.124320 0.855826 0.223534
#
# Coordination Sequence:
#
# PCOD9250073 Si02
#       5
#     4   4   4   4   4
#     4  10  24  46  65 104 142 177 241 292 345 419
#     4  10  25  50  67 101 148 185 226 289 357 418
#     4  11  23  44  73 101 140 183 234 296 349 420
#     4  11  24  44  73 106 139 187 237 288 358 411
#     4  10  23  46  69 104 139 177 246 291 332 437
#
# _framework density 23.181609999999999
#
# number of rings (size 3 to 8) (size 9 to 14) (size 15 to 20)
#    0.000    1.600    2.000    0.600    2.800    3.200 
#   28.800    0.000    0.000    0.000    0.000    0.000 
#    0.000    0.000    0.000    0.000    0.000    0.000 
#
# Total GULP energy -111951.921844 kJ/mol
# GULP energy per Si atom -5597.596092 kJ/mol
# Density = 2.312885 g / cm^3
# Si number density = 23.181610 Si / 1000 Ang^3
#
#
#
# Elastic Constant Matrix: (Units=GPa)
#
#
# Indices 1 2 3 4 5 6 
#
# 1 51.4723 26.9651 14.7308 0.0000 -0.6587 0.0000
# 2 26.9651 141.0057 82.7151 0.0000 12.6934 0.0000
# 3 14.7308 82.7151 144.4563 0.0000 7.0409 0.0000
# 4 0.0000 0.0000 0.0000 59.8671 0.0000 -8.8906
# 5 -0.6587 12.6934 7.0409 0.0000 21.8328 0.0000
# 6 0.0000 0.0000 0.0000 -8.8906 0.0000 28.4976
#
#
#
# Elastic Compliance Matrix: (Units=1/GPa)
#
#
# Indices 1 2 3 4 5 6 
#
# 1 0.021814 -0.004618 0.000261 0.000000 0.003259 0.000000
# 2 -0.004618 0.012070 -0.006189 0.000000 -0.005161 0.000000
# 3 0.000261 -0.006189 0.010428 0.000000 0.000243 0.000000
# 4 0.000000 0.000000 0.000000 0.017515 0.000000 0.005464
# 5 0.003259 -0.005161 0.000243 0.000000 0.048823 0.000000
# 6 0.000000 0.000000 0.000000 0.005464 0.000000 0.036795
#
#
# Mechanical properties :
#
#
# Convention : Reuss Voigt Hill
#
# Bulk Modulus (GPa) = 43.06597 65.08404 54.07500
# Shear Modulus (GPa) = 28.36439 36.20773 32.28606
#
# Velocity S-wave (km/s) = 3.50176 3.95640 3.73600
# Velocity P-wave (km/s) = 5.91335 7.00053 6.47978
#
# Compressibility (1/GPa) = 0.02322019
#
# Stress axis : x y z
#
# Youngs Moduli (GPa) = 45.84164 82.84990 95.89822
#
# Poissons Ratio (x) = 0.38261 -0.02503
# Poissons Ratio (y) = 0.21170 0.59349
# Poissons Ratio (z) = -0.01196 0.51274
#
# Static dielectric constant tensor:
#      x y z
#    x 1.865050 0.000000 -0.020680 
#    y 0.000000 1.873350 0.000000 
#    z -0.020680 0.000000 1.902120 
# 
# From -- ./inp_files/48742.got.cif
#   From: 2010.05.17/outbox.cif.g08.bks.cpg/sg14_25_cif.got.tgz:48742.got - 2010.06.03 17:49:19.
