data_PCOD9250287
_publ_section_title
;
Structure prediction by ZEFSAII (Michael W. Deem and Ramdas Pophale) SiO2 
 PCOD9250287
Probable space group: P 21/C
;
_chemical_formula_sum "Si O2"
_cell_formula_units_Z 28
_cell_length_a 14.749713
_cell_length_b 9.025987
_cell_length_c 13.645656
_cell_angle_alpha 90.000000
_cell_angle_beta 144.774595
_cell_angle_gamma 90.000000
_cell_volume 1047.837326
_symmetry_space_group_name_H-M "P 21/C"
_symmetry_group_IT_number 14
_symmetry_cell_setting 'monoclinic'
loop_
_space_group_symop_operation_xyz
x,y,z
-x,1/2+y,1/2-z
-x,-y,-z
x,1/2-y,1/2+z
loop_
_atom_site_type_symbol
_atom_site_label
_atom_site_fract_x
_atom_site_fract_y
_atom_site_fract_z
Si Si1 0.262453 0.233097 0.274904
Si Si2 0.495388 0.267332 0.140855
Si Si3 0.931856 0.594142 0.558231
Si Si4 0.997930 0.184911 0.243239
Si Si5 0.522553 0.091397 0.878903
Si Si6 0.960055 0.414242 0.080380
Si Si7 0.227498 0.714838 0.251369
O O1 0.383086 0.338935 0.322268
O O2 0.193609 0.115034 0.137655
O O3 0.351858 0.170497 0.448588
O O4 0.115470 0.324963 0.186992
O O5 0.509801 0.340080 0.259528
O O6 0.646968 0.295214 0.207113
O O7 0.481417 0.087041 0.131687
O O8 0.976130 0.434076 0.636862
O O9 0.092511 0.672542 0.665134
O O10 0.875268 0.696707 0.599842
O O11 0.882385 0.312933 0.097773
O O12 0.004008 0.070199 0.339536
O O13 0.678945 0.143303 0.075062
O O14 0.149829 0.593318 0.110450
#
# Coordination Sequence:
#
# PCOD9250287 Si02
#       7
#     4   4   4   4   4   4   4
#     4  10  24  45  69 100 130 181 219 273 332 404
#     4  11  27  47  68  96 138 178 224 274 335 399
#     4  10  24  42  71 101 137 169 230 273 334 396
#     4  10  24  40  68 108 134 176 212 286 338 388
#     4  11  27  47  68  96 138 178 224 274 335 399
#     4  10  24  42  71 101 137 169 230 273 334 396
#     4  10  24  45  69 100 130 181 219 273 332 404
#
# _framework density 26.721706000000001
#
# number of rings (size 3 to 8) (size 9 to 14) (size 15 to 20)
#    0.000    1.714    0.000    1.714   16.000    3.429 
#    5.143    1.429    0.000    0.000    0.000    0.000 
#    0.000    0.000    0.000    0.000    0.000    0.000 
#
# Total GULP energy -156676.489452 kJ/mol
# GULP energy per Si atom -5595.588909 kJ/mol
# Density = 2.666089 g / cm^3
# Si number density = 26.721706 Si / 1000 Ang^3
#
#
#
# Elastic Constant Matrix: (Units=GPa)
#
#
# Indices 1 2 3 4 5 6 
#
# 1 90.1378 33.1344 65.1990 0.0000 -15.7368 0.0000
# 2 33.1344 165.8578 71.4631 0.0000 -20.0843 0.0000
# 3 65.1990 71.4631 252.8507 0.0000 -37.5081 0.0000
# 4 0.0000 0.0000 0.0000 37.2883 0.0000 -19.9499
# 5 -15.7368 -20.0843 -37.5081 0.0000 62.3151 0.0000
# 6 0.0000 0.0000 0.0000 -19.9499 0.0000 34.7560
#
#
#
# Elastic Compliance Matrix: (Units=1/GPa)
#
#
# Indices 1 2 3 4 5 6 
#
# 1 0.014010 -0.001332 -0.003047 0.000000 0.001275 0.000000
# 2 -0.001332 0.007067 -0.001500 0.000000 0.001039 0.000000
# 3 -0.003047 -0.001500 0.005467 0.000000 0.002038 0.000000
# 4 0.000000 0.000000 0.000000 0.038704 0.000000 0.022216
# 5 0.001275 0.001039 0.002038 0.000000 0.017931 0.000000
# 6 0.000000 0.000000 0.000000 0.022216 0.000000 0.041524
#
#
# Mechanical properties :
#
#
# Convention : Reuss Voigt Hill
#
# Bulk Modulus (GPa) = 67.62743 94.27105 80.94924
# Shear Modulus (GPa) = 35.36326 49.47519 42.41922
#
# Velocity S-wave (km/s) = 3.64179 4.30757 3.98860
# Velocity P-wave (km/s) = 6.56098 7.75214 7.18130
#
# Compressibility (1/GPa) = 0.01478690
#
# Stress axis : x y z
#
# Youngs Moduli (GPa) = 71.37615 141.49529 182.92113
#
# Poissons Ratio (x) = 0.18842 0.55739
# Poissons Ratio (y) = 0.09505 0.27438
# Poissons Ratio (z) = 0.21750 0.21224
#
# Static dielectric constant tensor:
#      x y z
#    x 2.532950 0.000000 -0.101030 
#    y 0.000000 2.033860 0.000000 
#    z -0.101030 0.000000 2.145200 
# 
# From -- ./inp_files/46309.got.cif
#   From: 2010.05.17/outbox.cif.g08.bks.cpg/sg14_24_cif.got.tgz:46309.got - 2010.06.03 17:49:19.
