data_PCOD9250707
_publ_section_title
;
Structure prediction by ZEFSAII (Michael W. Deem and Ramdas Pophale) SiO2 
 PCOD9250707
Probable space group: P 21/C
;
_chemical_formula_sum "Si O2"
_cell_formula_units_Z 20
_cell_length_a 5.048231
_cell_length_b 8.472609
_cell_length_c 18.263531
_cell_angle_alpha 90.000000
_cell_angle_beta 79.554478
_cell_angle_gamma 90.000000
_cell_volume 768.216416
_symmetry_space_group_name_H-M "P 21/C"
_symmetry_group_IT_number 14
_symmetry_cell_setting 'monoclinic'
loop_
_space_group_symop_operation_xyz
x,y,z
-x,1/2+y,1/2-z
-x,-y,-z
x,1/2-y,1/2+z
loop_
_atom_site_type_symbol
_atom_site_label
_atom_site_fract_x
_atom_site_fract_y
_atom_site_fract_z
Si Si1 0.870479 0.757787 0.436115
Si Si2 0.106649 0.241635 0.900168
Si Si3 0.018353 0.973218 0.305692
Si Si4 0.386759 0.984461 0.113706
Si Si5 0.702671 0.342957 0.698751
O O1 0.929827 0.805756 0.515481
O O2 0.644353 0.621871 0.445634
O O3 0.125303 0.670893 0.385579
O O4 0.826504 0.897359 0.379861
O O5 0.359332 0.126992 0.890652
O O6 0.153785 0.381762 0.841128
O O7 0.853766 0.137465 0.888088
O O8 0.834089 0.035618 0.249148
O O9 0.228392 0.832634 0.275435
O O10 0.412361 0.098997 0.185044
#
# Coordination Sequence:
#
# PCOD9250707 Si02
#       5
#     4   4   4   4   4
#     4  10  25  44  73 105 145 184 243 283 362 419
#     4  12  25  45  76 109 142 186 232 301 353 421
#     4  10  24  49  70 106 143 191 237 297 351 423
#     4  12  25  45  74 106 142 185 234 289 355 424
#     4  10  24  45  72 100 143 186 241 282 355 417
#
# _framework density 26.034327000000001
#
# number of rings (size 3 to 8) (size 9 to 14) (size 15 to 20)
#    1.200    0.000    2.000    3.000    2.800    3.200 
#    0.000    3.000    0.000    0.000    0.000    0.000 
#    0.000    0.000    0.000    0.000    0.000    0.000 
#
# Total GULP energy -111797.775375 kJ/mol
# GULP energy per Si atom -5589.888769 kJ/mol
# Density = 2.597507 g / cm^3
# Si number density = 26.034327 Si / 1000 Ang^3
#
#
#
# Elastic Constant Matrix: (Units=GPa)
#
#
# Indices 1 2 3 4 5 6 
#
# 1 110.7270 29.7455 32.3256 0.0000 40.7374 0.0000
# 2 29.7455 125.8051 40.4337 0.0000 31.5757 0.0000
# 3 32.3256 40.4337 189.1539 0.0000 19.5966 0.0000
# 4 0.0000 0.0000 0.0000 56.7313 0.0000 6.1440
# 5 40.7374 31.5757 19.5966 0.0000 37.0720 0.0000
# 6 0.0000 0.0000 0.0000 6.1440 0.0000 33.0409
#
#
#
# Elastic Compliance Matrix: (Units=1/GPa)
#
#
# Indices 1 2 3 4 5 6 
#
# 1 0.015412 0.001028 -0.001067 0.000000 -0.017247 0.000000
# 2 0.001028 0.010512 -0.001458 0.000000 -0.009312 0.000000
# 3 -0.001067 -0.001458 0.005851 0.000000 -0.000679 0.000000
# 4 0.000000 0.000000 0.000000 0.017989 0.000000 -0.003345
# 5 -0.017247 -0.009312 -0.000679 0.000000 0.054217 0.000000
# 6 0.000000 0.000000 0.000000 -0.003345 0.000000 0.030888
#
#
# Mechanical properties :
#
#
# Convention : Reuss Voigt Hill
#
# Bulk Modulus (GPa) = 34.74544 70.07728 52.41136
# Shear Modulus (GPa) = 33.90844 46.91424 40.41134
#
# Velocity S-wave (km/s) = 3.61286 4.24962 3.94411
# Velocity P-wave (km/s) = 5.54786 7.14526 6.39662
#
# Compressibility (1/GPa) = 0.02878076
#
# Stress axis : x y z
#
# Youngs Moduli (GPa) = 64.88457 95.13366 170.91172
#
# Poissons Ratio (x) = -0.09777 0.18231
# Poissons Ratio (y) = -0.06668 0.24917
# Poissons Ratio (z) = 0.06921 0.13869
#
# Static dielectric constant tensor:
#      x y z
#    x 2.072630 0.000000 -0.080450 
#    y 0.000000 2.055320 0.000000 
#    z -0.080450 0.000000 2.077710 
# 
# From -- ./inp_files/62933.got.cif
#   From: 2010.05.17/outbox.cif.g08.bks.cpg/sg14_32_cif.got.tgz:62933.got - 2010.06.03 17:49:19.
