data_PCOD9250388
_publ_section_title
;
Structure prediction by ZEFSAII (Michael W. Deem and Ramdas Pophale) SiO2 
 PCOD9250388
Probable space group: P 21/C
;
_chemical_formula_sum "Si O2"
_cell_formula_units_Z 28
_cell_length_a 19.633695
_cell_length_b 8.885757
_cell_length_c 9.761969
_cell_angle_alpha 90.000000
_cell_angle_beta 127.029986
_cell_angle_gamma 90.000000
_cell_volume 1359.599965
_symmetry_space_group_name_H-M "P 21/C"
_symmetry_group_IT_number 14
_symmetry_cell_setting 'monoclinic'
loop_
_space_group_symop_operation_xyz
x,y,z
-x,1/2+y,1/2-z
-x,-y,-z
x,1/2-y,1/2+z
loop_
_atom_site_type_symbol
_atom_site_label
_atom_site_fract_x
_atom_site_fract_y
_atom_site_fract_z
Si Si1 0.745690 0.107237 0.275949
Si Si2 0.270699 0.916316 0.418054
Si Si3 0.870736 0.505285 0.436804
Si Si4 0.439858 0.936529 0.042778
Si Si5 0.534710 0.077046 0.405102
Si Si6 0.114388 0.492048 0.247983
Si Si7 0.004549 0.752453 0.012855
O O1 0.742502 0.268105 0.193489
O O2 0.746723 0.117579 0.442574
O O3 0.823979 0.014306 0.307384
O O4 0.656595 0.035838 0.120392
O O5 0.200429 0.025603 0.266185
O O6 0.368163 0.970548 0.516643
O O7 0.835556 0.507202 0.548409
O O8 0.922740 0.351317 0.471791
O O9 0.941706 0.633758 0.511786
O O10 0.457410 0.757863 0.077980
O O11 0.467561 0.023057 0.211489
O O12 0.500000 0.000000 0.000000
O O13 0.500000 0.000000 0.500000
O O14 0.051844 0.635918 0.169467
O O15 0.054112 0.348209 0.156906
#
# Coordination Sequence:
#
# PCOD9250388 Si02
#       7
#     4   4   4   4   4   4   4
#     4  11  24  41  68  97 136 175 222 275 332 405
#     4  11  24  42  66 100 134 175 223 272 337 401
#     4  11  23  42  68  97 132 175 222 278 332 398
#     4  11  23  47  69 100 137 179 225 277 335 407
#     4  11  25  43  73 100 135 181 225 279 337 406
#     4  11  23  42  68  98 130 176 223 275 335 394
#     4  10  24  42  66  96 134 170 226 274 336 395
#
# _framework density 20.594293
#
# number of rings (size 3 to 8) (size 9 to 14) (size 15 to 20)
#    0.000    1.143    2.857    2.571    8.000    5.714 
#    5.143    0.000    0.000    0.000    0.000    0.000 
#    0.000    0.000    0.000    0.000    0.000    0.000 
#
# Total GULP energy -156398.081235 kJ/mol
# GULP energy per Si atom -5585.645758 kJ/mol
# Density = 2.054742 g / cm^3
# Si number density = 20.594293 Si / 1000 Ang^3
#
#
#
# Elastic Constant Matrix: (Units=GPa)
#
#
# Indices 1 2 3 4 5 6 
#
# 1 103.5764 12.8185 52.8100 0.0000 -3.4724 0.0000
# 2 12.8185 61.1469 15.7381 0.0000 5.0345 0.0000
# 3 52.8100 15.7381 152.6041 0.0000 -18.7239 0.0000
# 4 0.0000 0.0000 0.0000 22.0297 0.0000 6.4885
# 5 -3.4724 5.0345 -18.7239 0.0000 46.5214 0.0000
# 6 0.0000 0.0000 0.0000 6.4885 0.0000 18.7131
#
#
#
# Elastic Compliance Matrix: (Units=1/GPa)
#
#
# Indices 1 2 3 4 5 6 
#
# 1 0.011865 -0.001401 -0.004033 0.000000 -0.000586 0.000000
# 2 -0.001401 0.017281 -0.001620 0.000000 -0.002627 0.000000
# 3 -0.004033 -0.001620 0.008521 0.000000 0.003304 0.000000
# 4 0.000000 0.000000 0.000000 0.050556 0.000000 -0.017530
# 5 -0.000586 -0.002627 0.003304 0.000000 0.023066 0.000000
# 6 0.000000 0.000000 0.000000 -0.017530 0.000000 0.059517
#
#
# Mechanical properties :
#
#
# Convention : Reuss Voigt Hill
#
# Bulk Modulus (GPa) = 42.44671 53.34007 47.89339
# Shear Modulus (GPa) = 25.93810 33.18355 29.56082
#
# Velocity S-wave (km/s) = 3.55277 4.01845 3.79276
# Velocity P-wave (km/s) = 6.12251 6.89110 6.51815
#
# Compressibility (1/GPa) = 0.02355895
#
# Stress axis : x y z
#
# Youngs Moduli (GPa) = 84.28200 57.86747 117.35583
#
# Poissons Ratio (x) = 0.08107 0.47334
# Poissons Ratio (y) = 0.11807 0.19008
# Poissons Ratio (z) = 0.33994 0.09373
#
# Static dielectric constant tensor:
#      x y z
#    x 1.731830 0.000000 0.005610 
#    y 0.000000 1.764240 0.000000 
#    z 0.005610 0.000000 1.713750 
# 
# From -- ./inp_files/18758.got.cif
#   From: 2010.05.17/outbox.cif.g08.bks.cpg/sg14_10_cif.got.tgz:18758.got - 2010.06.03 17:49:19.
