data_PCOD9250547
_publ_section_title
;
Structure prediction by ZEFSAII (Michael W. Deem and Ramdas Pophale) SiO2 
 PCOD9250547
Probable space group: P 21/C
;
_chemical_formula_sum "Si O2"
_cell_formula_units_Z 18
_cell_length_a 16.830705
_cell_length_b 7.774423
_cell_length_c 12.657311
_cell_angle_alpha 90.000000
_cell_angle_beta 26.251995
_cell_angle_gamma 90.000000
_cell_volume 732.568807
_symmetry_space_group_name_H-M "P 21/C"
_symmetry_group_IT_number 14
_symmetry_cell_setting 'monoclinic'
loop_
_space_group_symop_operation_xyz
x,y,z
-x,1/2+y,1/2-z
-x,-y,-z
x,1/2-y,1/2+z
loop_
_atom_site_type_symbol
_atom_site_label
_atom_site_fract_x
_atom_site_fract_y
_atom_site_fract_z
Si Si1 0.842232 0.447170 0.440489
Si Si2 0.500000 0.000000 0.000000
Si Si3 0.197319 0.057057 0.234464
Si Si4 0.754068 0.441398 0.996648
Si Si5 0.789526 0.947816 0.230681
O O1 0.788332 0.570995 0.408340
O O2 0.800178 0.259180 0.448398
O O3 0.746435 0.483354 0.665939
O O4 0.056229 0.464577 0.204491
O O5 0.611164 0.017531 0.755928
O O6 0.672850 0.072947 0.861238
O O7 0.238995 0.241894 0.236935
O O8 0.000000 0.000000 0.500000
O O9 0.692624 0.486898 0.951416
O O10 0.000000 0.000000 0.000000
#
# Coordination Sequence:
#
# PCOD9250547 Si02
#       5
#     4   2   4   4   4
#     4  11  23  46  81 102 149 205 245 306 378 443
#     4  12  30  44  76 116 148 188 260 308 378 450
#     4  12  25  48  79 105 156 197 244 314 382 444
#     4  11  25  46  76 113 149 194 260 305 377 452
#     4  10  24  43  79 113 141 203 259 295 375 458
#
# _framework density 24.571071
#
# number of rings (size 3 to 8) (size 9 to 14) (size 15 to 20)
#    0.000    0.889    2.222    5.333    6.222    1.778 
#    0.000    2.222    0.000    0.000    0.000    0.000 
#    0.000    0.000    0.000    0.000    0.000    0.000 
#
# Total GULP energy -100328.198664 kJ/mol
# GULP energy per Si atom -5573.788815 kJ/mol
# Density = 2.451515 g / cm^3
# Si number density = 24.571071 Si / 1000 Ang^3
#
#
#
# Elastic Constant Matrix: (Units=GPa)
#
#
# Indices 1 2 3 4 5 6 
#
# 1 143.6008 -14.0693 34.3515 0.0000 44.0287 0.0000
# 2 -14.0693 79.8833 -4.7919 0.0000 28.0737 0.0000
# 3 34.3515 -4.7919 114.9622 0.0000 37.7347 0.0000
# 4 0.0000 0.0000 0.0000 14.2412 0.0000 18.6653
# 5 44.0287 28.0737 37.7347 0.0000 58.8156 0.0000
# 6 0.0000 0.0000 0.0000 18.6653 0.0000 -94.2072
#
#
#
# Elastic Compliance Matrix: (Units=1/GPa)
#
#
# Indices 1 2 3 4 5 6 
#
# 1 0.010905 0.006022 0.000780 0.000000 -0.011538 0.000000
# 2 0.006022 0.019786 0.004567 0.000000 -0.016882 0.000000
# 3 0.000780 0.004567 0.012114 0.000000 -0.010535 0.000000
# 4 0.000000 0.000000 0.000000 0.055743 0.000000 0.011044
# 5 -0.011538 -0.016882 -0.010535 0.000000 0.040457 0.000000
# 6 0.000000 0.000000 0.000000 0.011044 0.000000 -0.008427
#
#
# Mechanical properties :
#
#
# Convention : Reuss Voigt Hill
#
# Bulk Modulus (GPa) = 15.25745 41.04743 28.15244
# Shear Modulus (GPa) = 38.55398 17.30032 27.92715
#
# Velocity S-wave (km/s) = 3.96546 2.65635 3.37499
# Velocity P-wave (km/s) = 5.21435 5.11372 5.16428
#
# Compressibility (1/GPa) = 0.06554175
#
# Stress axis : x y z
#
# Youngs Moduli (GPa) = 91.70211 50.54129 82.54938
#
# Poissons Ratio (x) = -0.30437 -0.06437
# Poissons Ratio (y) = -0.55225 -0.37696
# Poissons Ratio (z) = -0.07151 -0.23080
#
# Static dielectric constant tensor:
#      x y z
#    x 1.998920 0.000000 -0.047970 
#    y 0.000000 1.426680 0.000000 
#    z -0.047970 0.000000 1.926620 
# 
# From -- ./inp_files/33523.got.cif
#   From: 2010.05.17/outbox.cif.g08.bks.cpg/sg14_17_cif.got.tgz:33523.got - 2010.06.03 17:49:19.
