data_PCOD9250472
_publ_section_title
;
Structure prediction by ZEFSAII (Michael W. Deem and Ramdas Pophale) SiO2 
 PCOD9250472
Probable space group: P 21/C
;
_chemical_formula_sum "Si O2"
_cell_formula_units_Z 20
_cell_length_a 4.964854
_cell_length_b 19.330024
_cell_length_c 8.928241
_cell_angle_alpha 90.000000
_cell_angle_beta 118.661252
_cell_angle_gamma 90.000000
_cell_volume 751.860757
_symmetry_space_group_name_H-M "P 21/C"
_symmetry_group_IT_number 14
_symmetry_cell_setting 'monoclinic'
loop_
_space_group_symop_operation_xyz
x,y,z
-x,1/2+y,1/2-z
-x,-y,-z
x,1/2-y,1/2+z
loop_
_atom_site_type_symbol
_atom_site_label
_atom_site_fract_x
_atom_site_fract_y
_atom_site_fract_z
Si Si1 0.886997 0.782044 0.089843
Si Si2 0.918393 0.337384 0.062414
Si Si3 0.695262 0.962444 0.353906
Si Si4 0.680559 0.657032 0.244582
Si Si5 0.973243 0.516122 0.319960
O O1 0.737947 0.725402 0.160497
O O2 0.083005 0.827048 0.258987
O O3 0.072848 0.736081 0.020354
O O4 0.670203 0.824711 0.918787
O O5 0.630842 0.373256 0.907073
O O6 0.223222 0.381465 0.109230
O O7 0.356819 0.982795 0.314402
O O8 0.000000 0.000000 0.500000
O O9 0.746114 0.983477 0.194692
O O10 0.937920 0.598629 0.290539
O O11 0.000000 0.500000 0.500000
#
# Coordination Sequence:
#
# PCOD9250472 Si02
#       5
#     4   4   4   4   4
#     4  10  24  43  65 104 130 191 232 294 352 417
#     4  11  23  43  70  97 142 180 241 289 356 423
#     4  12  25  46  74 104 141 188 234 292 362 424
#     4  11  23  44  70  97 143 178 240 291 352 424
#     4  12  27  47  73 108 143 187 239 298 360 425
#
# _framework density 26.600670999999998
#
# number of rings (size 3 to 8) (size 9 to 14) (size 15 to 20)
#    0.000    0.800    2.000    4.800    2.800    0.000 
#   14.400    0.000    0.000    0.000    0.000    0.000 
#    0.000    0.000    0.000    0.000    0.000    0.000 
#
# Total GULP energy -111965.185477 kJ/mol
# GULP energy per Si atom -5598.259274 kJ/mol
# Density = 2.654013 g / cm^3
# Si number density = 26.600671 Si / 1000 Ang^3
#
#
#
# Elastic Constant Matrix: (Units=GPa)
#
#
# Indices 1 2 3 4 5 6 
#
# 1 95.0223 17.4064 31.6881 0.0000 0.7466 0.0000
# 2 17.4064 100.6789 30.0834 0.0000 8.6803 0.0000
# 3 31.6881 30.0834 216.4594 0.0000 -15.0435 0.0000
# 4 0.0000 0.0000 0.0000 31.6344 0.0000 1.6572
# 5 0.7466 8.6803 -15.0435 0.0000 37.4609 0.0000
# 6 0.0000 0.0000 0.0000 1.6572 0.0000 35.5015
#
#
#
# Elastic Compliance Matrix: (Units=1/GPa)
#
#
# Indices 1 2 3 4 5 6 
#
# 1 0.011291 -0.001468 -0.001482 0.000000 -0.000480 0.000000
# 2 -0.001468 0.010908 -0.001517 0.000000 -0.003107 0.000000
# 3 -0.001482 -0.001517 0.005220 0.000000 0.002477 0.000000
# 4 0.000000 0.000000 0.000000 0.031689 0.000000 -0.001479
# 5 -0.000480 -0.003107 0.002477 0.000000 0.028419 0.000000
# 6 0.000000 0.000000 0.000000 -0.001479 0.000000 0.028237
#
#
# Mechanical properties :
#
#
# Convention : Reuss Voigt Hill
#
# Bulk Modulus (GPa) = 54.10077 63.39073 58.74575
# Shear Modulus (GPa) = 38.20937 43.11821 40.66379
#
# Velocity S-wave (km/s) = 3.79411 4.03046 3.91407
# Velocity P-wave (km/s) = 6.29094 6.74846 6.52371
#
# Compressibility (1/GPa) = 0.01848403
#
# Stress axis : x y z
#
# Youngs Moduli (GPa) = 88.56773 91.67978 191.57846
#
# Poissons Ratio (x) = 0.13456 0.28397
# Poissons Ratio (y) = 0.13000 0.29063
# Poissons Ratio (z) = 0.13128 0.13908
#
# Static dielectric constant tensor:
#      x y z
#    x 2.304530 0.000000 -0.359060 
#    y 0.000000 2.562600 0.000000 
#    z -0.359060 0.000000 2.669990 
# 
# From -- ./inp_files/5825.got.cif
#   From: 2010.05.17/outbox.cif.g08.bks.cpg/sg14_3_cif.got.tgz:5825.got - 2010.06.03 17:49:19.
