data_PCOD9250337
_publ_section_title
;
Structure prediction by ZEFSAII (Michael W. Deem and Ramdas Pophale) SiO2 
 PCOD9250337
Probable space group: P 21/C
;
_chemical_formula_sum "Si O2"
_cell_formula_units_Z 16
_cell_length_a 28.476064
_cell_length_b 5.168895
_cell_length_c 9.478367
_cell_angle_alpha 90.000000
_cell_angle_beta 28.896812
_cell_angle_gamma 90.000000
_cell_volume 674.168378
_symmetry_space_group_name_H-M "P 21/C"
_symmetry_group_IT_number 14
_symmetry_cell_setting 'monoclinic'
loop_
_space_group_symop_operation_xyz
x,y,z
-x,1/2+y,1/2-z
-x,-y,-z
x,1/2-y,1/2+z
loop_
_atom_site_type_symbol
_atom_site_label
_atom_site_fract_x
_atom_site_fract_y
_atom_site_fract_z
Si Si1 0.780214 0.925325 0.609746
Si Si2 0.612449 0.062440 0.213305
Si Si3 0.968335 0.433492 0.745784
Si Si4 0.276135 0.070368 0.526879
O O1 0.851417 0.071109 0.529234
O O2 0.803136 0.958986 0.386769
O O3 0.666371 0.837529 0.159706
O O4 0.773587 0.636966 0.692001
O O5 0.354451 0.655335 0.828291
O O6 0.500000 0.000000 0.500000
O O7 0.669950 0.026716 0.914790
O O8 0.005280 0.167188 0.716866
O O9 0.000000 0.500000 0.500000
#
# Coordination Sequence:
#
# PCOD9250337 Si02
#       4
#     4   4   4   4
#     4  10  26  42  73  94 143 170 236 280 351 408
#     4  10  24  41  68  97 137 175 226 277 343 414
#     4  12  28  47  74 106 143 190 245 301 366 432
#     4  10  24  41  68  97 136 176 222 276 346 400
#
# _framework density 23.732941
#
# number of rings (size 3 to 8) (size 9 to 14) (size 15 to 20)
#    1.500    0.000    0.000    3.000   10.500    2.000 
#    0.000    0.000    0.000    0.000    0.000    0.000 
#    0.000    0.000    0.000    0.000    0.000    0.000 
#
# Total GULP energy -89168.378337 kJ/mol
# GULP energy per Si atom -5573.023646 kJ/mol
# Density = 2.367892 g / cm^3
# Si number density = 23.732941 Si / 1000 Ang^3
#
#
#
# Elastic Constant Matrix: (Units=GPa)
#
#
# Indices 1 2 3 4 5 6 
#
# 1 111.9031 27.0220 11.1217 0.0000 23.5727 0.0000
# 2 27.0220 109.0545 3.8503 0.0000 10.5267 0.0000
# 3 11.1217 3.8503 71.9155 0.0000 1.0438 0.0000
# 4 0.0000 0.0000 0.0000 26.2657 0.0000 -7.6923
# 5 23.5727 10.5267 1.0438 0.0000 31.3714 0.0000
# 6 0.0000 0.0000 0.0000 -7.6923 0.0000 34.2635
#
#
#
# Elastic Compliance Matrix: (Units=1/GPa)
#
#
# Indices 1 2 3 4 5 6 
#
# 1 0.011184 -0.001975 -0.001512 0.000000 -0.007690 0.000000
# 2 -0.001975 0.009841 -0.000195 0.000000 -0.001811 0.000000
# 3 -0.001512 -0.000195 0.014139 0.000000 0.000731 0.000000
# 4 0.000000 0.000000 0.000000 0.040752 0.000000 0.009149
# 5 -0.007690 -0.001811 0.000731 0.000000 0.038238 0.000000
# 6 0.000000 0.000000 0.000000 0.009149 0.000000 0.031240
#
#
# Mechanical properties :
#
#
# Convention : Reuss Voigt Hill
#
# Bulk Modulus (GPa) = 35.97370 41.87347 38.92359
# Shear Modulus (GPa) = 30.85957 35.10540 32.98248
#
# Velocity S-wave (km/s) = 3.60986 3.85019 3.73196
# Velocity P-wave (km/s) = 5.70661 6.11941 5.91661
#
# Compressibility (1/GPa) = 0.02779808
#
# Stress axis : x y z
#
# Youngs Moduli (GPa) = 89.41685 101.61645 70.72688
#
# Poissons Ratio (x) = 0.20073 0.10695
# Poissons Ratio (y) = 0.17664 0.01380
# Poissons Ratio (z) = 0.13521 0.01982
#
# Static dielectric constant tensor:
#      x y z
#    x 1.923100 0.000000 0.027720 
#    y 0.000000 1.915200 0.000000 
#    z 0.027720 0.000000 2.002320 
# 
# From -- ./inp_files/19586.got.cif
#   From: 2010.05.17/outbox.cif.g08.bks.cpg/sg14_10_cif.got.tgz:19586.got - 2010.06.03 17:49:19.
