data_PCOD9250806
_publ_section_title
;
Structure prediction by ZEFSAII (Michael W. Deem and Ramdas Pophale) SiO2 
 PCOD9250806
Probable space group: P 21/C
;
_chemical_formula_sum "Si O2"
_cell_formula_units_Z 24
_cell_length_a 5.064050
_cell_length_b 14.685167
_cell_length_c 14.083975
_cell_angle_alpha 90.000000
_cell_angle_beta 125.450684
_cell_angle_gamma 90.000000
_cell_volume 853.207267
_symmetry_space_group_name_H-M "P 21/C"
_symmetry_group_IT_number 14
_symmetry_cell_setting 'monoclinic'
loop_
_space_group_symop_operation_xyz
x,y,z
-x,1/2+y,1/2-z
-x,-y,-z
x,1/2-y,1/2+z
loop_
_atom_site_type_symbol
_atom_site_label
_atom_site_fract_x
_atom_site_fract_y
_atom_site_fract_z
Si Si1 0.652666 0.381605 0.104912
Si Si2 0.425802 0.762779 0.768081
Si Si3 0.456873 0.583634 0.130253
Si Si4 0.258899 0.467491 0.249244
Si Si5 0.692519 0.389559 0.589784
Si Si6 0.074958 0.876210 0.072510
O O1 0.604230 0.488268 0.121103
O O2 0.447878 0.320400 0.136133
O O3 0.040870 0.377083 0.204843
O O4 0.603217 0.365708 0.982670
O O5 0.586140 0.840342 0.733083
O O6 0.643593 0.054650 0.833021
O O7 0.170957 0.715910 0.645123
O O8 0.259367 0.816419 0.818589
O O9 0.192568 0.533956 0.145241
O O10 0.197083 0.520467 0.333484
O O11 0.854933 0.370260 0.524493
O O12 0.303206 0.394248 0.495449
#
# Coordination Sequence:
#
# PCOD9250806 Si02
#       6
#     4   4   4   4   4   4
#     4  11  23  48  76 113 156 207 261 325 398 472
#     4  11  25  47  74 108 153 208 257 326 387 476
#     4  10  24  46  74 113 152 204 263 322 395 471
#     4  11  24  45  75 107 149 203 253 327 392 475
#     4  11  28  45  74 110 152 201 260 323 396 467
#     4  12  25  47  72 110 150 203 258 326 392 472
#
# _framework density 28.129154
#
# number of rings (size 3 to 8) (size 9 to 14) (size 15 to 20)
#    0.000    1.000    1.667    3.500    4.667    4.000 
#   18.000    0.000    0.000    0.000    0.000    0.000 
#    0.000    0.000    0.000    0.000    0.000    0.000 
#
# Total GULP energy -134019.795729 kJ/mol
# GULP energy per Si atom -5584.158155 kJ/mol
# Density = 2.806513 g / cm^3
# Si number density = 28.129154 Si / 1000 Ang^3
#
#
#
# Elastic Constant Matrix: (Units=GPa)
#
#
# Indices 1 2 3 4 5 6 
#
# 1 43.3240 33.0640 56.6763 0.0000 -29.4618 0.0000
# 2 33.0640 122.9621 68.8153 0.0000 -19.9804 0.0000
# 3 56.6763 68.8153 211.0239 0.0000 -63.5041 0.0000
# 4 0.0000 0.0000 0.0000 2.8248 0.0000 -36.0122
# 5 -29.4618 -19.9804 -63.5041 0.0000 38.7212 0.0000
# 6 0.0000 0.0000 0.0000 -36.0122 0.0000 29.2830
#
#
#
# Elastic Compliance Matrix: (Units=1/GPa)
#
#
# Indices 1 2 3 4 5 6 
#
# 1 0.055549 -0.008315 -0.001540 0.000000 0.035450 0.000000
# 2 -0.008315 0.011195 -0.003126 0.000000 -0.005676 0.000000
# 3 -0.001540 -0.003126 0.010531 0.000000 0.014488 0.000000
# 4 0.000000 0.000000 0.000000 -0.024118 0.000000 -0.029660
# 5 0.035450 -0.005676 0.014488 0.000000 0.073630 0.000000
# 6 0.000000 0.000000 0.000000 -0.029660 0.000000 -0.002327
#
#
# Mechanical properties :
#
#
# Convention : Reuss Voigt Hill
#
# Bulk Modulus (GPa) = 19.48736 77.15790 48.32263
# Shear Modulus (GPa) = 29.84600 28.74943 29.29772
#
# Velocity S-wave (km/s) = 3.26089 3.20042 3.23080
# Velocity P-wave (km/s) = 4.59573 6.41454 5.57974
#
# Compressibility (1/GPa) = 0.05131532
#
# Stress axis : x y z
#
# Youngs Moduli (GPa) = 18.00215 89.32219 94.95416
#
# Poissons Ratio (x) = 0.74270 0.14619
# Poissons Ratio (y) = 0.14969 0.29680
# Poissons Ratio (z) = 0.02772 0.27920
#
# Static dielectric constant tensor:
#      x y z
#    x 2.279190 0.000000 0.088730 
#    y 0.000000 2.984630 0.000000 
#    z 0.088730 0.000000 2.166160 
# 
# From -- ./inp_files/21651.got.cif
#   From: 2010.05.17/outbox.cif.g08.bks.cpg/sg14_11_cif.got.tgz:21651.got - 2010.06.03 17:49:19.
