data_PCOD9250705
_publ_section_title
;
Structure prediction by ZEFSAII (Michael W. Deem and Ramdas Pophale) SiO2 
 PCOD9250705
Probable space group: P 21/C
;
_chemical_formula_sum "Si O2"
_cell_formula_units_Z 20
_cell_length_a 5.133701
_cell_length_b 9.977117
_cell_length_c 17.375370
_cell_angle_alpha 90.000000
_cell_angle_beta 78.468974
_cell_angle_gamma 90.000000
_cell_volume 871.995997
_symmetry_space_group_name_H-M "P 21/C"
_symmetry_group_IT_number 14
_symmetry_cell_setting 'monoclinic'
loop_
_space_group_symop_operation_xyz
x,y,z
-x,1/2+y,1/2-z
-x,-y,-z
x,1/2-y,1/2+z
loop_
_atom_site_type_symbol
_atom_site_label
_atom_site_fract_x
_atom_site_fract_y
_atom_site_fract_z
Si Si1 0.574890 0.850199 0.397751
Si Si2 0.678522 0.897094 0.787254
Si Si3 0.123236 0.976697 0.873451
Si Si4 0.134481 0.215499 0.992874
Si Si5 0.081029 0.036064 0.388673
O O1 0.648075 0.751853 0.323251
O O2 0.606919 0.758039 0.472458
O O3 0.305527 0.929843 0.400623
O O4 0.807180 0.959565 0.391880
O O5 0.381485 0.954697 0.806441
O O6 0.812669 0.900601 0.696806
O O7 0.863628 0.981912 0.835071
O O8 0.171810 0.100719 0.927080
O O9 0.066682 0.849066 0.932722
O O10 0.050279 0.347596 0.952724
#
# Coordination Sequence:
#
# PCOD9250705 Si02
#       5
#     4   4   4   4   4
#     4  11  25  45  65 101 136 172 227 280 328 399
#     4  11  25  44  67  98 138 176 223 278 331 399
#     4  10  24  46  70  97 137 179 227 267 328 402
#     4  10  24  45  72 100 133 181 222 275 330 397
#     4  12  26  40  72  97 139 174 223 276 342 388
#
# _framework density 22.935887000000001
#
# number of rings (size 3 to 8) (size 9 to 14) (size 15 to 20)
#    0.000    1.200    0.000    4.800    5.600   13.600 
#    0.000    0.000    0.000    0.000    0.000    0.000 
#    0.000    0.000    0.000    0.000    0.000    0.000 
#
# Total GULP energy -112036.619948 kJ/mol
# GULP energy per Si atom -5601.830997 kJ/mol
# Density = 2.288368 g / cm^3
# Si number density = 22.935887 Si / 1000 Ang^3
#
#
#
# Elastic Constant Matrix: (Units=GPa)
#
#
# Indices 1 2 3 4 5 6 
#
# 1 44.6554 3.5779 9.9531 0.0000 16.2741 0.0000
# 2 3.5779 104.5410 32.0099 0.0000 21.3598 0.0000
# 3 9.9531 32.0099 112.4805 0.0000 -5.0503 0.0000
# 4 0.0000 0.0000 0.0000 40.7276 0.0000 7.4775
# 5 16.2741 21.3598 -5.0503 0.0000 21.9890 0.0000
# 6 0.0000 0.0000 0.0000 7.4775 0.0000 18.5233
#
#
#
# Elastic Compliance Matrix: (Units=1/GPa)
#
#
# Indices 1 2 3 4 5 6 
#
# 1 0.037042 0.008682 -0.007435 0.000000 -0.037556 0.000000
# 2 0.008682 0.016011 -0.006377 0.000000 -0.023443 0.000000
# 3 -0.007435 -0.006377 0.012012 0.000000 0.014456 0.000000
# 4 0.000000 0.000000 0.000000 0.026519 0.000000 -0.010705
# 5 -0.037556 -0.023443 0.014456 0.000000 0.099366 0.000000
# 6 0.000000 0.000000 0.000000 -0.010705 0.000000 0.058307
#
#
# Mechanical properties :
#
#
# Convention : Reuss Voigt Hill
#
# Bulk Modulus (GPa) = 18.24630 39.19540 28.72085
# Shear Modulus (GPa) = 17.99949 30.65706 24.32828
#
# Velocity S-wave (km/s) = 2.80442 3.65998 3.26038
# Velocity P-wave (km/s) = 4.29639 5.91496 5.16942
#
# Compressibility (1/GPa) = 0.05480563
#
# Stress axis : x y z
#
# Youngs Moduli (GPa) = 26.99636 62.45641 83.24817
#
# Poissons Ratio (x) = -0.54226 0.61893
# Poissons Ratio (y) = -0.23439 0.53090
# Poissons Ratio (z) = 0.20071 0.39831
#
# Static dielectric constant tensor:
#      x y z
#    x 1.821830 0.000000 0.009230 
#    y 0.000000 1.841900 0.000000 
#    z 0.009230 0.000000 1.841420 
# 
# From -- ./inp_files/52700.got.cif
#   From: 2010.05.17/outbox.cif.g08.bks.cpg/sg14_27_cif.got.tgz:52700.got - 2010.06.03 17:49:19.
