data_PCOD9250927
_publ_section_title
;
Structure prediction by ZEFSAII (Michael W. Deem and Ramdas Pophale) SiO2 
 PCOD9250927
Probable space group: P 21/C
;
_chemical_formula_sum "Si O2"
_cell_formula_units_Z 28
_cell_length_a 7.799542
_cell_length_b 4.952416
_cell_length_c 35.392729
_cell_angle_alpha 90.000000
_cell_angle_beta 52.007527
_cell_angle_gamma 90.000000
_cell_volume 1077.400030
_symmetry_space_group_name_H-M "P 21/C"
_symmetry_group_IT_number 14
_symmetry_cell_setting 'monoclinic'
loop_
_space_group_symop_operation_xyz
x,y,z
-x,1/2+y,1/2-z
-x,-y,-z
x,1/2-y,1/2+z
loop_
_atom_site_type_symbol
_atom_site_label
_atom_site_fract_x
_atom_site_fract_y
_atom_site_fract_z
Si Si1 0.066042 0.998843 0.218540
Si Si2 0.090890 0.231628 0.069613
Si Si3 0.327275 0.726215 0.011206
Si Si4 0.978131 0.871428 0.338401
Si Si5 0.571349 0.616873 0.216036
Si Si6 0.429697 0.647308 0.149011
Si Si7 0.793938 0.386443 0.052074
O O1 0.168028 0.080976 0.321601
O O2 0.311917 0.935869 0.172061
O O3 0.956319 0.717376 0.245129
O O4 0.942345 0.151847 0.202426
O O5 0.124247 0.549731 0.055424
O O6 0.066131 0.215756 0.117080
O O7 0.886477 0.175042 0.070104
O O8 0.281653 0.025341 0.032362
O O9 0.500000 0.500000 0.000000
O O10 0.339234 0.745859 0.964289
O O11 0.761625 0.996930 0.348978
O O12 0.505872 0.903823 0.241835
O O13 0.480809 0.562470 0.185644
O O14 0.641208 0.597629 0.094744
O O15 0.000000 0.500000 0.000000
#
# Coordination Sequence:
#
# PCOD9250927 Si02
#       7
#     4   4   4   4   4   4   4
#     4  12  28  50  82 118 164 216 275 345 417 499
#     4  11  25  48  70 113 149 207 255 333 393 483
#     4  11  24  44  77 107 153 199 264 321 406 474
#     4  12  29  50  83 114 167 208 280 334 412 506
#     4  12  32  50  80 121 164 214 275 342 418 499
#     4  12  28  53  83 123 159 228 270 345 423 493
#     4  10  24  53  78 117 165 213 273 347 411 495
#
# _framework density 25.988489000000001
#
# number of rings (size 3 to 8) (size 9 to 14) (size 15 to 20)
#    0.000    0.571    2.857    2.571   12.000    0.000 
#    7.714    0.000    0.000    0.000    0.000    0.000 
#    0.000    0.000    0.000    0.000    0.000    0.000 
#
# Total GULP energy -156510.698454 kJ/mol
# GULP energy per Si atom -5589.667802 kJ/mol
# Density = 2.592934 g / cm^3
# Si number density = 25.988489 Si / 1000 Ang^3
#
#
#
# Elastic Constant Matrix: (Units=GPa)
#
#
# Indices 1 2 3 4 5 6 
#
# 1 156.0059 16.3742 26.1569 0.0000 18.7750 0.0000
# 2 16.3742 116.7797 3.6293 0.0000 -1.9471 0.0000
# 3 26.1569 3.6293 104.2056 0.0000 24.8934 0.0000
# 4 0.0000 0.0000 0.0000 23.3411 0.0000 -6.3254
# 5 18.7750 -1.9471 24.8934 0.0000 60.7051 0.0000
# 6 0.0000 0.0000 0.0000 -6.3254 0.0000 32.2104
#
#
#
# Elastic Compliance Matrix: (Units=1/GPa)
#
#
# Indices 1 2 3 4 5 6 
#
# 1 0.006928 -0.000958 -0.001315 0.000000 -0.001634 0.000000
# 2 -0.000958 0.008715 -0.000222 0.000000 0.000667 0.000000
# 3 -0.001315 -0.000222 0.010907 0.000000 -0.004073 0.000000
# 4 0.000000 0.000000 0.000000 0.045251 0.000000 0.008886
# 5 -0.001634 0.000667 -0.004073 0.000000 0.018670 0.000000
# 6 0.000000 0.000000 0.000000 0.008886 0.000000 0.032791
#
#
# Mechanical properties :
#
#
# Convention : Reuss Voigt Hill
#
# Bulk Modulus (GPa) = 46.38311 52.14579 49.26445
# Shear Modulus (GPa) = 36.91669 45.30670 41.11169
#
# Velocity S-wave (km/s) = 3.77304 4.17986 3.98165
# Velocity P-wave (km/s) = 6.07186 6.58813 6.33526
#
# Compressibility (1/GPa) = 0.02155957
#
# Stress axis : x y z
#
# Youngs Moduli (GPa) = 144.34787 114.73871 91.68160
#
# Poissons Ratio (x) = 0.10989 0.12058
# Poissons Ratio (y) = 0.13825 0.02040
# Poissons Ratio (z) = 0.18985 0.02553
#
# Static dielectric constant tensor:
#      x y z
#    x 2.497310 0.000000 -0.187030 
#    y 0.000000 2.106750 0.000000 
#    z -0.187030 0.000000 2.136080 
# 
# From -- ./inp_files/79205.got.cif
#   From: 2010.05.17/outbox.cif.g08.bks.cpg/sg14_40_cif.got.tgz:79205.got - 2010.06.03 17:49:19.
