data_PCOD9250757
_publ_section_title
;
Structure prediction by ZEFSAII (Michael W. Deem and Ramdas Pophale) SiO2 
 PCOD9250757
Probable space group: P 21/C
;
_chemical_formula_sum "Si O2"
_cell_formula_units_Z 28
_cell_length_a 5.058075
_cell_length_b 13.861682
_cell_length_c 15.500803
_cell_angle_alpha 90.000000
_cell_angle_beta 77.208209
_cell_angle_gamma 90.000000
_cell_volume 1059.840869
_symmetry_space_group_name_H-M "P 21/C"
_symmetry_group_IT_number 14
_symmetry_cell_setting 'monoclinic'
loop_
_space_group_symop_operation_xyz
x,y,z
-x,1/2+y,1/2-z
-x,-y,-z
x,1/2-y,1/2+z
loop_
_atom_site_type_symbol
_atom_site_label
_atom_site_fract_x
_atom_site_fract_y
_atom_site_fract_z
Si Si1 0.964270 0.062548 0.808603
Si Si2 0.684660 0.092949 0.000590
Si Si3 0.823640 0.692774 0.465407
Si Si4 0.457799 0.999932 0.400969
Si Si5 0.249071 0.816471 0.330013
Si Si6 0.694313 0.719782 0.671746
Si Si7 0.983516 0.904306 0.689861
O O1 0.777001 0.108868 0.895345
O O2 0.908207 0.112150 0.722450
O O3 0.254647 0.104363 0.816583
O O4 0.913339 0.951813 0.788311
O O5 0.967645 0.102564 0.030997
O O6 0.465445 0.167185 0.054989
O O7 0.500000 0.000000 0.000000
O O8 0.019841 0.763806 0.401389
O O9 0.725531 0.731229 0.566660
O O10 0.429119 0.888075 0.375687
O O11 0.500000 0.000000 0.500000
O O12 0.199999 0.053177 0.375605
O O13 0.713444 0.058509 0.345769
O O14 0.440201 0.756094 0.251122
O O15 0.925982 0.791129 0.691620
#
# Coordination Sequence:
#
# PCOD9250757 Si02
#       7
#     4   4   4   4   4   4   4
#     4  10  24  46  69 100 146 181 234 298 351 417
#     4  11  25  46  68 101 142 181 235 296 348 420
#     4  11  26  43  71 103 135 188 234 287 355 420
#     4  11  24  45  67 104 139 182 238 301 357 428
#     4  11  24  44  72  99 146 185 236 298 360 415
#     4  11  24  46  68 103 147 185 241 295 355 431
#     4  11  25  40  72 101 135 192 235 285 366 431
#
# _framework density 26.419060999999999
#
# number of rings (size 3 to 8) (size 9 to 14) (size 15 to 20)
#    0.000    1.143    2.857    1.714    6.000    2.286 
#    0.000    0.000    0.000    0.000    0.000    0.000 
#    0.000    0.000    0.000    0.000    0.000    0.000 
#
# Total GULP energy -156498.904046 kJ/mol
# GULP energy per Si atom -5589.246573 kJ/mol
# Density = 2.635893 g / cm^3
# Si number density = 26.419061 Si / 1000 Ang^3
#
#
#
# Elastic Constant Matrix: (Units=GPa)
#
#
# Indices 1 2 3 4 5 6 
#
# 1 116.7301 0.5152 29.1198 0.0000 -2.6590 0.0000
# 2 0.5152 54.8314 5.6369 0.0000 -4.0430 0.0000
# 3 29.1198 5.6369 151.5343 0.0000 -8.0010 0.0000
# 4 0.0000 0.0000 0.0000 41.0411 0.0000 -5.0411
# 5 -2.6590 -4.0430 -8.0010 0.0000 42.4595 0.0000
# 6 0.0000 0.0000 0.0000 -5.0411 0.0000 31.8184
#
#
#
# Elastic Compliance Matrix: (Units=1/GPa)
#
#
# Indices 1 2 3 4 5 6 
#
# 1 0.009001 0.000111 -0.001721 0.000000 0.000250 0.000000
# 2 0.000111 0.018422 -0.000620 0.000000 0.001644 0.000000
# 3 -0.001721 -0.000620 0.007014 0.000000 0.001155 0.000000
# 4 0.000000 0.000000 0.000000 0.024849 0.000000 0.003937
# 5 0.000250 0.001644 0.001155 0.000000 0.023942 0.000000
# 6 0.000000 0.000000 0.000000 0.003937 0.000000 0.032052
#
#
# Mechanical properties :
#
#
# Convention : Reuss Voigt Hill
#
# Bulk Modulus (GPa) = 33.35843 43.73773 38.54808
# Shear Modulus (GPa) = 38.54110 42.25206 40.39658
#
# Velocity S-wave (km/s) = 3.82362 4.00347 3.91457
# Velocity P-wave (km/s) = 5.66987 6.16130 5.92069
#
# Compressibility (1/GPa) = 0.02997743
#
# Stress axis : x y z
#
# Youngs Moduli (GPa) = 111.09614 54.28402 142.57504
#
# Poissons Ratio (x) = -0.00601 0.24532
# Poissons Ratio (y) = -0.01230 0.08836
# Poissons Ratio (z) = 0.19116 0.03364
#
# Static dielectric constant tensor:
#      x y z
#    x 2.142470 0.000000 -0.031500 
#    y 0.000000 2.222360 0.000000 
#    z -0.031500 0.000000 2.068290 
# 
# From -- ./inp_files/53400.got.cif
#   From: 2010.05.17/outbox.cif.g08.bks.cpg/sg14_27_cif.got.tgz:53400.got - 2010.06.03 17:49:19.
