data_PCOD9250120
_publ_section_title
;
Structure prediction by ZEFSAII (Michael W. Deem and Ramdas Pophale) SiO2 
 PCOD9250120
Probable space group: P 21/C
;
_chemical_formula_sum "Si O2"
_cell_formula_units_Z 22
_cell_length_a 5.423830
_cell_length_b 7.771972
_cell_length_c 17.855043
_cell_angle_alpha 90.000000
_cell_angle_beta 96.486237
_cell_angle_gamma 90.000000
_cell_volume 747.841137
_symmetry_space_group_name_H-M "P 21/C"
_symmetry_group_IT_number 14
_symmetry_cell_setting 'monoclinic'
loop_
_space_group_symop_operation_xyz
x,y,z
-x,1/2+y,1/2-z
-x,-y,-z
x,1/2-y,1/2+z
loop_
_atom_site_type_symbol
_atom_site_label
_atom_site_fract_x
_atom_site_fract_y
_atom_site_fract_z
Si Si1 0.724386 0.166504 0.148308
Si Si2 0.607249 0.911387 0.745588
Si Si3 0.500000 0.000000 0.000000
Si Si4 0.009939 0.361226 0.260155
Si Si5 0.691694 0.123699 0.414030
Si Si6 0.221167 0.277937 0.986313
O O1 0.476881 0.203003 0.187274
O O2 0.914893 0.321576 0.171287
O O3 0.806978 0.001970 0.200554
O O4 0.685635 0.106380 0.064868
O O5 0.844784 0.813589 0.717355
O O6 0.410471 0.922124 0.671496
O O7 0.743417 0.080309 0.784055
O O8 0.257851 0.101939 0.030754
O O9 0.472013 0.247726 0.441483
O O10 0.964769 0.202905 0.433777
O O11 0.717335 0.948557 0.464222
#
# Coordination Sequence:
#
# PCOD9250120 Si02
#       6
#     4   4   2   4   4   4
#     4  11  25  46  72 105 149 196 246 316 384 463
#     4  11  23  44  75 101 142 196 254 314 375 463
#     4  12  26  48  68 116 156 192 254 330 404 444
#     4  10  24  44  68 106 140 187 253 301 373 462
#     4  10  23  46  77 103 147 204 263 304 387 473
#     4  10  24  46  71 111 149 201 250 322 384 473
#
# _framework density 29.418012000000001
#
# number of rings (size 3 to 8) (size 9 to 14) (size 15 to 20)
#    0.000    1.455    0.000    3.273    7.636    0.727 
#   19.636    0.000    0.000    0.000    0.000    0.000 
#    0.000    0.000    0.000    0.000    0.000    0.000 
#
# Total GULP energy -122499.157694 kJ/mol
# GULP energy per Si atom -5568.143532 kJ/mol
# Density = 2.935106 g / cm^3
# Si number density = 29.418012 Si / 1000 Ang^3
#
#
#
# Elastic Constant Matrix: (Units=GPa)
#
#
# Indices 1 2 3 4 5 6 
#
# 1 165.3850 34.1402 68.4379 0.0000 41.0869 0.0000
# 2 34.1402 93.9599 20.0209 0.0000 21.9133 0.0000
# 3 68.4379 20.0209 189.7341 0.0000 36.0996 0.0000
# 4 0.0000 0.0000 0.0000 53.5058 0.0000 28.9087
# 5 41.0869 21.9133 36.0996 0.0000 48.8907 0.0000
# 6 0.0000 0.0000 0.0000 28.9087 0.0000 68.5428
#
#
#
# Elastic Compliance Matrix: (Units=1/GPa)
#
#
# Indices 1 2 3 4 5 6 
#
# 1 0.008379 -0.001478 -0.001923 0.000000 -0.004960 0.000000
# 2 -0.001478 0.012159 0.000059 0.000000 -0.004251 0.000000
# 3 -0.001923 0.000059 0.006580 0.000000 -0.003269 0.000000
# 4 0.000000 0.000000 0.000000 0.024205 0.000000 -0.010209
# 5 -0.004960 -0.004251 -0.003269 0.000000 0.028941 0.000000
# 6 0.000000 0.000000 0.000000 -0.010209 0.000000 0.018895
#
#
# Mechanical properties :
#
#
# Convention : Reuss Voigt Hill
#
# Bulk Modulus (GPa) = 48.93846 77.14191 63.04019
# Shear Modulus (GPa) = 44.38334 55.95318 50.16826
#
# Velocity S-wave (km/s) = 3.88843 4.36593 4.13408
# Velocity P-wave (km/s) = 6.06890 7.18990 6.65305
#
# Compressibility (1/GPa) = 0.02043382
#
# Stress axis : x y z
#
# Youngs Moduli (GPa) = 119.33906 82.24492 151.97911
#
# Poissons Ratio (x) = 0.12158 0.29224
# Poissons Ratio (y) = 0.17642 -0.00897
# Poissons Ratio (z) = 0.22948 -0.00485
#
# Static dielectric constant tensor:
#      x y z
#    x 2.502100 0.000000 -0.185570 
#    y 0.000000 2.048540 0.000000 
#    z -0.185570 0.000000 1.796510 
# 
# From -- ./inp_files/63152.got.cif
#   From: 2010.05.17/outbox.cif.g08.bks.cpg/sg14_32_cif.got.tgz:63152.got - 2010.06.03 17:49:19.
