data_PCOD9250160
_publ_section_title
;
Structure prediction by ZEFSAII (Michael W. Deem and Ramdas Pophale) SiO2 
 PCOD9250160
Probable space group: P 21/C
;
_chemical_formula_sum "Si O2"
_cell_formula_units_Z 30
_cell_length_a 21.491116
_cell_length_b 11.413403
_cell_length_c 12.363381
_cell_angle_alpha 90.000000
_cell_angle_beta 27.233459
_cell_angle_gamma 90.000000
_cell_volume 1387.758040
_symmetry_space_group_name_H-M "P 21/C"
_symmetry_group_IT_number 14
_symmetry_cell_setting 'monoclinic'
loop_
_space_group_symop_operation_xyz
x,y,z
-x,1/2+y,1/2-z
-x,-y,-z
x,1/2-y,1/2+z
loop_
_atom_site_type_symbol
_atom_site_label
_atom_site_fract_x
_atom_site_fract_y
_atom_site_fract_z
Si Si1 0.500000 0.500000 0.500000
Si Si2 0.732582 0.241684 0.812360
Si Si3 0.657125 0.039957 0.552252
Si Si4 0.901115 0.560674 0.530953
Si Si5 0.473063 0.719716 0.055949
Si Si6 0.764244 0.637274 0.522234
Si Si7 0.618666 0.455481 0.614781
Si Si8 0.976593 0.814953 0.110458
O O1 0.370304 0.487231 0.787228
O O2 0.500470 0.357929 0.468859
O O3 0.893481 0.240540 0.551922
O O4 0.704913 0.326830 0.957844
O O5 0.651976 0.292356 0.834978
O O6 0.669577 0.114888 0.931281
O O7 0.769463 0.969520 0.309175
O O8 0.510031 0.030174 0.722954
O O9 0.848567 0.594635 0.495452
O O10 0.995558 0.445005 0.384836
O O11 0.975365 0.662777 0.483074
O O12 0.612064 0.669011 0.793108
O O13 0.435554 0.638833 0.215430
O O14 0.739570 0.532550 0.475808
O O15 0.842544 0.747000 0.351240
#
# Coordination Sequence:
#
# PCOD9250160 Si02
#       8
#     2   4   4   4   4   4   4   4
#     4  12  24  36  66 108 142 178 238 290 354 412
#     4  11  24  43  67  98 148 178 229 288 364 416
#     4  11  21  42  66 101 136 180 229 294 352 415
#     4  10  23  47  71  94 144 194 229 292 364 429
#     4  12  24  42  69 107 135 190 236 298 349 422
#     4  12  25  44  76 105 135 184 250 289 352 440
#     4  12  23  40  72 103 138 184 233 299 354 412
#     4  10  25  45  66 100 141 191 230 285 362 435
#
# _framework density 21.617601000000001
#
# number of rings (size 3 to 8) (size 9 to 14) (size 15 to 20)
#    0.000    0.800    5.333    2.800    0.000    3.733 
#    4.800    0.000    0.000    0.000    0.000    0.000 
#    0.000    0.000    0.000    0.000    0.000    0.000 
#
# Total GULP energy -167104.219667 kJ/mol
# GULP energy per Si atom -5570.140656 kJ/mol
# Density = 2.156840 g / cm^3
# Si number density = 21.617601 Si / 1000 Ang^3
#
#
#
# Elastic Constant Matrix: (Units=GPa)
#
#
# Indices 1 2 3 4 5 6 
#
# 1 59.2584 -3.7257 7.5362 0.0000 -19.4718 0.0000
# 2 -3.7257 48.1814 11.0742 0.0000 6.1849 0.0000
# 3 7.5362 11.0742 56.1301 0.0000 -1.6512 0.0000
# 4 0.0000 0.0000 0.0000 29.7605 0.0000 -3.3002
# 5 -19.4718 6.1849 -1.6512 0.0000 30.8372 0.0000
# 6 0.0000 0.0000 0.0000 -3.3002 0.0000 24.2203
#
#
#
# Elastic Compliance Matrix: (Units=1/GPa)
#
#
# Indices 1 2 3 4 5 6 
#
# 1 0.021654 0.000554 -0.002622 0.000000 0.013421 0.000000
# 2 0.000554 0.022426 -0.004628 0.000000 -0.004396 0.000000
# 3 -0.002622 -0.004628 0.019090 0.000000 0.000295 0.000000
# 4 0.000000 0.000000 0.000000 0.034117 0.000000 0.004649
# 5 0.013421 -0.004396 0.000295 0.000000 0.041801 0.000000
# 6 0.000000 0.000000 0.000000 0.004649 0.000000 0.041921
#
#
# Mechanical properties :
#
#
# Convention : Reuss Voigt Hill
#
# Bulk Modulus (GPa) = 20.08949 21.48215 20.78582
# Shear Modulus (GPa) = 23.69757 26.87595 25.28676
#
# Velocity S-wave (km/s) = 3.31451 3.52979 3.42384
# Velocity P-wave (km/s) = 4.89502 5.15475 5.02657
#
# Compressibility (1/GPa) = 0.04977727
#
# Stress axis : x y z
#
# Youngs Moduli (GPa) = 46.18148 44.59153 52.38464
#
# Poissons Ratio (x) = -0.02471 0.13734
# Poissons Ratio (y) = -0.02559 0.24245
# Poissons Ratio (z) = 0.12108 0.20638
#
# Static dielectric constant tensor:
#      x y z
#    x 1.830370 0.000000 0.036770 
#    y 0.000000 1.828550 0.000000 
#    z 0.036770 0.000000 1.821440 
# 
# From -- ./inp_files/35249.got.cif
#   From: 2010.05.17/outbox.cif.g08.bks.cpg/sg14_18_cif.got.tgz:35249.got - 2010.06.03 17:49:19.
