data_PCOD9250593
_publ_section_title
;
Structure prediction by ZEFSAII (Michael W. Deem and Ramdas Pophale) SiO2 
 PCOD9250593
Probable space group: P 21/C
;
_chemical_formula_sum "Si O2"
_cell_formula_units_Z 30
_cell_length_a 8.865066
_cell_length_b 13.006174
_cell_length_c 12.822697
_cell_angle_alpha 90.000000
_cell_angle_beta 57.580796
_cell_angle_gamma 90.000000
_cell_volume 1248.043305
_symmetry_space_group_name_H-M "P 21/C"
_symmetry_group_IT_number 14
_symmetry_cell_setting 'monoclinic'
loop_
_space_group_symop_operation_xyz
x,y,z
-x,1/2+y,1/2-z
-x,-y,-z
x,1/2-y,1/2+z
loop_
_atom_site_type_symbol
_atom_site_label
_atom_site_fract_x
_atom_site_fract_y
_atom_site_fract_z
Si Si1 0.513473 0.426291 0.155916
Si Si2 0.681903 0.909934 0.730378
Si Si3 0.709248 0.082260 0.386976
Si Si4 0.174947 0.201837 0.855862
Si Si5 0.014879 0.533640 0.874521
Si Si6 0.885605 0.281990 0.281191
Si Si7 0.000000 0.000000 0.000000
Si Si8 0.636925 0.076043 0.011199
O O1 0.636255 0.479933 0.195293
O O2 0.432711 0.529151 0.133331
O O3 0.354820 0.359128 0.258877
O O4 0.622991 0.371780 0.023718
O O5 0.758852 0.815187 0.634132
O O6 0.851223 0.952530 0.732399
O O7 0.504486 0.874708 0.854817
O O8 0.818045 0.167884 0.286005
O O9 0.831389 0.989902 0.383494
O O10 0.060663 0.121911 0.965690
O O11 0.053277 0.219804 0.797979
O O12 0.064673 0.650765 0.837027
O O13 0.000000 0.500000 0.000000
O O14 0.727423 0.344508 0.397970
O O15 0.803309 0.025587 0.012456
O O16 0.500000 0.000000 0.000000
#
# Coordination Sequence:
#
# PCOD9250593 Si02
#       8
#     4   4   4   4   4   4   2   4
#     4  11  24  44  70 101 149 186 244 313 363 451
#     4  12  24  43  73 105 145 188 249 307 371 454
#     4  11  24  45  69 101 140 195 240 294 384 435
#     4  11  23  44  70 104 146 194 242 307 379 450
#     4  12  24  45  70 106 146 187 246 314 358 443
#     4  11  24  45  72 102 144 194 243 303 377 455
#     4  10  24  44  68 104 150 180 248 314 372 440
#     4  11  23  43  71 100 142 193 236 307 370 439
#
# _framework density 24.037627000000001
#
# number of rings (size 3 to 8) (size 9 to 14) (size 15 to 20)
#    0.000    0.800    6.667    0.800    0.000    2.133 
#    4.800    0.000    0.000    0.000    0.000    0.000 
#    0.000    0.000    0.000    0.000    0.000    0.000 
#
# Total GULP energy -167011.013329 kJ/mol
# GULP energy per Si atom -5567.033778 kJ/mol
# Density = 2.398292 g / cm^3
# Si number density = 24.037627 Si / 1000 Ang^3
#
#
#
# Elastic Constant Matrix: (Units=GPa)
#
#
# Indices 1 2 3 4 5 6 
#
# 1 96.8300 22.6943 13.8806 0.0000 -21.1302 0.0000
# 2 22.6943 113.9225 27.4192 0.0000 -8.0866 0.0000
# 3 13.8806 27.4192 76.6800 0.0000 -16.0659 0.0000
# 4 0.0000 0.0000 0.0000 41.9834 0.0000 -12.0266
# 5 -21.1302 -8.0866 -16.0659 0.0000 29.2423 0.0000
# 6 0.0000 0.0000 0.0000 -12.0266 0.0000 21.6481
#
#
#
# Elastic Compliance Matrix: (Units=1/GPa)
#
#
# Indices 1 2 3 4 5 6 
#
# 1 0.012659 -0.001959 0.000240 0.000000 0.008737 0.000000
# 2 -0.001959 0.009927 -0.003296 0.000000 -0.000481 0.000000
# 3 0.000240 -0.003296 0.015846 0.000000 0.007967 0.000000
# 4 0.000000 0.000000 0.000000 0.028327 0.000000 0.015737
# 5 0.008737 -0.000481 0.007967 0.000000 0.044755 0.000000
# 6 0.000000 0.000000 0.000000 0.015737 0.000000 0.054936
#
#
# Mechanical properties :
#
#
# Convention : Reuss Voigt Hill
#
# Bulk Modulus (GPa) = 35.21034 46.15785 40.68409
# Shear Modulus (GPa) = 26.88930 33.47064 30.17997
#
# Velocity S-wave (km/s) = 3.34823 3.73557 3.54719
# Velocity P-wave (km/s) = 5.44310 6.15224 5.80850
#
# Compressibility (1/GPa) = 0.02840075
#
# Stress axis : x y z
#
# Youngs Moduli (GPa) = 78.99649 100.73218 63.10840
#
# Poissons Ratio (x) = 0.19736 -0.01512
# Poissons Ratio (y) = 0.15477 0.20800
# Poissons Ratio (z) = -0.01893 0.33201
#
# Static dielectric constant tensor:
#      x y z
#    x 1.910490 0.000000 -0.005860 
#    y 0.000000 1.912830 0.000000 
#    z -0.005860 0.000000 2.052500 
# 
# From -- ./inp_files/40261.got.cif
#   From: 2010.05.17/outbox.cif.g08.bks.cpg/sg14_21_cif.got.tgz:40261.got - 2010.06.03 17:49:19.
