data_PCOD9250717
_publ_section_title
;
Structure prediction by ZEFSAII (Michael W. Deem and Ramdas Pophale) SiO2 
 PCOD9250717
Probable space group: P 21/C
;
_chemical_formula_sum "Si O2"
_cell_formula_units_Z 20
_cell_length_a 9.416259
_cell_length_b 9.758241
_cell_length_c 10.076212
_cell_angle_alpha 90.000000
_cell_angle_beta 119.356721
_cell_angle_gamma 90.000000
_cell_volume 806.968656
_symmetry_space_group_name_H-M "P 21/C"
_symmetry_group_IT_number 14
_symmetry_cell_setting 'monoclinic'
loop_
_space_group_symop_operation_xyz
x,y,z
-x,1/2+y,1/2-z
-x,-y,-z
x,1/2-y,1/2+z
loop_
_atom_site_type_symbol
_atom_site_label
_atom_site_fract_x
_atom_site_fract_y
_atom_site_fract_z
Si Si1 0.018323 0.275763 0.363737
Si Si2 0.373277 0.221866 0.580576
Si Si3 0.420937 0.569334 0.166117
Si Si4 0.283394 0.454599 0.376188
Si Si5 0.195403 0.802865 0.975997
O O1 0.177472 0.199760 0.498073
O O2 0.100974 0.400193 0.320187
O O3 0.905066 0.317144 0.434328
O O4 0.917478 0.197362 0.206178
O O5 0.440481 0.324000 0.724029
O O6 0.308964 0.565831 0.504040
O O7 0.462152 0.076428 0.618007
O O8 0.385459 0.317815 0.456617
O O9 0.293528 0.661545 0.026789
O O10 0.328120 0.518990 0.257664
#
# Coordination Sequence:
#
# PCOD9250717 Si02
#       5
#     4   4   4   4   4
#     4  10  25  42  76 104 144 185 243 291 363 421
#     4  10  26  43  72 100 144 187 240 294 361 424
#     4  12  24  49  72 105 142 197 239 298 361 427
#     4  10  24  45  73  98 150 181 243 296 355 424
#     4  12  23  47  75 107 143 192 239 301 363 426
#
# _framework density 24.784112
#
# number of rings (size 3 to 8) (size 9 to 14) (size 15 to 20)
#    1.200    0.000    2.000    3.600    2.800    1.600 
#    3.600    2.000    0.000    0.000    0.000    0.000 
#    0.000    0.000    0.000    0.000    0.000    0.000 
#
# Total GULP energy -111708.079517 kJ/mol
# GULP energy per Si atom -5585.403976 kJ/mol
# Density = 2.472770 g / cm^3
# Si number density = 24.784112 Si / 1000 Ang^3
#
#
#
# Elastic Constant Matrix: (Units=GPa)
#
#
# Indices 1 2 3 4 5 6 
#
# 1 102.6153 17.1066 45.6869 0.0000 -19.7459 0.0000
# 2 17.1066 170.0129 75.9156 0.0000 5.9800 0.0000
# 3 45.6869 75.9156 115.0866 0.0000 3.9864 0.0000
# 4 0.0000 0.0000 0.0000 39.2294 0.0000 -9.3674
# 5 -19.7459 5.9800 3.9864 0.0000 28.8640 0.0000
# 6 0.0000 0.0000 0.0000 -9.3674 0.0000 25.0411
#
#
#
# Elastic Compliance Matrix: (Units=1/GPa)
#
#
# Indices 1 2 3 4 5 6 
#
# 1 0.014768 0.001302 -0.007096 0.000000 0.010813 0.000000
# 2 0.001302 0.008480 -0.006110 0.000000 -0.000022 0.000000
# 3 -0.007096 -0.006110 0.015736 0.000000 -0.005762 0.000000
# 4 0.000000 0.000000 0.000000 0.027991 0.000000 0.010471
# 5 0.010813 -0.000022 -0.005762 0.000000 0.042843 0.000000
# 6 0.000000 0.000000 0.000000 0.010471 0.000000 0.043851
#
#
# Mechanical properties :
#
#
# Convention : Reuss Voigt Hill
#
# Bulk Modulus (GPa) = 65.89118 73.90368 69.89743
# Shear Modulus (GPa) = 27.39174 35.22726 31.30950
#
# Velocity S-wave (km/s) = 3.32808 3.77419 3.55813
# Velocity P-wave (km/s) = 6.43521 6.99116 6.71894
#
# Compressibility (1/GPa) = 0.01517654
#
# Stress axis : x y z
#
# Youngs Moduli (GPa) = 67.71284 117.92599 63.54792
#
# Poissons Ratio (x) = -0.15359 0.45096
# Poissons Ratio (y) = -0.08819 0.38827
# Poissons Ratio (z) = 0.48051 0.72052
#
# Static dielectric constant tensor:
#      x y z
#    x 1.945460 0.000000 0.043270 
#    y 0.000000 2.020650 0.000000 
#    z 0.043270 0.000000 1.994160 
# 
# From -- ./inp_files/43256.got.cif
#   From: 2010.05.17/outbox.cif.g08.bks.cpg/sg14_22_cif.got.tgz:43256.got - 2010.06.03 17:49:19.
