data_PCOD9250031
_publ_section_title
;
Structure prediction by ZEFSAII (Michael W. Deem and Ramdas Pophale) SiO2 
 PCOD9250031
Probable space group: P 21/C
;
_chemical_formula_sum "Si O2"
_cell_formula_units_Z 16
_cell_length_a 7.868250
_cell_length_b 7.960249
_cell_length_c 8.885321
_cell_angle_alpha 90.000000
_cell_angle_beta 87.749167
_cell_angle_gamma 90.000000
_cell_volume 556.086975
_symmetry_space_group_name_H-M "P 21/C"
_symmetry_group_IT_number 14
_symmetry_cell_setting 'monoclinic'
loop_
_space_group_symop_operation_xyz
x,y,z
-x,1/2+y,1/2-z
-x,-y,-z
x,1/2-y,1/2+z
loop_
_atom_site_type_symbol
_atom_site_label
_atom_site_fract_x
_atom_site_fract_y
_atom_site_fract_z
Si Si1 0.839969 0.270482 0.419572
Si Si2 0.539803 0.048007 0.825410
Si Si3 0.690430 0.561152 0.035277
Si Si4 0.815897 0.895794 0.121281
O O1 0.664320 0.293005 0.334410
O O2 0.843106 0.421067 0.544166
O O3 0.009390 0.318381 0.322049
O O4 0.822044 0.085845 0.488304
O O5 0.350085 0.077528 0.769811
O O6 0.657736 0.934310 0.718412
O O7 0.500000 0.000000 0.000000
O O8 0.758460 0.748630 0.006815
O O9 0.500000 0.500000 0.000000
#
# Coordination Sequence:
#
# PCOD9250031 Si02
#       4
#     4   4   4   4
#     4  10  23  47  69 104 140 187 233 295 350 413
#     4  10  24  45  68 104 145 181 231 294 352 410
#     4  12  25  44  77 105 140 192 239 286 356 435
#     4  10  23  45  72  99 145 182 235 293 351 416
#
# _framework density 28.772478
#
# number of rings (size 3 to 8) (size 9 to 14) (size 15 to 20)
#    0.000    1.500    2.500    0.750    7.000    0.000 
#   22.500    0.000    0.000    0.000    0.000    0.000 
#    0.000    0.000    0.000    0.000    0.000    0.000 
#
# Total GULP energy -89341.127413 kJ/mol
# GULP energy per Si atom -5583.820463 kJ/mol
# Density = 2.870699 g / cm^3
# Si number density = 28.772478 Si / 1000 Ang^3
#
#
#
# Elastic Constant Matrix: (Units=GPa)
#
#
# Indices 1 2 3 4 5 6 
#
# 1 207.1448 49.5250 16.0886 0.0000 -36.5196 0.0000
# 2 49.5250 224.0693 29.8826 0.0000 -1.1738 0.0000
# 3 16.0886 29.8826 50.5917 0.0000 -18.8576 0.0000
# 4 0.0000 0.0000 0.0000 43.3654 0.0000 -0.7091
# 5 -36.5196 -1.1738 -18.8576 0.0000 37.4593 0.0000
# 6 0.0000 0.0000 0.0000 -0.7091 0.0000 51.3747
#
#
#
# Elastic Compliance Matrix: (Units=1/GPa)
#
#
# Indices 1 2 3 4 5 6 
#
# 1 0.006285 -0.001547 0.001454 0.000000 0.006811 0.000000
# 2 -0.001547 0.005303 -0.003866 0.000000 -0.003289 0.000000
# 3 0.001454 -0.003866 0.027169 0.000000 0.014973 0.000000
# 4 0.000000 0.000000 0.000000 0.023065 0.000000 0.000318
# 5 0.006811 -0.003289 0.014973 0.000000 0.040771 0.000000
# 6 0.000000 0.000000 0.000000 0.000318 0.000000 0.019469
#
#
# Mechanical properties :
#
#
# Convention : Reuss Voigt Hill
#
# Bulk Modulus (GPa) = 32.42764 74.75537 53.59150
# Shear Modulus (GPa) = 35.64786 52.19385 43.92086
#
# Velocity S-wave (km/s) = 3.52370 4.26375 3.91127
# Velocity P-wave (km/s) = 5.27732 7.09066 6.25010
#
# Compressibility (1/GPa) = 0.03083789
#
# Stress axis : x y z
#
# Youngs Moduli (GPa) = 159.09892 188.56112 36.80732
#
# Poissons Ratio (x) = 0.29179 -0.05352
# Poissons Ratio (y) = 0.24620 0.14231
# Poissons Ratio (z) = -0.23133 0.72902
#
# Static dielectric constant tensor:
#      x y z
#    x 2.353620 0.000000 0.119850 
#    y 0.000000 2.222490 0.000000 
#    z 0.119850 0.000000 2.415490 
# 
# From -- ./inp_files/22737.got.cif
#   From: 2010.05.17/outbox.cif.g08.bks.cpg/sg14_12_cif.got.tgz:22737.got - 2010.06.03 17:49:19.
