data_PCOD9250366
_publ_section_title
;
Structure prediction by ZEFSAII (Michael W. Deem and Ramdas Pophale) SiO2 
 PCOD9250366
Probable space group: P 21/C
;
_chemical_formula_sum "Si O2"
_cell_formula_units_Z 28
_cell_length_a 6.691528
_cell_length_b 28.061303
_cell_length_c 9.020178
_cell_angle_alpha 90.000000
_cell_angle_beta 121.519716
_cell_angle_gamma 90.000000
_cell_volume 1443.851113
_symmetry_space_group_name_H-M "P 21/C"
_symmetry_group_IT_number 14
_symmetry_cell_setting 'monoclinic'
loop_
_space_group_symop_operation_xyz
x,y,z
-x,1/2+y,1/2-z
-x,-y,-z
x,1/2-y,1/2+z
loop_
_atom_site_type_symbol
_atom_site_label
_atom_site_fract_x
_atom_site_fract_y
_atom_site_fract_z
Si Si1 0.525185 0.408485 0.123297
Si Si2 0.757551 0.500416 0.323845
Si Si3 0.940117 0.959491 0.591548
Si Si4 0.404560 0.914804 0.700798
Si Si5 0.472239 0.761953 0.046418
Si Si6 0.695460 0.689104 0.905009
Si Si7 0.754956 0.187934 0.311950
O O1 0.656453 0.446883 0.277407
O O2 0.498649 0.352747 0.144854
O O3 0.256971 0.424283 0.040261
O O4 0.610173 0.416428 0.985857
O O5 0.821913 0.515164 0.183051
O O6 0.593809 0.544207 0.314141
O O7 0.000000 0.500000 0.500000
O O8 0.177231 0.931034 0.704226
O O9 0.000000 0.000000 0.500000
O O10 0.413778 0.858546 0.736536
O O11 0.626741 0.730455 0.994031
O O12 0.295854 0.791877 0.872655
O O13 0.643506 0.792858 0.218220
O O14 0.329074 0.727361 0.101609
O O15 0.969959 0.677040 0.045260
#
# Coordination Sequence:
#
# PCOD9250366 Si02
#       7
#     4   4   4   4   4   4   4
#     4  11  21  39  63  90 123 161 211 249 309 376
#     4  11  25  40  58  96 131 158 202 267 308 366
#     4  11  19  39  66  81 116 168 205 241 299 378
#     4  11  21  40  64  90 121 167 211 248 310 384
#     4  10  24  42  62  96 126 159 212 265 310 382
#     4  11  22  41  67  91 126 165 207 262 317 370
#     4  11  22  42  66  92 125 167 210 257 322 370
#
# _framework density 19.392579999999999
#
# number of rings (size 3 to 8) (size 9 to 14) (size 15 to 20)
#    0.000    1.143    5.714    1.714    0.000    1.714 
#    5.143    1.429    0.000    0.000    0.000    0.000 
#    0.000    0.000    0.000    0.000    0.000    0.000 
#
# Total GULP energy -155898.869854 kJ/mol
# GULP energy per Si atom -5567.816781 kJ/mol
# Density = 1.934844 g / cm^3
# Si number density = 19.392580 Si / 1000 Ang^3
#
#
#
# Elastic Constant Matrix: (Units=GPa)
#
#
# Indices 1 2 3 4 5 6 
#
# 1 44.9234 -6.8992 3.8375 0.0000 12.3882 0.0000
# 2 -6.8992 83.8634 34.4363 0.0000 4.8111 0.0000
# 3 3.8375 34.4363 82.4572 0.0000 13.3946 0.0000
# 4 0.0000 0.0000 0.0000 -1.8244 0.0000 1.1905
# 5 12.3882 4.8111 13.3946 0.0000 25.3552 0.0000
# 6 0.0000 0.0000 0.0000 1.1905 0.0000 34.7690
#
#
#
# Elastic Compliance Matrix: (Units=1/GPa)
#
#
# Indices 1 2 3 4 5 6 
#
# 1 0.026436 0.003085 -0.000356 0.000000 -0.013313 0.000000
# 2 0.003085 0.014758 -0.006133 0.000000 -0.001067 0.000000
# 3 -0.000356 -0.006133 0.015848 0.000000 -0.007035 0.000000
# 4 0.000000 0.000000 0.000000 -0.536148 0.000000 0.018358
# 5 -0.013313 -0.001067 -0.007035 0.000000 0.049863 0.000000
# 6 0.000000 0.000000 0.000000 0.018358 0.000000 0.028133
#
#
# Mechanical properties :
#
#
# Convention : Reuss Voigt Hill
#
# Bulk Modulus (GPa) = 19.90753 30.44369 25.17561
# Shear Modulus (GPa) = -13.24302 23.65125 5.20411
#
# Velocity S-wave (km/s) = -2.61605 3.49607 1.63993
# Velocity P-wave (km/s) = 1.07835 5.65945 4.07383
#
# Compressibility (1/GPa) = 0.05023224
#
# Stress axis : x y z
#
# Youngs Moduli (GPa) = 37.82788 67.76140 63.09843
#
# Poissons Ratio (x) = -0.20902 0.02246
# Poissons Ratio (y) = -0.11669 0.38701
# Poissons Ratio (z) = 0.01346 0.41561
#
# Static dielectric constant tensor:
#      x y z
#    x 1.691690 0.000000 -0.018350 
#    y 0.000000 1.826960 0.000000 
#    z -0.018350 0.000000 1.595370 
# 
# From -- ./inp_files/6849.got.cif
#   From: 2010.05.17/outbox.cif.g08.bks.cpg/sg14_4_cif.got.tgz:6849.got - 2010.06.03 17:49:19.
