data_PCOD9250817
_publ_section_title
;
Structure prediction by ZEFSAII (Michael W. Deem and Ramdas Pophale) SiO2 
 PCOD9250817
Probable space group: P 21/C
;
_chemical_formula_sum "Si O2"
_cell_formula_units_Z 16
_cell_length_a 24.082279
_cell_length_b 5.000247
_cell_length_c 13.063209
_cell_angle_alpha 90.000000
_cell_angle_beta 21.914239
_cell_angle_gamma 90.000000
_cell_volume 587.086252
_symmetry_space_group_name_H-M "P 21/C"
_symmetry_group_IT_number 14
_symmetry_cell_setting 'monoclinic'
loop_
_space_group_symop_operation_xyz
x,y,z
-x,1/2+y,1/2-z
-x,-y,-z
x,1/2-y,1/2+z
loop_
_atom_site_type_symbol
_atom_site_label
_atom_site_fract_x
_atom_site_fract_y
_atom_site_fract_z
Si Si1 0.145052 0.184923 0.744928
Si Si2 0.319163 0.968650 0.089392
Si Si3 0.540287 0.792225 0.342625
Si Si4 0.971047 0.210232 0.366355
O O1 0.200472 0.307525 0.757016
O O2 0.305391 0.124820 0.419285
O O3 0.080592 0.391464 0.769100
O O4 0.000000 0.000000 0.000000
O O5 0.195957 0.736060 0.306008
O O6 0.436141 0.011085 0.797439
O O7 0.413894 0.919801 0.028248
O O8 0.500000 0.000000 0.500000
O O9 0.034668 0.484114 0.210902
#
# Coordination Sequence:
#
# PCOD9250817 Si02
#       4
#     4   4   4   4
#     4  10  24  46  80 115 167 223 285 370 447 523
#     4  10  25  45  80 116 172 215 292 355 451 516
#     4  10  24  48  79 120 172 227 290 362 457 536
#     4  12  26  48  81 120 165 225 297 363 447 537
#
# _framework density 27.253238
#
# number of rings (size 3 to 8) (size 9 to 14) (size 15 to 20)
#    1.500    0.000    0.000    3.750    3.500    2.000 
#    0.000    2.500    0.000    0.000    0.000    0.000 
#    0.000    0.000    0.000    0.000    0.000    0.000 
#
# Total GULP energy -89072.670944 kJ/mol
# GULP energy per Si atom -5567.041934 kJ/mol
# Density = 2.719121 g / cm^3
# Si number density = 27.253238 Si / 1000 Ang^3
#
#
#
# Elastic Constant Matrix: (Units=GPa)
#
#
# Indices 1 2 3 4 5 6 
#
# 1 129.8417 65.5981 85.2330 0.0000 3.2473 0.0000
# 2 65.5981 124.9371 52.7357 0.0000 -8.3105 0.0000
# 3 85.2330 52.7357 192.0352 0.0000 -51.0906 0.0000
# 4 0.0000 0.0000 0.0000 38.9258 0.0000 -1.5168
# 5 3.2473 -8.3105 -51.0906 0.0000 50.4962 0.0000
# 6 0.0000 0.0000 0.0000 -1.5168 0.0000 37.5437
#
#
#
# Elastic Compliance Matrix: (Units=1/GPa)
#
#
# Indices 1 2 3 4 5 6 
#
# 1 0.016528 -0.005759 -0.008606 0.000000 -0.010718 0.000000
# 2 -0.005759 0.011133 0.000116 0.000000 0.002320 0.000000
# 3 -0.008606 0.000116 0.012517 0.000000 0.013237 0.000000
# 4 0.000000 0.000000 0.000000 0.025730 0.000000 0.001040
# 5 -0.010718 0.002320 0.013237 0.000000 0.034267 0.000000
# 6 0.000000 0.000000 0.000000 0.001040 0.000000 0.026678
#
#
# Mechanical properties :
#
#
# Convention : Reuss Voigt Hill
#
# Bulk Modulus (GPa) = 85.61269 94.88306 90.24787
# Shear Modulus (GPa) = 31.39813 41.60960 36.50387
#
# Velocity S-wave (km/s) = 3.39792 3.91164 3.66380
# Velocity P-wave (km/s) = 6.84664 7.43587 7.14733
#
# Compressibility (1/GPa) = 0.01168051
#
# Stress axis : x y z
#
# Youngs Moduli (GPa) = 60.50170 89.82303 79.89137
#
# Poissons Ratio (x) = 0.51725 0.68756
# Poissons Ratio (y) = 0.34840 -0.00925
# Poissons Ratio (z) = 0.52069 -0.01040
#
# Static dielectric constant tensor:
#      x y z
#    x 2.273990 0.000000 0.061280 
#    y 0.000000 2.297160 0.000000 
#    z 0.061280 0.000000 2.176450 
# 
# From -- ./inp_files/50935.got.cif
#   From: 2010.05.17/outbox.cif.g08.bks.cpg/sg14_26_cif.got.tgz:50935.got - 2010.06.03 17:49:19.
