data_PCOD9250295
_publ_section_title
;
Structure prediction by ZEFSAII (Michael W. Deem and Ramdas Pophale) SiO2 
 PCOD9250295
Probable space group: P 21/C
;
_chemical_formula_sum "Si O2"
_cell_formula_units_Z 24
_cell_length_a 8.064089
_cell_length_b 4.782366
_cell_length_c 22.234453
_cell_angle_alpha 90.000000
_cell_angle_beta 98.531101
_cell_angle_gamma 90.000000
_cell_volume 847.993518
_symmetry_space_group_name_H-M "P 21/C"
_symmetry_group_IT_number 14
_symmetry_cell_setting 'monoclinic'
loop_
_space_group_symop_operation_xyz
x,y,z
-x,1/2+y,1/2-z
-x,-y,-z
x,1/2-y,1/2+z
loop_
_atom_site_type_symbol
_atom_site_label
_atom_site_fract_x
_atom_site_fract_y
_atom_site_fract_z
Si Si1 0.000000 0.000000 0.000000
Si Si2 0.230026 0.072114 0.934734
Si Si3 0.915282 0.017909 0.408507
Si Si4 0.069018 0.145401 0.722965
Si Si5 0.548944 0.905078 0.369340
Si Si6 0.630370 0.573320 0.684841
Si Si7 0.500000 0.500000 0.000000
O O1 0.087093 0.257051 0.047045
O O2 0.195314 0.859484 0.986879
O O3 0.253102 0.995511 0.867117
O O4 0.373335 0.280552 0.960194
O O5 0.037680 0.221289 0.934621
O O6 0.980954 0.922799 0.347218
O O7 0.721751 0.074405 0.385106
O O8 0.255901 0.047578 0.750641
O O9 0.049721 0.467269 0.739212
O O10 0.531257 0.623240 0.329669
O O11 0.418655 0.110130 0.330450
O O12 0.508735 0.825413 0.435907
#
# Coordination Sequence:
#
# PCOD9250295 Si02
#       7
#     2   4   4   4   4   4   2
#     4   8  20  42  72 106 152 184 260 310 378 452
#     4   9  21  45  71 104 149 197 251 311 375 462
#     4  10  24  45  73 114 147 201 255 317 387 448
#     4  12  25  48  79 107 144 202 258 319 380 465
#     4  11  27  43  72 108 150 195 241 315 375 450
#     4  11  25  46  71 106 146 196 251 305 379 450
#     4  10  24  40  70 104 150 192 244 294 388 446
#
# _framework density 28.302105999999998
#
# number of rings (size 3 to 8) (size 9 to 14) (size 15 to 20)
#    1.000    0.667    1.667    1.000    7.000    4.667 
#    3.000    0.000    0.000    3.000    0.000    0.000 
#    0.000    0.000    0.000    0.000    0.000    0.000 
#
# Total GULP energy -133735.047546 kJ/mol
# GULP energy per Si atom -5572.293648 kJ/mol
# Density = 2.823769 g / cm^3
# Si number density = 28.302106 Si / 1000 Ang^3
#
#
#
# Elastic Constant Matrix: (Units=GPa)
#
#
# Indices 1 2 3 4 5 6 
#
# 1 64.1178 6.6113 23.4019 0.0000 7.3971 0.0000
# 2 6.6113 118.0141 42.3815 0.0000 19.3739 0.0000
# 3 23.4019 42.3815 158.1448 0.0000 6.7991 0.0000
# 4 0.0000 0.0000 0.0000 34.8223 0.0000 6.9673
# 5 7.3971 19.3739 6.7991 0.0000 56.0338 0.0000
# 6 0.0000 0.0000 0.0000 6.9673 0.0000 43.9745
#
#
#
# Elastic Compliance Matrix: (Units=1/GPa)
#
#
# Indices 1 2 3 4 5 6 
#
# 1 0.016696 0.000276 -0.002459 0.000000 -0.002001 0.000000
# 2 0.000276 0.009893 -0.002557 0.000000 -0.003147 0.000000
# 3 -0.002459 -0.002557 0.007359 0.000000 0.000316 0.000000
# 4 0.000000 0.000000 0.000000 0.029657 0.000000 -0.004699
# 5 -0.002001 -0.003147 0.000316 0.000000 0.019160 0.000000
# 6 0.000000 0.000000 0.000000 -0.004699 0.000000 0.023485
#
#
# Mechanical properties :
#
#
# Convention : Reuss Voigt Hill
#
# Bulk Modulus (GPa) = 40.86774 53.89623 47.38199
# Shear Modulus (GPa) = 40.35996 44.82491 42.59243
#
# Velocity S-wave (km/s) = 3.78039 3.98402 3.88354
# Velocity P-wave (km/s) = 5.79019 6.34411 6.07347
#
# Compressibility (1/GPa) = 0.02446918
#
# Stress axis : x y z
#
# Youngs Moduli (GPa) = 59.89447 101.08283 135.89241
#
# Poissons Ratio (x) = -0.02791 0.33411
# Poissons Ratio (y) = -0.01654 0.34745
# Poissons Ratio (z) = 0.14726 0.25845
#
# Static dielectric constant tensor:
#      x y z
#    x 2.937580 0.000000 -0.244850 
#    y 0.000000 -8.919550 0.000000 
#    z -0.244850 0.000000 2.583250 
# 
# From -- ./inp_files/71617.got.cif
#   From: 2010.05.17/outbox.cif.g08.bks.cpg/sg14_36_cif.got.tgz:71617.got - 2010.06.03 17:49:19.
