data_PCOD9250178
_publ_section_title
;
Structure prediction by ZEFSAII (Michael W. Deem and Ramdas Pophale) SiO2 
 PCOD9250178
Probable space group: P 21/C
;
_chemical_formula_sum "Si O2"
_cell_formula_units_Z 20
_cell_length_a 11.453796
_cell_length_b 5.370230
_cell_length_c 17.092998
_cell_angle_alpha 90.000000
_cell_angle_beta 140.902218
_cell_angle_gamma 90.000000
_cell_volume 663.049658
_symmetry_space_group_name_H-M "P 21/C"
_symmetry_group_IT_number 14
_symmetry_cell_setting 'monoclinic'
loop_
_space_group_symop_operation_xyz
x,y,z
-x,1/2+y,1/2-z
-x,-y,-z
x,1/2-y,1/2+z
loop_
_atom_site_type_symbol
_atom_site_label
_atom_site_fract_x
_atom_site_fract_y
_atom_site_fract_z
Si Si1 0.960826 0.601828 0.090074
Si Si2 0.904858 0.677425 0.240851
Si Si3 0.233048 0.797308 0.113717
Si Si4 0.668413 0.427011 0.496794
Si Si5 0.557597 0.408177 0.128560
O O1 0.110873 0.395674 0.201055
O O2 0.061757 0.796450 0.085676
O O3 0.883066 0.682888 0.134389
O O4 0.817308 0.455155 0.960151
O O5 0.752923 0.479211 0.189578
O O6 0.127975 0.633857 0.361517
O O7 0.275617 0.979969 0.064522
O O8 0.399591 0.835091 0.260018
O O9 0.462114 0.342230 0.544993
O O10 0.553223 0.167721 0.436325
#
# Coordination Sequence:
#
# PCOD9250178 Si02
#       5
#     4   4   4   4   4
#     4  10  23  47  82 122 169 236 293 366 453 533
#     4  11  26  51  84 125 180 233 300 375 455 544
#     4  10  23  48  80 117 168 226 294 364 441 528
#     4  11  28  50  83 125 170 228 293 364 446 535
#     4  12  26  51  84 123 171 229 292 364 446 535
#
# _framework density 30.163654999999999
#
# number of rings (size 3 to 8) (size 9 to 14) (size 15 to 20)
#    0.000    1.200    0.000    3.600    0.000   14.400 
#    0.000   32.000    0.000    0.000    0.000    0.000 
#    0.000    0.000    0.000    0.000    0.000    0.000 
#
# Total GULP energy -111710.622879 kJ/mol
# GULP energy per Si atom -5585.531144 kJ/mol
# Density = 3.009500 g / cm^3
# Si number density = 30.163655 Si / 1000 Ang^3
#
#
#
# Elastic Constant Matrix: (Units=GPa)
#
#
# Indices 1 2 3 4 5 6 
#
# 1 188.1562 100.0424 102.0727 0.0000 -20.4366 0.0000
# 2 100.0424 181.2727 65.2229 0.0000 22.3402 0.0000
# 3 102.0727 65.2229 210.1611 0.0000 -27.0242 0.0000
# 4 0.0000 0.0000 0.0000 54.0509 0.0000 5.7857
# 5 -20.4366 22.3402 -27.0242 0.0000 79.2071 0.0000
# 6 0.0000 0.0000 0.0000 5.7857 0.0000 77.2164
#
#
#
# Elastic Compliance Matrix: (Units=1/GPa)
#
#
# Indices 1 2 3 4 5 6 
#
# 1 0.009650 -0.004633 -0.002887 0.000000 0.002812 0.000000
# 2 -0.004633 0.008956 -0.001054 0.000000 -0.004081 0.000000
# 3 -0.002887 -0.001054 0.006725 0.000000 0.001847 0.000000
# 4 0.000000 0.000000 0.000000 0.018651 0.000000 -0.001397
# 5 0.002812 -0.004081 0.001847 0.000000 0.015132 0.000000
# 6 0.000000 0.000000 0.000000 -0.001397 0.000000 0.013055
#
#
# Mechanical properties :
#
#
# Convention : Reuss Voigt Hill
#
# Bulk Modulus (GPa) = 122.22238 123.80732 123.01485
# Shear Modulus (GPa) = 54.32127 62.91169 58.61648
#
# Velocity S-wave (km/s) = 4.24829 4.57188 4.41305
# Velocity P-wave (km/s) = 8.04187 8.30685 8.17543
#
# Compressibility (1/GPa) = 0.00818181
#
# Stress axis : x y z
#
# Youngs Moduli (GPa) = 103.62641 111.66028 148.69533
#
# Poissons Ratio (x) = 0.51736 0.42935
# Poissons Ratio (y) = 0.48014 0.15669
# Poissons Ratio (z) = 0.29922 0.11767
#
# Static dielectric constant tensor:
#      x y z
#    x 2.348320 0.000000 0.035270 
#    y 0.000000 2.732210 0.000000 
#    z 0.035270 0.000000 2.481830 
# 
# From -- ./inp_files/57163.got.cif
#   From: 2010.05.17/outbox.cif.g08.bks.cpg/sg14_29_cif.got.tgz:57163.got - 2010.06.03 17:49:19.
