data_PCOD9250232
_publ_section_title
;
Structure prediction by ZEFSAII (Michael W. Deem and Ramdas Pophale) SiO2 
 PCOD9250232
Probable space group: P 21/C
;
_chemical_formula_sum "Si O2"
_cell_formula_units_Z 32
_cell_length_a 9.119488
_cell_length_b 13.766791
_cell_length_c 16.381957
_cell_angle_alpha 90.000000
_cell_angle_beta 124.164702
_cell_angle_gamma 90.000000
_cell_volume 1701.760688
_symmetry_space_group_name_H-M "P 21/C"
_symmetry_group_IT_number 14
_symmetry_cell_setting 'monoclinic'
loop_
_space_group_symop_operation_xyz
x,y,z
-x,1/2+y,1/2-z
-x,-y,-z
x,1/2-y,1/2+z
loop_
_atom_site_type_symbol
_atom_site_label
_atom_site_fract_x
_atom_site_fract_y
_atom_site_fract_z
Si Si1 0.351030 0.028132 0.803760
Si Si2 0.161319 0.334210 0.661355
Si Si3 0.427023 0.193456 0.958554
Si Si4 0.270211 0.438987 0.543503
Si Si5 0.132096 0.384656 0.095040
Si Si6 0.222842 0.507601 0.972838
Si Si7 0.803652 0.396824 0.610431
Si Si8 0.390262 0.405733 0.879175
O O1 0.366117 0.126144 0.863209
O O2 0.265636 0.051241 0.691200
O O3 0.546558 0.982708 0.863815
O O4 0.229926 0.952275 0.815606
O O5 0.150654 0.404625 0.580015
O O6 0.177377 0.226050 0.630897
O O7 0.316278 0.374217 0.768093
O O8 0.984399 0.339458 0.659926
O O9 0.402485 0.305410 0.933092
O O10 0.322007 0.152882 0.003582
O O11 0.632727 0.168918 0.038970
O O12 0.197752 0.519516 0.459136
O O13 0.933009 0.413676 0.061630
O O14 0.162089 0.417535 0.011192
O O15 0.258804 0.474955 0.890585
O O16 0.414788 0.546837 0.062177
#
# Coordination Sequence:
#
# PCOD9250232 Si02
#       8
#     4   4   4   4   4   4   4   4
#     4   9  17  35  56  78 103 140 172 208 259 320
#     4  12  21  32  56  83 104 132 180 222 254 313
#     4   9  17  35  56  78 103 140 172 208 259 320
#     4   9  19  33  55  79 108 134 167 214 269 309
#     4  11  21  38  55  79 107 143 181 217 262 315
#     4  10  24  38  56  74 112 146 176 218 272 314
#     4   9  19  33  55  79 108 134 167 214 269 309
#     4  11  21  38  55  79 107 143 181 217 262 315
#
# _framework density 18.804055000000002
#
# number of rings (size 3 to 8) (size 9 to 14) (size 15 to 20)
#    0.000    2.000    1.250    4.875    0.000    0.000 
#    0.000    0.000    0.000    0.000    0.000    0.000 
#    0.000    0.000    0.000    0.000    0.000    0.000 
#
# Total GULP energy -178514.852406 kJ/mol
# GULP energy per Si atom -5578.589138 kJ/mol
# Density = 1.876126 g / cm^3
# Si number density = 18.804055 Si / 1000 Ang^3
#
#
#
# Elastic Constant Matrix: (Units=GPa)
#
#
# Indices 1 2 3 4 5 6 
#
# 1 58.7380 11.4539 -8.4888 0.0000 -8.3897 0.0000
# 2 11.4539 37.7030 6.3194 0.0000 -7.2547 0.0000
# 3 -8.4888 6.3194 29.8577 0.0000 -6.9026 0.0000
# 4 0.0000 0.0000 0.0000 26.6900 0.0000 -2.4908
# 5 -8.3897 -7.2547 -6.9026 0.0000 13.3654 0.0000
# 6 0.0000 0.0000 0.0000 -2.4908 0.0000 16.7952
#
#
#
# Elastic Compliance Matrix: (Units=1/GPa)
#
#
# Indices 1 2 3 4 5 6 
#
# 1 0.022107 -0.005379 0.011307 0.000000 0.016796 0.000000
# 2 -0.005379 0.031148 -0.005671 0.000000 0.010602 0.000000
# 3 0.011307 -0.005671 0.044102 0.000000 0.026796 0.000000
# 4 0.000000 0.000000 0.000000 0.037993 0.000000 0.005635
# 5 0.016796 0.010602 0.026796 0.000000 0.104957 0.000000
# 6 0.000000 0.000000 0.000000 0.005635 0.000000 0.060376
#
#
# Mechanical properties :
#
#
# Convention : Reuss Voigt Hill
#
# Bulk Modulus (GPa) = 10.21765 16.09640 13.15703
# Shear Modulus (GPa) = 15.02439 19.17107 17.09773
#
# Velocity S-wave (km/s) = 2.82972 3.19645 3.01866
# Velocity P-wave (km/s) = 4.01522 4.71187 4.37743
#
# Compressibility (1/GPa) = 0.09786983
#
# Stress axis : x y z
#
# Youngs Moduli (GPa) = 45.23496 32.10514 22.67488
#
# Poissons Ratio (x) = 0.17270 -0.25638
# Poissons Ratio (y) = 0.24332 0.12858
# Poissons Ratio (z) = -0.51146 0.18206
#
# Static dielectric constant tensor:
#      x y z
#    x 1.635920 0.000000 -0.000610 
#    y 0.000000 1.636970 0.000000 
#    z -0.000610 0.000000 1.644730 
# 
# From -- ./inp_files/41231.got.cif
#   From: 2010.05.17/outbox.cif.g08.bks.cpg/sg14_21_cif.got.tgz:41231.got - 2010.06.03 17:49:19.
