data_PCOD9250766
_publ_section_title
;
Structure prediction by ZEFSAII (Michael W. Deem and Ramdas Pophale) SiO2 
 PCOD9250766
Probable space group: P 21/C
;
_chemical_formula_sum "Si O2"
_cell_formula_units_Z 30
_cell_length_a 6.821421
_cell_length_b 9.680045
_cell_length_c 20.511015
_cell_angle_alpha 90.000000
_cell_angle_beta 58.018149
_cell_angle_gamma 90.000000
_cell_volume 1148.803624
_symmetry_space_group_name_H-M "P 21/C"
_symmetry_group_IT_number 14
_symmetry_cell_setting 'monoclinic'
loop_
_space_group_symop_operation_xyz
x,y,z
-x,1/2+y,1/2-z
-x,-y,-z
x,1/2-y,1/2+z
loop_
_atom_site_type_symbol
_atom_site_label
_atom_site_fract_x
_atom_site_fract_y
_atom_site_fract_z
Si Si1 0.848145 0.041053 0.876192
Si Si2 0.831918 0.936734 0.283918
Si Si3 0.948360 0.331381 0.561196
Si Si4 0.030313 0.525573 0.884104
Si Si5 0.475720 0.151095 0.294726
Si Si6 0.500000 0.500000 0.000000
Si Si7 0.556647 0.815181 0.854275
Si Si8 0.555177 0.775600 0.075111
O O1 0.620159 0.126273 0.932822
O O2 0.015926 0.131415 0.800145
O O3 0.993392 0.965479 0.905940
O O4 0.745076 0.915782 0.851037
O O5 0.996137 0.982956 0.312558
O O6 0.646138 0.838958 0.353289
O O7 0.694956 0.056513 0.272004
O O8 0.929764 0.186421 0.604523
O O9 0.178016 0.313138 0.478982
O O10 0.697279 0.345587 0.573837
O O11 0.249579 0.430796 0.859764
O O12 0.786948 0.479993 0.957230
O O13 0.460846 0.177730 0.220928
O O14 0.501643 0.281449 0.337874
O O15 0.509865 0.626568 0.051725
#
# Coordination Sequence:
#
# PCOD9250766 Si02
#       8
#     4   4   4   4   4   2   4   4
#     4  12  27  46  74 105 148 193 244 306 370 440
#     4  12  25  43  72 106 142 186 237 307 364 438
#     4  11  25  49  69 104 146 194 244 299 368 441
#     4  11  23  44  72 102 141 185 241 296 368 429
#     4  12  26  44  72 112 142 192 248 304 369 440
#     4  10  24  46  70 102 140 192 234 296 356 434
#     4  12  27  44  73 106 146 188 243 309 368 435
#     4  11  28  47  74 105 149 194 248 298 367 449
#
# _framework density 26.114124
#
# number of rings (size 3 to 8) (size 9 to 14) (size 15 to 20)
#    0.000    0.533    6.667    0.400    7.467    3.733 
#    0.000    0.000    0.000    0.000    0.000    0.000 
#    0.000    0.000    0.000    0.000    0.000    0.000 
#
# Total GULP energy -167686.317512 kJ/mol
# GULP energy per Si atom -5589.543917 kJ/mol
# Density = 2.605469 g / cm^3
# Si number density = 26.114124 Si / 1000 Ang^3
#
#
#
# Elastic Constant Matrix: (Units=GPa)
#
#
# Indices 1 2 3 4 5 6 
#
# 1 117.2681 30.8232 24.6325 0.0000 -11.5687 0.0000
# 2 30.8232 55.3103 11.0786 0.0000 -1.1296 0.0000
# 3 24.6325 11.0786 48.9079 0.0000 -16.2463 0.0000
# 4 0.0000 0.0000 0.0000 29.6849 0.0000 -3.5357
# 5 -11.5687 -1.1296 -16.2463 0.0000 49.9261 0.0000
# 6 0.0000 0.0000 0.0000 -3.5357 0.0000 48.8226
#
#
#
# Elastic Compliance Matrix: (Units=1/GPa)
#
#
# Indices 1 2 3 4 5 6 
#
# 1 0.010832 -0.005233 -0.003897 0.000000 0.001123 0.000000
# 2 -0.005233 0.021520 -0.002781 0.000000 -0.001631 0.000000
# 3 -0.003897 -0.002781 0.025472 0.000000 0.007323 0.000000
# 4 0.000000 0.000000 0.000000 0.033980 0.000000 0.002461
# 5 0.001123 -0.001631 0.007323 0.000000 0.022636 0.000000
# 6 0.000000 0.000000 0.000000 0.002461 0.000000 0.020661
#
#
# Mechanical properties :
#
#
# Convention : Reuss Voigt Hill
#
# Bulk Modulus (GPa) = 29.40992 39.39499 34.40245
# Shear Modulus (GPa) = 29.36748 36.01687 32.69217
#
# Velocity S-wave (km/s) = 3.35712 3.71780 3.54205
# Velocity P-wave (km/s) = 5.12967 5.79205 5.47089
#
# Compressibility (1/GPa) = 0.03400213
#
# Stress axis : x y z
#
# Youngs Moduli (GPa) = 92.31571 46.46893 39.25922
#
# Poissons Ratio (x) = 0.24318 0.15300
# Poissons Ratio (y) = 0.48310 0.10917
# Poissons Ratio (z) = 0.35977 0.12921
#
# Static dielectric constant tensor:
#      x y z
#    x 1.972320 0.000000 -0.015650 
#    y 0.000000 2.084630 0.000000 
#    z -0.015650 0.000000 2.118530 
# 
# From -- ./inp_files/63499.got.cif
#   From: 2010.05.17/outbox.cif.g08.bks.cpg/sg14_32_cif.got.tgz:63499.got - 2010.06.03 17:49:19.
