data_PCOD9250570
_publ_section_title
;
Structure prediction by ZEFSAII (Michael W. Deem and Ramdas Pophale) SiO2 
 PCOD9250570
Probable space group: P 21/C
;
_chemical_formula_sum "Si O2"
_cell_formula_units_Z 30
_cell_length_a 11.669228
_cell_length_b 7.504682
_cell_length_c 29.816879
_cell_angle_alpha 90.000000
_cell_angle_beta 151.072049
_cell_angle_gamma 90.000000
_cell_volume 1263.051732
_symmetry_space_group_name_H-M "P 21/C"
_symmetry_group_IT_number 14
_symmetry_cell_setting 'monoclinic'
loop_
_space_group_symop_operation_xyz
x,y,z
-x,1/2+y,1/2-z
-x,-y,-z
x,1/2-y,1/2+z
loop_
_atom_site_type_symbol
_atom_site_label
_atom_site_fract_x
_atom_site_fract_y
_atom_site_fract_z
Si Si1 0.586047 0.302269 0.883252
Si Si2 0.725247 0.703761 0.956406
Si Si3 0.289231 0.292122 0.646026
Si Si4 0.256366 0.627355 0.334504
Si Si5 0.500000 0.500000 0.500000
Si Si6 0.937756 0.649678 0.791860
Si Si7 0.232923 0.626536 0.150253
Si Si8 0.114989 0.650141 0.433112
O O1 0.643717 0.507208 0.913547
O O2 0.310338 0.254978 0.790516
O O3 0.679202 0.273763 0.864910
O O4 0.725716 0.195978 0.969328
O O5 0.781147 0.810686 0.929781
O O6 0.501493 0.784156 0.904240
O O7 0.965070 0.685286 0.066653
O O8 0.566227 0.333829 0.744877
O O9 0.136047 0.401188 0.630133
O O10 0.239460 0.085165 0.641800
O O11 0.332607 0.480135 0.397396
O O12 0.125439 0.546156 0.246916
O O13 0.100917 0.766013 0.309197
O O14 0.259254 0.524297 0.449167
O O15 0.065993 0.680339 0.883252
#
# Coordination Sequence:
#
# PCOD9250570 Si02
#       8
#     4   4   4   4   2   4   4   4
#     4  11  20  43  69  92 137 178 216 276 337 404
#     4  11  24  42  65 100 139 172 219 277 338 409
#     4  11  23  41  68  99 136 176 219 270 339 406
#     4  11  25  46  65  96 133 173 228 284 330 403
#     4  10  24  44  66  96 126 176 226 278 328 390
#     4  11  24  44  68  95 128 178 229 275 337 394
#     4  11  23  42  65 103 137 176 219 273 342 405
#     4  11  21  42  71  94 134 175 221 274 334 393
#
# _framework density 23.751996999999999
#
# number of rings (size 3 to 8) (size 9 to 14) (size 15 to 20)
#    0.000    1.067    5.333    1.600    1.867    1.067 
#    7.200    4.000    0.000    0.000    0.000    0.000 
#    0.000    0.000    0.000    0.000    0.000    0.000 
#
# Total GULP energy -167283.438673 kJ/mol
# GULP energy per Si atom -5576.114622 kJ/mol
# Density = 2.369794 g / cm^3
# Si number density = 23.751997 Si / 1000 Ang^3
#
#
#
# Elastic Constant Matrix: (Units=GPa)
#
#
# Indices 1 2 3 4 5 6 
#
# 1 128.9230 24.6821 24.2206 0.0000 41.0069 0.0000
# 2 24.6821 35.4699 12.5781 0.0000 9.9425 0.0000
# 3 24.2206 12.5781 100.2457 0.0000 16.6638 0.0000
# 4 0.0000 0.0000 0.0000 26.6785 0.0000 -0.5184
# 5 41.0069 9.9425 16.6638 0.0000 41.7187 0.0000
# 6 0.0000 0.0000 0.0000 -0.5184 0.0000 28.0577
#
#
#
# Elastic Compliance Matrix: (Units=1/GPa)
#
#
# Indices 1 2 3 4 5 6 
#
# 1 0.012236 -0.005373 -0.000531 0.000000 -0.010534 0.000000
# 2 -0.005373 0.033311 -0.002613 0.000000 -0.001613 0.000000
# 3 -0.000531 -0.002613 0.010970 0.000000 -0.003237 0.000000
# 4 0.000000 0.000000 0.000000 0.037497 0.000000 0.000693
# 5 -0.010534 -0.001613 -0.003237 0.000000 0.036002 0.000000
# 6 0.000000 0.000000 0.000000 0.000693 0.000000 0.035654
#
#
# Mechanical properties :
#
#
# Convention : Reuss Voigt Hill
#
# Bulk Modulus (GPa) = 25.32831 43.06671 34.19751
# Shear Modulus (GPa) = 25.52792 32.83483 29.18138
#
# Velocity S-wave (km/s) = 3.28192 3.72210 3.50892
# Velocity P-wave (km/s) = 5.00482 6.05337 5.55389
#
# Compressibility (1/GPa) = 0.03948152
#
# Stress axis : x y z
#
# Youngs Moduli (GPa) = 81.72823 30.02029 91.15985
#
# Poissons Ratio (x) = 0.16130 0.04841
# Poissons Ratio (y) = 0.43914 0.23822
# Poissons Ratio (z) = 0.04340 0.07845
#
# Static dielectric constant tensor:
#      x y z
#    x 1.894560 0.000000 -0.005240 
#    y 0.000000 1.914240 0.000000 
#    z -0.005240 0.000000 1.886250 
# 
# From -- ./inp_files/43522.got.cif
#   From: 2010.05.17/outbox.cif.g08.bks.cpg/sg14_22_cif.got.tgz:43522.got - 2010.06.03 17:49:19.
