data_PCOD9250735
_publ_section_title
;
Structure prediction by ZEFSAII (Michael W. Deem and Ramdas Pophale) SiO2 
 PCOD9250735
Probable space group: P 21/C
;
_chemical_formula_sum "Si O2"
_cell_formula_units_Z 28
_cell_length_a 5.036804
_cell_length_b 11.687357
_cell_length_c 19.811946
_cell_angle_alpha 90.000000
_cell_angle_beta 108.947272
_cell_angle_gamma 90.000000
_cell_volume 1103.077369
_symmetry_space_group_name_H-M "P 21/C"
_symmetry_group_IT_number 14
_symmetry_cell_setting 'monoclinic'
loop_
_space_group_symop_operation_xyz
x,y,z
-x,1/2+y,1/2-z
-x,-y,-z
x,1/2-y,1/2+z
loop_
_atom_site_type_symbol
_atom_site_label
_atom_site_fract_x
_atom_site_fract_y
_atom_site_fract_z
Si Si1 0.679074 0.076818 0.160208
Si Si2 0.442582 0.742463 0.239384
Si Si3 0.977536 0.620503 0.765415
Si Si4 0.049895 0.299788 0.906278
Si Si5 0.946502 0.227046 0.600637
Si Si6 0.391144 0.608425 0.031827
Si Si7 0.783237 0.605420 0.480026
O O1 0.510872 0.133564 0.208697
O O2 0.867812 0.178948 0.148529
O O3 0.493690 0.048465 0.078011
O O4 0.872452 0.982794 0.210903
O O5 0.729120 0.787339 0.231850
O O6 0.292107 0.843947 0.270431
O O7 0.196919 0.717645 0.166586
O O8 0.969798 0.617405 0.847306
O O9 0.336243 0.355264 0.903750
O O10 0.895472 0.382644 0.949047
O O11 0.151758 0.178003 0.946533
O O12 0.678314 0.199646 0.532793
O O13 0.157614 0.291467 0.568723
O O14 0.500000 0.500000 0.000000
O O15 0.000000 0.500000 0.500000
#
# Coordination Sequence:
#
# PCOD9250735 Si02
#       7
#     4   4   4   4   4   4   4
#     4  11  24  44  69 100 139 186 230 287 352 407
#     4  11  25  46  65 103 139 174 236 280 341 421
#     4  11  25  42  72  94 141 183 225 282 349 405
#     4  11  24  44  67 104 135 176 235 289 330 424
#     4  10  24  46  64 105 137 179 237 290 336 424
#     4  11  24  44  70  97 137 181 230 282 353 396
#     4  11  23  42  72  99 141 181 227 288 351 407
#
# _framework density 25.383531999999999
#
# number of rings (size 3 to 8) (size 9 to 14) (size 15 to 20)
#    0.000    1.143    2.857    2.143    6.000    1.714 
#    5.143    0.000    0.000    0.000    0.000    0.000 
#    0.000    0.000    0.000    0.000    0.000    0.000 
#
# Total GULP energy -156209.061255 kJ/mol
# GULP energy per Si atom -5578.895045 kJ/mol
# Density = 2.532576 g / cm^3
# Si number density = 25.383532 Si / 1000 Ang^3
#
#
#
# Elastic Constant Matrix: (Units=GPa)
#
#
# Indices 1 2 3 4 5 6 
#
# 1 96.7971 13.7869 1.2396 0.0000 18.9122 0.0000
# 2 13.7869 18.1915 3.4134 0.0000 2.2627 0.0000
# 3 1.2396 3.4134 115.1309 0.0000 33.2680 0.0000
# 4 0.0000 0.0000 0.0000 39.3737 0.0000 12.0042
# 5 18.9122 2.2627 33.2680 0.0000 47.1713 0.0000
# 6 0.0000 0.0000 0.0000 12.0042 0.0000 26.9802
#
#
#
# Elastic Compliance Matrix: (Units=1/GPa)
#
#
# Indices 1 2 3 4 5 6 
#
# 1 0.012807 -0.009311 0.001875 0.000000 -0.006010 0.000000
# 2 -0.009311 0.062180 -0.002462 0.000000 0.002486 0.000000
# 3 0.001875 -0.002462 0.011205 0.000000 -0.008536 0.000000
# 4 0.000000 0.000000 0.000000 0.029383 0.000000 -0.013073
# 5 -0.006010 0.002486 -0.008536 0.000000 0.029510 0.000000
# 6 0.000000 0.000000 0.000000 -0.013073 0.000000 0.042881
#
#
# Mechanical properties :
#
#
# Convention : Reuss Voigt Hill
#
# Bulk Modulus (GPa) = 15.06084 29.66660 22.36372
# Shear Modulus (GPa) = 21.74920 36.81701 29.28310
#
# Velocity S-wave (km/s) = 2.93033 3.81258 3.40019
# Velocity P-wave (km/s) = 4.17077 5.57618 4.92387
#
# Compressibility (1/GPa) = 0.06639738
#
# Stress axis : x y z
#
# Youngs Moduli (GPa) = 78.08046 16.08246 89.24472
#
# Poissons Ratio (x) = 0.14974 -0.16733
# Poissons Ratio (y) = 0.72697 0.21969
# Poissons Ratio (z) = -0.14639 0.03959
#
# Static dielectric constant tensor:
#      x y z
#    x 2.058970 0.000000 -0.085910 
#    y 0.000000 2.107860 0.000000 
#    z -0.085910 0.000000 2.149960 
# 
# From -- ./inp_files/63418.got.cif
#   From: 2010.05.17/outbox.cif.g08.bks.cpg/sg14_32_cif.got.tgz:63418.got - 2010.06.03 17:49:19.
