data_PCOD9250755
_publ_section_title
;
Structure prediction by ZEFSAII (Michael W. Deem and Ramdas Pophale) SiO2 
 PCOD9250755
Probable space group: P 21/C
;
_chemical_formula_sum "Si O2"
_cell_formula_units_Z 30
_cell_length_a 19.297240
_cell_length_b 5.003828
_cell_length_c 16.462939
_cell_angle_alpha 90.000000
_cell_angle_beta 51.410830
_cell_angle_gamma 90.000000
_cell_volume 1242.541258
_symmetry_space_group_name_H-M "P 21/C"
_symmetry_group_IT_number 14
_symmetry_cell_setting 'monoclinic'
loop_
_space_group_symop_operation_xyz
x,y,z
-x,1/2+y,1/2-z
-x,-y,-z
x,1/2-y,1/2+z
loop_
_atom_site_type_symbol
_atom_site_label
_atom_site_fract_x
_atom_site_fract_y
_atom_site_fract_z
Si Si1 0.623153 0.047166 0.481624
Si Si2 0.349999 0.294041 0.201061
Si Si3 0.511796 0.135776 0.298969
Si Si4 0.783342 0.631713 0.069048
Si Si5 0.500000 0.000000 0.000000
Si Si6 0.760189 0.119685 0.986423
Si Si7 0.984578 0.750419 0.955148
Si Si8 0.946698 0.372530 0.261879
O O1 0.550315 0.238318 0.496718
O O2 0.683875 0.232162 0.492554
O O3 0.674335 0.915828 0.369220
O O4 0.563292 0.831116 0.575373
O O5 0.402037 0.505441 0.221260
O O6 0.266723 0.183693 0.310822
O O7 0.417792 0.061982 0.126019
O O8 0.522568 0.404075 0.238504
O O9 0.779799 0.324040 0.045852
O O10 0.884145 0.732885 0.996684
O O11 0.737783 0.825385 0.035303
O O12 0.848675 0.102253 0.868079
O O13 0.049752 0.739378 0.831373
O O14 0.000000 0.500000 0.000000
O O15 0.000000 0.000000 0.000000
O O16 0.997565 0.655309 0.227163
#
# Coordination Sequence:
#
# PCOD9250755 Si02
#       8
#     4   4   4   4   2   4   4   4
#     4  11  27  43  72 104 139 188 245 297 369 430
#     4  11  27  44  72 101 146 185 238 307 361 425
#     4  11  24  43  69  96 133 183 230 286 357 429
#     4  12  27  49  72 108 149 189 244 305 356 435
#     4  10  24  46  68  96 144 182 236 298 370 428
#     4  12  26  48  75 106 146 195 247 295 363 442
#     4  12  26  45  75 111 148 194 246 300 370 441
#     4  12  23  48  75 106 149 197 239 301 368 439
#
# _framework density 24.144065999999999
#
# number of rings (size 3 to 8) (size 9 to 14) (size 15 to 20)
#    0.000    0.533    2.667    4.800   13.067    1.067 
#    0.000    0.000    0.000    0.000    0.000    0.000 
#    0.000    0.000    0.000    0.000    0.000    0.000 
#
# Total GULP energy -167816.193751 kJ/mol
# GULP energy per Si atom -5593.873125 kJ/mol
# Density = 2.408911 g / cm^3
# Si number density = 24.144066 Si / 1000 Ang^3
#
#
#
# Elastic Constant Matrix: (Units=GPa)
#
#
# Indices 1 2 3 4 5 6 
#
# 1 48.9573 -3.2249 -10.9685 0.0000 2.6402 0.0000
# 2 -3.2249 100.5881 7.5092 0.0000 3.2451 0.0000
# 3 -10.9685 7.5092 167.4825 0.0000 -4.8048 0.0000
# 4 0.0000 0.0000 0.0000 35.0210 0.0000 3.0312
# 5 2.6402 3.2451 -4.8048 0.0000 38.3343 0.0000
# 6 0.0000 0.0000 0.0000 3.0312 0.0000 30.8472
#
#
#
# Elastic Compliance Matrix: (Units=1/GPa)
#
#
# Indices 1 2 3 4 5 6 
#
# 1 0.020829 0.000614 0.001299 0.000000 -0.001324 0.000000
# 2 0.000614 0.010024 -0.000436 0.000000 -0.000946 0.000000
# 3 0.001299 -0.000436 0.006096 0.000000 0.000712 0.000000
# 4 0.000000 0.000000 0.000000 0.028799 0.000000 -0.002830
# 5 -0.001324 -0.000946 0.000712 0.000000 0.026347 0.000000
# 6 0.000000 0.000000 0.000000 -0.002830 0.000000 0.032696
#
#
# Mechanical properties :
#
#
# Convention : Reuss Voigt Hill
#
# Bulk Modulus (GPa) = 25.06248 33.73993 29.40121
# Shear Modulus (GPa) = 36.99888 42.42131 39.71010
#
# Velocity S-wave (km/s) = 3.91886 4.19622 4.05991
# Velocity P-wave (km/s) = 5.55694 6.12229 5.84645
#
# Compressibility (1/GPa) = 0.03990027
#
# Stress axis : x y z
#
# Youngs Moduli (GPa) = 48.01071 99.75774 164.04746
#
# Poissons Ratio (x) = -0.06121 -0.21303
# Poissons Ratio (y) = -0.02946 0.07159
# Poissons Ratio (z) = -0.06235 0.04353
#
# Static dielectric constant tensor:
#      x y z
#    x 1.968230 0.000000 -0.006720 
#    y 0.000000 1.710160 0.000000 
#    z -0.006720 0.000000 1.955510 
# 
# From -- ./inp_files/48109.got.cif
#   From: 2010.05.17/outbox.cif.g08.bks.cpg/sg14_25_cif.got.tgz:48109.got - 2010.06.03 17:49:19.
