data_PCOD9250250
_publ_section_title
;
Structure prediction by ZEFSAII (Michael W. Deem and Ramdas Pophale) SiO2 
 PCOD9250250
Probable space group: P 21/C
;
_chemical_formula_sum "Si O2"
_cell_formula_units_Z 32
_cell_length_a 13.996866
_cell_length_b 9.415841
_cell_length_c 22.022568
_cell_angle_alpha 90.000000
_cell_angle_beta 148.681869
_cell_angle_gamma 90.000000
_cell_volume 1508.639112
_symmetry_space_group_name_H-M "P 21/C"
_symmetry_group_IT_number 14
_symmetry_cell_setting 'monoclinic'
loop_
_space_group_symop_operation_xyz
x,y,z
-x,1/2+y,1/2-z
-x,-y,-z
x,1/2-y,1/2+z
loop_
_atom_site_type_symbol
_atom_site_label
_atom_site_fract_x
_atom_site_fract_y
_atom_site_fract_z
Si Si1 0.429690 0.458106 0.147502
Si Si2 0.578927 0.807804 0.555309
Si Si3 0.775679 0.370862 0.055283
Si Si4 0.312068 0.795230 0.818746
Si Si5 0.493361 0.125541 0.193334
Si Si6 0.823386 0.438451 0.533706
Si Si7 0.166715 0.043613 0.821910
Si Si8 0.217366 0.501021 0.743967
O O1 0.441613 0.292164 0.171149
O O2 0.414339 0.557661 0.197753
O O3 0.618484 0.503709 0.215426
O O4 0.269892 0.497716 0.013369
O O5 0.394489 0.844093 0.491916
O O6 0.495780 0.788151 0.442727
O O7 0.683110 0.658713 0.618759
O O8 0.719907 0.923078 0.659330
O O9 0.967718 0.399697 0.193148
O O10 0.773950 0.225477 0.016323
O O11 0.371734 0.878748 0.791532
O O12 0.177041 0.666585 0.732308
O O13 0.226446 0.898815 0.821461
O O14 0.318138 0.027959 0.082693
O O15 0.826893 0.511561 0.602831
O O16 0.028810 0.435510 0.619464
#
# Coordination Sequence:
#
# PCOD9250250 Si02
#       8
#     4   4   4   4   4   4   4   4
#     4  10  25  48  67  96 125 179 226 279 328 396
#     4  11  20  43  61  98 137 177 208 266 335 396
#     4  11  24  41  68  97 139 175 221 269 328 397
#     4  11  22  40  65  98 136 171 216 271 335 404
#     4  11  24  44  73  90 129 177 226 274 338 388
#     4  12  23  40  65 101 134 178 215 275 329 401
#     4  12  24  38  66 106 140 173 216 272 334 400
#     4  10  24  39  66  95 135 175 217 270 335 395
#
# _framework density 21.211169000000002
#
# number of rings (size 3 to 8) (size 9 to 14) (size 15 to 20)
#    0.000    1.000    3.750    3.000    1.750    3.500 
#    0.000    0.625    0.000    0.000    0.000    0.000 
#    0.000    0.000    0.000    0.000    0.000    0.000 
#
# Total GULP energy -178774.832426 kJ/mol
# GULP energy per Si atom -5586.713513 kJ/mol
# Density = 2.116289 g / cm^3
# Si number density = 21.211169 Si / 1000 Ang^3
#
#
#
# Elastic Constant Matrix: (Units=GPa)
#
#
# Indices 1 2 3 4 5 6 
#
# 1 38.9915 -7.9935 12.4755 0.0000 -8.2218 0.0000
# 2 -7.9935 55.6474 3.2061 0.0000 -0.3436 0.0000
# 3 12.4755 3.2061 50.2326 0.0000 -6.0767 0.0000
# 4 0.0000 0.0000 0.0000 -385.0075 0.0000 30.7943
# 5 -8.2218 -0.3436 -6.0767 0.0000 15.6902 0.0000
# 6 0.0000 0.0000 0.0000 30.7943 0.0000 32.2142
#
#
#
# Elastic Compliance Matrix: (Units=1/GPa)
#
#
# Indices 1 2 3 4 5 6 
#
# 1 0.031753 0.005023 -0.006484 0.000000 0.014237 0.000000
# 2 0.005023 0.018831 -0.002183 0.000000 0.002199 0.000000
# 3 -0.006484 -0.002183 0.022284 0.000000 0.005185 0.000000
# 4 0.000000 0.000000 0.000000 -0.002413 0.000000 0.002307
# 5 0.014237 0.002199 0.005185 0.000000 0.073251 0.000000
# 6 0.000000 0.000000 0.000000 0.002307 0.000000 0.028837
#
#
# Mechanical properties :
#
#
# Convention : Reuss Voigt Hill
#
# Bulk Modulus (GPa) = 15.24883 17.80529 16.52706
# Shear Modulus (GPa) = 24.79012 -58.27506 -16.74247
#
# Velocity S-wave (km/s) = 3.42238 -5.24723 -2.81254
# Velocity P-wave (km/s) = 4.77719 5.31965 1.65486
#
# Compressibility (1/GPa) = 0.06557881
#
# Stress axis : x y z
#
# Youngs Moduli (GPa) = 31.49297 53.10350 44.87449
#
# Poissons Ratio (x) = -0.26672 0.29098
# Poissons Ratio (y) = -0.15818 0.09798
# Poissons Ratio (z) = 0.20421 0.11594
#
# Static dielectric constant tensor:
#      x y z
#    x 1.772070 0.000000 -0.019250 
#    y 0.000000 1.781200 0.000000 
#    z -0.019250 0.000000 1.773160 
# 
# From -- ./inp_files/43686.got.cif
#   From: 2010.05.17/outbox.cif.g08.bks.cpg/sg14_22_cif.got.tgz:43686.got - 2010.06.03 17:49:19.
