data_PCOD9250085
_publ_section_title
;
Structure prediction by ZEFSAII (Michael W. Deem and Ramdas Pophale) SiO2 
 PCOD9250085
Probable space group: P 21/C
;
_chemical_formula_sum "Si O2"
_cell_formula_units_Z 20
_cell_length_a 5.214829
_cell_length_b 17.473057
_cell_length_c 9.403604
_cell_angle_alpha 90.000000
_cell_angle_beta 97.876081
_cell_angle_gamma 90.000000
_cell_volume 848.764186
_symmetry_space_group_name_H-M "P 21/C"
_symmetry_group_IT_number 14
_symmetry_cell_setting 'monoclinic'
loop_
_space_group_symop_operation_xyz
x,y,z
-x,1/2+y,1/2-z
-x,-y,-z
x,1/2-y,1/2+z
loop_
_atom_site_type_symbol
_atom_site_label
_atom_site_fract_x
_atom_site_fract_y
_atom_site_fract_z
Si Si1 0.027128 0.715461 0.032885
Si Si2 0.567864 0.657723 0.163545
Si Si3 0.275961 0.486572 0.368004
Si Si4 0.941479 0.878307 0.926481
Si Si5 0.792302 0.935960 0.438287
O O1 0.062450 0.795736 0.959772
O O2 0.950473 0.643761 0.927123
O O3 0.780354 0.718274 0.119767
O O4 0.285453 0.691703 0.133771
O O5 0.109618 0.564031 0.344481
O O6 0.670698 0.633620 0.324482
O O7 0.604482 0.587856 0.054039
O O8 0.500000 0.500000 0.500000
O O9 0.098207 0.421901 0.428230
O O10 0.349229 0.459473 0.217038
O O11 0.000000 0.000000 0.500000
#
# Coordination Sequence:
#
# PCOD9250085 Si02
#       5
#     4   4   4   4   4
#     4  10  26  43  76 102 140 187 244 291 355 428
#     4  10  25  46  75 100 139 192 236 296 348 436
#     4  11  26  45  72 108 147 189 233 307 358 428
#     4  11  26  45  69 108 145 186 241 299 363 424
#     4  10  23  46  70 107 138 190 238 289 355 426
#
# _framework density 23.563669999999998
#
# number of rings (size 3 to 8) (size 9 to 14) (size 15 to 20)
#    1.200    0.400    2.000    0.000   11.200    4.000 
#    0.000    0.000    0.000    0.000    0.000    0.000 
#    0.000    0.000    0.000    0.000    0.000    0.000 
#
# Total GULP energy -111842.491559 kJ/mol
# GULP energy per Si atom -5592.124578 kJ/mol
# Density = 2.351004 g / cm^3
# Si number density = 23.563670 Si / 1000 Ang^3
#
#
#
# Elastic Constant Matrix: (Units=GPa)
#
#
# Indices 1 2 3 4 5 6 
#
# 1 74.0010 22.7368 22.7566 0.0000 23.7791 0.0000
# 2 22.7368 165.6421 52.5625 0.0000 6.6489 0.0000
# 3 22.7566 52.5625 113.2342 0.0000 19.1798 0.0000
# 4 0.0000 0.0000 0.0000 28.4580 0.0000 4.3031
# 5 23.7791 6.6489 19.1798 0.0000 38.7669 0.0000
# 6 0.0000 0.0000 0.0000 4.3031 0.0000 17.1063
#
#
#
# Elastic Compliance Matrix: (Units=1/GPa)
#
#
# Indices 1 2 3 4 5 6 
#
# 1 0.017553 -0.001672 -0.001066 0.000000 -0.009953 0.000000
# 2 -0.001672 0.007246 -0.003265 0.000000 0.001398 0.000000
# 3 -0.001066 -0.003265 0.011302 0.000000 -0.004378 0.000000
# 4 0.000000 0.000000 0.000000 0.036529 0.000000 -0.009189
# 5 -0.009953 0.001398 -0.004378 0.000000 0.033826 0.000000
# 6 0.000000 0.000000 0.000000 -0.009189 0.000000 0.060769
#
#
# Mechanical properties :
#
#
# Convention : Reuss Voigt Hill
#
# Bulk Modulus (GPa) = 41.49777 60.99879 51.24828
# Shear Modulus (GPa) = 26.70041 33.85434 30.27737
#
# Velocity S-wave (km/s) = 3.36983 3.79452 3.58846
# Velocity P-wave (km/s) = 5.72627 6.71869 6.24223
#
# Compressibility (1/GPa) = 0.02409768
#
# Stress axis : x y z
#
# Youngs Moduli (GPa) = 56.97076 137.99979 88.47687
#
# Poissons Ratio (x) = 0.23069 0.09430
# Poissons Ratio (y) = 0.09524 0.28883
# Poissons Ratio (z) = 0.06072 0.45050
#
# Static dielectric constant tensor:
#      x y z
#    x 1.926390 0.000000 -0.035870 
#    y 0.000000 1.913150 0.000000 
#    z -0.035870 0.000000 1.857180 
# 
# From -- ./inp_files/6010.got.cif
#   From: 2010.05.17/outbox.cif.g08.bks.cpg/sg14_4_cif.got.tgz:6010.got - 2010.06.03 17:49:19.
