data_PCOD9250952
_publ_section_title
;
Structure prediction by ZEFSAII (Michael W. Deem and Ramdas Pophale) SiO2 
 PCOD9250952
Probable space group: P 21/C
;
_chemical_formula_sum "Si O2"
_cell_formula_units_Z 16
_cell_length_a 19.068484
_cell_length_b 5.054883
_cell_length_c 9.309421
_cell_angle_alpha 90.000000
_cell_angle_beta 135.947196
_cell_angle_gamma 90.000000
_cell_volume 623.929191
_symmetry_space_group_name_H-M "P 21/C"
_symmetry_group_IT_number 14
_symmetry_cell_setting 'monoclinic'
loop_
_space_group_symop_operation_xyz
x,y,z
-x,1/2+y,1/2-z
-x,-y,-z
x,1/2-y,1/2+z
loop_
_atom_site_type_symbol
_atom_site_label
_atom_site_fract_x
_atom_site_fract_y
_atom_site_fract_z
Si Si1 0.101203 0.977822 0.560785
Si Si2 0.732608 0.802371 0.797789
Si Si3 0.467364 0.073134 0.114812
Si Si4 0.206600 0.693271 0.964586
O O1 0.177453 0.805549 0.769692
O O2 0.103233 0.845275 0.406662
O O3 0.159484 0.253192 0.620570
O O4 0.000000 0.000000 0.500000
O O5 0.641476 0.708187 0.566527
O O6 0.740325 0.586817 0.938269
O O7 0.726506 0.089641 0.855115
O O8 0.468796 0.804333 0.211192
O O9 0.500000 0.000000 0.000000
#
# Coordination Sequence:
#
# PCOD9250952 Si02
#       4
#     4   4   4   4
#     4  10  26  43  71  97 140 177 232 277 348 411
#     4  10  26  43  72  96 144 173 235 286 344 417
#     4  12  28  46  76 107 144 190 245 300 368 430
#     4  10  25  42  69  97 137 179 224 279 347 399
#
# _framework density 25.643934000000002
#
# number of rings (size 3 to 8) (size 9 to 14) (size 15 to 20)
#    1.500    0.000    0.000    2.250   14.000    1.000 
#    0.000    0.000    0.000    0.000    0.000    0.000 
#    0.000    0.000    0.000    0.000    0.000    0.000 
#
# Total GULP energy -89480.248635 kJ/mol
# GULP energy per Si atom -5592.515540 kJ/mol
# Density = 2.558557 g / cm^3
# Si number density = 25.643934 Si / 1000 Ang^3
#
#
#
# Elastic Constant Matrix: (Units=GPa)
#
#
# Indices 1 2 3 4 5 6 
#
# 1 127.6984 43.6133 26.8732 0.0000 -9.8110 0.0000
# 2 43.6133 133.4640 16.9300 0.0000 -14.7988 0.0000
# 3 26.8732 16.9300 63.6301 0.0000 -6.9122 0.0000
# 4 0.0000 0.0000 0.0000 38.0805 0.0000 -7.6242
# 5 -9.8110 -14.7988 -6.9122 0.0000 42.2635 0.0000
# 6 0.0000 0.0000 0.0000 -7.6242 0.0000 34.1336
#
#
#
# Elastic Compliance Matrix: (Units=1/GPa)
#
#
# Indices 1 2 3 4 5 6 
#
# 1 0.009454 -0.002597 -0.003219 0.000000 0.000759 0.000000
# 2 -0.002597 0.008719 -0.000974 0.000000 0.002291 0.000000
# 3 -0.003219 -0.000974 0.017528 0.000000 0.001778 0.000000
# 4 0.000000 0.000000 0.000000 0.027489 0.000000 0.006140
# 5 0.000759 0.002291 0.001778 0.000000 0.024930 0.000000
# 6 0.000000 0.000000 0.000000 0.006140 0.000000 0.030668
#
#
# Mechanical properties :
#
#
# Convention : Reuss Voigt Hill
#
# Bulk Modulus (GPa) = 45.20852 55.51397 50.36125
# Shear Modulus (GPa) = 35.78029 38.72059 37.25044
#
# Velocity S-wave (km/s) = 3.73939 3.89000 3.81544
# Velocity P-wave (km/s) = 6.02591 6.47079 6.25231
#
# Compressibility (1/GPa) = 0.02211972
#
# Stress axis : x y z
#
# Youngs Moduli (GPa) = 105.77997 114.69454 57.05214
#
# Poissons Ratio (x) = 0.29783 0.18366
# Poissons Ratio (y) = 0.27468 0.05558
# Poissons Ratio (z) = 0.34053 0.11174
#
# Static dielectric constant tensor:
#      x y z
#    x 2.087490 0.000000 -0.001820 
#    y 0.000000 1.992860 0.000000 
#    z -0.001820 0.000000 2.010230 
# 
# From -- ./inp_files/33291.got.cif
#   From: 2010.05.17/outbox.cif.g08.bks.cpg/sg14_17_cif.got.tgz:33291.got - 2010.06.03 17:49:19.
