data_PCOD9250903
_publ_section_title
;
Structure prediction by ZEFSAII (Michael W. Deem and Ramdas Pophale) SiO2 
 PCOD9250903
Probable space group: P 21/C
;
_chemical_formula_sum "Si O2"
_cell_formula_units_Z 28
_cell_length_a 18.036484
_cell_length_b 4.883826
_cell_length_c 15.636392
_cell_angle_alpha 90.000000
_cell_angle_beta 46.411397
_cell_angle_gamma 90.000000
_cell_volume 997.636910
_symmetry_space_group_name_H-M "P 21/C"
_symmetry_group_IT_number 14
_symmetry_cell_setting 'monoclinic'
loop_
_space_group_symop_operation_xyz
x,y,z
-x,1/2+y,1/2-z
-x,-y,-z
x,1/2-y,1/2+z
loop_
_atom_site_type_symbol
_atom_site_label
_atom_site_fract_x
_atom_site_fract_y
_atom_site_fract_z
Si Si1 0.414876 0.269821 0.921115
Si Si2 0.123830 0.409639 0.094700
Si Si3 0.719186 0.969084 0.225336
Si Si4 0.411328 0.701929 0.532355
Si Si5 0.125155 0.905608 0.207490
Si Si6 0.362486 0.951073 0.298652
Si Si7 0.117656 0.409804 0.902679
O O1 0.349536 0.398520 0.898014
O O2 0.516817 0.121514 0.804891
O O3 0.357495 0.028923 0.017398
O O4 0.450650 0.537549 0.946372
O O5 0.150752 0.117738 0.111985
O O6 0.999465 0.416142 0.189843
O O7 0.157006 0.617087 0.142880
O O8 0.153837 0.468413 0.972166
O O9 0.668973 0.671377 0.249080
O O10 0.692092 0.160869 0.167411
O O11 0.839864 0.903942 0.139274
O O12 0.500000 0.500000 0.500000
O O13 0.337715 0.862694 0.655574
O O14 0.155835 0.970697 0.281032
O O15 0.000000 0.500000 0.000000
#
# Coordination Sequence:
#
# PCOD9250903 Si02
#       7
#     4   4   4   4   4   4   4
#     4  12  25  45  76 109 154 219 271 332 442 521
#     4   9  19  38  69 106 142 191 263 339 407 496
#     4  12  27  46  72 118 165 206 285 356 421 530
#     4  12  25  42  74 114 160 217 273 347 432 510
#     4   9  19  38  69 107 140 193 268 327 410 514
#     4  12  26  45  76 113 158 209 277 345 420 528
#     4  10  24  49  81 113 162 223 279 353 445 508
#
# _framework density 28.066324000000002
#
# number of rings (size 3 to 8) (size 9 to 14) (size 15 to 20)
#    0.000    1.143    1.429    4.714    0.000    3.429 
#    2.571    9.286    3.143    0.000    0.000    0.000 
#    0.000    0.000    0.000    0.000    0.000    0.000 
#
# Total GULP energy -156746.244883 kJ/mol
# GULP energy per Si atom -5598.080174 kJ/mol
# Density = 2.800244 g / cm^3
# Si number density = 28.066324 Si / 1000 Ang^3
#
#
#
# Elastic Constant Matrix: (Units=GPa)
#
#
# Indices 1 2 3 4 5 6 
#
# 1 135.9222 48.6465 53.6699 0.0000 2.3579 0.0000
# 2 48.6465 166.2049 43.7209 0.0000 3.3765 0.0000
# 3 53.6699 43.7209 158.5720 0.0000 17.4896 0.0000
# 4 0.0000 0.0000 0.0000 61.3034 0.0000 5.2491
# 5 2.3579 3.3765 17.4896 0.0000 50.7697 0.0000
# 6 0.0000 0.0000 0.0000 5.2491 0.0000 62.6769
#
#
#
# Elastic Compliance Matrix: (Units=1/GPa)
#
#
# Indices 1 2 3 4 5 6 
#
# 1 0.009082 -0.001989 -0.002592 0.000000 0.000603 0.000000
# 2 -0.001989 0.006924 -0.001243 0.000000 0.000060 0.000000
# 3 -0.002592 -0.001243 0.007800 0.000000 -0.002484 0.000000
# 4 0.000000 0.000000 0.000000 0.016430 0.000000 -0.001376
# 5 0.000603 0.000060 -0.002484 0.000000 0.020521 0.000000
# 6 0.000000 0.000000 0.000000 -0.001376 0.000000 0.016070
#
#
# Mechanical properties :
#
#
# Convention : Reuss Voigt Hill
#
# Bulk Modulus (GPa) = 82.23894 83.64149 82.94022
# Shear Modulus (GPa) = 54.03810 55.92745 54.98277
#
# Velocity S-wave (km/s) = 4.39267 4.46880 4.43089
# Velocity P-wave (km/s) = 7.42244 7.51618 7.46946
#
# Compressibility (1/GPa) = 0.01215969
#
# Stress axis : x y z
#
# Youngs Moduli (GPa) = 110.10902 144.41692 128.20144
#
# Poissons Ratio (x) = 0.28718 0.33231
# Poissons Ratio (y) = 0.21896 0.15932
# Poissons Ratio (z) = 0.28541 0.17947
#
# Static dielectric constant tensor:
#      x y z
#    x 2.342040 0.000000 -0.031030 
#    y 0.000000 2.065040 0.000000 
#    z -0.031030 0.000000 2.284160 
# 
# From -- ./inp_files/47925.got.cif
#   From: 2010.05.17/outbox.cif.g08.bks.cpg/sg14_24_cif.got.tgz:47925.got - 2010.06.03 17:49:19.
