data_PCOD9250433
_publ_section_title
;
Structure prediction by ZEFSAII (Michael W. Deem and Ramdas Pophale) SiO2 
 PCOD9250433
Probable space group: P 21/C
;
_chemical_formula_sum "Si O2"
_cell_formula_units_Z 28
_cell_length_a 12.633906
_cell_length_b 9.555023
_cell_length_c 17.905556
_cell_angle_alpha 90.000000
_cell_angle_beta 145.754049
_cell_angle_gamma 90.000000
_cell_volume 1216.382047
_symmetry_space_group_name_H-M "P 21/C"
_symmetry_group_IT_number 14
_symmetry_cell_setting 'monoclinic'
loop_
_space_group_symop_operation_xyz
x,y,z
-x,1/2+y,1/2-z
-x,-y,-z
x,1/2-y,1/2+z
loop_
_atom_site_type_symbol
_atom_site_label
_atom_site_fract_x
_atom_site_fract_y
_atom_site_fract_z
Si Si1 0.040149 0.966889 0.438656
Si Si2 0.858016 0.323522 0.229404
Si Si3 0.753850 0.735640 0.007755
Si Si4 0.406328 0.510782 0.637012
Si Si5 0.407595 0.550832 0.810474
Si Si6 0.670596 0.027542 0.159111
Si Si7 0.670076 0.303886 0.968299
O O1 0.200263 0.851548 0.524192
O O2 0.854520 0.930907 0.281452
O O3 0.000000 0.000000 0.500000
O O4 0.139052 0.108085 0.467597
O O5 0.781304 0.418701 0.253040
O O6 0.765271 0.173064 0.191681
O O7 0.770490 0.365294 0.099938
O O8 0.081074 0.307713 0.348112
O O9 0.568616 0.660898 0.933911
O O10 0.702124 0.863774 0.923362
O O11 0.412489 0.572584 0.723731
O O12 0.587188 0.465754 0.694276
O O13 0.336678 0.637840 0.543414
O O14 0.475204 0.389300 0.856001
O O15 0.500000 0.000000 0.000000
#
# Coordination Sequence:
#
# PCOD9250433 Si02
#       7
#     4   4   4   4   4   4   4
#     4  10  24  45  69  96 139 182 225 282 349 410
#     4  11  24  43  69 100 135 180 227 286 349 406
#     4  10  24  42  70  95 134 177 223 279 344 406
#     4  12  24  43  70 100 131 177 234 278 339 422
#     4  11  24  44  68  95 142 174 221 289 348 408
#     4  11  22  42  69  98 135 183 224 276 354 416
#     4  11  25  42  67 102 131 175 234 275 344 412
#
# _framework density 23.019085
#
# number of rings (size 3 to 8) (size 9 to 14) (size 15 to 20)
#    0.000    1.143    2.857    3.000    6.000    1.714 
#    2.571    0.000    0.000    0.000    0.000    0.000 
#    0.000    0.000    0.000    0.000    0.000    0.000 
#
# Total GULP energy -155990.942577 kJ/mol
# GULP energy per Si atom -5571.105092 kJ/mol
# Density = 2.296669 g / cm^3
# Si number density = 23.019085 Si / 1000 Ang^3
#
#
#
# Elastic Constant Matrix: (Units=GPa)
#
#
# Indices 1 2 3 4 5 6 
#
# 1 77.0207 -9.4655 7.5430 0.0000 -13.9967 0.0000
# 2 -9.4655 64.0917 15.4179 0.0000 9.7577 0.0000
# 3 7.5430 15.4179 70.8406 0.0000 4.7872 0.0000
# 4 0.0000 0.0000 0.0000 23.8134 0.0000 -2.6581
# 5 -13.9967 9.7577 4.7872 0.0000 25.3411 0.0000
# 6 0.0000 0.0000 0.0000 -2.6581 0.0000 7.8643
#
#
#
# Elastic Compliance Matrix: (Units=1/GPa)
#
#
# Indices 1 2 3 4 5 6 
#
# 1 0.014887 0.001562 -0.002472 0.000000 0.008088 0.000000
# 2 0.001562 0.017495 -0.003623 0.000000 -0.005189 0.000000
# 3 -0.002472 -0.003623 0.015362 0.000000 -0.002872 0.000000
# 4 0.000000 0.000000 0.000000 0.043640 0.000000 0.014750
# 5 0.008088 -0.005189 -0.002872 0.000000 0.046470 0.000000
# 6 0.000000 0.000000 0.000000 0.014750 0.000000 0.132142
#
#
# Mechanical properties :
#
#
# Convention : Reuss Voigt Hill
#
# Bulk Modulus (GPa) = 25.85434 26.54930 26.20182
# Shear Modulus (GPa) = 17.12592 24.63427 20.88010
#
# Velocity S-wave (km/s) = 2.73057 3.27489 3.01504
# Velocity P-wave (km/s) = 4.60407 5.08513 4.85057
#
# Compressibility (1/GPa) = 0.03867822
#
# Stress axis : x y z
#
# Youngs Moduli (GPa) = 67.17091 57.15919 65.09549
#
# Poissons Ratio (x) = -0.08927 0.16090
# Poissons Ratio (y) = -0.10491 0.23586
# Poissons Ratio (z) = 0.16603 0.20710
#
# Static dielectric constant tensor:
#      x y z
#    x 1.841930 0.000000 0.029120 
#    y 0.000000 1.893560 0.000000 
#    z 0.029120 0.000000 1.950930 
# 
# From -- ./inp_files/68374.got.cif
#   From: 2010.05.17/outbox.cif.g08.bks.cpg/sg14_35_cif.got.tgz:68374.got - 2010.06.03 17:49:19.
