data_PCOD9250291
_publ_section_title
;
Structure prediction by ZEFSAII (Michael W. Deem and Ramdas Pophale) SiO2 
 PCOD9250291
Probable space group: P 21/C
;
_chemical_formula_sum "Si O2"
_cell_formula_units_Z 20
_cell_length_a 9.494563
_cell_length_b 9.424412
_cell_length_c 8.882330
_cell_angle_alpha 90.000000
_cell_angle_beta 99.617087
_cell_angle_gamma 90.000000
_cell_volume 783.627001
_symmetry_space_group_name_H-M "P 21/C"
_symmetry_group_IT_number 14
_symmetry_cell_setting 'monoclinic'
loop_
_space_group_symop_operation_xyz
x,y,z
-x,1/2+y,1/2-z
-x,-y,-z
x,1/2-y,1/2+z
loop_
_atom_site_type_symbol
_atom_site_label
_atom_site_fract_x
_atom_site_fract_y
_atom_site_fract_z
Si Si1 0.556135 0.444385 0.737307
Si Si2 0.687346 0.247065 0.015539
Si Si3 0.233764 0.950273 0.211516
Si Si4 0.155803 0.423407 0.188125
Si Si5 0.051667 0.170208 0.342739
O O1 0.581137 0.349130 0.594706
O O2 0.398473 0.502167 0.725583
O O3 0.675358 0.568259 0.754680
O O4 0.598956 0.344871 0.885494
O O5 0.771165 0.349299 0.143237
O O6 0.791554 0.143002 0.941425
O O7 0.140844 0.085957 0.230977
O O8 0.072764 0.331959 0.298100
O O9 0.097999 0.585591 0.181463
O O10 0.120274 0.361625 0.017601
#
# Coordination Sequence:
#
# PCOD9250291 Si02
#       5
#     4   4   4   4   4
#     4  11  24  42  69  98 135 176 226 276 332 396
#     4  10  24  40  68  96 140 172 220 278 344 382
#     4  11  24  42  69  98 135 176 226 276 332 396
#     4  11  28  46  68  99 136 176 225 276 333 398
#     4  11  28  46  68  99 136 176 225 276 333 398
#
# _framework density 25.522345999999999
#
# number of rings (size 3 to 8) (size 9 to 14) (size 15 to 20)
#    0.000    1.200    2.000    1.200   14.000    0.800 
#    0.000    0.000    0.000    0.000    0.000    0.000 
#    0.000    0.000    0.000    0.000    0.000    0.000 
#
# Total GULP energy -112259.734623 kJ/mol
# GULP energy per Si atom -5612.986731 kJ/mol
# Density = 2.546426 g / cm^3
# Si number density = 25.522346 Si / 1000 Ang^3
#
#
#
# Elastic Constant Matrix: (Units=GPa)
#
#
# Indices 1 2 3 4 5 6 
#
# 1 105.0693 13.4210 5.7224 0.0000 -4.2147 0.0000
# 2 13.4210 99.5324 39.2300 0.0000 -2.6590 0.0000
# 3 5.7224 39.2300 114.1692 0.0000 -23.7672 0.0000
# 4 0.0000 0.0000 0.0000 46.2283 0.0000 -16.8940
# 5 -4.2147 -2.6590 -23.7672 0.0000 20.3466 0.0000
# 6 0.0000 0.0000 0.0000 -16.8940 0.0000 35.4178
#
#
#
# Elastic Compliance Matrix: (Units=1/GPa)
#
#
# Indices 1 2 3 4 5 6 
#
# 1 0.009773 -0.001457 0.000519 0.000000 0.002440 0.000000
# 2 -0.001457 0.012110 -0.005049 0.000000 -0.004618 0.000000
# 3 0.000519 -0.005049 0.013679 0.000000 0.015427 0.000000
# 4 0.000000 0.000000 0.000000 0.026199 0.000000 0.012497
# 5 0.002440 -0.004618 0.015427 0.000000 0.067070 0.000000
# 6 0.000000 0.000000 0.000000 0.012497 0.000000 0.034195
#
#
# Mechanical properties :
#
#
# Convention : Reuss Voigt Hill
#
# Bulk Modulus (GPa) = 42.39547 48.39083 45.39315
# Shear Modulus (GPa) = 27.34254 37.75838 32.55046
#
# Velocity S-wave (km/s) = 3.27665 3.85050 3.57511
# Velocity P-wave (km/s) = 5.56439 6.22654 5.90475
#
# Compressibility (1/GPa) = 0.02358743
#
# Stress axis : x y z
#
# Youngs Moduli (GPa) = 102.31980 82.57419 73.10237
#
# Poissons Ratio (x) = 0.12032 -0.03793
# Poissons Ratio (y) = 0.14909 0.36913
# Poissons Ratio (z) = -0.05308 0.41696
#
# Static dielectric constant tensor:
#      x y z
#    x 1.986870 0.000000 -0.005260 
#    y 0.000000 2.002430 0.000000 
#    z -0.005260 0.000000 1.983750 
# 
# From -- ./inp_files/11884.got.cif
#   From: 2010.05.17/outbox.cif.g08.bks.cpg/sg14_6_cif.got.tgz:11884.got - 2010.06.03 17:49:19.
