data_PCOD9250882
_publ_section_title
;
Structure prediction by ZEFSAII (Michael W. Deem and Ramdas Pophale) SiO2 
 PCOD9250882
Probable space group: P 21/C
;
_chemical_formula_sum "Si O2"
_cell_formula_units_Z 24
_cell_length_a 11.824951
_cell_length_b 19.209063
_cell_length_c 5.637490
_cell_angle_alpha 90.000000
_cell_angle_beta 44.131788
_cell_angle_gamma 90.000000
_cell_volume 891.650463
_symmetry_space_group_name_H-M "P 21/C"
_symmetry_group_IT_number 14
_symmetry_cell_setting 'monoclinic'
loop_
_space_group_symop_operation_xyz
x,y,z
-x,1/2+y,1/2-z
-x,-y,-z
x,1/2-y,1/2+z
loop_
_atom_site_type_symbol
_atom_site_label
_atom_site_fract_x
_atom_site_fract_y
_atom_site_fract_z
Si Si1 0.157155 0.914264 0.415906
Si Si2 0.452746 0.363686 0.289186
Si Si3 0.158137 0.066051 0.436767
Si Si4 0.882654 0.785816 0.376035
Si Si5 0.544245 0.327113 0.663453
Si Si6 0.783224 0.307041 0.809363
O O1 0.118956 0.847210 0.632278
O O2 0.009818 0.924652 0.454567
O O3 0.166644 0.989130 0.529192
O O4 0.333643 0.893115 0.045334
O O5 0.319268 0.423096 0.530150
O O6 0.453582 0.325012 0.546403
O O7 0.428064 0.331712 0.065039
O O8 0.649487 0.368422 0.966275
O O9 0.158695 0.132978 0.603485
O O10 0.837615 0.761176 0.713720
O O11 0.080301 0.789043 0.084857
O O12 0.664088 0.260316 0.503506
#
# Coordination Sequence:
#
# PCOD9250882 Si02
#       6
#     4   4   4   4   4   4
#     4  10  24  48  75 107 155 204 250 303 370 464
#     4  11  24  42  71 103 142 179 239 309 364 424
#     4  11  26  45  72 114 155 196 247 313 384 437
#     4  12  25  44  72 101 140 192 245 299 366 449
#     4  11  24  46  74 105 140 194 250 302 367 447
#     4  11  23  44  74 103 140 195 253 300 365 449
#
# _framework density 26.916376
#
# number of rings (size 3 to 8) (size 9 to 14) (size 15 to 20)
#    0.000    1.000    0.000    8.000    0.000   10.667 
#    0.000    6.667    0.000    0.000    0.000    0.000 
#    0.000    0.000    0.000    0.000    0.000    0.000 
#
# Total GULP energy -133687.596102 kJ/mol
# GULP energy per Si atom -5570.316504 kJ/mol
# Density = 2.685511 g / cm^3
# Si number density = 26.916376 Si / 1000 Ang^3
#
#
#
# Elastic Constant Matrix: (Units=GPa)
#
#
# Indices 1 2 3 4 5 6 
#
# 1 122.0744 27.9546 29.0246 0.0000 13.2986 0.0000
# 2 27.9546 184.1524 51.1658 0.0000 9.4716 0.0000
# 3 29.0246 51.1658 132.9340 0.0000 30.5846 0.0000
# 4 0.0000 0.0000 0.0000 24.0139 0.0000 0.2031
# 5 13.2986 9.4716 30.5846 0.0000 67.5836 0.0000
# 6 0.0000 0.0000 0.0000 0.2031 0.0000 23.4975
#
#
#
# Elastic Compliance Matrix: (Units=1/GPa)
#
#
# Indices 1 2 3 4 5 6 
#
# 1 0.008830 -0.000915 -0.001346 0.000000 -0.001000 0.000000
# 2 -0.000915 0.006179 -0.002255 0.000000 0.000335 0.000000
# 3 -0.001346 -0.002255 0.009545 0.000000 -0.003738 0.000000
# 4 0.000000 0.000000 0.000000 0.041646 0.000000 -0.000360
# 5 -0.001000 0.000335 -0.003738 0.000000 0.016638 0.000000
# 6 0.000000 0.000000 0.000000 -0.000360 0.000000 0.042561
#
#
# Mechanical properties :
#
#
# Convention : Reuss Voigt Hill
#
# Bulk Modulus (GPa) = 64.42795 72.82786 68.62791
# Shear Modulus (GPa) = 35.81561 45.08672 40.45116
#
# Velocity S-wave (km/s) = 3.65173 4.09720 3.88086
# Velocity P-wave (km/s) = 6.46285 7.03552 6.75526
#
# Compressibility (1/GPa) = 0.01552121
#
# Stress axis : x y z
#
# Youngs Moduli (GPa) = 113.24786 161.84852 104.77214
#
# Poissons Ratio (x) = 0.14811 0.14098
# Poissons Ratio (y) = 0.10364 0.23630
# Poissons Ratio (z) = 0.15239 0.36503
#
# Static dielectric constant tensor:
#      x y z
#    x 2.387540 0.000000 0.098930 
#    y 0.000000 2.064640 0.000000 
#    z 0.098930 0.000000 2.260280 
# 
# From -- ./inp_files/3041.got.cif
#   From: 2010.05.17/outbox.cif.g08.bks.cpg/sg14_2_cif.got.tgz:3041.got - 2010.06.03 17:49:19.
