data_PCOD9250363
_publ_section_title
;
Structure prediction by ZEFSAII (Michael W. Deem and Ramdas Pophale) SiO2 
 PCOD9250363
Probable space group: P 21/C
;
_chemical_formula_sum "Si O2"
_cell_formula_units_Z 20
_cell_length_a 9.440623
_cell_length_b 12.004896
_cell_length_c 12.735774
_cell_angle_alpha 90.000000
_cell_angle_beta 145.660174
_cell_angle_gamma 90.000000
_cell_volume 814.217814
_symmetry_space_group_name_H-M "P 21/C"
_symmetry_group_IT_number 14
_symmetry_cell_setting 'monoclinic'
loop_
_space_group_symop_operation_xyz
x,y,z
-x,1/2+y,1/2-z
-x,-y,-z
x,1/2-y,1/2+z
loop_
_atom_site_type_symbol
_atom_site_label
_atom_site_fract_x
_atom_site_fract_y
_atom_site_fract_z
Si Si1 0.291739 0.654829 0.992915
Si Si2 0.394874 0.609781 0.494394
Si Si3 0.912582 0.518600 0.273918
Si Si4 0.121277 0.381752 0.100371
Si Si5 0.773997 0.650591 0.400370
O O1 0.283924 0.542828 0.920411
O O2 0.010919 0.658298 0.871183
O O3 0.394910 0.755078 0.981889
O O4 0.472278 0.655741 0.206449
O O5 0.500000 0.500000 0.500000
O O6 0.099990 0.591752 0.320848
O O7 0.578799 0.601876 0.707482
O O8 0.099254 0.424022 0.434573
O O9 0.829193 0.590641 0.322280
O O10 0.102410 0.272326 0.017718
O O11 0.000000 0.500000 0.000000
#
# Coordination Sequence:
#
# PCOD9250363 Si02
#       5
#     4   4   4   4   4
#     4  11  23  42  65  95 133 173 218 276 333 398
#     4  11  23  41  65  97 130 171 229 268 324 408
#     4  11  22  43  68  91 132 173 214 279 336 387
#     4  11  23  41  66  95 135 172 221 278 331 394
#     4  10  24  42  61  98 130 168 222 271 331 401
#
# _framework density 24.563452000000002
#
# number of rings (size 3 to 8) (size 9 to 14) (size 15 to 20)
#    0.000    1.200    4.000    1.800    2.800    0.000 
#    0.000    0.000    0.000    0.000    0.000    0.000 
#    0.000    0.000    0.000    0.000    0.000    0.000 
#
# Total GULP energy -111352.896170 kJ/mol
# GULP energy per Si atom -5567.644809 kJ/mol
# Density = 2.450754 g / cm^3
# Si number density = 24.563452 Si / 1000 Ang^3
#
#
#
# Elastic Constant Matrix: (Units=GPa)
#
#
# Indices 1 2 3 4 5 6 
#
# 1 37.2196 5.9524 -4.8699 0.0000 6.5869 0.0000
# 2 5.9524 131.0001 35.2976 0.0000 5.1451 0.0000
# 3 -4.8699 35.2976 72.6887 0.0000 7.3224 0.0000
# 4 0.0000 0.0000 0.0000 51.7787 0.0000 2.1281
# 5 6.5869 5.1451 7.3224 0.0000 20.9875 0.0000
# 6 0.0000 0.0000 0.0000 2.1281 0.0000 35.0536
#
#
#
# Elastic Compliance Matrix: (Units=1/GPa)
#
#
# Indices 1 2 3 4 5 6 
#
# 1 0.029507 -0.002014 0.003978 0.000000 -0.010155 0.000000
# 2 -0.002014 0.008930 -0.004472 0.000000 0.000003 0.000000
# 3 0.003978 -0.004472 0.016801 0.000000 -0.006014 0.000000
# 4 0.000000 0.000000 0.000000 0.019361 0.000000 -0.001175
# 5 -0.010155 0.000003 -0.006014 0.000000 0.052932 0.000000
# 6 0.000000 0.000000 0.000000 -0.001175 0.000000 0.028599
#
#
# Mechanical properties :
#
#
# Convention : Reuss Voigt Hill
#
# Bulk Modulus (GPa) = 19.91119 34.85207 27.38163
# Shear Modulus (GPa) = 28.10780 35.19917 31.65348
#
# Velocity S-wave (km/s) = 3.38641 3.78959 3.59366
# Velocity P-wave (km/s) = 4.83880 5.77645 5.32829
#
# Compressibility (1/GPa) = 0.05022303
#
# Stress axis : x y z
#
# Youngs Moduli (GPa) = 33.88998 111.98452 59.52030
#
# Poissons Ratio (x) = 0.22550 -0.23675
# Poissons Ratio (y) = 0.06824 0.26615
# Poissons Ratio (z) = -0.13480 0.50074
#
# Static dielectric constant tensor:
#      x y z
#    x 2.032620 0.000000 0.028790 
#    y 0.000000 2.097980 0.000000 
#    z 0.028790 0.000000 1.962630 
# 
# From -- ./inp_files/23414.got.cif
#   From: 2010.05.17/outbox.cif.g08.bks.cpg/sg14_12_cif.got.tgz:23414.got - 2010.06.03 17:49:19.
