data_PCOD9250139
_publ_section_title
;
Structure prediction by ZEFSAII (Michael W. Deem and Ramdas Pophale) SiO2 
 PCOD9250139
Probable space group: P 21/C
;
_chemical_formula_sum "Si O2"
_cell_formula_units_Z 28
_cell_length_a 19.983101
_cell_length_b 5.001741
_cell_length_c 18.309834
_cell_angle_alpha 90.000000
_cell_angle_beta 142.363302
_cell_angle_gamma 90.000000
_cell_volume 1117.538850
_symmetry_space_group_name_H-M "P 21/C"
_symmetry_group_IT_number 14
_symmetry_cell_setting 'monoclinic'
loop_
_space_group_symop_operation_xyz
x,y,z
-x,1/2+y,1/2-z
-x,-y,-z
x,1/2-y,1/2+z
loop_
_atom_site_type_symbol
_atom_site_label
_atom_site_fract_x
_atom_site_fract_y
_atom_site_fract_z
Si Si1 0.000000 0.000000 0.500000
Si Si2 0.875166 0.692221 0.193384
Si Si3 0.500000 0.000000 0.500000
Si Si4 0.664735 0.695242 0.261668
Si Si5 0.427823 0.551742 0.677662
Si Si6 0.243686 0.802428 0.727813
Si Si7 0.349457 0.076804 0.952481
Si Si8 0.022381 0.306885 0.865738
O O1 0.881236 0.116441 0.370709
O O2 0.057864 0.148840 0.478900
O O3 0.756752 0.734963 0.125199
O O4 0.944005 0.445815 0.284812
O O5 0.879968 0.690321 0.109450
O O6 0.948525 0.942398 0.279725
O O7 0.553738 0.860520 0.620592
O O8 0.444014 0.239031 0.501931
O O9 0.650955 0.578307 0.330037
O O10 0.747702 0.501321 0.289530
O O11 0.700187 0.999386 0.282044
O O12 0.470162 0.844324 0.735301
O O13 0.375299 0.550997 0.552578
O O14 0.315336 0.853236 0.862943
#
# Coordination Sequence:
#
# PCOD9250139 Si02
#       8
#     2   4   2   4   4   4   4   4
#     4  12  26  48  72 112 148 196 246 322 360 454
#     4  10  23  47  69 103 139 197 241 302 369 447
#     4  10  24  44  76 102 150 188 246 300 370 450
#     4  11  26  49  69 110 144 196 246 310 372 443
#     4  12  27  48  74 109 148 196 248 315 368 444
#     4  11  28  45  74 104 149 196 247 304 377 450
#     4  11  25  48  77 109 150 203 249 310 380 454
#     4  10  24  44  71 101 145 187 249 303 368 432
#
# _framework density 25.055060000000001
#
# number of rings (size 3 to 8) (size 9 to 14) (size 15 to 20)
#    0.000    1.143    2.857    0.857    8.000    4.571 
#    5.143    0.000    0.000    0.000    0.000    0.000 
#    0.000    0.000    0.000    0.000    0.000    0.000 
#
# Total GULP energy -156022.305190 kJ/mol
# GULP energy per Si atom -5572.225185 kJ/mol
# Density = 2.499803 g / cm^3
# Si number density = 25.055060 Si / 1000 Ang^3
#
#
#
# Elastic Constant Matrix: (Units=GPa)
#
#
# Indices 1 2 3 4 5 6 
#
# 1 113.7340 12.1597 28.1751 0.0000 -28.2323 0.0000
# 2 12.1597 107.1853 7.4377 0.0000 -2.2112 0.0000
# 3 28.1751 7.4377 86.3391 0.0000 -6.7157 0.0000
# 4 0.0000 0.0000 0.0000 -2.1487 0.0000 -8.4329
# 5 -28.2323 -2.2112 -6.7157 0.0000 34.7050 0.0000
# 6 0.0000 0.0000 0.0000 -8.4329 0.0000 24.8254
#
#
#
# Elastic Compliance Matrix: (Units=1/GPa)
#
#
# Indices 1 2 3 4 5 6 
#
# 1 0.011901 -0.000949 -0.003100 0.000000 0.009021 0.000000
# 2 -0.000949 0.009468 -0.000527 0.000000 -0.000271 0.000000
# 3 -0.003100 -0.000527 0.012631 0.000000 -0.000112 0.000000
# 4 0.000000 0.000000 0.000000 -0.199474 0.000000 -0.067759
# 5 0.009021 -0.000271 -0.000112 0.000000 0.036114 0.000000
# 6 0.000000 0.000000 0.000000 -0.067759 0.000000 0.017265
#
#
# Mechanical properties :
#
#
# Convention : Reuss Voigt Hill
#
# Bulk Modulus (GPa) = 40.24513 44.75593 42.50053
# Shear Modulus (GPa) = -52.82073 28.77542 -12.02265
#
# Velocity S-wave (km/s) = -4.59648 3.39261 -2.19292
# Velocity P-wave (km/s) = 3.47457 5.76613 3.25389
#
# Compressibility (1/GPa) = 0.02484773
#
# Stress axis : x y z
#
# Youngs Moduli (GPa) = 84.02461 105.61588 79.17225
#
# Poissons Ratio (x) = 0.10022 0.24546
# Poissons Ratio (y) = 0.07973 0.04173
# Poissons Ratio (z) = 0.26050 0.05566
#
# Static dielectric constant tensor:
#      x y z
#    x 1.803330 0.000000 -0.146050 
#    y 0.000000 2.576950 0.000000 
#    z -0.146050 0.000000 1.861970 
# 
# From -- ./inp_files/60978.got.cif
#   From: 2010.05.17/outbox.cif.g08.bks.cpg/sg14_31_cif.got.tgz:60978.got - 2010.06.03 17:49:19.
