data_PCOD9250533
_publ_section_title
;
Structure prediction by ZEFSAII (Michael W. Deem and Ramdas Pophale) SiO2 
 PCOD9250533
Probable space group: P 21/C
;
_chemical_formula_sum "Si O2"
_cell_formula_units_Z 26
_cell_length_a 9.947875
_cell_length_b 8.034129
_cell_length_c 22.866808
_cell_angle_alpha 90.000000
_cell_angle_beta 41.281055
_cell_angle_gamma 90.000000
_cell_volume 1205.746991
_symmetry_space_group_name_H-M "P 21/C"
_symmetry_group_IT_number 14
_symmetry_cell_setting 'monoclinic'
loop_
_space_group_symop_operation_xyz
x,y,z
-x,1/2+y,1/2-z
-x,-y,-z
x,1/2-y,1/2+z
loop_
_atom_site_type_symbol
_atom_site_label
_atom_site_fract_x
_atom_site_fract_y
_atom_site_fract_z
Si Si1 0.244037 0.298801 0.654551
Si Si2 0.029285 0.371599 0.042845
Si Si3 0.215902 0.920940 0.711342
Si Si4 0.449123 0.943664 0.855340
Si Si5 0.000000 0.500000 0.500000
Si Si6 0.566954 0.655751 0.016998
Si Si7 0.362122 0.735467 0.771657
O O1 0.377662 0.407456 0.654849
O O2 0.352183 0.289759 0.555810
O O3 0.015032 0.363458 0.722099
O O4 0.237059 0.112025 0.684329
O O5 0.242164 0.398159 0.005790
O O6 0.025519 0.184310 0.020489
O O7 0.835201 0.378347 0.149679
O O8 0.000000 0.500000 0.000000
O O9 0.371164 0.811200 0.621156
O O10 0.285208 0.885050 0.755208
O O11 0.451095 0.808399 0.802302
O O12 0.478913 0.121069 0.814081
O O13 0.223139 0.942212 0.954758
O O14 0.500000 0.500000 0.000000
#
# Coordination Sequence:
#
# PCOD9250533 Si02
#       7
#     4   4   4   4   2   4   4
#     4  11  24  46  67 104 141 186 236 295 364 433
#     4  11  25  46  73  99 145 187 235 297 356 427
#     4  11  23  45  68  98 142 184 238 295 353 438
#     4  11  25  44  70  98 141 177 236 294 354 423
#     4  10  26  46  68 104 136 180 248 286 348 434
#     4  10  24  43  71 101 138 190 239 290 370 438
#     4  11  24  44  67 101 134 183 237 291 359 426
#
# _framework density 21.563395
#
# number of rings (size 3 to 8) (size 9 to 14) (size 15 to 20)
#    0.000    1.231    1.538    2.769   15.077    0.000 
#    8.308    2.308    0.000    0.000    0.000    0.000 
#    0.000    0.000    0.000    0.000    0.000    0.000 
#
# Total GULP energy -144838.358526 kJ/mol
# GULP energy per Si atom -5570.706097 kJ/mol
# Density = 2.151432 g / cm^3
# Si number density = 21.563395 Si / 1000 Ang^3
#
#
#
# Elastic Constant Matrix: (Units=GPa)
#
#
# Indices 1 2 3 4 5 6 
#
# 1 131.9492 -3.2343 14.5291 0.0000 0.3912 0.0000
# 2 -3.2343 28.0509 -13.6927 0.0000 14.8353 0.0000
# 3 14.5291 -13.6927 57.2601 0.0000 -1.3058 0.0000
# 4 0.0000 0.0000 0.0000 24.4361 0.0000 5.8565
# 5 0.3912 14.8353 -1.3058 0.0000 30.1274 0.0000
# 6 0.0000 0.0000 0.0000 5.8565 0.0000 30.3494
#
#
#
# Elastic Compliance Matrix: (Units=1/GPa)
#
#
# Indices 1 2 3 4 5 6 
#
# 1 0.007798 0.000048 -0.001972 0.000000 -0.000210 0.000000
# 2 0.000048 0.056279 0.012827 0.000000 -0.027158 0.000000
# 3 -0.001972 0.012827 0.020909 0.000000 -0.005384 0.000000
# 4 0.000000 0.000000 0.000000 0.042908 0.000000 -0.008280
# 5 -0.000210 -0.027158 -0.005384 0.000000 0.046335 0.000000
# 6 0.000000 0.000000 0.000000 -0.008280 0.000000 0.034547
#
#
# Mechanical properties :
#
#
# Convention : Reuss Voigt Hill
#
# Bulk Modulus (GPa) = 9.36413 23.60715 16.48564
# Shear Modulus (GPa) = 22.46513 31.62647 27.04580
#
# Velocity S-wave (km/s) = 3.23122 3.83387 3.54538
# Velocity P-wave (km/s) = 4.27470 5.52898 4.94180
#
# Compressibility (1/GPa) = 0.10679045
#
# Stress axis : x y z
#
# Youngs Moduli (GPa) = 128.24465 17.76861 47.82627
#
# Poissons Ratio (x) = -0.00085 0.09431
# Poissons Ratio (y) = -0.00611 -0.61345
# Poissons Ratio (z) = 0.25289 -0.22791
#
# Static dielectric constant tensor:
#      x y z
#    x 1.735940 0.000000 0.000010 
#    y 0.000000 1.753300 0.000000 
#    z 0.000010 0.000000 1.856020 
# 
# From -- ./inp_files/64759.got.cif
#   From: 2010.05.17/outbox.cif.g08.bks.cpg/sg14_33_cif.got.tgz:64759.got - 2010.06.03 17:49:19.
