data_PCOD9250557
_publ_section_title
;
Structure prediction by ZEFSAII (Michael W. Deem and Ramdas Pophale) SiO2 
 PCOD9250557
Probable space group: P 21/C
;
_chemical_formula_sum "Si O2"
_cell_formula_units_Z 32
_cell_length_a 26.220142
_cell_length_b 10.612930
_cell_length_c 9.901057
_cell_angle_alpha 90.000000
_cell_angle_beta 145.385005
_cell_angle_gamma 90.000000
_cell_volume 1565.112139
_symmetry_space_group_name_H-M "P 21/C"
_symmetry_group_IT_number 14
_symmetry_cell_setting 'monoclinic'
loop_
_space_group_symop_operation_xyz
x,y,z
-x,1/2+y,1/2-z
-x,-y,-z
x,1/2-y,1/2+z
loop_
_atom_site_type_symbol
_atom_site_label
_atom_site_fract_x
_atom_site_fract_y
_atom_site_fract_z
Si Si1 0.323287 0.721494 0.859578
Si Si2 0.377988 0.145243 0.723438
Si Si3 0.169340 0.854511 0.668528
Si Si4 0.412732 0.646340 0.309840
Si Si5 0.819226 0.009424 0.026888
Si Si6 0.918229 0.086978 0.989830
Si Si7 0.729997 0.750921 0.267641
Si Si8 0.882983 0.951000 0.647437
O O1 0.266132 0.827721 0.813282
O O2 0.354912 0.769035 0.784335
O O3 0.259760 0.600714 0.701123
O O4 0.403352 0.686810 0.134189
O O5 0.316130 0.204176 0.471183
O O6 0.346888 0.210671 0.793753
O O7 0.371892 0.994224 0.728151
O O8 0.483740 0.159063 0.923023
O O9 0.132750 0.719200 0.633479
O O10 0.114432 0.917142 0.427530
O O11 0.165626 0.946071 0.787857
O O12 0.901512 0.035687 0.104351
O O13 0.786741 0.866959 0.947216
O O14 0.878847 0.986452 0.796440
O O15 0.021458 0.110479 0.177255
O O16 0.799793 0.867690 0.415016
#
# Coordination Sequence:
#
# PCOD9250557 Si02
#       8
#     4   4   4   4   4   4   4   4
#     4  11  21  41  69  94 127 172 223 268 330 383
#     4  11  25  43  65  97 135 171 223 269 337 398
#     4  11  23  41  66  98 125 165 223 271 317 396
#     4  11  23  43  69  94 131 175 219 282 323 393
#     4  11  23  40  65  95 131 170 217 271 321 398
#     4  10  24  44  65  95 130 170 223 268 328 388
#     4  12  24  43  65  97 137 177 215 271 339 403
#     4  11  25  43  67  93 131 177 212 270 334 394
#
# _framework density 20.445820999999999
#
# number of rings (size 3 to 8) (size 9 to 14) (size 15 to 20)
#    0.000    1.000    2.500    4.500    5.250    0.500 
#    4.500    0.625    0.000    0.000    0.000    0.000 
#    0.000    0.000    0.000    0.000    0.000    0.000 
#
# Total GULP energy -178818.531418 kJ/mol
# GULP energy per Si atom -5588.079107 kJ/mol
# Density = 2.039929 g / cm^3
# Si number density = 20.445821 Si / 1000 Ang^3
#
#
#
# Elastic Constant Matrix: (Units=GPa)
#
#
# Indices 1 2 3 4 5 6 
#
# 1 72.7448 33.2148 -1.9551 0.0000 -3.5980 0.0000
# 2 33.2148 60.1346 12.6218 0.0000 7.2930 0.0000
# 3 -1.9551 12.6218 21.4658 0.0000 -1.2675 0.0000
# 4 0.0000 0.0000 0.0000 30.7493 0.0000 -4.8598
# 5 -3.5980 7.2930 -1.2675 0.0000 27.0123 0.0000
# 6 0.0000 0.0000 0.0000 -4.8598 0.0000 27.5931
#
#
#
# Elastic Compliance Matrix: (Units=1/GPa)
#
#
# Indices 1 2 3 4 5 6 
#
# 1 0.021256 -0.014986 0.011185 0.000000 0.007402 0.000000
# 2 -0.014986 0.030440 -0.019922 0.000000 -0.011149 0.000000
# 3 0.011185 -0.019922 0.059890 0.000000 0.009679 0.000000
# 4 0.000000 0.000000 0.000000 0.033452 0.000000 0.005892
# 5 0.007402 -0.011149 0.009679 0.000000 0.041470 0.000000
# 6 0.000000 0.000000 0.000000 0.005892 0.000000 0.037279
#
#
# Mechanical properties :
#
#
# Convention : Reuss Voigt Hill
#
# Bulk Modulus (GPa) = 15.59093 26.90091 21.24592
# Shear Modulus (GPa) = 17.08736 24.43519 20.76128
#
# Velocity S-wave (km/s) = 2.89405 3.46080 3.19004
# Velocity P-wave (km/s) = 4.33698 5.39956 4.89718
#
# Compressibility (1/GPa) = 0.06413986
#
# Stress axis : x y z
#
# Youngs Moduli (GPa) = 47.04587 32.85112 16.69725
#
# Poissons Ratio (x) = 0.49230 -0.18675
# Poissons Ratio (y) = 0.70502 0.33264
# Poissons Ratio (z) = -0.52619 0.65446
#
# Static dielectric constant tensor:
#      x y z
#    x 1.698680 0.000000 0.007050 
#    y 0.000000 1.718900 0.000000 
#    z 0.007050 0.000000 1.744430 
# 
# From -- ./inp_files/19496.got.cif
#   From: 2010.05.17/outbox.cif.g08.bks.cpg/sg14_10_cif.got.tgz:19496.got - 2010.06.03 17:49:19.
