data_PCOD9250622
_publ_section_title
;
Structure prediction by ZEFSAII (Michael W. Deem and Ramdas Pophale) SiO2 
 PCOD9250622
Probable space group: P 21/C
;
_chemical_formula_sum "Si O2"
_cell_formula_units_Z 24
_cell_length_a 15.551421
_cell_length_b 8.114799
_cell_length_c 21.678434
_cell_angle_alpha 90.000000
_cell_angle_beta 22.103063
_cell_angle_gamma 90.000000
_cell_volume 1029.389478
_symmetry_space_group_name_H-M "P 21/C"
_symmetry_group_IT_number 14
_symmetry_cell_setting 'monoclinic'
loop_
_space_group_symop_operation_xyz
x,y,z
-x,1/2+y,1/2-z
-x,-y,-z
x,1/2-y,1/2+z
loop_
_atom_site_type_symbol
_atom_site_label
_atom_site_fract_x
_atom_site_fract_y
_atom_site_fract_z
Si Si1 0.759838 0.374087 0.095844
Si Si2 0.424988 0.877525 0.867622
Si Si3 0.048258 0.089285 0.171348
Si Si4 0.730888 0.560520 0.985052
Si Si5 0.867291 0.828258 0.109019
Si Si6 0.319654 0.518775 0.174003
O O1 0.695946 0.194950 0.111802
O O2 0.556128 0.454480 0.268396
O O3 0.779403 0.491920 0.021784
O O4 0.965753 0.327266 0.004145
O O5 0.624066 0.739285 0.744749
O O6 0.222793 0.934128 0.048173
O O7 0.891150 0.116686 0.214488
O O8 0.184144 0.257068 0.085475
O O9 0.877427 0.055007 0.341374
O O10 0.467240 0.564286 0.136246
O O11 0.799910 0.850651 0.225764
O O12 0.000000 0.000000 0.000000
O O13 0.500000 0.500000 0.000000
#
# Coordination Sequence:
#
# PCOD9250622 Si02
#       6
#     4   4   4   4   4   4
#     4  12  25  44  68 102 139 184 237 289 351 423
#     4  12  25  44  68 102 139 184 237 289 351 423
#     4  11  25  45  73 102 141 184 236 292 355 422
#     4  11  25  45  73 102 141 184 236 292 355 422
#     4  12  27  46  70 100 143 184 234 293 355 421
#     4  10  24  44  70  96 141 177 227 285 364 396
#
# _framework density 23.314789999999999
#
# number of rings (size 3 to 8) (size 9 to 14) (size 15 to 20)
#    0.000    0.667    3.333    3.500    9.333    1.333 
#    0.000    1.667    0.000    0.000    0.000    0.000 
#    0.000    0.000    0.000    0.000    0.000    0.000 
#
# Total GULP energy -133671.129751 kJ/mol
# GULP energy per Si atom -5569.630406 kJ/mol
# Density = 2.326172 g / cm^3
# Si number density = 23.314790 Si / 1000 Ang^3
#
#
#
# Elastic Constant Matrix: (Units=GPa)
#
#
# Indices 1 2 3 4 5 6 
#
# 1 68.2756 13.7364 27.0601 0.0000 -14.5618 0.0000
# 2 13.7364 104.9826 28.6068 0.0000 -11.0071 0.0000
# 3 27.0601 28.6068 109.3077 0.0000 -8.7796 0.0000
# 4 0.0000 0.0000 0.0000 50.6111 0.0000 -0.8864
# 5 -14.5618 -11.0071 -8.7796 0.0000 41.8926 0.0000
# 6 0.0000 0.0000 0.0000 -0.8864 0.0000 32.3677
#
#
#
# Elastic Compliance Matrix: (Units=1/GPa)
#
#
# Indices 1 2 3 4 5 6 
#
# 1 0.017337 -0.000731 -0.003694 0.000000 0.005060 0.000000
# 2 -0.000731 0.010485 -0.002403 0.000000 0.001997 0.000000
# 3 -0.003694 -0.002403 0.010718 0.000000 0.000331 0.000000
# 4 0.000000 0.000000 0.000000 0.019768 0.000000 0.000541
# 5 0.005060 0.001997 0.000331 0.000000 0.026223 0.000000
# 6 0.000000 0.000000 0.000000 0.000541 0.000000 0.030910
#
#
# Mechanical properties :
#
#
# Convention : Reuss Voigt Hill
#
# Bulk Modulus (GPa) = 40.18578 46.81915 43.50247
# Shear Modulus (GPa) = 36.39206 39.18512 37.78859
#
# Velocity S-wave (km/s) = 3.95511 4.10408 4.03028
# Velocity P-wave (km/s) = 6.17501 6.52555 6.35270
#
# Compressibility (1/GPa) = 0.02488442
#
# Stress axis : x y z
#
# Youngs Moduli (GPa) = 57.68030 95.37290 93.29789
#
# Poissons Ratio (x) = 0.06975 0.34465
# Poissons Ratio (y) = 0.04218 0.22416
# Poissons Ratio (z) = 0.21308 0.22914
#
# Static dielectric constant tensor:
#      x y z
#    x 1.971630 0.000000 -0.071750 
#    y 0.000000 1.878920 0.000000 
#    z -0.071750 0.000000 1.950830 
# 
# From -- ./inp_files/74142.got.cif
#   From: 2010.05.17/outbox.cif.g08.bks.cpg/sg14_38_cif.got.tgz:74142.got - 2010.06.03 17:49:19.
