data_PCOD9250987
_publ_section_title
;
Structure prediction by ZEFSAII (Michael W. Deem and Ramdas Pophale) SiO2 
 PCOD9250987
Probable space group: P 21/C
;
_chemical_formula_sum "Si O2"
_cell_formula_units_Z 20
_cell_length_a 12.194009
_cell_length_b 9.526931
_cell_length_c 7.742229
_cell_angle_alpha 90.000000
_cell_angle_beta 81.180688
_cell_angle_gamma 90.000000
_cell_volume 888.792088
_symmetry_space_group_name_H-M "P 21/C"
_symmetry_group_IT_number 14
_symmetry_cell_setting 'monoclinic'
loop_
_space_group_symop_operation_xyz
x,y,z
-x,1/2+y,1/2-z
-x,-y,-z
x,1/2-y,1/2+z
loop_
_atom_site_type_symbol
_atom_site_label
_atom_site_fract_x
_atom_site_fract_y
_atom_site_fract_z
Si Si1 0.663012 0.054527 0.517469
Si Si2 0.107576 0.405731 0.427835
Si Si3 0.891137 0.918115 0.477559
Si Si4 0.431827 0.835515 0.101955
Si Si5 0.360096 0.439577 0.350174
O O1 0.645926 0.202185 0.418507
O O2 0.598998 0.083141 0.712760
O O3 0.781328 0.000885 0.559827
O O4 0.635715 0.952634 0.359788
O O5 0.116313 0.420269 0.223693
O O6 0.094706 0.242153 0.471028
O O7 0.233950 0.441191 0.453778
O O8 0.000000 0.500000 0.500000
O O9 0.000000 0.000000 0.500000
O O10 0.563535 0.809796 0.103301
O O11 0.415935 0.928937 0.934450
#
# Coordination Sequence:
#
# PCOD9250987 Si02
#       5
#     4   4   4   4   4
#     4  11  24  44  70 105 142 189 237 296 355 426
#     4  11  26  47  71 100 144 182 238 294 349 422
#     4  11  27  45  72 105 136 189 239 290 358 423
#     4  11  23  42  72  98 147 181 233 291 355 418
#     4  10  25  44  66 105 133 193 234 283 356 426
#
# _framework density 22.50245
#
# number of rings (size 3 to 8) (size 9 to 14) (size 15 to 20)
#    0.000    1.200    2.000    1.800    8.400    4.800 
#    0.000    0.000    0.000    0.000    0.000    0.000 
#    0.000    0.000    0.000    0.000    0.000    0.000 
#
# Total GULP energy -111411.044081 kJ/mol
# GULP energy per Si atom -5570.552204 kJ/mol
# Density = 2.245123 g / cm^3
# Si number density = 22.502450 Si / 1000 Ang^3
#
#
#
# Elastic Constant Matrix: (Units=GPa)
#
#
# Indices 1 2 3 4 5 6 
#
# 1 184.3891 75.4153 33.2214 0.0000 -0.6456 0.0000
# 2 75.4153 99.0266 13.2166 0.0000 -10.0896 0.0000
# 3 33.2214 13.2166 97.3642 0.0000 -12.4781 0.0000
# 4 0.0000 0.0000 0.0000 35.1611 0.0000 1.0729
# 5 -0.6456 -10.0896 -12.4781 0.0000 33.6814 0.0000
# 6 0.0000 0.0000 0.0000 1.0729 0.0000 27.9961
#
#
#
# Elastic Compliance Matrix: (Units=1/GPa)
#
#
# Indices 1 2 3 4 5 6 
#
# 1 0.008451 -0.006390 -0.002353 0.000000 -0.002624 0.000000
# 2 -0.006390 0.015353 0.000703 0.000000 0.004737 0.000000
# 3 -0.002353 0.000703 0.011547 0.000000 0.004444 0.000000
# 4 0.000000 0.000000 0.000000 0.028474 0.000000 -0.001091
# 5 -0.002624 0.004737 0.004444 0.000000 0.032705 0.000000
# 6 0.000000 0.000000 0.000000 -0.001091 0.000000 0.035761
#
#
# Mechanical properties :
#
#
# Convention : Reuss Voigt Hill
#
# Bulk Modulus (GPa) = 51.88309 69.38741 60.63525
# Shear Modulus (GPa) = 32.30087 36.62948 34.46518
#
# Velocity S-wave (km/s) = 3.79283 4.03898 3.91784
# Velocity P-wave (km/s) = 6.50288 7.25628 6.88988
#
# Compressibility (1/GPa) = 0.01927410
#
# Stress axis : x y z
#
# Youngs Moduli (GPa) = 118.32448 65.13295 86.59915
#
# Poissons Ratio (x) = 0.41617 0.20373
# Poissons Ratio (y) = 0.75604 -0.06090
# Poissons Ratio (z) = 0.27836 -0.04580
#
# Static dielectric constant tensor:
#      x y z
#    x 2.366130 0.000000 0.020000 
#    y 0.000000 1.848730 0.000000 
#    z 0.020000 0.000000 1.816150 
# 
# From -- ./inp_files/11791.got.cif
#   From: 2010.05.17/outbox.cif.g08.bks.cpg/sg14_6_cif.got.tgz:11791.got - 2010.06.03 17:49:19.
