data_PCOD9250214
_publ_section_title
;
Structure prediction by ZEFSAII (Michael W. Deem and Ramdas Pophale) SiO2 
 PCOD9250214
Probable space group: P 21/C
;
_chemical_formula_sum "Si O2"
_cell_formula_units_Z 28
_cell_length_a 5.158381
_cell_length_b 20.367311
_cell_length_c 9.415159
_cell_angle_alpha 90.000000
_cell_angle_beta 79.999878
_cell_angle_gamma 90.000000
_cell_volume 974.150518
_symmetry_space_group_name_H-M "P 21/C"
_symmetry_group_IT_number 14
_symmetry_cell_setting 'monoclinic'
loop_
_space_group_symop_operation_xyz
x,y,z
-x,1/2+y,1/2-z
-x,-y,-z
x,1/2-y,1/2+z
loop_
_atom_site_type_symbol
_atom_site_label
_atom_site_fract_x
_atom_site_fract_y
_atom_site_fract_z
Si Si1 0.877068 0.172052 0.033281
Si Si2 0.840793 0.537626 0.833991
Si Si3 0.245959 0.813695 0.458711
Si Si4 0.639430 0.672024 0.704618
Si Si5 0.768539 0.466981 0.430876
Si Si6 0.149843 0.184841 0.282022
Si Si7 0.453325 0.419261 0.875365
O O1 0.342305 0.123217 0.256291
O O2 0.718122 0.237172 0.004601
O O3 0.753329 0.108620 0.976429
O O4 0.185344 0.172557 0.954957
O O5 0.740079 0.603771 0.764585
O O6 0.662747 0.474611 0.814136
O O7 0.131089 0.527600 0.741259
O O8 0.778177 0.548768 0.005702
O O9 0.334628 0.824366 0.288011
O O10 0.404465 0.866984 0.533341
O O11 0.091789 0.826229 0.800743
O O12 0.739984 0.742756 0.756273
O O13 0.500000 0.500000 0.500000
O O14 0.000000 0.500000 0.500000
O O15 0.050509 0.179884 0.455605
#
# Coordination Sequence:
#
# PCOD9250214 Si02
#       7
#     4   4   4   4   4   4   4
#     4  10  25  48  72 116 150 206 265 344 402 489
#     4   9  22  50  78 113 161 206 274 333 414 494
#     4  10  24  44  74 109 149 198 269 327 412 484
#     4   9  22  45  72 107 158 202 256 331 410 477
#     4  11  27  53  79 117 163 216 273 331 417 496
#     4  11  25  43  79 111 157 201 277 332 411 493
#     4  10  23  49  78 113 155 215 269 341 412 506
#
# _framework density 28.742989999999999
#
# number of rings (size 3 to 8) (size 9 to 14) (size 15 to 20)
#    0.000    2.000    0.000    0.000   12.000    2.286 
#   12.857    5.714    0.000    0.857    0.000    0.000 
#    0.000    0.000    0.000    0.000    0.000    0.000 
#
# Total GULP energy -156876.548429 kJ/mol
# GULP energy per Si atom -5602.733872 kJ/mol
# Density = 2.867757 g / cm^3
# Si number density = 28.742990 Si / 1000 Ang^3
#
#
#
# Elastic Constant Matrix: (Units=GPa)
#
#
# Indices 1 2 3 4 5 6 
#
# 1 93.5695 78.6980 53.6029 0.0000 -32.1568 0.0000
# 2 78.6980 246.8795 62.6105 0.0000 -13.8611 0.0000
# 3 53.6029 62.6105 189.9642 0.0000 -42.9023 0.0000
# 4 0.0000 0.0000 0.0000 36.1769 0.0000 1.5658
# 5 -32.1568 -13.8611 -42.9023 0.0000 52.4557 0.0000
# 6 0.0000 0.0000 0.0000 1.5658 0.0000 51.2641
#
#
#
# Elastic Compliance Matrix: (Units=1/GPa)
#
#
# Indices 1 2 3 4 5 6 
#
# 1 0.019044 -0.005148 -0.001653 0.000000 0.008962 0.000000
# 2 -0.005148 0.005812 -0.001017 0.000000 -0.002452 0.000000
# 3 -0.001653 -0.001017 0.007085 0.000000 0.004513 0.000000
# 4 0.000000 0.000000 0.000000 0.027679 0.000000 -0.000845
# 5 0.008962 -0.002452 0.004513 0.000000 0.027601 0.000000
# 6 0.000000 0.000000 0.000000 -0.000845 0.000000 0.019533
#
#
# Mechanical properties :
#
#
# Convention : Reuss Voigt Hill
#
# Bulk Modulus (GPa) = 61.32920 102.24844 81.78882
# Shear Modulus (GPa) = 39.11641 50.34612 44.73126
#
# Velocity S-wave (km/s) = 3.69304 4.18975 3.94921
# Velocity P-wave (km/s) = 6.29032 7.68478 7.02225
#
# Compressibility (1/GPa) = 0.01630545
#
# Stress axis : x y z
#
# Youngs Moduli (GPa) = 52.50898 172.06181 141.14913
#
# Poissons Ratio (x) = 0.88585 0.23329
# Poissons Ratio (y) = 0.27034 0.14348
# Poissons Ratio (z) = 0.08679 0.17490
#
# Static dielectric constant tensor:
#      x y z
#    x 2.269390 0.000000 -0.009810 
#    y 0.000000 2.178980 0.000000 
#    z -0.009810 0.000000 2.252830 
# 
# From -- ./inp_files/21703.got.cif
#   From: 2010.05.17/outbox.cif.g08.bks.cpg/sg14_11_cif.got.tgz:21703.got - 2010.06.03 17:49:19.
