data_PCOD9250750
_publ_section_title
;
Structure prediction by ZEFSAII (Michael W. Deem and Ramdas Pophale) SiO2 
 PCOD9250750
Probable space group: P 21/C
;
_chemical_formula_sum "Si O2"
_cell_formula_units_Z 20
_cell_length_a 7.016953
_cell_length_b 13.851825
_cell_length_c 8.174889
_cell_angle_alpha 90.000000
_cell_angle_beta 79.535579
_cell_angle_gamma 90.000000
_cell_volume 781.364089
_symmetry_space_group_name_H-M "P 21/C"
_symmetry_group_IT_number 14
_symmetry_cell_setting 'monoclinic'
loop_
_space_group_symop_operation_xyz
x,y,z
-x,1/2+y,1/2-z
-x,-y,-z
x,1/2-y,1/2+z
loop_
_atom_site_type_symbol
_atom_site_label
_atom_site_fract_x
_atom_site_fract_y
_atom_site_fract_z
Si Si1 0.958112 0.728412 0.203294
Si Si2 0.145367 0.079691 0.545170
Si Si3 0.846288 0.047829 0.141184
Si Si4 0.329647 0.846185 0.097735
Si Si5 0.551652 0.675343 0.887807
O O1 0.056555 0.644641 0.298096
O O2 0.746359 0.768477 0.290243
O O3 0.941463 0.676193 0.029026
O O4 0.108086 0.817070 0.173362
O O5 0.373133 0.103187 0.481419
O O6 0.000000 0.000000 0.500000
O O7 0.185452 0.031987 0.716777
O O8 0.672478 0.076162 0.046901
O O9 0.000000 0.000000 0.000000
O O10 0.420453 0.751807 0.001347
O O11 0.437007 0.866901 0.250824
#
# Coordination Sequence:
#
# PCOD9250750 Si02
#       5
#     4   4   4   4   4
#     4  11  24  49  72 102 154 193 246 306 365 440
#     4  10  24  46  68 101 151 190 227 311 379 412
#     4  11  25  44  71 108 149 192 237 312 373 428
#     4  12  26  45  76 110 143 198 257 294 362 458
#     4  12  25  46  78 105 140 203 254 296 363 453
#
# _framework density 25.596264999999999
#
# number of rings (size 3 to 8) (size 9 to 14) (size 15 to 20)
#    0.000    0.800    4.000    2.400    5.600    0.800 
#    0.000    5.000    0.000    0.000    0.000    0.000 
#    0.000    0.000    0.000    0.000    0.000    0.000 
#
# Total GULP energy -111544.543315 kJ/mol
# GULP energy per Si atom -5577.227166 kJ/mol
# Density = 2.553801 g / cm^3
# Si number density = 25.596265 Si / 1000 Ang^3
#
#
#
# Elastic Constant Matrix: (Units=GPa)
#
#
# Indices 1 2 3 4 5 6 
#
# 1 123.5186 25.3831 26.1282 0.0000 36.9137 0.0000
# 2 25.3831 79.2727 -3.3857 0.0000 21.9579 0.0000
# 3 26.1282 -3.3857 63.4099 0.0000 34.0544 0.0000
# 4 0.0000 0.0000 0.0000 48.6948 0.0000 10.0839
# 5 36.9137 21.9579 34.0544 0.0000 68.3030 0.0000
# 6 0.0000 0.0000 0.0000 10.0839 0.0000 60.1252
#
#
#
# Elastic Compliance Matrix: (Units=1/GPa)
#
#
# Indices 1 2 3 4 5 6 
#
# 1 0.010147 -0.002380 -0.002423 0.000000 -0.003511 0.000000
# 2 -0.002380 0.015310 0.005122 0.000000 -0.006189 0.000000
# 3 -0.002423 0.005122 0.023522 0.000000 -0.012065 0.000000
# 4 0.000000 0.000000 0.000000 0.021275 0.000000 -0.003568
# 5 -0.003511 -0.006189 -0.012065 0.000000 0.024543 0.000000
# 6 0.000000 0.000000 0.000000 -0.003568 0.000000 0.017230
#
#
# Mechanical properties :
#
#
# Convention : Reuss Voigt Hill
#
# Bulk Modulus (GPa) = 20.15430 40.27247 30.21339
# Shear Modulus (GPa) = 39.08498 49.96298 44.52398
#
# Velocity S-wave (km/s) = 3.91190 4.42290 4.17522
# Velocity P-wave (km/s) = 5.31930 6.46920 5.92223
#
# Compressibility (1/GPa) = 0.04961720
#
# Stress axis : x y z
#
# Youngs Moduli (GPa) = 98.55442 65.31715 42.51422
#
# Poissons Ratio (x) = 0.15545 0.10300
# Poissons Ratio (y) = 0.23456 -0.21776
# Poissons Ratio (z) = 0.23876 -0.33456
#
# Static dielectric constant tensor:
#      x y z
#    x 2.002480 0.000000 0.030460 
#    y 0.000000 2.059510 0.000000 
#    z 0.030460 0.000000 2.052290 
# 
# From -- ./inp_files/5446.got.cif
#   From: 2010.05.17/outbox.cif.g08.bks.cpg/sg14_3_cif.got.tgz:5446.got - 2010.06.03 17:49:19.
