data_PCOD9250471
_publ_section_title
;
Structure prediction by ZEFSAII (Michael W. Deem and Ramdas Pophale) SiO2 
 PCOD9250471
Probable space group: P 21/C
;
_chemical_formula_sum "Si O2"
_cell_formula_units_Z 28
_cell_length_a 16.452661
_cell_length_b 5.117456
_cell_length_c 13.942711
_cell_angle_alpha 90.000000
_cell_angle_beta 61.480049
_cell_angle_gamma 90.000000
_cell_volume 1031.463476
_symmetry_space_group_name_H-M "P 21/C"
_symmetry_group_IT_number 14
_symmetry_cell_setting 'monoclinic'
loop_
_space_group_symop_operation_xyz
x,y,z
-x,1/2+y,1/2-z
-x,-y,-z
x,1/2-y,1/2+z
loop_
_atom_site_type_symbol
_atom_site_label
_atom_site_fract_x
_atom_site_fract_y
_atom_site_fract_z
Si Si1 0.806371 0.705962 0.001883
Si Si2 0.010389 0.418774 0.675647
Si Si3 0.624820 0.201095 0.519853
Si Si4 0.251847 0.120823 0.152833
Si Si5 0.853343 0.165067 0.645251
Si Si6 0.568064 0.820146 0.385487
Si Si7 0.672765 0.405358 0.682649
O O1 0.889899 0.906771 0.932100
O O2 0.771241 0.654632 0.912653
O O3 0.850932 0.482049 0.043769
O O4 0.721139 0.854768 0.099196
O O5 0.936113 0.346400 0.634327
O O6 0.996844 0.684034 0.742204
O O7 0.704221 0.376956 0.428964
O O8 0.523984 0.346669 0.575366
O O9 0.652115 0.184206 0.614995
O O10 0.587736 0.958498 0.477537
O O11 0.162327 0.053412 0.264464
O O12 0.335142 0.172087 0.178892
O O13 0.757057 0.321489 0.702777
O O14 0.580981 0.030070 0.293397
#
# Coordination Sequence:
#
# PCOD9250471 Si02
#       7
#     4   4   4   4   4   4   4
#     4  11  26  47  72 107 143 195 245 306 376 448
#     4  12  30  50  79 114 154 197 249 313 379 459
#     4  10  24  43  65 102 139 191 233 309 358 439
#     4  11  22  44  70 103 138 192 239 298 368 443
#     4  12  25  44  76 104 148 189 245 306 374 453
#     4  11  22  43  69  97 145 184 241 296 371 432
#     4  11  25  43  72 106 143 190 250 302 373 452
#
# _framework density 27.145893999999998
#
# number of rings (size 3 to 8) (size 9 to 14) (size 15 to 20)
#    0.000    0.857    4.286    1.714    6.000    1.714 
#   10.286    0.000    0.000    0.000    0.000    0.000 
#    0.000    0.000    0.000    0.000    0.000    0.000 
#
# Total GULP energy -156538.132741 kJ/mol
# GULP energy per Si atom -5590.647598 kJ/mol
# Density = 2.708411 g / cm^3
# Si number density = 27.145894 Si / 1000 Ang^3
#
#
#
# Elastic Constant Matrix: (Units=GPa)
#
#
# Indices 1 2 3 4 5 6 
#
# 1 154.6599 13.5195 23.6253 0.0000 13.7882 0.0000
# 2 13.5195 92.9629 23.6015 0.0000 6.8445 0.0000
# 3 23.6253 23.6015 104.8555 0.0000 13.4295 0.0000
# 4 0.0000 0.0000 0.0000 20.6053 0.0000 11.8455
# 5 13.7882 6.8445 13.4295 0.0000 39.6708 0.0000
# 6 0.0000 0.0000 0.0000 11.8455 0.0000 35.4448
#
#
#
# Elastic Compliance Matrix: (Units=1/GPa)
#
#
# Indices 1 2 3 4 5 6 
#
# 1 0.006863 -0.000560 -0.001178 0.000000 -0.001890 0.000000
# 2 -0.000560 0.011505 -0.002335 0.000000 -0.001000 0.000000
# 3 -0.001178 -0.002335 0.010687 0.000000 -0.002805 0.000000
# 4 0.000000 0.000000 0.000000 0.060072 0.000000 -0.020076
# 5 -0.001890 -0.001000 -0.002805 0.000000 0.026987 0.000000
# 6 0.000000 0.000000 0.000000 -0.020076 0.000000 0.034922
#
#
# Mechanical properties :
#
#
# Convention : Reuss Voigt Hill
#
# Bulk Modulus (GPa) = 47.82749 52.66345 50.24547
# Shear Modulus (GPa) = 30.09270 38.59297 34.34283
#
# Velocity S-wave (km/s) = 3.33311 3.77462 3.56071
# Velocity P-wave (km/s) = 5.69822 6.19994 5.95437
#
# Compressibility (1/GPa) = 0.02090848
#
# Stress axis : x y z
#
# Youngs Moduli (GPa) = 145.70412 86.91931 93.56805
#
# Poissons Ratio (x) = 0.04866 0.11025
# Poissons Ratio (y) = 0.08157 0.21852
# Poissons Ratio (z) = 0.17168 0.20299
#
# Static dielectric constant tensor:
#      x y z
#    x 2.193390 0.000000 -0.045050 
#    y 0.000000 2.301720 0.000000 
#    z -0.045050 0.000000 2.252250 
# 
# From -- ./inp_files/48081.got.cif
#   From: 2010.05.17/outbox.cif.g08.bks.cpg/sg14_25_cif.got.tgz:48081.got - 2010.06.03 17:49:19.
