data_PCOD9250493
_publ_section_title
;
Structure prediction by ZEFSAII (Michael W. Deem and Ramdas Pophale) SiO2 
 PCOD9250493
Probable space group: P 21/C
;
_chemical_formula_sum "Si O2"
_cell_formula_units_Z 20
_cell_length_a 8.619798
_cell_length_b 4.795816
_cell_length_c 23.319324
_cell_angle_alpha 90.000000
_cell_angle_beta 126.549472
_cell_angle_gamma 90.000000
_cell_volume 774.419982
_symmetry_space_group_name_H-M "P 21/C"
_symmetry_group_IT_number 14
_symmetry_cell_setting 'monoclinic'
loop_
_space_group_symop_operation_xyz
x,y,z
-x,1/2+y,1/2-z
-x,-y,-z
x,1/2-y,1/2+z
loop_
_atom_site_type_symbol
_atom_site_label
_atom_site_fract_x
_atom_site_fract_y
_atom_site_fract_z
Si Si1 0.457241 0.426724 0.701470
Si Si2 0.768516 0.771598 0.036189
Si Si3 0.946359 0.089140 0.702591
Si Si4 0.957073 0.706555 0.899876
Si Si5 0.596900 0.508138 0.610853
O O1 0.427956 0.672070 0.742246
O O2 0.262626 0.278316 0.634495
O O3 0.550976 0.575643 0.666799
O O4 0.882065 0.501009 0.037972
O O5 0.671665 0.771831 0.078852
O O6 0.597782 0.879407 0.958900
O O7 0.935155 0.000485 0.076582
O O8 0.751150 0.257977 0.648938
O O9 0.062202 0.288375 0.771536
O O10 0.055227 0.080832 0.666706
#
# Coordination Sequence:
#
# PCOD9250493 Si02
#       5
#     4   4   4   4   4
#     4  12  26  43  67 100 139 179 222 280 348 410
#     4  10  24  43  67  94 127 176 228 279 330 396
#     4  11  21  36  60  87 122 167 214 268 327 393
#     4  11  23  41  63  95 131 169 223 278 338 398
#     4  10  24  43  67  95 131 174 227 278 333 402
#
# _framework density 25.825780000000002
#
# number of rings (size 3 to 8) (size 9 to 14) (size 15 to 20)
#    0.000    1.200    0.000    6.000    0.000   15.200 
#    0.000    0.000    0.000    0.000    0.000    0.000 
#    0.000    0.000    0.000    0.000    0.000    0.000 
#
# Total GULP energy -111875.984336 kJ/mol
# GULP energy per Si atom -5593.799217 kJ/mol
# Density = 2.576700 g / cm^3
# Si number density = 25.825780 Si / 1000 Ang^3
#
#
#
# Elastic Constant Matrix: (Units=GPa)
#
#
# Indices 1 2 3 4 5 6 
#
# 1 116.1693 27.4365 31.5647 0.0000 10.1073 0.0000
# 2 27.4365 86.3183 -12.2327 0.0000 -4.8274 0.0000
# 3 31.5647 -12.2327 103.0399 0.0000 3.1472 0.0000
# 4 0.0000 0.0000 0.0000 20.4746 0.0000 8.3184
# 5 10.1073 -4.8274 3.1472 0.0000 31.2083 0.0000
# 6 0.0000 0.0000 0.0000 8.3184 0.0000 32.2906
#
#
#
# Elastic Compliance Matrix: (Units=1/GPa)
#
#
# Indices 1 2 3 4 5 6 
#
# 1 0.010956 -0.004226 -0.003741 0.000000 -0.003825 0.000000
# 2 -0.004226 0.013503 0.002801 0.000000 0.003175 0.000000
# 3 -0.003741 0.002801 0.011168 0.000000 0.000519 0.000000
# 4 0.000000 0.000000 0.000000 0.054550 0.000000 -0.014053
# 5 -0.003825 0.003175 0.000519 0.000000 0.033720 0.000000
# 6 0.000000 0.000000 0.000000 -0.014053 0.000000 0.034589
#
#
# Mechanical properties :
#
#
# Convention : Reuss Voigt Hill
#
# Bulk Modulus (GPa) = 39.53682 44.34050 41.93866
# Shear Modulus (GPa) = 28.20883 34.04530 31.12706
#
# Velocity S-wave (km/s) = 3.30854 3.63474 3.47547
# Velocity P-wave (km/s) = 5.47152 5.90097 5.69030
#
# Compressibility (1/GPa) = 0.02529288
#
# Stress axis : x y z
#
# Youngs Moduli (GPa) = 91.27835 74.05861 89.54456
#
# Poissons Ratio (x) = 0.31299 0.33498
# Poissons Ratio (y) = 0.38577 -0.25079
# Poissons Ratio (z) = 0.34147 -0.20742
#
# Static dielectric constant tensor:
#      x y z
#    x 2.079400 0.000000 0.028490 
#    y 0.000000 2.016860 0.000000 
#    z 0.028490 0.000000 2.096020 
# 
# From -- ./inp_files/71690.got.cif
#   From: 2010.05.17/outbox.cif.g08.bks.cpg/sg14_36_cif.got.tgz:71690.got - 2010.06.03 17:49:19.
