data_PCOD9250811
_publ_section_title
;
Structure prediction by ZEFSAII (Michael W. Deem and Ramdas Pophale) SiO2 
 PCOD9250811
Probable space group: P 21/C
;
_chemical_formula_sum "Si O2"
_cell_formula_units_Z 16
_cell_length_a 9.885727
_cell_length_b 10.246478
_cell_length_c 9.053793
_cell_angle_alpha 90.000000
_cell_angle_beta 133.832200
_cell_angle_gamma 90.000000
_cell_volume 661.565036
_symmetry_space_group_name_H-M "P 21/C"
_symmetry_group_IT_number 14
_symmetry_cell_setting 'monoclinic'
loop_
_space_group_symop_operation_xyz
x,y,z
-x,1/2+y,1/2-z
-x,-y,-z
x,1/2-y,1/2+z
loop_
_atom_site_type_symbol
_atom_site_label
_atom_site_fract_x
_atom_site_fract_y
_atom_site_fract_z
Si Si1 0.066514 0.771880 0.876206
Si Si2 0.361975 0.368043 0.970157
Si Si3 0.542831 0.374557 0.431911
Si Si4 0.860559 0.088676 0.800970
O O1 0.085391 0.628834 0.822052
O O2 0.855957 0.817367 0.684506
O O3 0.236524 0.858595 0.937630
O O4 0.120229 0.779607 0.089178
O O5 0.471103 0.255754 0.961965
O O6 0.324483 0.503227 0.852275
O O7 0.438850 0.381670 0.194549
O O8 0.500000 0.500000 0.500000
O O9 0.000000 0.000000 0.000000
#
# Coordination Sequence:
#
# PCOD9250811 Si02
#       4
#     4   4   4   4
#     4  11  25  47  76 106 149 193 242 307 375 430
#     4  11  27  49  74 107 152 191 248 308 373 443
#     4  12  30  46  77 112 144 196 252 300 375 447
#     4  10  24  46  76 105 148 196 245 300 374 438
#
# _framework density 24.185072000000002
#
# number of rings (size 3 to 8) (size 9 to 14) (size 15 to 20)
#    0.000    1.000    0.000    4.500   17.500    3.000 
#    0.000    0.000    0.000    0.000    0.000    0.000 
#    0.000    0.000    0.000    0.000    0.000    0.000 
#
# Total GULP energy -89402.035600 kJ/mol
# GULP energy per Si atom -5587.627225 kJ/mol
# Density = 2.413003 g / cm^3
# Si number density = 24.185072 Si / 1000 Ang^3
#
#
#
# Elastic Constant Matrix: (Units=GPa)
#
#
# Indices 1 2 3 4 5 6 
#
# 1 78.7706 5.3623 57.1549 0.0000 -0.6372 0.0000
# 2 5.3623 99.6828 49.8712 0.0000 -39.6307 0.0000
# 3 57.1549 49.8712 199.5191 0.0000 -14.9181 0.0000
# 4 0.0000 0.0000 0.0000 47.5073 0.0000 -11.6657
# 5 -0.6372 -39.6307 -14.9181 0.0000 50.4809 0.0000
# 6 0.0000 0.0000 0.0000 -11.6657 0.0000 45.8768
#
#
#
# Elastic Compliance Matrix: (Units=1/GPa)
#
#
# Indices 1 2 3 4 5 6 
#
# 1 0.016264 0.001671 -0.005076 0.000000 0.000017 0.000000
# 2 0.001671 0.016536 -0.003722 0.000000 0.011903 0.000000
# 3 -0.005076 -0.003722 0.007335 0.000000 -0.000819 0.000000
# 4 0.000000 0.000000 0.000000 0.022451 0.000000 0.005709
# 5 0.000017 0.011903 -0.000819 0.000000 0.028913 0.000000
# 6 0.000000 0.000000 0.000000 0.005709 0.000000 0.023249
#
#
# Mechanical properties :
#
#
# Convention : Reuss Voigt Hill
#
# Bulk Modulus (GPa) = 38.63524 66.97215 52.80370
# Shear Modulus (GPa) = 36.32941 46.47860 41.40400
#
# Velocity S-wave (km/s) = 3.87995 4.38858 4.14208
# Velocity P-wave (km/s) = 6.00679 7.30966 6.69002
#
# Compressibility (1/GPa) = 0.02588311
#
# Stress axis : x y z
#
# Youngs Moduli (GPa) = 61.48468 60.47232 136.32903
#
# Poissons Ratio (x) = -0.10107 0.69195
# Poissons Ratio (y) = -0.10276 0.50744
# Poissons Ratio (z) = 0.31207 0.22509
#
# Static dielectric constant tensor:
#      x y z
#    x 2.009550 0.000000 0.052060 
#    y 0.000000 2.144600 0.000000 
#    z 0.052060 0.000000 1.869280 
# 
# From -- ./inp_files/7335.got.cif
#   From: 2010.05.17/outbox.cif.g08.bks.cpg/sg14_4_cif.got.tgz:7335.got - 2010.06.03 17:49:19.
