data_PCOD9250042
_publ_section_title
;
Structure prediction by ZEFSAII (Michael W. Deem and Ramdas Pophale) SiO2 
 PCOD9250042
Probable space group: P 21/C
;
_chemical_formula_sum "Si O2"
_cell_formula_units_Z 28
_cell_length_a 8.594012
_cell_length_b 31.674461
_cell_length_c 5.543309
_cell_angle_alpha 90.000000
_cell_angle_beta 123.661502
_cell_angle_gamma 90.000000
_cell_volume 1255.937785
_symmetry_space_group_name_H-M "P 21/C"
_symmetry_group_IT_number 14
_symmetry_cell_setting 'monoclinic'
loop_
_space_group_symop_operation_xyz
x,y,z
-x,1/2+y,1/2-z
-x,-y,-z
x,1/2-y,1/2+z
loop_
_atom_site_type_symbol
_atom_site_label
_atom_site_fract_x
_atom_site_fract_y
_atom_site_fract_z
Si Si1 0.846268 0.274737 0.021944
Si Si2 0.402970 0.275242 0.685171
Si Si3 0.145207 0.345772 0.301698
Si Si4 0.591701 0.456971 0.180876
Si Si5 0.811613 0.989157 0.195888
Si Si6 0.991559 0.072996 0.944095
Si Si7 0.265380 0.089994 0.561386
O O1 0.886637 0.245767 0.820562
O O2 0.624654 0.283888 0.850361
O O3 0.973676 0.315528 0.091144
O O4 0.360281 0.250223 0.396380
O O5 0.282004 0.317753 0.581775
O O6 0.058548 0.387454 0.346334
O O7 0.267710 0.365032 0.189956
O O8 0.680799 0.471996 0.514906
O O9 0.779351 0.439714 0.216640
O O10 0.500000 0.500000 0.000000
O O11 0.440030 0.419594 0.039894
O O12 0.713514 0.950899 0.249227
O O13 0.882357 0.967391 0.011523
O O14 0.000000 0.000000 0.500000
O O15 0.060001 0.085497 0.268523
#
# Coordination Sequence:
#
# PCOD9250042 Si02
#       7
#     4   4   4   4   4   4   4
#     4  10  23  45  74 105 135 185 233 277 342 416
#     4  10  23  45  74 106 136 180 235 280 335 421
#     4  11  26  42  68  96 144 173 220 278 350 413
#     4  12  23  43  71  88 129 182 232 284 338 412
#     4  11  21  43  67  88 127 170 232 283 332 408
#     4  11  25  42  61 100 132 172 222 287 347 404
#     4  11  25  41  62  99 131 176 220 282 354 403
#
# _framework density 22.2941
#
# number of rings (size 3 to 8) (size 9 to 14) (size 15 to 20)
#    0.000    1.143    2.857    2.571    4.000    2.286 
#    2.571    0.000    0.000    0.000    0.000    0.000 
#    0.000    0.000    0.000    0.000    0.000    0.000 
#
# Total GULP energy -156268.282336 kJ/mol
# GULP energy per Si atom -5581.010083 kJ/mol
# Density = 2.224336 g / cm^3
# Si number density = 22.294100 Si / 1000 Ang^3
#
#
#
# Elastic Constant Matrix: (Units=GPa)
#
#
# Indices 1 2 3 4 5 6 
#
# 1 95.8133 44.8838 25.6609 0.0000 19.5900 0.0000
# 2 44.8838 87.3651 29.0961 0.0000 14.4809 0.0000
# 3 25.6609 29.0961 85.3219 0.0000 8.5049 0.0000
# 4 0.0000 0.0000 0.0000 14.2280 0.0000 5.2041
# 5 19.5900 14.4809 8.5049 0.0000 35.9253 0.0000
# 6 0.0000 0.0000 0.0000 5.2041 0.0000 39.0162
#
#
#
# Elastic Compliance Matrix: (Units=1/GPa)
#
#
# Indices 1 2 3 4 5 6 
#
# 1 0.014885 -0.006169 -0.001856 0.000000 -0.005191 0.000000
# 2 -0.006169 0.016140 -0.003416 0.000000 -0.002333 0.000000
# 3 -0.001856 -0.003416 0.013524 0.000000 -0.000813 0.000000
# 4 0.000000 0.000000 0.000000 0.073889 0.000000 -0.009855
# 5 -0.005191 -0.002333 -0.000813 0.000000 0.031799 0.000000
# 6 0.000000 0.000000 0.000000 -0.009855 0.000000 0.026945
#
#
# Mechanical properties :
#
#
# Convention : Reuss Voigt Hill
#
# Bulk Modulus (GPa) = 46.15046 51.97578 49.06312
# Shear Modulus (GPa) = 24.12129 29.09119 26.60624
#
# Velocity S-wave (km/s) = 3.29288 3.61624 3.45834
# Velocity P-wave (km/s) = 5.93322 6.38753 6.16456
#
# Compressibility (1/GPa) = 0.02166826
#
# Stress axis : x y z
#
# Youngs Moduli (GPa) = 67.18145 61.95848 73.94049
#
# Poissons Ratio (x) = 0.38221 0.13721
# Poissons Ratio (y) = 0.41443 0.25259
# Poissons Ratio (z) = 0.12467 0.21166
#
# Static dielectric constant tensor:
#      x y z
#    x 1.937760 0.000000 -0.069940 
#    y 0.000000 1.795560 0.000000 
#    z -0.069940 0.000000 1.904820 
# 
# From -- ./inp_files/2279.got.cif
#   From: 2010.05.17/outbox.cif.g08.bks.cpg/sg14_2_cif.got.tgz:2279.got - 2010.06.03 17:49:19.
