data_PCOD9250635
_publ_section_title
;
Structure prediction by ZEFSAII (Michael W. Deem and Ramdas Pophale) SiO2 
 PCOD9250635
Probable space group: P 21/C
;
_chemical_formula_sum "Si O2"
_cell_formula_units_Z 28
_cell_length_a 19.028151
_cell_length_b 8.750617
_cell_length_c 23.463678
_cell_angle_alpha 90.000000
_cell_angle_beta 14.946266
_cell_angle_gamma 90.000000
_cell_volume 1007.638322
_symmetry_space_group_name_H-M "P 21/C"
_symmetry_group_IT_number 14
_symmetry_cell_setting 'monoclinic'
loop_
_space_group_symop_operation_xyz
x,y,z
-x,1/2+y,1/2-z
-x,-y,-z
x,1/2-y,1/2+z
loop_
_atom_site_type_symbol
_atom_site_label
_atom_site_fract_x
_atom_site_fract_y
_atom_site_fract_z
Si Si1 0.142352 0.114211 0.510737
Si Si2 0.460484 0.804355 0.444707
Si Si3 0.441346 0.427098 0.249474
Si Si4 0.951166 0.199167 0.972121
Si Si5 0.000000 0.000000 0.500000
Si Si6 0.771937 0.472945 0.407314
Si Si7 0.150420 0.201463 0.694874
Si Si8 0.500000 0.500000 0.000000
O O1 0.280468 0.278572 0.394666
O O2 0.956033 0.094830 0.712107
O O3 0.394625 0.000977 0.327655
O O4 0.989959 0.063359 0.573901
O O5 0.386370 0.875401 0.441836
O O6 0.504054 0.623866 0.393260
O O7 0.302381 0.860873 0.624163
O O8 0.748996 0.868192 0.244742
O O9 0.251360 0.560247 0.374001
O O10 0.004511 0.259973 0.866656
O O11 0.887837 0.332884 0.064006
O O12 0.761704 0.653667 0.411471
O O13 0.928345 0.407045 0.339028
O O14 0.405101 0.111218 0.520714
#
# Coordination Sequence:
#
# PCOD9250635 Si02
#       8
#     4   4   4   4   2   4   4   2
#     4  12  28  46  79 113 152 215 263 335 400 485
#     4  11  26  47  74 112 153 200 258 329 395 482
#     4  12  27  51  76 110 157 213 268 323 407 478
#     4  11  26  48  77 111 158 206 258 332 390 490
#     4  12  24  50  74 116 154 200 268 324 400 468
#     4  12  27  48  78 115 159 207 272 334 410 476
#     4  11  25  47  75 111 160 209 264 333 397 488
#     4  10  24  44  72 110 150 200 250 318 404 462
#
# _framework density 27.787748000000001
#
# number of rings (size 3 to 8) (size 9 to 14) (size 15 to 20)
#    0.000    0.571    2.857    3.857    8.000    2.286 
#    5.143    0.000    0.000    0.000    0.000    0.000 
#    0.000    0.000    0.000    0.000    0.000    0.000 
#
# Total GULP energy -156074.690592 kJ/mol
# GULP energy per Si atom -5574.096093 kJ/mol
# Density = 2.772450 g / cm^3
# Si number density = 27.787748 Si / 1000 Ang^3
#
#
#
# Elastic Constant Matrix: (Units=GPa)
#
#
# Indices 1 2 3 4 5 6 
#
# 1 198.9231 42.3138 4.7958 0.0000 -30.7608 0.0000
# 2 42.3138 170.9554 5.9849 0.0000 -42.0919 0.0000
# 3 4.7958 5.9849 48.5015 0.0000 -12.8315 0.0000
# 4 0.0000 0.0000 0.0000 40.4426 0.0000 -16.1085
# 5 -30.7608 -42.0919 -12.8315 0.0000 40.7193 0.0000
# 6 0.0000 0.0000 0.0000 -16.1085 0.0000 70.2378
#
#
#
# Elastic Compliance Matrix: (Units=1/GPa)
#
#
# Indices 1 2 3 4 5 6 
#
# 1 0.005734 -0.000441 0.000559 0.000000 0.004052 0.000000
# 2 -0.000441 0.007955 0.001254 0.000000 0.008285 0.000000
# 3 0.000559 0.001254 0.022760 0.000000 0.008891 0.000000
# 4 0.000000 0.000000 0.000000 0.027212 0.000000 0.006241
# 5 0.004052 0.008285 0.008891 0.000000 0.038985 0.000000
# 6 0.000000 0.000000 0.000000 0.006241 0.000000 0.015669
#
#
# Mechanical properties :
#
#
# Convention : Reuss Voigt Hill
#
# Bulk Modulus (GPa) = 25.51493 58.28544 41.90019
# Shear Modulus (GPa) = 38.86986 54.63232 46.75109
#
# Velocity S-wave (km/s) = 3.74413 4.43884 4.10620
# Velocity P-wave (km/s) = 5.28141 6.87690 6.13128
#
# Compressibility (1/GPa) = 0.03919274
#
# Stress axis : x y z
#
# Youngs Moduli (GPa) = 174.39836 125.71400 43.93662
#
# Poissons Ratio (x) = 0.05546 -0.02458
# Poissons Ratio (y) = 0.07694 -0.05509
# Poissons Ratio (z) = -0.09756 -0.15762
#
# Static dielectric constant tensor:
#      x y z
#    x 1.770740 0.000000 0.084720 
#    y 0.000000 1.749170 0.000000 
#    z 0.084720 0.000000 2.788930 
# 
# From -- ./inp_files/74267.got.cif
#   From: 2010.05.17/outbox.cif.g08.bks.cpg/sg14_38_cif.got.tgz:74267.got - 2010.06.03 17:49:19.
