data_PCOD9250841
_publ_section_title
;
Structure prediction by ZEFSAII (Michael W. Deem and Ramdas Pophale) SiO2 
 PCOD9250841
Probable space group: P 21/C
;
_chemical_formula_sum "Si O2"
_cell_formula_units_Z 20
_cell_length_a 5.276586
_cell_length_b 19.669467
_cell_length_c 7.655809
_cell_angle_alpha 90.000000
_cell_angle_beta 86.056393
_cell_angle_gamma 90.000000
_cell_volume 792.696921
_symmetry_space_group_name_H-M "P 21/C"
_symmetry_group_IT_number 14
_symmetry_cell_setting 'monoclinic'
loop_
_space_group_symop_operation_xyz
x,y,z
-x,1/2+y,1/2-z
-x,-y,-z
x,1/2-y,1/2+z
loop_
_atom_site_type_symbol
_atom_site_label
_atom_site_fract_x
_atom_site_fract_y
_atom_site_fract_z
Si Si1 0.310331 0.421131 0.153199
Si Si2 0.688000 0.690850 0.550416
Si Si3 0.511570 0.839021 0.671174
Si Si4 0.094553 0.609667 0.388123
Si Si5 0.780770 0.017947 0.805259
O O1 0.356489 0.357448 0.282018
O O2 0.031484 0.451327 0.199143
O O3 0.530957 0.473202 0.201124
O O4 0.346568 0.391956 0.959275
O O5 0.588998 0.765650 0.594447
O O6 0.562816 0.669156 0.374518
O O7 0.984937 0.676195 0.491984
O O8 0.223036 0.866105 0.702737
O O9 0.251882 0.563046 0.516937
O O10 0.865312 0.556793 0.359675
#
# Coordination Sequence:
#
# PCOD9250841 Si02
#       5
#     4   4   4   4   4
#     4  11  25  45  74 106 142 182 240 289 353 420
#     4  11  25  45  66 104 140 187 235 292 351 419
#     4  12  25  44  71 102 141 188 238 292 353 421
#     4  10  25  43  74 101 146 186 236 291 361 415
#     4  10  24  47  73 107 145 186 231 297 353 425
#
# _framework density 25.230324
#
# number of rings (size 3 to 8) (size 9 to 14) (size 15 to 20)
#    0.000    1.200    4.000    0.000    5.600    7.200 
#    0.000    0.000    0.000    0.000    0.000    0.000 
#    0.000    0.000    0.000    0.000    0.000    0.000 
#
# Total GULP energy -111868.540441 kJ/mol
# GULP energy per Si atom -5593.427022 kJ/mol
# Density = 2.517290 g / cm^3
# Si number density = 25.230324 Si / 1000 Ang^3
#
#
#
# Elastic Constant Matrix: (Units=GPa)
#
#
# Indices 1 2 3 4 5 6 
#
# 1 71.9913 34.3704 35.9769 0.0000 -19.3399 0.0000
# 2 34.3704 135.0249 53.2551 0.0000 -46.5539 0.0000
# 3 35.9769 53.2551 144.4103 0.0000 -15.0472 0.0000
# 4 0.0000 0.0000 0.0000 42.3747 0.0000 -17.6148
# 5 -19.3399 -46.5539 -15.0472 0.0000 46.5192 0.0000
# 6 0.0000 0.0000 0.0000 -17.6148 0.0000 24.4926
#
#
#
# Elastic Compliance Matrix: (Units=1/GPa)
#
#
# Indices 1 2 3 4 5 6 
#
# 1 0.017540 -0.001548 -0.003312 0.000000 0.004672 0.000000
# 2 -0.001548 0.012960 -0.003218 0.000000 0.011286 0.000000
# 3 -0.003312 -0.003218 0.008753 0.000000 -0.001766 0.000000
# 4 0.000000 0.000000 0.000000 0.033663 0.000000 0.024210
# 5 0.004672 0.011286 -0.001766 0.000000 0.034162 0.000000
# 6 0.000000 0.000000 0.000000 0.024210 0.000000 0.058240
#
#
# Mechanical properties :
#
#
# Convention : Reuss Voigt Hill
#
# Bulk Modulus (GPa) = 43.29552 66.51460 54.90506
# Shear Modulus (GPa) = 26.43112 37.86560 32.14836
#
# Velocity S-wave (km/s) = 3.24017 3.87822 3.57346
# Velocity P-wave (km/s) = 5.58530 6.81720 6.23177
#
# Compressibility (1/GPa) = 0.02309708
#
# Stress axis : x y z
#
# Youngs Moduli (GPa) = 57.01356 77.15914 114.25270
#
# Poissons Ratio (x) = 0.11941 0.37842
# Poissons Ratio (y) = 0.08823 0.36766
# Poissons Ratio (z) = 0.18884 0.24829
#
# Static dielectric constant tensor:
#      x y z
#    x 2.317600 0.000000 0.007390 
#    y 0.000000 1.967220 0.000000 
#    z 0.007390 0.000000 1.984340 
# 
# From -- ./inp_files/5458.got.cif
#   From: 2010.05.17/outbox.cif.g08.bks.cpg/sg14_3_cif.got.tgz:5458.got - 2010.06.03 17:49:19.
