data_PCOD9250002
_publ_section_title
;
Structure prediction by ZEFSAII (Michael W. Deem and Ramdas Pophale) SiO2 
 PCOD9250002
Probable space group: P 21/C
;
_chemical_formula_sum "Si O2"
_cell_formula_units_Z 24
_cell_length_a 14.897576
_cell_length_b 13.104151
_cell_length_c 7.198798
_cell_angle_alpha 90.000000
_cell_angle_beta 42.660518
_cell_angle_gamma 90.000000
_cell_volume 952.339738
_symmetry_space_group_name_H-M "P 21/C"
_symmetry_group_IT_number 14
_symmetry_cell_setting 'monoclinic'
loop_
_space_group_symop_operation_xyz
x,y,z
-x,1/2+y,1/2-z
-x,-y,-z
x,1/2-y,1/2+z
loop_
_atom_site_type_symbol
_atom_site_label
_atom_site_fract_x
_atom_site_fract_y
_atom_site_fract_z
Si Si1 0.420336 0.563750 0.967452
Si Si2 0.678321 0.845813 0.974406
Si Si3 0.942974 0.138247 0.114170
Si Si4 0.794959 0.342420 0.475143
Si Si5 0.252474 0.125269 0.702717
Si Si6 0.869859 0.002833 0.568260
O O1 0.339678 0.652056 0.199654
O O2 0.318749 0.480993 0.038946
O O3 0.500000 0.500000 0.000000
O O4 0.532724 0.608533 0.664470
O O5 0.732524 0.875443 0.096227
O O6 0.668705 0.724720 0.981454
O O7 0.789751 0.897253 0.675512
O O8 0.859316 0.238209 0.303560
O O9 0.906778 0.052983 0.318384
O O10 0.899790 0.117225 0.969441
O O11 0.100219 0.149518 0.889084
O O12 0.779373 0.417606 0.324246
O O13 0.000000 0.000000 0.500000
#
# Coordination Sequence:
#
# PCOD9250002 Si02
#       6
#     4   4   4   4   4   4
#     4  10  23  45  69  94 145 192 229 297 354 416
#     4  11  24  44  72  96 144 188 234 292 357 425
#     4  12  25  41  75 112 142 186 238 290 363 423
#     4  12  24  43  72 105 143 183 236 291 354 423
#     4  11  23  44  67 100 138 187 231 296 356 418
#     4  12  23  45  68 103 146 183 231 298 353 413
#
# _framework density 25.201091999999999
#
# number of rings (size 3 to 8) (size 9 to 14) (size 15 to 20)
#    0.000    0.667    6.667    2.000    0.000    8.000 
#    0.000    1.667    0.000    0.000    0.000    0.000 
#    0.000    0.000    0.000    0.000    0.000    0.000 
#
# Total GULP energy -134436.394340 kJ/mol
# GULP energy per Si atom -5601.516431 kJ/mol
# Density = 2.514373 g / cm^3
# Si number density = 25.201092 Si / 1000 Ang^3
#
#
#
# Elastic Constant Matrix: (Units=GPa)
#
#
# Indices 1 2 3 4 5 6 
#
# 1 82.6816 14.6922 17.1540 0.0000 -1.6744 0.0000
# 2 14.6922 133.6730 56.5836 0.0000 -18.8073 0.0000
# 3 17.1540 56.5836 116.8530 0.0000 -22.0353 0.0000
# 4 0.0000 0.0000 0.0000 67.0911 0.0000 -1.2733
# 5 -1.6744 -18.8073 -22.0353 0.0000 49.2402 0.0000
# 6 0.0000 0.0000 0.0000 -1.2733 0.0000 35.7229
#
#
#
# Elastic Compliance Matrix: (Units=1/GPa)
#
#
# Indices 1 2 3 4 5 6 
#
# 1 0.012549 -0.000798 -0.001565 0.000000 -0.000578 0.000000
# 2 -0.000798 0.009592 -0.004196 0.000000 0.001759 0.000000
# 3 -0.001565 -0.004196 0.011475 0.000000 0.003479 0.000000
# 4 0.000000 0.000000 0.000000 0.014915 0.000000 0.000532
# 5 -0.000578 0.001759 0.003479 0.000000 0.022518 0.000000
# 6 0.000000 0.000000 0.000000 0.000532 0.000000 0.028012
#
#
# Mechanical properties :
#
#
# Convention : Reuss Voigt Hill
#
# Bulk Modulus (GPa) = 48.78302 56.67413 52.72858
# Shear Modulus (GPa) = 42.01204 46.72936 44.37070
#
# Velocity S-wave (km/s) = 4.08741 4.31078 4.20058
# Velocity P-wave (km/s) = 6.45565 6.87857 6.67046
#
# Compressibility (1/GPa) = 0.02049894
#
# Stress axis : x y z
#
# Youngs Moduli (GPa) = 79.68524 104.24997 87.14278
#
# Poissons Ratio (x) = 0.08323 0.13636
# Poissons Ratio (y) = 0.06362 0.36565
# Poissons Ratio (z) = 0.12469 0.43743
#
# Static dielectric constant tensor:
#      x y z
#    x 1.985860 0.000000 0.005620 
#    y 0.000000 2.054860 0.000000 
#    z 0.005620 0.000000 2.035770 
# 
# From -- ./inp_files/17887.got.cif
#   From: 2010.05.17/outbox.cif.g08.bks.cpg/sg14_9_cif.got.tgz:17887.got - 2010.06.03 17:49:19.
