data_PCOD9250999
_publ_section_title
;
Structure prediction by ZEFSAII (Michael W. Deem and Ramdas Pophale) SiO2 
 PCOD9250999
Probable space group: P 21/C
;
_chemical_formula_sum "Si O2"
_cell_formula_units_Z 16
_cell_length_a 4.927177
_cell_length_b 15.459851
_cell_length_c 7.663414
_cell_angle_alpha 90.000000
_cell_angle_beta 96.561968
_cell_angle_gamma 90.000000
_cell_volume 579.924241
_symmetry_space_group_name_H-M "P 21/C"
_symmetry_group_IT_number 14
_symmetry_cell_setting 'monoclinic'
loop_
_space_group_symop_operation_xyz
x,y,z
-x,1/2+y,1/2-z
-x,-y,-z
x,1/2-y,1/2+z
loop_
_atom_site_type_symbol
_atom_site_label
_atom_site_fract_x
_atom_site_fract_y
_atom_site_fract_z
Si Si1 0.231722 0.420656 0.342186
Si Si2 0.022291 0.228764 0.027368
Si Si3 0.474556 0.849404 0.446262
Si Si4 0.165651 0.428776 0.732010
O O1 0.481542 0.398966 0.233812
O O2 0.293366 0.444311 0.548376
O O3 0.047529 0.334157 0.360932
O O4 0.041437 0.493932 0.244283
O O5 0.803781 0.304725 0.016551
O O6 0.322827 0.268174 0.061047
O O7 0.991678 0.158613 0.179762
O O8 0.611900 0.908047 0.606366
#
# Coordination Sequence:
#
# PCOD9250999 Si02
#       4
#     4   4   4   4
#     4   9  22  47  73 107 149 188 243 299 366 432
#     4  10  25  44  69 108 141 184 243 292 359 436
#     4  12  23  46  73 106 141 190 239 296 363 428
#     4   9  22  47  73 107 149 188 243 299 366 432
#
# _framework density 27.589811999999998
#
# number of rings (size 3 to 8) (size 9 to 14) (size 15 to 20)
#    1.500    0.500    0.000    2.250    0.000    8.000 
#    4.500   15.000    0.000    0.000    0.000    0.000 
#    0.000    0.000    0.000    0.000    0.000    0.000 
#
# Total GULP energy -89630.480417 kJ/mol
# GULP energy per Si atom -5601.905026 kJ/mol
# Density = 2.752702 g / cm^3
# Si number density = 27.589812 Si / 1000 Ang^3
#
#
#
# Elastic Constant Matrix: (Units=GPa)
#
#
# Indices 1 2 3 4 5 6 
#
# 1 48.9084 -4.2790 48.6201 0.0000 -19.8480 0.0000
# 2 -4.2790 111.9179 27.6179 0.0000 -2.2488 0.0000
# 3 48.6201 27.6179 143.0606 0.0000 -15.5883 0.0000
# 4 0.0000 0.0000 0.0000 35.2746 0.0000 5.3130
# 5 -19.8480 -2.2488 -15.5883 0.0000 29.0212 0.0000
# 6 0.0000 0.0000 0.0000 5.3130 0.0000 61.3954
#
#
#
# Elastic Compliance Matrix: (Units=1/GPa)
#
#
# Indices 1 2 3 4 5 6 
#
# 1 0.043504 0.005413 -0.013322 0.000000 0.023017 0.000000
# 2 0.005413 0.010058 -0.003498 0.000000 0.002603 0.000000
# 3 -0.013322 -0.003498 0.011865 0.000000 -0.003009 0.000000
# 4 0.000000 0.000000 0.000000 0.028723 0.000000 -0.002486
# 5 0.023017 0.002603 -0.003009 0.000000 0.048784 0.000000
# 6 0.000000 0.000000 0.000000 -0.002486 0.000000 0.016503
#
#
# Mechanical properties :
#
#
# Convention : Reuss Voigt Hill
#
# Bulk Modulus (GPa) = 23.46670 49.75608 36.61139
# Shear Modulus (GPa) = 25.45102 40.60010 33.02556
#
# Velocity S-wave (km/s) = 3.04053 3.84026 3.46355
# Velocity P-wave (km/s) = 4.56623 6.14303 5.41236
#
# Compressibility (1/GPa) = 0.04261358
#
# Stress axis : x y z
#
# Youngs Moduli (GPa) = 22.98616 99.42793 84.28092
#
# Poissons Ratio (x) = -0.53824 1.12282
# Poissons Ratio (y) = -0.12443 0.29479
# Poissons Ratio (z) = 0.30623 0.34778
#
# Static dielectric constant tensor:
#      x y z
#    x 2.048670 0.000000 0.053270 
#    y 0.000000 2.224450 0.000000 
#    z 0.053270 0.000000 2.209590 
# 
# From -- ./inp_files/5304.got.cif
#   From: 2010.05.17/outbox.cif.g08.bks.cpg/sg14_3_cif.got.tgz:5304.got - 2010.06.03 17:49:19.
