data_PCOD9250957
_publ_section_title
;
Structure prediction by ZEFSAII (Michael W. Deem and Ramdas Pophale) SiO2 
 PCOD9250957
Probable space group: P 21/C
;
_chemical_formula_sum "Si O2"
_cell_formula_units_Z 28
_cell_length_a 5.094053
_cell_length_b 19.149760
_cell_length_c 14.168999
_cell_angle_alpha 90.000000
_cell_angle_beta 107.521591
_cell_angle_gamma 90.000000
_cell_volume 1318.055905
_symmetry_space_group_name_H-M "P 21/C"
_symmetry_group_IT_number 14
_symmetry_cell_setting 'monoclinic'
loop_
_space_group_symop_operation_xyz
x,y,z
-x,1/2+y,1/2-z
-x,-y,-z
x,1/2-y,1/2+z
loop_
_atom_site_type_symbol
_atom_site_label
_atom_site_fract_x
_atom_site_fract_y
_atom_site_fract_z
Si Si1 0.997442 0.425579 0.081584
Si Si2 0.702488 0.026950 0.940732
Si Si3 0.446670 0.259430 0.994388
Si Si4 0.113096 0.684941 0.581447
Si Si5 0.623655 0.588281 0.059140
Si Si6 0.499144 0.511703 0.786309
Si Si7 0.255746 0.665636 0.808643
O O1 0.841326 0.574084 0.999674
O O2 0.991810 0.356051 0.146635
O O3 0.172314 0.480702 0.162353
O O4 0.677952 0.429903 0.017076
O O5 0.760717 0.109320 0.931232
O O6 0.585984 0.997885 0.829498
O O7 0.500000 0.000000 0.000000
O O8 0.000000 0.000000 0.000000
O O9 0.713365 0.235599 0.966079
O O10 0.348201 0.328597 0.927690
O O11 0.208883 0.201140 0.971040
O O12 0.541943 0.286347 0.107864
O O13 0.164111 0.696010 0.698798
O O14 0.625648 0.544990 0.155614
O O15 0.386612 0.589547 0.798569
#
# Coordination Sequence:
#
# PCOD9250957 Si02
#       7
#     4   4   4   4   4   4   4
#     4  11  21  37  66 100 130 173 212 272 331 423
#     4  11  27  49  72  98 129 183 248 285 337 395
#     4  11  23  43  66 101 140 176 222 281 336 422
#     4  11  26  46  71  94 139 182 228 277 340 417
#     4  11  24  38  66 106 140 164 218 278 354 399
#     4  11  24  41  73  97 140 176 224 291 340 406
#     4  10  25  42  72  96 132 191 229 261 356 408
#
# _framework density 21.243407999999999
#
# number of rings (size 3 to 8) (size 9 to 14) (size 15 to 20)
#    0.000    1.143    2.857    3.429   10.000    0.000 
#    7.714    0.000    0.000    0.000    0.000    0.000 
#    0.000    0.000    0.000    0.000    0.000    0.000 
#
# Total GULP energy -156250.295113 kJ/mol
# GULP energy per Si atom -5580.367683 kJ/mol
# Density = 2.119506 g / cm^3
# Si number density = 21.243408 Si / 1000 Ang^3
#
#
#
# Elastic Constant Matrix: (Units=GPa)
#
#
# Indices 1 2 3 4 5 6 
#
# 1 160.8787 13.9511 67.3816 0.0000 -7.9593 0.0000
# 2 13.9511 49.7039 36.7969 0.0000 -10.7882 0.0000
# 3 67.3816 36.7969 181.9420 0.0000 -24.1742 0.0000
# 4 0.0000 0.0000 0.0000 32.2204 0.0000 -1.4166
# 5 -7.9593 -10.7882 -24.1742 0.0000 27.7127 0.0000
# 6 0.0000 0.0000 0.0000 -1.4166 0.0000 41.1902
#
#
#
# Elastic Compliance Matrix: (Units=1/GPa)
#
#
# Indices 1 2 3 4 5 6 
#
# 1 0.007360 -0.000101 -0.002748 0.000000 -0.000323 0.000000
# 2 -0.000101 0.024486 -0.004131 0.000000 0.005900 0.000000
# 3 -0.002748 -0.004131 0.007953 0.000000 0.004540 0.000000
# 4 0.000000 0.000000 0.000000 0.031083 0.000000 0.001069
# 5 -0.000323 0.005900 0.004540 0.000000 0.042249 0.000000
# 6 0.000000 0.000000 0.000000 0.001069 0.000000 0.024314
#
#
# Mechanical properties :
#
#
# Convention : Reuss Voigt Hill
#
# Bulk Modulus (GPa) = 38.70252 69.86487 54.28369
# Shear Modulus (GPa) = 31.24648 38.51765 34.88207
#
# Velocity S-wave (km/s) = 3.83936 4.26274 4.05658
# Velocity P-wave (km/s) = 6.15731 7.56222 6.89563
#
# Compressibility (1/GPa) = 0.02583811
#
# Stress axis : x y z
#
# Youngs Moduli (GPa) = 135.87615 40.83919 125.74489
#
# Poissons Ratio (x) = 0.00414 0.34555
# Poissons Ratio (y) = 0.01378 0.51943
# Poissons Ratio (z) = 0.37339 0.16870
#
# Static dielectric constant tensor:
#      x y z
#    x 1.835300 0.000000 0.010320 
#    y 0.000000 -3.050510 0.000000 
#    z 0.010320 0.000000 1.751790 
# 
# From -- ./inp_files/37901.got.cif
#   From: 2010.05.17/outbox.cif.g08.bks.cpg/sg14_19_cif.got.tgz:37901.got - 2010.06.03 17:49:19.
