data_PCOD9250131
_publ_section_title
;
Structure prediction by ZEFSAII (Michael W. Deem and Ramdas Pophale) SiO2 
 PCOD9250131
Probable space group: P 21/C
;
_chemical_formula_sum "Si O2"
_cell_formula_units_Z 24
_cell_length_a 15.148716
_cell_length_b 5.441317
_cell_length_c 14.473852
_cell_angle_alpha 90.000000
_cell_angle_beta 120.973163
_cell_angle_gamma 90.000000
_cell_volume 1022.943712
_symmetry_space_group_name_H-M "P 21/C"
_symmetry_group_IT_number 14
_symmetry_cell_setting 'monoclinic'
loop_
_space_group_symop_operation_xyz
x,y,z
-x,1/2+y,1/2-z
-x,-y,-z
x,1/2-y,1/2+z
loop_
_atom_site_type_symbol
_atom_site_label
_atom_site_fract_x
_atom_site_fract_y
_atom_site_fract_z
Si Si1 0.938269 0.751448 0.943581
Si Si2 0.611985 0.442511 0.445345
Si Si3 0.272544 0.946489 0.439400
Si Si4 0.055609 0.135347 0.262220
Si Si5 0.404714 0.261974 0.883030
Si Si6 0.298622 0.214807 0.641434
O O1 0.923964 0.754324 0.826623
O O2 0.822968 0.764238 0.920927
O O3 0.000000 0.500000 0.000000
O O4 0.000000 0.000000 0.000000
O O5 0.584732 0.635888 0.510698
O O6 0.519618 0.245837 0.403711
O O7 0.632585 0.553955 0.356263
O O8 0.721293 0.343147 0.542122
O O9 0.162263 0.062785 0.366628
O O10 0.340884 0.002076 0.384475
O O11 0.311606 0.033978 0.561570
O O12 0.000869 0.369664 0.280733
O O13 0.338448 0.141062 0.764391
#
# Coordination Sequence:
#
# PCOD9250131 Si02
#       6
#     4   4   4   4   4   4
#     4  12  27  48  72 109 146 191 248 305 367 443
#     4  10  25  43  73 100 145 183 241 299 363 441
#     4  11  24  44  71 100 145 183 240 293 364 437
#     4  12  27  47  74 106 147 195 244 305 369 439
#     4  10  23  47  67 105 138 188 237 297 366 433
#     4  11  25  43  69 105 141 184 240 296 368 432
#
# _framework density 23.461701999999999
#
# number of rings (size 3 to 8) (size 9 to 14) (size 15 to 20)
#    0.000    1.000    1.667    3.500   11.667    2.667 
#    0.000    0.000    0.000    0.000    0.000    0.000 
#    0.000    0.000    0.000    0.000    0.000    0.000 
#
# Total GULP energy -133719.132767 kJ/mol
# GULP energy per Si atom -5571.630532 kJ/mol
# Density = 2.340830 g / cm^3
# Si number density = 23.461702 Si / 1000 Ang^3
#
#
#
# Elastic Constant Matrix: (Units=GPa)
#
#
# Indices 1 2 3 4 5 6 
#
# 1 132.7765 33.8719 23.3340 0.0000 8.5849 0.0000
# 2 33.8719 45.3475 -29.5128 0.0000 29.0471 0.0000
# 3 23.3340 -29.5128 55.9854 0.0000 17.2473 0.0000
# 4 0.0000 0.0000 0.0000 29.4818 0.0000 4.0955
# 5 8.5849 29.0471 17.2473 0.0000 24.6880 0.0000
# 6 0.0000 0.0000 0.0000 4.0955 0.0000 14.8714
#
#
#
# Elastic Compliance Matrix: (Units=1/GPa)
#
#
# Indices 1 2 3 4 5 6 
#
# 1 0.006076 0.005826 0.004207 0.000000 -0.011906 0.000000
# 2 0.005826 -0.016495 -0.020998 0.000000 0.032051 0.000000
# 3 0.004207 -0.020998 -0.002702 0.000000 0.025130 0.000000
# 4 0.000000 0.000000 0.000000 0.035268 0.000000 -0.009713
# 5 -0.011906 0.032051 0.025130 0.000000 -0.010621 0.000000
# 6 0.000000 0.000000 0.000000 -0.009713 0.000000 0.069918
#
#
# Mechanical properties :
#
#
# Convention : Reuss Voigt Hill
#
# Bulk Modulus (GPa) = -28.52909 32.16619 1.81855
# Shear Modulus (GPa) = 54.53150 27.56934 41.05042
#
# Velocity S-wave (km/s) = 4.82631 3.43166 4.18745
# Velocity P-wave (km/s) = 4.34412 5.42601 4.91492
#
# Compressibility (1/GPa) = -0.03505195
#
# Stress axis : x y z
#
# Youngs Moduli (GPa) = 164.58771 -60.62313 -370.07930
#
# Poissons Ratio (x) = 0.35318 1.55679
# Poissons Ratio (y) = -0.95886 -7.77077
# Poissons Ratio (z) = -0.69236 -1.27294
#
# Static dielectric constant tensor:
#      x y z
#    x 2.001240 0.000000 0.035640 
#    y 0.000000 2.187050 0.000000 
#    z 0.035640 0.000000 1.882440 
# 
# From -- ./inp_files/45982.got.cif
#   From: 2010.05.17/outbox.cif.g08.bks.cpg/sg14_23_cif.got.tgz:45982.got - 2010.06.03 17:49:19.
