data_PCOD9250704
_publ_section_title
;
Structure prediction by ZEFSAII (Michael W. Deem and Ramdas Pophale) SiO2 
 PCOD9250704
Probable space group: P 21/C
;
_chemical_formula_sum "Si O2"
_cell_formula_units_Z 28
_cell_length_a 13.019102
_cell_length_b 8.934289
_cell_length_c 10.989749
_cell_angle_alpha 90.000000
_cell_angle_beta 113.269769
_cell_angle_gamma 90.000000
_cell_volume 1174.305843
_symmetry_space_group_name_H-M "P 21/C"
_symmetry_group_IT_number 14
_symmetry_cell_setting 'monoclinic'
loop_
_space_group_symop_operation_xyz
x,y,z
-x,1/2+y,1/2-z
-x,-y,-z
x,1/2-y,1/2+z
loop_
_atom_site_type_symbol
_atom_site_label
_atom_site_fract_x
_atom_site_fract_y
_atom_site_fract_z
Si Si1 0.855989 0.448428 0.114050
Si Si2 0.003791 0.303136 0.765753
Si Si3 0.467479 0.364590 0.894012
Si Si4 0.731764 0.494542 0.286367
Si Si5 0.622291 0.548636 0.599136
Si Si6 0.853264 0.538459 0.577201
Si Si7 0.683393 0.336438 0.845446
O O1 0.953314 0.565700 0.125150
O O2 0.770555 0.525840 0.166981
O O3 0.904488 0.316411 0.222005
O O4 0.792964 0.385577 0.969677
O O5 0.104782 0.183088 0.827709
O O6 0.949226 0.411356 0.636141
O O7 0.388146 0.429480 0.751199
O O8 0.395021 0.227288 0.911241
O O9 0.583248 0.307411 0.892912
O O10 0.500000 0.500000 0.000000
O O11 0.824069 0.557977 0.421971
O O12 0.709767 0.318480 0.291713
O O13 0.500000 0.500000 0.500000
O O14 0.731203 0.497146 0.573796
O O15 0.645914 0.471076 0.740220
#
# Coordination Sequence:
#
# PCOD9250704 Si02
#       7
#     4   4   4   4   4   4   4
#     4  11  24  48  67 104 138 183 240 286 363 410
#     4  10  24  45  71  98 144 184 237 295 342 432
#     4  12  25  44  72 105 143 182 229 290 356 427
#     4  12  25  45  74 100 144 185 235 293 348 431
#     4  12  27  46  74 107 146 184 237 295 357 433
#     4  11  24  47  70 107 140 190 241 291 360 417
#     4  12  25  45  72 103 145 186 232 291 354 423
#
# _framework density 23.843872999999999
#
# number of rings (size 3 to 8) (size 9 to 14) (size 15 to 20)
#    0.000    0.571    2.857    5.143    2.000    2.286 
#    5.143    2.143    0.000    0.000    0.000    0.000 
#    0.000    0.000    0.000    0.000    0.000    0.000 
#
# Total GULP energy -156106.133809 kJ/mol
# GULP energy per Si atom -5575.219065 kJ/mol
# Density = 2.378960 g / cm^3
# Si number density = 23.843873 Si / 1000 Ang^3
#
#
#
# Elastic Constant Matrix: (Units=GPa)
#
#
# Indices 1 2 3 4 5 6 
#
# 1 66.5506 44.5958 32.3982 0.0000 20.8157 0.0000
# 2 44.5958 122.5949 37.3665 0.0000 23.2969 0.0000
# 3 32.3982 37.3665 62.8655 0.0000 39.2021 0.0000
# 4 0.0000 0.0000 0.0000 33.4253 0.0000 13.0241
# 5 20.8157 23.2969 39.2021 0.0000 44.0670 0.0000
# 6 0.0000 0.0000 0.0000 13.0241 0.0000 40.0717
#
#
#
# Elastic Compliance Matrix: (Units=1/GPa)
#
#
# Indices 1 2 3 4 5 6 
#
# 1 0.023021 -0.005811 -0.007961 0.000000 -0.000720 0.000000
# 2 -0.005811 0.011428 -0.003913 0.000000 0.000184 0.000000
# 3 -0.007961 -0.003913 0.042000 0.000000 -0.031534 0.000000
# 4 0.000000 0.000000 0.000000 0.034256 0.000000 -0.011134
# 5 -0.000720 0.000184 -0.031534 0.000000 0.050988 0.000000
# 6 0.000000 0.000000 0.000000 -0.011134 0.000000 0.028574
#
#
# Mechanical properties :
#
#
# Convention : Reuss Voigt Hill
#
# Bulk Modulus (GPa) = 24.34327 53.41468 38.87897
# Shear Modulus (GPa) = 20.89170 32.68950 26.79060
#
# Velocity S-wave (km/s) = 2.96326 3.70669 3.35563
# Velocity P-wave (km/s) = 4.68396 6.38513 5.59953
#
# Compressibility (1/GPa) = 0.04107912
#
# Stress axis : x y z
#
# Youngs Moduli (GPa) = 43.43885 87.50100 23.80972
#
# Poissons Ratio (x) = 0.50846 0.18955
# Poissons Ratio (y) = 0.25242 0.09317
# Poissons Ratio (z) = 0.34582 0.34239
#
# Static dielectric constant tensor:
#      x y z
#    x 1.918320 0.000000 -0.013760 
#    y 0.000000 2.209820 0.000000 
#    z -0.013760 0.000000 1.904920 
# 
# From -- ./inp_files/31887.got.cif
#   From: 2010.05.17/outbox.cif.g08.bks.cpg/sg14_16_cif.got.tgz:31887.got - 2010.06.03 17:49:19.
