data_PCOD9250461
_publ_section_title
;
Structure prediction by ZEFSAII (Michael W. Deem and Ramdas Pophale) SiO2 
 PCOD9250461
Probable space group: P 21/C
;
_chemical_formula_sum "Si O2"
_cell_formula_units_Z 20
_cell_length_a 10.772311
_cell_length_b 9.435377
_cell_length_c 11.624275
_cell_angle_alpha 90.000000
_cell_angle_beta 53.673443
_cell_angle_gamma 90.000000
_cell_volume 951.880593
_symmetry_space_group_name_H-M "P 21/C"
_symmetry_group_IT_number 14
_symmetry_cell_setting 'monoclinic'
loop_
_space_group_symop_operation_xyz
x,y,z
-x,1/2+y,1/2-z
-x,-y,-z
x,1/2-y,1/2+z
loop_
_atom_site_type_symbol
_atom_site_label
_atom_site_fract_x
_atom_site_fract_y
_atom_site_fract_z
Si Si1 0.984319 0.621137 0.100436
Si Si2 0.905705 0.895263 0.895432
Si Si3 0.475914 0.993776 0.651926
Si Si4 0.821395 0.338965 0.599571
Si Si5 0.683101 0.732619 0.149853
O O1 0.949090 0.562290 0.244578
O O2 0.832793 0.713527 0.149741
O O3 0.000000 0.500000 0.000000
O O4 0.143742 0.708290 0.003535
O O5 0.054575 0.819227 0.867191
O O6 0.756162 0.797143 0.992465
O O7 0.869089 0.028003 0.995424
O O8 0.337348 0.882913 0.755929
O O9 0.610332 0.917433 0.652866
O O10 0.500000 0.000000 0.500000
O O11 0.426783 0.148358 0.730610
#
# Coordination Sequence:
#
# PCOD9250461 Si02
#       5
#     4   4   4   4   4
#     4  11  24  38  66  96 126 164 220 268 318 383
#     4   9  20  42  63  88 130 159 216 269 314 380
#     4  11  24  44  69  90 138 173 213 270 329 388
#     4   9  22  39  63  93 121 172 211 258 326 380
#     4  10  24  43  63 100 126 173 219 263 331 388
#
# _framework density 21.011040000000001
#
# number of rings (size 3 to 8) (size 9 to 14) (size 15 to 20)
#    0.000    2.000    0.000    2.400   11.200    0.000 
#    3.600    5.000    0.000    0.000    0.000    0.000 
#    0.000    0.000    0.000    0.000    0.000    0.000 
#
# Total GULP energy -111449.049016 kJ/mol
# GULP energy per Si atom -5572.452451 kJ/mol
# Density = 2.096322 g / cm^3
# Si number density = 21.011040 Si / 1000 Ang^3
#
#
#
# Elastic Constant Matrix: (Units=GPa)
#
#
# Indices 1 2 3 4 5 6 
#
# 1 37.6855 7.8715 31.7495 0.0000 -1.1771 0.0000
# 2 7.8715 66.6915 16.0212 0.0000 -12.2351 0.0000
# 3 31.7495 16.0212 150.0762 0.0000 12.0782 0.0000
# 4 0.0000 0.0000 0.0000 18.0789 0.0000 -15.0179
# 5 -1.1771 -12.2351 12.0782 0.0000 26.1919 0.0000
# 6 0.0000 0.0000 0.0000 -15.0179 0.0000 31.7950
#
#
#
# Elastic Compliance Matrix: (Units=1/GPa)
#
#
# Indices 1 2 3 4 5 6 
#
# 1 0.032993 -0.001418 -0.007160 0.000000 0.004122 0.000000
# 2 -0.001418 0.017383 -0.002289 0.000000 0.009112 0.000000
# 3 -0.007160 -0.002289 0.008863 0.000000 -0.005478 0.000000
# 4 0.000000 0.000000 0.000000 0.091029 0.000000 0.042996
# 5 0.004122 0.009112 -0.005478 0.000000 0.045148 0.000000
# 6 0.000000 0.000000 0.000000 0.042996 0.000000 0.051760
#
#
# Mechanical properties :
#
#
# Convention : Reuss Voigt Hill
#
# Bulk Modulus (GPa) = 26.66295 40.63751 33.65023
# Shear Modulus (GPa) = 17.76749 28.46724 23.11737
#
# Velocity S-wave (km/s) = 2.91112 3.68485 3.32060
# Velocity P-wave (km/s) = 4.90072 6.12268 5.54546
#
# Compressibility (1/GPa) = 0.03750522
#
# Stress axis : x y z
#
# Youngs Moduli (GPa) = 30.30973 57.52621 112.82414
#
# Poissons Ratio (x) = 0.08156 0.80785
# Poissons Ratio (y) = 0.04297 0.25827
# Poissons Ratio (z) = 0.21702 0.13169
#
# Static dielectric constant tensor:
#      x y z
#    x 1.814670 0.000000 -0.045430 
#    y 0.000000 1.805540 0.000000 
#    z -0.045430 0.000000 1.762040 
# 
# From -- ./inp_files/27952.got.cif
#   From: 2010.05.17/outbox.cif.g08.bks.cpg/sg14_14_cif.got.tgz:27952.got - 2010.06.03 17:49:19.
