data_PCOD9250277
_publ_section_title
;
Structure prediction by ZEFSAII (Michael W. Deem and Ramdas Pophale) SiO2 
 PCOD9250277
Probable space group: P 21/C
;
_chemical_formula_sum "Si O2"
_cell_formula_units_Z 32
_cell_length_a 17.728413
_cell_length_b 11.388704
_cell_length_c 14.934298
_cell_angle_alpha 90.000000
_cell_angle_beta 30.847173
_cell_angle_gamma 90.000000
_cell_volume 1546.089241
_symmetry_space_group_name_H-M "P 21/C"
_symmetry_group_IT_number 14
_symmetry_cell_setting 'monoclinic'
loop_
_space_group_symop_operation_xyz
x,y,z
-x,1/2+y,1/2-z
-x,-y,-z
x,1/2-y,1/2+z
loop_
_atom_site_type_symbol
_atom_site_label
_atom_site_fract_x
_atom_site_fract_y
_atom_site_fract_z
Si Si1 0.818983 0.006952 0.499760
Si Si2 0.698505 0.721437 0.395335
Si Si3 0.127353 0.415274 0.625508
Si Si4 0.639335 0.327248 0.295820
Si Si5 0.693195 0.137984 0.097819
Si Si6 0.571317 0.264797 0.050792
Si Si7 0.220840 0.237463 0.388418
Si Si8 0.608887 0.521559 0.046194
O O1 0.729189 0.060552 0.673800
O O2 0.960880 0.081215 0.329163
O O3 0.853836 0.873382 0.488295
O O4 0.708849 0.006197 0.529026
O O5 0.778274 0.655957 0.396047
O O6 0.533527 0.668357 0.554614
O O7 0.782729 0.718267 0.214672
O O8 0.672367 0.860275 0.438488
O O9 0.178780 0.550016 0.561001
O O10 0.150274 0.351425 0.506571
O O11 0.708802 0.217528 0.170327
O O12 0.639709 0.308912 0.400777
O O13 0.554519 0.053028 0.255933
O O14 0.645202 0.225839 0.067696
O O15 0.597618 0.401845 0.002033
O O16 0.395932 0.242016 0.233717
#
# Coordination Sequence:
#
# PCOD9250277 Si02
#       8
#     4   4   4   4   4   4   4   4
#     4  12  25  42  65  89 136 172 215 260 319 385
#     4  10  24  43  69  94 128 164 220 266 326 376
#     4  12  26  43  63  91 135 174 211 262 319 385
#     4  10  24  40  66 101 124 162 216 270 317 382
#     4  11  22  39  67  91 127 166 212 261 323 376
#     4  11  22  40  71  98 128 160 218 272 321 374
#     4  11  24  43  67  97 126 173 211 268 323 379
#     4  11  21  43  68  95 125 169 212 270 318 380
#
# _framework density 20.697382999999999
#
# number of rings (size 3 to 8) (size 9 to 14) (size 15 to 20)
#    0.000    1.000    5.000    1.500    5.250    3.000 
#    2.250    0.625    0.000    0.000    0.000    0.000 
#    0.000    0.000    0.000    0.000    0.000    0.000 
#
# Total GULP energy -178863.511965 kJ/mol
# GULP energy per Si atom -5589.484749 kJ/mol
# Density = 2.065027 g / cm^3
# Si number density = 20.697383 Si / 1000 Ang^3
#
#
#
# Elastic Constant Matrix: (Units=GPa)
#
#
# Indices 1 2 3 4 5 6 
#
# 1 -5.3413 -2.0809 -13.4527 0.0000 31.6243 0.0000
# 2 -2.0809 38.0579 13.8088 0.0000 -12.2211 0.0000
# 3 -13.4527 13.8088 37.1586 0.0000 27.1610 0.0000
# 4 0.0000 0.0000 0.0000 -25.3018 0.0000 -36.5853
# 5 31.6243 -12.2211 27.1610 0.0000 6.9770 0.0000
# 6 0.0000 0.0000 0.0000 -36.5853 0.0000 -10.5681
#
#
#
# Elastic Compliance Matrix: (Units=1/GPa)
#
#
# Indices 1 2 3 4 5 6 
#
# 1 0.017571 0.016916 -0.019849 0.000000 0.027258 0.000000
# 2 0.016916 0.030252 -0.006607 0.000000 0.002037 0.000000
# 3 -0.019849 -0.006607 0.019032 0.000000 0.004309 0.000000
# 4 0.000000 0.000000 0.000000 0.009867 0.000000 -0.034157
# 5 0.027258 0.002037 0.004309 0.000000 0.006571 0.000000
# 6 0.000000 0.000000 0.000000 -0.034157 0.000000 0.023622
#
#
# Mechanical properties :
#
#
# Convention : Reuss Voigt Hill
#
# Bulk Modulus (GPa) = 20.93192 7.38061 14.15627
# Shear Modulus (GPa) = 35.23107 -1.00526 17.11290
#
# Velocity S-wave (km/s) = 4.13025 -0.69767 2.87856
# Velocity P-wave (km/s) = 5.73416 1.71018 4.23115
#
# Compressibility (1/GPa) = 0.04777392
#
# Stress axis : x y z
#
# Youngs Moduli (GPa) = 56.91131 33.05555 52.54442
#
# Poissons Ratio (x) = -0.55916 1.04297
# Poissons Ratio (y) = -0.96271 0.34716
# Poissons Ratio (z) = 1.12965 0.21840
#
# Static dielectric constant tensor:
#      x y z
#    x 1.721390 0.000000 0.009250 
#    y 0.000000 1.769640 0.000000 
#    z 0.009250 0.000000 1.717470 
# 
# From -- ./inp_files/48978.got.cif
#   From: 2010.05.17/outbox.cif.g08.bks.cpg/sg14_25_cif.got.tgz:48978.got - 2010.06.03 17:49:19.
