data_PCOD9250615
_publ_section_title
;
Structure prediction by ZEFSAII (Michael W. Deem and Ramdas Pophale) SiO2 
 PCOD9250615
Probable space group: P 21/C
;
_chemical_formula_sum "Si O2"
_cell_formula_units_Z 20
_cell_length_a 4.833768
_cell_length_b 20.677274
_cell_length_c 8.469526
_cell_angle_alpha 90.000000
_cell_angle_beta 71.110089
_cell_angle_gamma 90.000000
_cell_volume 800.930233
_symmetry_space_group_name_H-M "P 21/C"
_symmetry_group_IT_number 14
_symmetry_cell_setting 'monoclinic'
loop_
_space_group_symop_operation_xyz
x,y,z
-x,1/2+y,1/2-z
-x,-y,-z
x,1/2-y,1/2+z
loop_
_atom_site_type_symbol
_atom_site_label
_atom_site_fract_x
_atom_site_fract_y
_atom_site_fract_z
Si Si1 0.234864 0.979201 0.328534
Si Si2 0.123876 0.813113 0.743980
Si Si3 0.758847 0.602882 0.769878
Si Si4 0.744541 0.714672 0.014606
Si Si5 0.908229 0.564367 0.419930
O O1 0.530477 0.953888 0.349222
O O2 0.079626 0.919811 0.264655
O O3 0.272824 0.035905 0.193159
O O4 0.000000 0.000000 0.500000
O O5 0.952389 0.815652 0.610029
O O6 0.147724 0.886446 0.804647
O O7 0.430358 0.777201 0.656500
O O8 0.923182 0.772925 0.902642
O O9 0.745107 0.605864 0.583510
O O10 0.685369 0.665621 0.881660
O O11 0.000000 0.500000 0.500000
#
# Coordination Sequence:
#
# PCOD9250615 Si02
#       5
#     4   4   4   4   4
#     4  11  22  39  64  95 135 181 229 286 346 416
#     4  12  27  48  74 106 144 189 243 299 365 435
#     4  11  23  40  64  96 135 176 229 285 348 418
#     4  12  26  47  74 106 142 190 242 302 363 434
#     4  10  24  44  70 105 146 190 238 298 363 431
#
# _framework density 24.970965
#
# number of rings (size 3 to 8) (size 9 to 14) (size 15 to 20)
#    0.000    0.800    0.000    7.200    0.000    9.600 
#    0.000    0.000    0.000    0.000    0.000    0.000 
#    0.000    0.000    0.000    0.000    0.000    0.000 
#
# Total GULP energy -111919.082890 kJ/mol
# GULP energy per Si atom -5595.954145 kJ/mol
# Density = 2.491413 g / cm^3
# Si number density = 24.970965 Si / 1000 Ang^3
#
#
#
# Elastic Constant Matrix: (Units=GPa)
#
#
# Indices 1 2 3 4 5 6 
#
# 1 125.9130 36.1146 45.1059 0.0000 -13.9968 0.0000
# 2 36.1146 114.8173 88.3643 0.0000 1.9833 0.0000
# 3 45.1059 88.3643 120.7663 0.0000 -14.1245 0.0000
# 4 0.0000 0.0000 0.0000 48.9059 0.0000 0.9726
# 5 -13.9968 1.9833 -14.1245 0.0000 33.7359 0.0000
# 6 0.0000 0.0000 0.0000 0.9726 0.0000 32.0436
#
#
#
# Elastic Compliance Matrix: (Units=1/GPa)
#
#
# Indices 1 2 3 4 5 6 
#
# 1 0.009454 -0.001344 -0.002187 0.000000 0.003086 0.000000
# 2 -0.001344 0.022202 -0.016783 0.000000 -0.008889 0.000000
# 3 -0.002187 -0.016783 0.022488 0.000000 0.009494 0.000000
# 4 0.000000 0.000000 0.000000 0.020460 0.000000 -0.000621
# 5 0.003086 -0.008889 0.009494 0.000000 0.035420 0.000000
# 6 0.000000 0.000000 0.000000 -0.000621 0.000000 0.031226
#
#
# Mechanical properties :
#
#
# Convention : Reuss Voigt Hill
#
# Bulk Modulus (GPa) = 73.98439 77.85180 75.91810
# Shear Modulus (GPa) = 26.82665 35.73121 31.27893
#
# Velocity S-wave (km/s) = 3.28123 3.78684 3.54307
# Velocity P-wave (km/s) = 6.63685 7.09682 6.87068
#
# Compressibility (1/GPa) = 0.01351636
#
# Stress axis : x y z
#
# Youngs Moduli (GPa) = 105.77702 45.04108 44.46914
#
# Poissons Ratio (x) = 0.06054 0.09724
# Poissons Ratio (y) = 0.14217 0.74632
# Poissons Ratio (z) = 0.23130 0.75591
#
# Static dielectric constant tensor:
#      x y z
#    x 1.934270 0.000000 -0.010670 
#    y 0.000000 2.024990 0.000000 
#    z -0.010670 0.000000 2.005430 
# 
# From -- ./inp_files/5880.got.cif
#   From: 2010.05.17/outbox.cif.g08.bks.cpg/sg14_3_cif.got.tgz:5880.got - 2010.06.03 17:49:19.
