data_PCOD9250478
_publ_section_title
;
Structure prediction by ZEFSAII (Michael W. Deem and Ramdas Pophale) SiO2 
 PCOD9250478
Probable space group: P 21/C
;
_chemical_formula_sum "Si O2"
_cell_formula_units_Z 28
_cell_length_a 9.456245
_cell_length_b 11.164619
_cell_length_c 11.234755
_cell_angle_alpha 90.000000
_cell_angle_beta 76.846271
_cell_angle_gamma 90.000000
_cell_volume 1154.993383
_symmetry_space_group_name_H-M "P 21/C"
_symmetry_group_IT_number 14
_symmetry_cell_setting 'monoclinic'
loop_
_space_group_symop_operation_xyz
x,y,z
-x,1/2+y,1/2-z
-x,-y,-z
x,1/2-y,1/2+z
loop_
_atom_site_type_symbol
_atom_site_label
_atom_site_fract_x
_atom_site_fract_y
_atom_site_fract_z
Si Si1 0.106521 0.576546 0.395510
Si Si2 0.003429 0.711173 0.222299
Si Si3 0.733306 0.367383 0.278222
Si Si4 0.792832 0.934390 0.603152
Si Si5 0.594009 0.786114 0.186850
Si Si6 0.219379 0.411617 0.176853
Si Si7 0.331968 0.483415 0.505174
O O1 0.006196 0.678888 0.363053
O O2 0.165841 0.529052 0.256462
O O3 0.256638 0.584776 0.437946
O O4 0.000000 0.500000 0.500000
O O5 0.157227 0.776590 0.179759
O O6 0.937708 0.617998 0.139890
O O7 0.888249 0.817369 0.242062
O O8 0.774857 0.426339 0.144349
O O9 0.576357 0.305218 0.304171
O O10 0.739564 0.490557 0.355071
O O11 0.657879 0.847764 0.671453
O O12 0.206970 0.077086 0.539246
O O13 0.628879 0.859306 0.301984
O O14 0.678214 0.861116 0.066346
O O15 0.500000 0.500000 0.500000
#
# Coordination Sequence:
#
# PCOD9250478 Si02
#       7
#     4   4   4   4   4   4   4
#     4  11  23  42  68  96 133 182 234 282 344 427
#     4  11  25  40  67  99 139 183 231 286 358 417
#     4  11  24  45  69 106 138 185 240 291 354 420
#     4  11  25  45  69  99 148 181 234 300 352 422
#     4   9  23  43  70  97 136 188 234 288 356 417
#     4  10  24  43  66 100 136 187 229 287 363 409
#     4   9  20  40  66  95 126 173 234 281 334 418
#
# _framework density 24.242564000000002
#
# number of rings (size 3 to 8) (size 9 to 14) (size 15 to 20)
#    0.000    1.714    0.000    2.571   12.000    6.286 
#    2.571    0.000    0.000    0.000    0.000    0.000 
#    0.000    0.000    0.000    0.000    0.000    0.000 
#
# Total GULP energy -156111.560334 kJ/mol
# GULP energy per Si atom -5575.412869 kJ/mol
# Density = 2.418739 g / cm^3
# Si number density = 24.242564 Si / 1000 Ang^3
#
#
#
# Elastic Constant Matrix: (Units=GPa)
#
#
# Indices 1 2 3 4 5 6 
#
# 1 151.9202 15.0036 31.0104 0.0000 20.9598 0.0000
# 2 15.0036 61.2548 16.9805 0.0000 -2.4819 0.0000
# 3 31.0104 16.9805 108.8997 0.0000 17.4699 0.0000
# 4 0.0000 0.0000 0.0000 32.4186 0.0000 7.8249
# 5 20.9598 -2.4819 17.4699 0.0000 30.3513 0.0000
# 6 0.0000 0.0000 0.0000 7.8249 0.0000 31.3639
#
#
#
# Elastic Compliance Matrix: (Units=1/GPa)
#
#
# Indices 1 2 3 4 5 6 
#
# 1 0.007646 -0.001750 -0.001140 0.000000 -0.004767 0.000000
# 2 -0.001750 0.017755 -0.002971 0.000000 0.004370 0.000000
# 3 -0.001140 -0.002971 0.010889 0.000000 -0.005723 0.000000
# 4 0.000000 0.000000 0.000000 0.032823 0.000000 -0.008189
# 5 -0.004767 0.004370 -0.005723 0.000000 0.039891 0.000000
# 6 0.000000 0.000000 0.000000 -0.008189 0.000000 0.033927
#
#
# Mechanical properties :
#
#
# Convention : Reuss Voigt Hill
#
# Bulk Modulus (GPa) = 40.70437 49.78486 45.24461
# Shear Modulus (GPa) = 30.70490 36.09878 33.40184
#
# Velocity S-wave (km/s) = 3.56275 3.86303 3.71592
# Velocity P-wave (km/s) = 5.80958 6.36224 6.09218
#
# Compressibility (1/GPa) = 0.02456739
#
# Stress axis : x y z
#
# Youngs Moduli (GPa) = 130.79573 56.32342 91.83805
#
# Poissons Ratio (x) = 0.09856 0.10466
# Poissons Ratio (y) = 0.22888 0.27287
# Poissons Ratio (z) = 0.14905 0.16735
#
# Static dielectric constant tensor:
#      x y z
#    x 2.019500 0.000000 -0.013300 
#    y 0.000000 6.806100 0.000000 
#    z -0.013300 0.000000 1.940320 
# 
# From -- ./inp_files/39678.got.cif
#   From: 2010.05.17/outbox.cif.g08.bks.cpg/sg14_20_cif.got.tgz:39678.got - 2010.06.03 17:49:19.
