data_PCOD9250837
_publ_section_title
;
Structure prediction by ZEFSAII (Michael W. Deem and Ramdas Pophale) SiO2 
 PCOD9250837
Probable space group: P 21/C
;
_chemical_formula_sum "Si O2"
_cell_formula_units_Z 20
_cell_length_a 8.322550
_cell_length_b 9.129271
_cell_length_c 10.634872
_cell_angle_alpha 90.000000
_cell_angle_beta 80.549615
_cell_angle_gamma 90.000000
_cell_volume 797.058575
_symmetry_space_group_name_H-M "P 21/C"
_symmetry_group_IT_number 14
_symmetry_cell_setting 'monoclinic'
loop_
_space_group_symop_operation_xyz
x,y,z
-x,1/2+y,1/2-z
-x,-y,-z
x,1/2-y,1/2+z
loop_
_atom_site_type_symbol
_atom_site_label
_atom_site_fract_x
_atom_site_fract_y
_atom_site_fract_z
Si Si1 0.467697 0.340977 0.892233
Si Si2 0.971914 0.072031 0.864851
Si Si3 0.855513 0.012537 0.618764
Si Si4 0.337412 0.069423 0.781014
Si Si5 0.699770 0.206754 0.043435
O O1 0.290702 0.412037 0.911367
O O2 0.594873 0.466275 0.836916
O O3 0.534184 0.271756 0.010404
O O4 0.452484 0.204957 0.798308
O O5 0.830930 0.188084 0.913653
O O6 0.906374 0.977477 0.755663
O O7 0.150471 0.121051 0.795331
O O8 0.000000 0.000000 0.000000
O O9 0.788939 0.179646 0.624031
O O10 0.000000 0.000000 0.500000
O O11 0.336156 0.952249 0.895718
#
# Coordination Sequence:
#
# PCOD9250837 Si02
#       5
#     4   4   4   4   4
#     4  12  25  44  68 104 143 187 241 303 364 430
#     4  10  24  47  72 103 146 193 237 294 366 434
#     4  12  26  45  74 108 145 192 247 303 363 436
#     4  11  24  42  70  99 141 192 240 297 365 434
#     4  11  23  44  70 104 144 188 240 301 364 436
#
# _framework density 25.092255999999999
#
# number of rings (size 3 to 8) (size 9 to 14) (size 15 to 20)
#    0.000    0.800    0.000    7.200    0.000    8.000 
#    0.000    0.000    0.000    0.000    0.000    0.000 
#    0.000    0.000    0.000    0.000    0.000    0.000 
#
# Total GULP energy -111930.715009 kJ/mol
# GULP energy per Si atom -5596.535750 kJ/mol
# Density = 2.503514 g / cm^3
# Si number density = 25.092256 Si / 1000 Ang^3
#
#
#
# Elastic Constant Matrix: (Units=GPa)
#
#
# Indices 1 2 3 4 5 6 
#
# 1 120.4019 28.7426 67.9974 0.0000 2.8451 0.0000
# 2 28.7426 108.7532 31.7235 0.0000 0.9683 0.0000
# 3 67.9974 31.7235 122.6707 0.0000 20.1641 0.0000
# 4 0.0000 0.0000 0.0000 39.7021 0.0000 6.3598
# 5 2.8451 0.9683 20.1641 0.0000 42.8466 0.0000
# 6 0.0000 0.0000 0.0000 6.3598 0.0000 40.3789
#
#
#
# Elastic Compliance Matrix: (Units=1/GPa)
#
#
# Indices 1 2 3 4 5 6 
#
# 1 0.012515 -0.001283 -0.007016 0.000000 0.002500 0.000000
# 2 -0.001283 0.010122 -0.002041 0.000000 0.000817 0.000000
# 3 -0.007016 -0.002041 0.013531 0.000000 -0.005856 0.000000
# 4 0.000000 0.000000 0.000000 0.025839 0.000000 -0.004070
# 5 0.002500 0.000817 -0.005856 0.000000 0.025911 0.000000
# 6 0.000000 0.000000 0.000000 -0.004070 0.000000 0.025406
#
#
# Mechanical properties :
#
#
# Convention : Reuss Voigt Hill
#
# Bulk Modulus (GPa) = 64.56421 67.63918 66.10170
# Shear Modulus (GPa) = 35.92755 39.47635 37.70195
#
# Velocity S-wave (km/s) = 3.78804 3.97072 3.88046
# Velocity P-wave (km/s) = 6.70216 6.93087 6.81747
#
# Compressibility (1/GPa) = 0.01548846
#
# Stress axis : x y z
#
# Youngs Moduli (GPa) = 79.90197 98.79203 73.90170
#
# Poissons Ratio (x) = 0.12677 0.51853
# Poissons Ratio (y) = 0.10253 0.15081
# Poissons Ratio (z) = 0.56063 0.20160
#
# Static dielectric constant tensor:
#      x y z
#    x 1.968850 0.000000 -0.023180 
#    y 0.000000 1.980600 0.000000 
#    z -0.023180 0.000000 2.068140 
# 
# From -- ./inp_files/23022.got.cif
#   From: 2010.05.17/outbox.cif.g08.bks.cpg/sg14_12_cif.got.tgz:23022.got - 2010.06.03 17:49:19.
