data_PCOD9250149
_publ_section_title
;
Structure prediction by ZEFSAII (Michael W. Deem and Ramdas Pophale) SiO2 
 PCOD9250149
Probable space group: P 21/C
;
_chemical_formula_sum "Si O2"
_cell_formula_units_Z 32
_cell_length_a 19.579774
_cell_length_b 13.760487
_cell_length_c 13.087820
_cell_angle_alpha 90.000000
_cell_angle_beta 156.064804
_cell_angle_gamma 90.000000
_cell_volume 1430.596453
_symmetry_space_group_name_H-M "P 21/C"
_symmetry_group_IT_number 14
_symmetry_cell_setting 'monoclinic'
loop_
_space_group_symop_operation_xyz
x,y,z
-x,1/2+y,1/2-z
-x,-y,-z
x,1/2-y,1/2+z
loop_
_atom_site_type_symbol
_atom_site_label
_atom_site_fract_x
_atom_site_fract_y
_atom_site_fract_z
Si Si1 0.353834 0.600417 0.058798
Si Si2 0.842217 0.924213 0.060753
Si Si3 0.415910 0.273419 0.771399
Si Si4 0.359133 0.128876 0.525260
Si Si5 0.306374 0.823240 0.710899
Si Si6 0.060943 0.603704 0.042339
Si Si7 0.749684 0.355562 0.493926
Si Si8 0.013798 0.099308 0.955527
O O1 0.170452 0.642157 0.776711
O O2 0.489482 0.661140 0.183262
O O3 0.365427 0.487446 0.047408
O O4 0.369108 0.615275 0.200457
O O5 0.975099 0.923529 0.150159
O O6 0.905783 0.873882 0.253194
O O7 0.782538 0.034946 0.997108
O O8 0.697742 0.851831 0.827473
O O9 0.334644 0.184923 0.598304
O O10 0.542547 0.226393 0.023151
O O11 0.548523 0.154419 0.743590
O O12 0.186395 0.150151 0.226808
O O13 0.209447 0.887523 0.662000
O O14 0.205903 0.730453 0.524805
O O15 0.135534 0.651805 0.246944
O O16 0.000000 0.500000 0.000000
O O17 0.000000 0.000000 0.000000
#
# Coordination Sequence:
#
# PCOD9250149 Si02
#       8
#     4   4   4   4   4   4   4   4
#     4  11  24  46  68  98 145 184 230 304 353 419
#     4  11  24  46  71 104 139 191 232 292 363 420
#     4  12  26  42  71 104 140 187 239 292 352 431
#     4  11  23  44  67 102 141 179 233 296 346 415
#     4  12  23  42  72 101 137 193 237 280 370 420
#     4  10  23  47  71 100 145 188 240 295 364 428
#     4  11  23  43  74 104 138 185 236 294 353 429
#     4  10  24  44  70 102 140 179 238 293 354 417
#
# _framework density 22.368293000000001
#
# number of rings (size 3 to 8) (size 9 to 14) (size 15 to 20)
#    0.000    1.000    5.000    0.750    3.500    3.500 
#    2.250    0.000    0.000    0.000    0.000    0.000 
#    0.000    0.000    0.000    0.000    0.000    0.000 
#
# Total GULP energy -178471.727623 kJ/mol
# GULP energy per Si atom -5577.241488 kJ/mol
# Density = 2.231738 g / cm^3
# Si number density = 22.368293 Si / 1000 Ang^3
#
#
#
# Elastic Constant Matrix: (Units=GPa)
#
#
# Indices 1 2 3 4 5 6 
#
# 1 57.2043 6.9637 64.5984 0.0000 -2.5992 0.0000
# 2 6.9637 72.9789 40.9904 0.0000 7.5110 0.0000
# 3 64.5984 40.9904 -0.7405 0.0000 -27.8214 0.0000
# 4 0.0000 0.0000 0.0000 18.7900 0.0000 -19.6855
# 5 -2.5992 7.5110 -27.8214 0.0000 38.0197 0.0000
# 6 0.0000 0.0000 0.0000 -19.6855 0.0000 -6.6262
#
#
#
# Elastic Compliance Matrix: (Units=1/GPa)
#
#
# Indices 1 2 3 4 5 6 
#
# 1 0.008236 -0.006896 0.009281 0.000000 0.008717 0.000000
# 2 -0.006896 0.011523 0.004898 0.000000 0.000836 0.000000
# 3 0.009281 0.004898 -0.009026 0.000000 -0.006938 0.000000
# 4 0.000000 0.000000 0.000000 0.012941 0.000000 -0.038446
# 5 0.008717 0.000836 -0.006938 0.000000 0.021656 0.000000
# 6 0.000000 0.000000 0.000000 -0.038446 0.000000 -0.036697
#
#
# Mechanical properties :
#
#
# Convention : Reuss Voigt Hill
#
# Bulk Modulus (GPa) = 39.52576 39.39418 39.45997
# Shear Modulus (GPa) = 1998.94023 11.16270 1005.05146
#
# Velocity S-wave (km/s) = 29.92639 2.23635 21.22016
# Velocity P-wave (km/s) = 34.81131 4.93135 24.86107
#
# Compressibility (1/GPa) = 0.02529996
#
# Stress axis : x y z
#
# Youngs Moduli (GPa) = 121.41421 86.77940 -110.79504
#
# Poissons Ratio (x) = 0.59842 1.02827
# Poissons Ratio (y) = 0.83726 0.54267
# Poissons Ratio (z) = -1.12683 -0.42504
#
# Static dielectric constant tensor:
#      x y z
#    x 1.798090 0.000000 0.013910 
#    y 0.000000 1.812180 0.000000 
#    z 0.013910 0.000000 1.866050 
# 
# From -- ./inp_files/34232.got.cif
#   From: 2010.05.17/outbox.cif.g08.bks.cpg/sg14_18_cif.got.tgz:34232.got - 2010.06.03 17:49:19.
