data_PCOD9250661
_publ_section_title
;
Structure prediction by ZEFSAII (Michael W. Deem and Ramdas Pophale) SiO2 
 PCOD9250661
Probable space group: P 21/C
;
_chemical_formula_sum "Si O2"
_cell_formula_units_Z 22
_cell_length_a 18.339051
_cell_length_b 7.070345
_cell_length_c 20.590036
_cell_angle_alpha 90.000000
_cell_angle_beta 19.195623
_cell_angle_gamma 90.000000
_cell_volume 877.807156
_symmetry_space_group_name_H-M "P 21/C"
_symmetry_group_IT_number 14
_symmetry_cell_setting 'monoclinic'
loop_
_space_group_symop_operation_xyz
x,y,z
-x,1/2+y,1/2-z
-x,-y,-z
x,1/2-y,1/2+z
loop_
_atom_site_type_symbol
_atom_site_label
_atom_site_fract_x
_atom_site_fract_y
_atom_site_fract_z
Si Si1 0.230829 0.846182 0.780977
Si Si2 0.181187 0.186749 0.051772
Si Si3 0.778993 0.731870 0.217929
Si Si4 0.500000 0.500000 0.500000
Si Si5 0.963243 0.542921 0.186733
Si Si6 0.668368 0.165892 0.156741
O O1 0.400778 0.707864 0.606156
O O2 0.309788 0.895844 0.787235
O O3 0.220808 0.052869 0.757084
O O4 0.994016 0.740581 0.991075
O O5 0.414197 0.296520 0.855147
O O6 0.220772 0.993975 0.980343
O O7 0.004115 0.323899 0.166362
O O8 0.112032 0.139955 0.183372
O O9 0.577147 0.611463 0.360442
O O10 0.791650 0.590755 0.272351
O O11 0.185848 0.645917 0.975559
#
# Coordination Sequence:
#
# PCOD9250661 Si02
#       6
#     4   4   4   2   4   4
#     4  10  24  45  68  97 139 179 224 286 339 406
#     4  12  23  43  67  98 133 178 223 285 338 406
#     4  10  24  45  66  99 139 177 225 279 344 402
#     4  12  22  42  70 102 128 174 230 272 338 402
#     4  11  24  43  68 100 134 177 228 277 343 407
#     4  11  24  43  67  99 134 174 229 280 342 403
#
# _framework density 25.062453999999999
#
# number of rings (size 3 to 8) (size 9 to 14) (size 15 to 20)
#    0.000    1.091    3.636    2.182    0.000    7.273 
#    6.545    0.000    0.000    0.000    0.000    0.000 
#    0.000    0.000    0.000    0.000    0.000    0.000 
#
# Total GULP energy -122894.774990 kJ/mol
# GULP energy per Si atom -5586.126136 kJ/mol
# Density = 2.500541 g / cm^3
# Si number density = 25.062454 Si / 1000 Ang^3
#
#
#
# Elastic Constant Matrix: (Units=GPa)
#
#
# Indices 1 2 3 4 5 6 
#
# 1 67.6308 -2.7690 11.9448 0.0000 11.6442 0.0000
# 2 -2.7690 84.9135 41.1109 0.0000 3.6901 0.0000
# 3 11.9448 41.1109 115.6694 0.0000 -9.2270 0.0000
# 4 0.0000 0.0000 0.0000 71.0786 0.0000 -0.2629
# 5 11.6442 3.6901 -9.2270 0.0000 40.0392 0.0000
# 6 0.0000 0.0000 0.0000 -0.2629 0.0000 28.2973
#
#
#
# Elastic Compliance Matrix: (Units=1/GPa)
#
#
# Indices 1 2 3 4 5 6 
#
# 1 0.016361 0.002191 -0.002917 0.000000 -0.005632 0.000000
# 2 0.002191 0.014772 -0.005742 0.000000 -0.003322 0.000000
# 3 -0.002917 -0.005742 0.011305 0.000000 0.003983 0.000000
# 4 0.000000 0.000000 0.000000 0.014069 0.000000 0.000131
# 5 -0.005632 -0.003322 0.003983 0.000000 0.027837 0.000000
# 6 0.000000 0.000000 0.000000 0.000131 0.000000 0.035340
#
#
# Mechanical properties :
#
#
# Convention : Reuss Voigt Hill
#
# Bulk Modulus (GPa) = 33.89642 40.97635 37.43638
# Shear Modulus (GPa) = 35.09867 42.41148 38.75507
#
# Velocity S-wave (km/s) = 3.74632 4.11814 3.93662
# Velocity P-wave (km/s) = 5.68043 6.24478 5.96928
#
# Compressibility (1/GPa) = 0.02950164
#
# Stress axis : x y z
#
# Youngs Moduli (GPa) = 61.12146 67.69454 88.45677
#
# Poissons Ratio (x) = -0.14830 0.25807
# Poissons Ratio (y) = -0.13390 0.50788
# Poissons Ratio (z) = 0.17832 0.38867
#
# Static dielectric constant tensor:
#      x y z
#    x 2.144440 0.000000 -0.135890 
#    y 0.000000 2.066520 0.000000 
#    z -0.135890 0.000000 2.143750 
# 
# From -- ./inp_files/69663.got.cif
#   From: 2010.05.17/outbox.cif.g08.bks.cpg/sg14_35_cif.got.tgz:69663.got - 2010.06.03 17:49:19.
