data_PCOD9250589
_publ_section_title
;
Structure prediction by ZEFSAII (Michael W. Deem and Ramdas Pophale) SiO2 
 PCOD9250589
Probable space group: P 21/C
;
_chemical_formula_sum "Si O2"
_cell_formula_units_Z 24
_cell_length_a 23.742477
_cell_length_b 7.712809
_cell_length_c 13.179109
_cell_angle_alpha 90.000000
_cell_angle_beta 25.747154
_cell_angle_gamma 90.000000
_cell_volume 1048.370969
_symmetry_space_group_name_H-M "P 21/C"
_symmetry_group_IT_number 14
_symmetry_cell_setting 'monoclinic'
loop_
_space_group_symop_operation_xyz
x,y,z
-x,1/2+y,1/2-z
-x,-y,-z
x,1/2-y,1/2+z
loop_
_atom_site_type_symbol
_atom_site_label
_atom_site_fract_x
_atom_site_fract_y
_atom_site_fract_z
Si Si1 0.384363 0.878397 0.102176
Si Si2 0.652128 0.280554 0.623057
Si Si3 0.157835 0.045622 0.159809
Si Si4 0.567477 0.943777 0.634974
Si Si5 0.715579 0.751776 0.217722
Si Si6 0.129358 0.006601 0.428428
O O1 0.379194 0.415359 0.638004
O O2 0.245733 0.871534 0.266147
O O3 0.380844 0.764474 0.207435
O O4 0.506589 0.845060 0.831638
O O5 0.799329 0.345827 0.392351
O O6 0.562883 0.436401 0.723531
O O7 0.623819 0.116065 0.596367
O O8 0.014597 0.062677 0.347390
O O9 0.157697 0.104844 0.276166
O O10 0.260305 0.132659 0.918752
O O11 0.667220 0.857045 0.394709
O O12 0.851176 0.653744 0.019072
#
# Coordination Sequence:
#
# PCOD9250589 Si02
#       6
#     4   4   4   4   4   4
#     4  10  24  44  68 100 140 178 220 294 338 405
#     4  12  26  42  72  98 139 180 229 280 351 408
#     4  11  24  44  72  99 133 193 226 281 355 398
#     4  12  25  46  64 104 141 173 231 283 341 418
#     4  10  25  41  72  97 137 182 230 282 340 406
#     4   9  23  47  67  98 145 169 234 291 331 416
#
# _framework density 22.892659999999999
#
# number of rings (size 3 to 8) (size 9 to 14) (size 15 to 20)
#    1.000    0.333    3.333    0.500    7.000    0.667 
#    3.000    0.833    0.000    0.000    0.000    0.000 
#    0.000    0.000    0.000    0.000    0.000    0.000 
#
# Total GULP energy -133631.852096 kJ/mol
# GULP energy per Si atom -5567.993837 kJ/mol
# Density = 2.284056 g / cm^3
# Si number density = 22.892660 Si / 1000 Ang^3
#
#
#
# Elastic Constant Matrix: (Units=GPa)
#
#
# Indices 1 2 3 4 5 6 
#
# 1 104.2168 26.1006 30.5246 0.0000 3.7368 0.0000
# 2 26.1006 59.3261 30.3896 0.0000 14.6593 0.0000
# 3 30.5246 30.3896 92.2708 0.0000 15.8251 0.0000
# 4 0.0000 0.0000 0.0000 15.0467 0.0000 13.1211
# 5 3.7368 14.6593 15.8251 0.0000 47.4272 0.0000
# 6 0.0000 0.0000 0.0000 13.1211 0.0000 44.6343
#
#
#
# Elastic Compliance Matrix: (Units=1/GPa)
#
#
# Indices 1 2 3 4 5 6 
#
# 1 0.011311 -0.003911 -0.002660 0.000000 0.001205 0.000000
# 2 -0.003911 0.022485 -0.005274 0.000000 -0.004882 0.000000
# 3 -0.002660 -0.005274 0.013937 0.000000 -0.002811 0.000000
# 4 0.000000 0.000000 0.000000 0.089370 0.000000 -0.026272
# 5 0.001205 -0.004882 -0.002811 0.000000 0.023437 0.000000
# 6 0.000000 0.000000 0.000000 -0.026272 0.000000 0.030127
#
#
# Mechanical properties :
#
#
# Convention : Reuss Voigt Hill
#
# Bulk Modulus (GPa) = 41.59615 47.76036 44.67826
# Shear Modulus (GPa) = 22.48488 32.67488 27.57988
#
# Velocity S-wave (km/s) = 3.13739 3.78207 3.47471
# Velocity P-wave (km/s) = 5.59766 6.32298 5.97134
#
# Compressibility (1/GPa) = 0.02404069
#
# Stress axis : x y z
#
# Youngs Moduli (GPa) = 88.40988 44.47453 71.75221
#
# Poissons Ratio (x) = 0.17396 0.19089
# Poissons Ratio (y) = 0.34580 0.37844
# Poissons Ratio (z) = 0.23520 0.23457
#
# Static dielectric constant tensor:
#      x y z
#    x 1.897960 0.000000 -0.014390 
#    y 0.000000 1.873650 0.000000 
#    z -0.014390 0.000000 1.871290 
# 
# From -- ./inp_files/35671.got.cif
#   From: 2010.05.17/outbox.cif.g08.bks.cpg/sg14_18_cif.got.tgz:35671.got - 2010.06.03 17:49:19.
