data_PCOD9250697
_publ_section_title
;
Structure prediction by ZEFSAII (Michael W. Deem and Ramdas Pophale) SiO2 
 PCOD9250697
Probable space group: P 21/C
;
_chemical_formula_sum "Si O2"
_cell_formula_units_Z 16
_cell_length_a 5.903897
_cell_length_b 10.304378
_cell_length_c 9.976742
_cell_angle_alpha 90.000000
_cell_angle_beta 80.336028
_cell_angle_gamma 90.000000
_cell_volume 598.331919
_symmetry_space_group_name_H-M "P 21/C"
_symmetry_group_IT_number 14
_symmetry_cell_setting 'monoclinic'
loop_
_space_group_symop_operation_xyz
x,y,z
-x,1/2+y,1/2-z
-x,-y,-z
x,1/2-y,1/2+z
loop_
_atom_site_type_symbol
_atom_site_label
_atom_site_fract_x
_atom_site_fract_y
_atom_site_fract_z
Si Si1 0.736796 0.197779 0.811296
Si Si2 0.154435 0.437325 0.601113
Si Si3 0.482806 0.291482 0.073753
Si Si4 0.099114 0.024929 0.637454
O O1 0.691226 0.283027 0.947663
O O2 0.573308 0.247493 0.710259
O O3 0.972439 0.150407 0.718814
O O4 0.670295 0.050094 0.868324
O O5 0.290559 0.310524 0.544626
O O6 0.984075 0.418250 0.746208
O O7 0.000000 0.500000 0.500000
O O8 0.359712 0.429077 0.103869
O O9 0.000000 0.000000 0.500000
#
# Coordination Sequence:
#
# PCOD9250697 Si02
#       4
#     4   4   4   4
#     4  10  27  43  70 105 136 191 235 291 348 428
#     4  10  24  45  71 103 145 185 238 289 357 421
#     4  12  23  48  72 100 147 189 235 289 365 411
#     4  10  25  45  69 108 140 184 238 298 346 427
#
# _framework density 26.741011
#
# number of rings (size 3 to 8) (size 9 to 14) (size 15 to 20)
#    1.500    0.000    0.000    3.750    3.500    3.000 
#    0.000    0.000    0.000    0.000    0.000    0.000 
#    0.000    0.000    0.000    0.000    0.000    0.000 
#
# Total GULP energy -89422.868390 kJ/mol
# GULP energy per Si atom -5588.929274 kJ/mol
# Density = 2.668015 g / cm^3
# Si number density = 26.741011 Si / 1000 Ang^3
#
#
#
# Elastic Constant Matrix: (Units=GPa)
#
#
# Indices 1 2 3 4 5 6 
#
# 1 61.4999 14.3522 33.4359 0.0000 -16.0718 0.0000
# 2 14.3522 63.7133 13.4855 0.0000 -13.7394 0.0000
# 3 33.4359 13.4855 197.8780 0.0000 -11.0596 0.0000
# 4 0.0000 0.0000 0.0000 44.0031 0.0000 -0.4756
# 5 -16.0718 -13.7394 -11.0596 0.0000 62.4487 0.0000
# 6 0.0000 0.0000 0.0000 -0.4756 0.0000 61.1238
#
#
#
# Elastic Compliance Matrix: (Units=1/GPa)
#
#
# Indices 1 2 3 4 5 6 
#
# 1 0.019527 -0.002955 -0.002882 0.000000 0.003865 0.000000
# 2 -0.002955 0.017095 -0.000503 0.000000 0.002912 0.000000
# 3 -0.002882 -0.000503 0.005583 0.000000 0.000136 0.000000
# 4 0.000000 0.000000 0.000000 0.022728 0.000000 0.000177
# 5 0.003865 0.002912 0.000136 0.000000 0.017672 0.000000
# 6 0.000000 0.000000 0.000000 0.000177 0.000000 0.016362
#
#
# Mechanical properties :
#
#
# Convention : Reuss Voigt Hill
#
# Bulk Modulus (GPa) = 33.87066 49.51537 41.69301
# Shear Modulus (GPa) = 41.15628 50.96963 46.06296
#
# Velocity S-wave (km/s) = 3.92735 4.37057 4.15487
# Velocity P-wave (km/s) = 5.76708 6.63521 6.21631
#
# Compressibility (1/GPa) = 0.02952408
#
# Stress axis : x y z
#
# Youngs Moduli (GPa) = 51.21178 58.49552 179.13115
#
# Poissons Ratio (x) = 0.17287 0.51627
# Poissons Ratio (y) = 0.15134 0.09010
# Poissons Ratio (z) = 0.14760 0.02942
#
# Static dielectric constant tensor:
#      x y z
#    x 2.127810 0.000000 -0.104550 
#    y 0.000000 2.371540 0.000000 
#    z -0.104550 0.000000 2.044160 
# 
# From -- ./inp_files/12304.got.cif
#   From: 2010.05.17/outbox.cif.g08.bks.cpg/sg14_7_cif.got.tgz:12304.got - 2010.06.03 17:49:19.
