data_PCOD9250500
_publ_section_title
;
Structure prediction by ZEFSAII (Michael W. Deem and Ramdas Pophale) SiO2 
 PCOD9250500
Probable space group: P 21/C
;
_chemical_formula_sum "Si O2"
_cell_formula_units_Z 28
_cell_length_a 10.620426
_cell_length_b 21.811650
_cell_length_c 10.902879
_cell_angle_alpha 90.000000
_cell_angle_beta 30.067209
_cell_angle_gamma 90.000000
_cell_volume 1265.385427
_symmetry_space_group_name_H-M "P 21/C"
_symmetry_group_IT_number 14
_symmetry_cell_setting 'monoclinic'
loop_
_space_group_symop_operation_xyz
x,y,z
-x,1/2+y,1/2-z
-x,-y,-z
x,1/2-y,1/2+z
loop_
_atom_site_type_symbol
_atom_site_label
_atom_site_fract_x
_atom_site_fract_y
_atom_site_fract_z
Si Si1 0.582363 0.615564 0.388608
Si Si2 0.137224 0.568898 0.601849
Si Si3 0.384383 0.563256 0.146508
Si Si4 0.664100 0.702369 0.530540
Si Si5 0.000976 0.464211 0.874201
Si Si6 0.750980 0.844721 0.482720
Si Si7 0.772538 0.356246 0.951497
O O1 0.364930 0.576930 0.505913
O O2 0.541465 0.674682 0.509019
O O3 0.732019 0.569933 0.352309
O O4 0.741300 0.638715 0.135735
O O5 0.195576 0.548982 0.416015
O O6 0.965789 0.515392 0.801652
O O7 0.022068 0.636847 0.702589
O O8 0.270465 0.604713 0.135000
O O9 0.500000 0.500000 0.000000
O O10 0.576419 0.608363 0.055468
O O11 0.675385 0.775527 0.523234
O O12 0.958046 0.679164 0.287204
O O13 0.475295 0.681082 0.798968
O O14 0.807880 0.408877 0.025297
O O15 0.000000 0.500000 0.000000
#
# Coordination Sequence:
#
# PCOD9250500 Si02
#       7
#     4   4   4   4   4   4   4
#     4  10  24  43  68 105 135 184 237 300 361 426
#     4  11  24  43  74 104 145 188 245 301 375 434
#     4  11  28  45  71 105 154 194 243 303 376 452
#     4  11  28  47  74 103 146 190 250 298 358 436
#     4  11  21  42  72 104 139 181 237 307 365 431
#     4  11  26  45  71 105 137 197 239 301 363 433
#     4  11  28  48  71 108 142 194 241 298 366 432
#
# _framework density 22.127645999999999
#
# number of rings (size 3 to 8) (size 9 to 14) (size 15 to 20)
#    0.000    1.143    1.429    2.143   16.000    1.143 
#    0.000    0.000    0.000    0.000    0.000    0.000 
#    0.000    0.000    0.000    0.000    0.000    0.000 
#
# Total GULP energy -156291.006677 kJ/mol
# GULP energy per Si atom -5581.821667 kJ/mol
# Density = 2.207728 g / cm^3
# Si number density = 22.127646 Si / 1000 Ang^3
#
#
#
# Elastic Constant Matrix: (Units=GPa)
#
#
# Indices 1 2 3 4 5 6 
#
# 1 81.0164 40.1569 20.7903 0.0000 12.4730 0.0000
# 2 40.1569 175.6467 60.4613 0.0000 9.1657 0.0000
# 3 20.7903 60.4613 98.4602 0.0000 14.9777 0.0000
# 4 0.0000 0.0000 0.0000 28.5984 0.0000 -3.0519
# 5 12.4730 9.1657 14.9777 0.0000 28.7269 0.0000
# 6 0.0000 0.0000 0.0000 -3.0519 0.0000 28.2306
#
#
#
# Elastic Compliance Matrix: (Units=1/GPa)
#
#
# Indices 1 2 3 4 5 6 
#
# 1 0.014721 -0.002912 -0.000531 0.000000 -0.005186 0.000000
# 2 -0.002912 0.007795 -0.004329 0.000000 0.001034 0.000000
# 3 -0.000531 -0.004329 0.013774 0.000000 -0.005570 0.000000
# 4 0.000000 0.000000 0.000000 0.035375 0.000000 0.003824
# 5 -0.005186 0.001034 -0.005570 0.000000 0.039636 0.000000
# 6 0.000000 0.000000 0.000000 0.003824 0.000000 0.035836
#
#
# Mechanical properties :
#
#
# Convention : Reuss Voigt Hill
#
# Bulk Modulus (GPa) = 48.20356 66.43780 57.32068
# Shear Modulus (GPa) = 29.48135 32.69217 31.08676
#
# Velocity S-wave (km/s) = 3.65407 3.84791 3.75224
# Velocity P-wave (km/s) = 6.29560 7.05917 6.68829
#
# Compressibility (1/GPa) = 0.02074536
#
# Stress axis : x y z
#
# Youngs Moduli (GPa) = 67.92860 128.28277 72.59880
#
# Poissons Ratio (x) = 0.37358 0.03858
# Poissons Ratio (y) = 0.19782 0.31430
# Poissons Ratio (z) = 0.03610 0.55537
#
# Static dielectric constant tensor:
#      x y z
#    x 1.817430 0.000000 -0.061120 
#    y 0.000000 1.845120 0.000000 
#    z -0.061120 0.000000 1.956670 
# 
# From -- ./inp_files/30664.got.cif
#   From: 2010.05.17/outbox.cif.g08.bks.cpg/sg14_16_cif.got.tgz:30664.got - 2010.06.03 17:49:19.
