data_PCOD9250879
_publ_section_title
;
Structure prediction by ZEFSAII (Michael W. Deem and Ramdas Pophale) SiO2 
 PCOD9250879
Probable space group: P 21/C
;
_chemical_formula_sum "Si O2"
_cell_formula_units_Z 16
_cell_length_a 12.369210
_cell_length_b 9.874702
_cell_length_c 9.533376
_cell_angle_alpha 90.000000
_cell_angle_beta 146.953410
_cell_angle_gamma 90.000000
_cell_volume 634.986894
_symmetry_space_group_name_H-M "P 21/C"
_symmetry_group_IT_number 14
_symmetry_cell_setting 'monoclinic'
loop_
_space_group_symop_operation_xyz
x,y,z
-x,1/2+y,1/2-z
-x,-y,-z
x,1/2-y,1/2+z
loop_
_atom_site_type_symbol
_atom_site_label
_atom_site_fract_x
_atom_site_fract_y
_atom_site_fract_z
Si Si1 0.496097 0.671021 0.912038
Si Si2 0.197676 0.170248 0.607745
Si Si3 0.067492 0.739760 0.923217
Si Si4 0.624635 0.438815 0.846710
O O1 0.261481 0.679509 0.690703
O O2 0.547770 0.536017 0.884610
O O3 0.512546 0.809654 0.836502
O O4 0.657515 0.703118 0.205264
O O5 0.334105 0.038580 0.739544
O O6 0.043057 0.169996 0.567638
O O7 0.083160 0.176642 0.335314
O O8 0.161719 0.634631 0.913469
#
# Coordination Sequence:
#
# PCOD9250879 Si02
#       4
#     4   4   4   4
#     4  10  25  45  74 109 147 184 244 295 362 424
#     4  12  22  50  72 109 142 196 237 301 359 430
#     4  10  27  41  79 104 146 187 245 293 360 426
#     4  10  24  48  74 107 144 194 235 302 355 435
#
# _framework density 25.197372000000001
#
# number of rings (size 3 to 8) (size 9 to 14) (size 15 to 20)
#    1.500    0.000    2.500    1.500    3.500    3.000 
#    0.000    2.500    0.000    0.000    0.000    0.000 
#    0.000    0.000    0.000    0.000    0.000    0.000 
#
# Total GULP energy -89296.412582 kJ/mol
# GULP energy per Si atom -5581.025786 kJ/mol
# Density = 2.514002 g / cm^3
# Si number density = 25.197372 Si / 1000 Ang^3
#
#
#
# Elastic Constant Matrix: (Units=GPa)
#
#
# Indices 1 2 3 4 5 6 
#
# 1 136.5284 20.5481 22.6107 0.0000 3.8351 0.0000
# 2 20.5481 112.3786 -7.4803 0.0000 11.1605 0.0000
# 3 22.6107 -7.4803 58.5117 0.0000 29.4371 0.0000
# 4 0.0000 0.0000 0.0000 35.5442 0.0000 1.3543
# 5 3.8351 11.1605 29.4371 0.0000 28.1459 0.0000
# 6 0.0000 0.0000 0.0000 1.3543 0.0000 59.3613
#
#
#
# Elastic Compliance Matrix: (Units=1/GPa)
#
#
# Indices 1 2 3 4 5 6 
#
# 1 0.008865 -0.002983 -0.008009 0.000000 0.008351 0.000000
# 2 -0.002983 0.011561 0.009988 0.000000 -0.014624 0.000000
# 3 -0.008009 0.009988 0.048343 0.000000 -0.053430 0.000000
# 4 0.000000 0.000000 0.000000 0.028158 0.000000 -0.000642
# 5 0.008351 -0.014624 -0.053430 0.000000 0.096071 0.000000
# 6 0.000000 0.000000 0.000000 -0.000642 0.000000 0.016861
#
#
# Mechanical properties :
#
#
# Convention : Reuss Voigt Hill
#
# Bulk Modulus (GPa) = 14.97855 42.08619 28.53237
# Shear Modulus (GPa) = 21.35651 42.72630 32.04140
#
# Velocity S-wave (km/s) = 2.91446 4.12231 3.56984
# Velocity P-wave (km/s) = 4.15726 6.27669 5.32352
#
# Compressibility (1/GPa) = 0.06676214
#
# Stress axis : x y z
#
# Youngs Moduli (GPa) = 112.80031 86.49595 20.68561
#
# Poissons Ratio (x) = 0.25805 0.16566
# Poissons Ratio (y) = 0.33653 -0.20662
# Poissons Ratio (z) = 0.90337 -0.86396
#
# Static dielectric constant tensor:
#      x y z
#    x 2.050340 0.000000 -0.035460 
#    y 0.000000 2.025060 0.000000 
#    z -0.035460 0.000000 2.021920 
# 
# From -- ./inp_files/12135.got.cif
#   From: 2010.05.17/outbox.cif.g08.bks.cpg/sg14_7_cif.got.tgz:12135.got - 2010.06.03 17:49:19.
