data_PCOD9250950
_publ_section_title
;
Structure prediction by ZEFSAII (Michael W. Deem and Ramdas Pophale) SiO2 
 PCOD9250950
Probable space group: P 21/C
;
_chemical_formula_sum "Si O2"
_cell_formula_units_Z 24
_cell_length_a 10.611515
_cell_length_b 8.282321
_cell_length_c 19.650947
_cell_angle_alpha 90.000000
_cell_angle_beta 149.892528
_cell_angle_gamma 90.000000
_cell_volume 866.344973
_symmetry_space_group_name_H-M "P 21/C"
_symmetry_group_IT_number 14
_symmetry_cell_setting 'monoclinic'
loop_
_space_group_symop_operation_xyz
x,y,z
-x,1/2+y,1/2-z
-x,-y,-z
x,1/2-y,1/2+z
loop_
_atom_site_type_symbol
_atom_site_label
_atom_site_fract_x
_atom_site_fract_y
_atom_site_fract_z
Si Si1 0.100060 0.386724 0.347499
Si Si2 0.588517 0.183334 0.542271
Si Si3 0.689077 0.565675 0.415175
Si Si4 0.165192 0.999692 0.731632
Si Si5 0.516561 0.238425 0.353592
Si Si6 0.782153 0.574733 0.944313
O O1 0.350096 0.281583 0.456028
O O2 0.111983 0.446324 0.430068
O O3 0.141774 0.501638 0.301621
O O4 0.830046 0.316344 0.203271
O O5 0.635329 0.234954 0.485711
O O6 0.500000 0.000000 0.500000
O O7 0.409532 0.586646 0.315660
O O8 0.661343 0.378701 0.377846
O O9 0.735789 0.739162 0.402236
O O10 0.241625 0.184344 0.742593
O O11 0.918325 0.931783 0.581189
O O12 0.559689 0.059337 0.344011
O O13 0.000000 0.500000 0.000000
#
# Coordination Sequence:
#
# PCOD9250950 Si02
#       6
#     4   4   4   4   4   4
#     4  11  23  40  71 103 149 185 231 294 365 438
#     4  11  24  37  69 104 144 193 231 287 364 429
#     4  10  25  42  68 101 141 182 231 295 362 424
#     4   9  23  45  65 102 140 179 239 286 360 442
#     4   9  23  46  62  97 137 179 235 294 350 419
#     4  12  25  46  70  97 138 184 245 298 349 429
#
# _framework density 27.702589
#
# number of rings (size 3 to 8) (size 9 to 14) (size 15 to 20)
#    1.000    0.667    1.667    1.500    4.667    2.000 
#    3.000    0.000    0.000    0.000    0.000    0.000 
#    0.000    0.000    0.000    0.000    0.000    0.000 
#
# Total GULP energy -134115.488460 kJ/mol
# GULP energy per Si atom -5588.145352 kJ/mol
# Density = 2.763954 g / cm^3
# Si number density = 27.702589 Si / 1000 Ang^3
#
#
#
# Elastic Constant Matrix: (Units=GPa)
#
#
# Indices 1 2 3 4 5 6 
#
# 1 64.1311 16.6974 0.0987 0.0000 -1.0449 0.0000
# 2 16.6974 154.4046 38.9040 0.0000 -4.4340 0.0000
# 3 0.0987 38.9040 141.6934 0.0000 -0.0212 0.0000
# 4 0.0000 0.0000 0.0000 44.2601 0.0000 8.9473
# 5 -1.0449 -4.4340 -0.0212 0.0000 41.8904 0.0000
# 6 0.0000 0.0000 0.0000 8.9473 0.0000 58.5326
#
#
#
# Elastic Compliance Matrix: (Units=1/GPa)
#
#
# Indices 1 2 3 4 5 6 
#
# 1 0.016080 -0.001859 0.000499 0.000000 0.000205 0.000000
# 2 -0.001859 0.007195 -0.001974 0.000000 0.000714 0.000000
# 3 0.000499 -0.001974 0.007599 0.000000 -0.000193 0.000000
# 4 0.000000 0.000000 0.000000 0.023314 0.000000 -0.003564
# 5 0.000205 0.000714 -0.000193 0.000000 0.023952 0.000000
# 6 0.000000 0.000000 0.000000 -0.003564 0.000000 0.017629
#
#
# Mechanical properties :
#
#
# Convention : Reuss Voigt Hill
#
# Bulk Modulus (GPa) = 41.31103 52.40324 46.85714
# Shear Modulus (GPa) = 45.24623 49.23855 47.24239
#
# Velocity S-wave (km/s) = 4.04578 4.22049 4.13406
# Velocity P-wave (km/s) = 6.06375 6.53510 6.30383
#
# Compressibility (1/GPa) = 0.02420661
#
# Stress axis : x y z
#
# Youngs Moduli (GPa) = 62.19068 138.97713 131.59343
#
# Poissons Ratio (x) = 0.25832 -0.06569
# Poissons Ratio (y) = 0.11560 0.25979
# Poissons Ratio (z) = -0.03104 0.27437
#
# Static dielectric constant tensor:
#      x y z
#    x 2.213410 0.000000 -0.113320 
#    y 0.000000 2.404750 0.000000 
#    z -0.113320 0.000000 2.194510 
# 
# From -- ./inp_files/73141.got.cif
#   From: 2010.05.17/outbox.cif.g08.bks.cpg/sg14_37_cif.got.tgz:73141.got - 2010.06.03 17:49:19.
