data_PCOD9250844
_publ_section_title
;
Structure prediction by ZEFSAII (Michael W. Deem and Ramdas Pophale) SiO2 
 PCOD9250844
Probable space group: P 21/C
;
_chemical_formula_sum "Si O2"
_cell_formula_units_Z 28
_cell_length_a 8.440164
_cell_length_b 5.328905
_cell_length_c 23.060353
_cell_angle_alpha 90.000000
_cell_angle_beta 86.736403
_cell_angle_gamma 90.000000
_cell_volume 1035.499513
_symmetry_space_group_name_H-M "P 21/C"
_symmetry_group_IT_number 14
_symmetry_cell_setting 'monoclinic'
loop_
_space_group_symop_operation_xyz
x,y,z
-x,1/2+y,1/2-z
-x,-y,-z
x,1/2-y,1/2+z
loop_
_atom_site_type_symbol
_atom_site_label
_atom_site_fract_x
_atom_site_fract_y
_atom_site_fract_z
Si Si1 0.959599 0.753972 0.074317
Si Si2 0.473746 0.187673 0.087128
Si Si3 0.983753 0.314769 0.715387
Si Si4 0.447999 0.682573 0.675808
Si Si5 0.803126 0.245519 0.038493
Si Si6 0.651201 0.077966 0.694703
Si Si7 0.794920 0.957061 0.363182
O O1 0.063659 0.642559 0.123983
O O2 0.841219 0.524696 0.060645
O O3 0.093455 0.779267 0.021412
O O4 0.870328 0.018902 0.077402
O O5 0.614004 0.204490 0.038516
O O6 0.556009 0.267028 0.147509
O O7 0.319299 0.359648 0.082656
O O8 0.418212 0.919964 0.111523
O O9 0.124707 0.288235 0.666008
O O10 0.029313 0.094998 0.760652
O O11 0.820374 0.203588 0.694977
O O12 0.625423 0.795196 0.672988
O O13 0.415641 0.555053 0.738184
O O14 0.319263 0.908611 0.680100
#
# Coordination Sequence:
#
# PCOD9250844 Si02
#       7
#     4   4   4   4   4   4   4
#     4  10  24  48  73 100 135 170 222 284 334 408
#     4  11  25  41  68  96 132 182 225 275 338 406
#     4  12  27  41  63  95 132 177 226 276 329 394
#     4  11  23  41  61  93 134 177 226 268 335 393
#     4  10  24  47  74 101 130 177 223 270 347 410
#     4  11  23  40  62  88 133 184 219 274 322 401
#     4  11  26  42  64 101 135 174 226 286 337 393
#
# _framework density 27.040085999999999
#
# number of rings (size 3 to 8) (size 9 to 14) (size 15 to 20)
#    0.000    1.143    2.857    1.714   12.000    0.571 
#    0.000    0.714    0.000    0.000    0.000    0.000 
#    0.000    0.000    0.000    0.000    0.000    0.000 
#
# Total GULP energy -156590.669184 kJ/mol
# GULP energy per Si atom -5592.523899 kJ/mol
# Density = 2.697854 g / cm^3
# Si number density = 27.040086 Si / 1000 Ang^3
#
#
#
# Elastic Constant Matrix: (Units=GPa)
#
#
# Indices 1 2 3 4 5 6 
#
# 1 67.5188 5.0381 10.4866 0.0000 -16.5210 0.0000
# 2 5.0381 88.9022 25.9193 0.0000 -14.4700 0.0000
# 3 10.4866 25.9193 57.7807 0.0000 -27.1406 0.0000
# 4 0.0000 0.0000 0.0000 29.1088 0.0000 0.3382
# 5 -16.5210 -14.4700 -27.1406 0.0000 48.3460 0.0000
# 6 0.0000 0.0000 0.0000 0.3382 0.0000 33.7464
#
#
#
# Elastic Compliance Matrix: (Units=1/GPa)
#
#
# Indices 1 2 3 4 5 6 
#
# 1 0.016172 0.000087 -0.000497 0.000000 0.005273 0.000000
# 2 0.000087 0.012966 -0.005426 0.000000 0.000864 0.000000
# 3 -0.000497 -0.005426 0.025789 0.000000 0.012683 0.000000
# 4 0.000000 0.000000 0.000000 0.034358 0.000000 -0.000344
# 5 0.005273 0.000864 0.012683 0.000000 0.029865 0.000000
# 6 0.000000 0.000000 0.000000 -0.000344 0.000000 0.029636
#
#
# Mechanical properties :
#
#
# Convention : Reuss Voigt Hill
#
# Bulk Modulus (GPa) = 23.11941 33.00999 28.06470
# Shear Modulus (GPa) = 28.59161 33.75740 31.17451
#
# Velocity S-wave (km/s) = 3.25526 3.53713 3.39912
# Velocity P-wave (km/s) = 4.76420 5.37736 5.08004
#
# Compressibility (1/GPa) = 0.04325370
#
# Stress axis : x y z
#
# Youngs Moduli (GPa) = 61.83650 77.12455 38.77664
#
# Poissons Ratio (x) = -0.00669 0.01927
# Poissons Ratio (y) = -0.00536 0.21041
# Poissons Ratio (z) = 0.03073 0.41849
#
# Static dielectric constant tensor:
#      x y z
#    x 2.078960 0.000000 -0.015370 
#    y 0.000000 2.499640 0.000000 
#    z -0.015370 0.000000 2.185040 
# 
# From -- ./inp_files/76026.got.cif
#   From: 2010.05.17/outbox.cif.g08.bks.cpg/sg14_39_cif.got.tgz:76026.got - 2010.06.03 17:49:19.
