data_PCOD9250225
_publ_section_title
;
Structure prediction by ZEFSAII (Michael W. Deem and Ramdas Pophale) SiO2 
 PCOD9250225
Probable space group: P 21/C
;
_chemical_formula_sum "Si O2"
_cell_formula_units_Z 16
_cell_length_a 8.478340
_cell_length_b 4.633201
_cell_length_c 23.005509
_cell_angle_alpha 90.000000
_cell_angle_beta 144.183130
_cell_angle_gamma 90.000000
_cell_volume 528.841471
_symmetry_space_group_name_H-M "P 21/C"
_symmetry_group_IT_number 14
_symmetry_cell_setting 'monoclinic'
loop_
_space_group_symop_operation_xyz
x,y,z
-x,1/2+y,1/2-z
-x,-y,-z
x,1/2-y,1/2+z
loop_
_atom_site_type_symbol
_atom_site_label
_atom_site_fract_x
_atom_site_fract_y
_atom_site_fract_z
Si Si1 0.971815 0.351158 0.781133
Si Si2 0.470950 0.582148 0.144359
Si Si3 0.276360 0.721246 0.459319
Si Si4 0.807862 0.930054 0.888939
O O1 0.863215 0.621001 0.709746
O O2 0.164629 0.525194 0.883538
O O3 0.718011 0.141284 0.715840
O O4 0.364374 0.637386 0.047020
O O5 0.261172 0.398954 0.120482
O O6 0.455145 0.871720 0.179027
O O7 0.500000 0.500000 0.500000
O O8 0.005504 0.539066 0.393509
O O9 0.000000 0.000000 0.000000
#
# Coordination Sequence:
#
# PCOD9250225 Si02
#       4
#     4   4   4   4
#     4  12  31  53  85 137 190 237 309 389 468 543
#     4  11  26  56  88 128 180 231 308 387 446 559
#     4  11  28  56 101 133 179 253 309 375 478 556
#     4  10  23  51  90 126 168 233 303 372 458 545
#
# _framework density 30.254812000000001
#
# number of rings (size 3 to 8) (size 9 to 14) (size 15 to 20)
#    0.000    1.000    0.000    4.500   10.500    8.000 
#    4.500    7.500   16.500    0.000    0.000    0.000 
#    0.000    0.000    0.000    0.000    0.000    0.000 
#
# Total GULP energy -89568.534779 kJ/mol
# GULP energy per Si atom -5598.033424 kJ/mol
# Density = 3.018595 g / cm^3
# Si number density = 30.254812 Si / 1000 Ang^3
#
#
#
# Elastic Constant Matrix: (Units=GPa)
#
#
# Indices 1 2 3 4 5 6 
#
# 1 227.7452 114.8488 90.1781 0.0000 15.5538 0.0000
# 2 114.8488 257.8008 98.6163 0.0000 8.7031 0.0000
# 3 90.1781 98.6163 238.5560 0.0000 -40.7042 0.0000
# 4 0.0000 0.0000 0.0000 54.7135 0.0000 16.5861
# 5 15.5538 8.7031 -40.7042 0.0000 42.1794 0.0000
# 6 0.0000 0.0000 0.0000 16.5861 0.0000 89.6755
#
#
#
# Elastic Compliance Matrix: (Units=1/GPa)
#
#
# Indices 1 2 3 4 5 6 
#
# 1 0.006615 -0.001838 -0.002505 0.000000 -0.004478 0.000000
# 2 -0.001838 0.005547 -0.002009 0.000000 -0.002406 0.000000
# 3 -0.002505 -0.002009 0.007419 0.000000 0.008498 0.000000
# 4 0.000000 0.000000 0.000000 0.019363 0.000000 -0.003581
# 5 -0.004478 -0.002406 0.008498 0.000000 0.034057 0.000000
# 6 0.000000 0.000000 0.000000 -0.003581 0.000000 0.011814
#
#
# Mechanical properties :
#
#
# Convention : Reuss Voigt Hill
#
# Bulk Modulus (GPa) = 145.37946 147.93205 146.65576
# Shear Modulus (GPa) = 50.09453 65.34426 57.71939
#
# Velocity S-wave (km/s) = 4.07351 4.65240 4.37255
# Velocity P-wave (km/s) = 8.38336 8.82391 8.60645
#
# Compressibility (1/GPa) = 0.00687855
#
# Stress axis : x y z
#
# Youngs Moduli (GPa) = 151.16549 180.26587 134.78271
#
# Poissons Ratio (x) = 0.33127 0.33763
# Poissons Ratio (y) = 0.27779 0.27078
# Poissons Ratio (z) = 0.37867 0.36216
#
# Static dielectric constant tensor:
#      x y z
#    x 3.209450 0.000000 -0.582210 
#    y 0.000000 2.444610 0.000000 
#    z -0.582210 0.000000 3.143220 
# 
# From -- ./inp_files/71568.got.cif
#   From: 2010.05.17/outbox.cif.g08.bks.cpg/sg14_36_cif.got.tgz:71568.got - 2010.06.03 17:49:19.
