data_PCOD9250093
_publ_section_title
;
Structure prediction by ZEFSAII (Michael W. Deem and Ramdas Pophale) SiO2 
 PCOD9250093
Probable space group: P 21/C
;
_chemical_formula_sum "Si O2"
_cell_formula_units_Z 20
_cell_length_a 8.815978
_cell_length_b 15.842194
_cell_length_c 8.296002
_cell_angle_alpha 90.000000
_cell_angle_beta 47.070626
_cell_angle_gamma 90.000000
_cell_volume 848.361066
_symmetry_space_group_name_H-M "P 21/C"
_symmetry_group_IT_number 14
_symmetry_cell_setting 'monoclinic'
loop_
_space_group_symop_operation_xyz
x,y,z
-x,1/2+y,1/2-z
-x,-y,-z
x,1/2-y,1/2+z
loop_
_atom_site_type_symbol
_atom_site_label
_atom_site_fract_x
_atom_site_fract_y
_atom_site_fract_z
Si Si1 0.814853 0.936693 0.171916
Si Si2 0.908041 0.701370 0.378048
Si Si3 0.347653 0.780630 0.037244
Si Si4 0.589487 0.844387 0.570007
Si Si5 0.560906 0.581707 0.556694
O O1 0.712805 0.926558 0.420542
O O2 0.623665 0.950013 0.188073
O O3 0.915027 0.847944 0.042561
O O4 0.000000 0.000000 0.000000
O O5 0.763042 0.780867 0.505737
O O6 0.776628 0.634364 0.362259
O O7 0.127777 0.737575 0.170940
O O8 0.419491 0.836922 0.832879
O O9 0.491604 0.701332 0.983464
O O10 0.383980 0.847191 0.158678
O O11 0.500000 0.500000 0.500000
#
# Coordination Sequence:
#
# PCOD9250093 Si02
#       5
#     4   4   4   4   4
#     4  10  23  46  71 106 150 192 240 302 382 443
#     4   9  23  39  72 102 137 191 242 297 371 426
#     4  11  22  40  73 100 142 193 247 307 361 443
#     4  11  22  43  67 105 141 186 256 303 357 444
#     4   9  22  44  69 107 149 189 242 304 374 446
#
# _framework density 23.574869
#
# number of rings (size 3 to 8) (size 9 to 14) (size 15 to 20)
#    1.200    0.800    2.000    0.000    5.600    0.000 
#    0.000    9.000    0.000    0.000    0.000    0.000 
#    0.000    0.000    0.000    0.000    0.000    0.000 
#
# Total GULP energy -111368.329526 kJ/mol
# GULP energy per Si atom -5568.416476 kJ/mol
# Density = 2.352121 g / cm^3
# Si number density = 23.574869 Si / 1000 Ang^3
#
#
#
# Elastic Constant Matrix: (Units=GPa)
#
#
# Indices 1 2 3 4 5 6 
#
# 1 80.7368 46.8252 45.2532 0.0000 -14.2819 0.0000
# 2 46.8252 78.5926 36.4354 0.0000 -25.3107 0.0000
# 3 45.2532 36.4354 121.3879 0.0000 -15.1793 0.0000
# 4 0.0000 0.0000 0.0000 45.4498 0.0000 -9.4320
# 5 -14.2819 -25.3107 -15.1793 0.0000 34.9019 0.0000
# 6 0.0000 0.0000 0.0000 -9.4320 0.0000 53.8423
#
#
#
# Elastic Compliance Matrix: (Units=1/GPa)
#
#
# Indices 1 2 3 4 5 6 
#
# 1 0.021079 -0.010739 -0.004791 0.000000 -0.001246 0.000000
# 2 -0.010739 0.023785 -0.001616 0.000000 0.012151 0.000000
# 3 -0.004791 -0.001616 0.010699 0.000000 0.001521 0.000000
# 4 0.000000 0.000000 0.000000 0.022832 0.000000 0.004000
# 5 -0.001246 0.012151 0.001521 0.000000 0.037615 0.000000
# 6 0.000000 0.000000 0.000000 0.004000 0.000000 0.019273
#
#
# Mechanical properties :
#
#
# Convention : Reuss Voigt Hill
#
# Bulk Modulus (GPa) = 47.01176 59.74946 53.38061
# Shear Modulus (GPa) = 28.30188 36.98568 32.64378
#
# Velocity S-wave (km/s) = 3.46860 3.96518 3.72517
# Velocity P-wave (km/s) = 6.00219 6.80905 6.41831
#
# Compressibility (1/GPa) = 0.02127127
#
# Stress axis : x y z
#
# Youngs Moduli (GPa) = 47.44026 42.04375 93.46434
#
# Poissons Ratio (x) = 0.45152 0.44775
# Poissons Ratio (y) = 0.50947 0.15105
# Poissons Ratio (z) = 0.22727 0.06795
#
# Static dielectric constant tensor:
#      x y z
#    x 1.964320 0.000000 0.049500 
#    y 0.000000 1.949440 0.000000 
#    z 0.049500 0.000000 1.997920 
# 
# From -- ./inp_files/9319.got.cif
#   From: 2010.05.17/outbox.cif.g08.bks.cpg/sg14_5_cif.got.tgz:9319.got - 2010.06.03 17:49:19.
