data_PCOD9250672
_publ_section_title
;
Structure prediction by ZEFSAII (Michael W. Deem and Ramdas Pophale) SiO2 
 PCOD9250672
Probable space group: P 21/C
;
_chemical_formula_sum "Si O2"
_cell_formula_units_Z 20
_cell_length_a 8.764097
_cell_length_b 6.523455
_cell_length_c 18.511552
_cell_angle_alpha 90.000000
_cell_angle_beta 135.570243
_cell_angle_gamma 90.000000
_cell_volume 740.878524
_symmetry_space_group_name_H-M "P 21/C"
_symmetry_group_IT_number 14
_symmetry_cell_setting 'monoclinic'
loop_
_space_group_symop_operation_xyz
x,y,z
-x,1/2+y,1/2-z
-x,-y,-z
x,1/2-y,1/2+z
loop_
_atom_site_type_symbol
_atom_site_label
_atom_site_fract_x
_atom_site_fract_y
_atom_site_fract_z
Si Si1 0.141929 0.197058 0.074468
Si Si2 0.987306 0.125859 0.798251
Si Si3 0.840803 0.536459 0.046165
Si Si4 0.657652 0.146904 0.008207
Si Si5 0.685435 0.707225 0.211375
O O1 0.254444 0.298758 0.042321
O O2 0.300475 0.191521 0.197145
O O3 0.967550 0.364980 0.043166
O O4 0.000000 0.000000 0.000000
O O5 0.129384 0.174148 0.774845
O O6 0.001237 0.330413 0.850370
O O7 0.750914 0.025929 0.711039
O O8 0.116360 0.959669 0.891571
O O9 0.683592 0.386218 0.036798
O O10 0.535815 0.181984 0.889765
O O11 0.500000 0.000000 0.000000
#
# Coordination Sequence:
#
# PCOD9250672 Si02
#       5
#     4   4   4   4   4
#     4  11  22  44  70  97 146 191 243 305 380 457
#     4  11  23  46  70 102 150 183 259 310 376 452
#     4  11  22  44  68  99 142 197 234 315 376 439
#     4  10  24  45  68 106 146 185 252 316 369 445
#     4  11  23  43  70 103 136 200 241 306 380 450
#
# _framework density 26.994982
#
# number of rings (size 3 to 8) (size 9 to 14) (size 15 to 20)
#    0.000    1.200    4.000    1.200    0.000    3.200 
#   14.400    0.000    0.000    0.000    0.000    0.000 
#    0.000    0.000    0.000    0.000    0.000    0.000 
#
# Total GULP energy -111446.443492 kJ/mol
# GULP energy per Si atom -5572.322175 kJ/mol
# Density = 2.693354 g / cm^3
# Si number density = 26.994982 Si / 1000 Ang^3
#
#
#
# Elastic Constant Matrix: (Units=GPa)
#
#
# Indices 1 2 3 4 5 6 
#
# 1 50.5690 44.8928 32.7033 0.0000 -12.9859 0.0000
# 2 44.8928 209.8260 83.6785 0.0000 -22.7747 0.0000
# 3 32.7033 83.6785 189.3850 0.0000 -39.2820 0.0000
# 4 0.0000 0.0000 0.0000 73.9447 0.0000 -8.6619
# 5 -12.9859 -22.7747 -39.2820 0.0000 48.2756 0.0000
# 6 0.0000 0.0000 0.0000 -8.6619 0.0000 46.9754
#
#
#
# Elastic Compliance Matrix: (Units=1/GPa)
#
#
# Indices 1 2 3 4 5 6 
#
# 1 0.025726 -0.004425 -0.001786 0.000000 0.003379 0.000000
# 2 -0.004425 0.006571 -0.002097 0.000000 0.000203 0.000000
# 3 -0.001786 -0.002097 0.007471 0.000000 0.004610 0.000000
# 4 0.000000 0.000000 0.000000 0.013822 0.000000 0.002549
# 5 0.003379 0.000203 0.004610 0.000000 0.025470 0.000000
# 6 0.000000 0.000000 0.000000 0.002549 0.000000 0.021758
#
#
# Mechanical properties :
#
#
# Convention : Reuss Voigt Hill
#
# Bulk Modulus (GPa) = 43.19337 85.81437 64.50387
# Shear Modulus (GPa) = 39.95111 53.07282 46.51197
#
# Velocity S-wave (km/s) = 3.85118 4.43880 4.15539
# Velocity P-wave (km/s) = 5.98420 7.62421 6.85344
#
# Compressibility (1/GPa) = 0.02315170
#
# Stress axis : x y z
#
# Youngs Moduli (GPa) = 38.87075 152.18463 133.84303
#
# Poissons Ratio (x) = 0.67342 0.23910
# Poissons Ratio (y) = 0.17200 0.28068
# Poissons Ratio (z) = 0.06944 0.31914
#
# Static dielectric constant tensor:
#      x y z
#    x 2.322150 0.000000 -0.030660 
#    y 0.000000 2.152390 0.000000 
#    z -0.030660 0.000000 2.206630 
# 
# From -- ./inp_files/66375.got.cif
#   From: 2010.05.17/outbox.cif.g08.bks.cpg/sg14_34_cif.got.tgz:66375.got - 2010.06.03 17:49:19.
