data_PCOD9250218
_publ_section_title
;
Structure prediction by ZEFSAII (Michael W. Deem and Ramdas Pophale) SiO2 
 PCOD9250218
Probable space group: P 21/C
;
_chemical_formula_sum "Si O2"
_cell_formula_units_Z 18
_cell_length_a 7.218916
_cell_length_b 7.090434
_cell_length_c 14.074322
_cell_angle_alpha 90.000000
_cell_angle_beta 120.983189
_cell_angle_gamma 90.000000
_cell_volume 617.610150
_symmetry_space_group_name_H-M "P 21/C"
_symmetry_group_IT_number 14
_symmetry_cell_setting 'monoclinic'
loop_
_space_group_symop_operation_xyz
x,y,z
-x,1/2+y,1/2-z
-x,-y,-z
x,1/2-y,1/2+z
loop_
_atom_site_type_symbol
_atom_site_label
_atom_site_fract_x
_atom_site_fract_y
_atom_site_fract_z
Si Si1 0.199400 0.721095 0.215458
Si Si2 0.641643 0.878607 0.756333
Si Si3 0.262195 0.747265 0.429699
Si Si4 0.000000 0.500000 0.500000
Si Si5 0.255808 0.302702 0.921722
O O1 0.386155 0.614428 0.211146
O O2 0.146367 0.652376 0.307144
O O3 0.974730 0.783760 0.105082
O O4 0.317077 0.912956 0.269889
O O5 0.702106 0.759073 0.679224
O O6 0.810916 0.866905 0.886303
O O7 0.195872 0.627415 0.502809
O O8 0.518671 0.736185 0.477899
O O9 0.217576 0.972579 0.431107
#
# Coordination Sequence:
#
# PCOD9250218 Si02
#       5
#     4   4   4   2   4
#     4  11  25  46  74 103 147 193 239 306 363 446
#     4  11  26  42  70 108 140 189 245 299 367 433
#     4  10  24  45  75 108 144 195 250 301 371 442
#     4  12  24  42  70 114 144 188 248 312 360 442
#     4  10  23  50  71 102 152 198 242 301 375 445
#
# _framework density 29.144601000000002
#
# number of rings (size 3 to 8) (size 9 to 14) (size 15 to 20)
#    0.000    1.333    2.222    1.333    6.222    4.444 
#    0.000    4.444    0.000    0.000    0.000    0.000 
#    0.000    0.000    0.000    0.000    0.000    0.000 
#
# Total GULP energy -100402.352304 kJ/mol
# GULP energy per Si atom -5577.908461 kJ/mol
# Density = 2.907827 g / cm^3
# Si number density = 29.144601 Si / 1000 Ang^3
#
#
#
# Elastic Constant Matrix: (Units=GPa)
#
#
# Indices 1 2 3 4 5 6 
#
# 1 178.0558 15.3777 58.0305 0.0000 49.3311 0.0000
# 2 15.3777 96.9764 -17.3384 0.0000 14.3662 0.0000
# 3 58.0305 -17.3384 202.5566 0.0000 20.2467 0.0000
# 4 0.0000 0.0000 0.0000 20.0839 0.0000 16.3882
# 5 49.3311 14.3662 20.2467 0.0000 65.2923 0.0000
# 6 0.0000 0.0000 0.0000 16.3882 0.0000 37.0391
#
#
#
# Elastic Compliance Matrix: (Units=1/GPa)
#
#
# Indices 1 2 3 4 5 6 
#
# 1 0.007660 -0.000777 -0.001754 0.000000 -0.005073 0.000000
# 2 -0.000777 0.011020 0.001393 0.000000 -0.002270 0.000000
# 3 -0.001754 0.001393 0.005631 0.000000 -0.000727 0.000000
# 4 0.000000 0.000000 0.000000 0.077926 0.000000 -0.034479
# 5 -0.005073 -0.002270 -0.000727 0.000000 0.019874 0.000000
# 6 0.000000 0.000000 0.000000 -0.034479 0.000000 0.042254
#
#
# Mechanical properties :
#
#
# Convention : Reuss Voigt Hill
#
# Bulk Modulus (GPa) = 45.38096 65.52539 55.45318
# Shear Modulus (GPa) = 28.73784 52.58430 40.66107
#
# Velocity S-wave (km/s) = 3.14354 4.25226 3.73922
# Velocity P-wave (km/s) = 5.36475 6.82939 6.14090
#
# Compressibility (1/GPa) = 0.02203567
#
# Stress axis : x y z
#
# Youngs Moduli (GPa) = 130.54038 90.74229 177.57761
#
# Poissons Ratio (x) = 0.07049 0.31148
# Poissons Ratio (y) = 0.10141 -0.24732
# Poissons Ratio (z) = 0.22898 -0.12638
#
# Static dielectric constant tensor:
#      x y z
#    x 2.224750 0.000000 -0.007390 
#    y 0.000000 2.079840 0.000000 
#    z -0.007390 0.000000 2.262080 
# 
# From -- ./inp_files/36711.got.cif
#   From: 2010.05.17/outbox.cif.g08.bks.cpg/sg14_19_cif.got.tgz:36711.got - 2010.06.03 17:49:19.
