data_PCOD9250228
_publ_section_title
;
Structure prediction by ZEFSAII (Michael W. Deem and Ramdas Pophale) SiO2 
 PCOD9250228
Probable space group: P 21/C
;
_chemical_formula_sum "Si O2"
_cell_formula_units_Z 28
_cell_length_a 14.639135
_cell_length_b 16.853774
_cell_length_c 9.210356
_cell_angle_alpha 90.000000
_cell_angle_beta 41.761898
_cell_angle_gamma 90.000000
_cell_volume 1513.516218
_symmetry_space_group_name_H-M "P 21/C"
_symmetry_group_IT_number 14
_symmetry_cell_setting 'monoclinic'
loop_
_space_group_symop_operation_xyz
x,y,z
-x,1/2+y,1/2-z
-x,-y,-z
x,1/2-y,1/2+z
loop_
_atom_site_type_symbol
_atom_site_label
_atom_site_fract_x
_atom_site_fract_y
_atom_site_fract_z
Si Si1 0.641351 0.990971 0.242981
Si Si2 0.145483 0.489642 0.247712
Si Si3 0.899849 0.149962 0.321071
Si Si4 0.754386 0.244495 0.237328
Si Si5 0.602777 0.347175 0.661119
Si Si6 0.279466 0.171701 0.551773
Si Si7 0.776520 0.667449 0.547672
O O1 0.676713 0.906412 0.127827
O O2 0.500000 0.000000 0.500000
O O3 0.750457 0.999498 0.242537
O O4 0.650812 0.062134 0.118108
O O5 0.159104 0.561078 0.118161
O O6 0.181313 0.404019 0.136731
O O7 0.000000 0.500000 0.500000
O O8 0.852453 0.191328 0.225139
O O9 0.840560 0.201531 0.523490
O O10 0.063538 0.144176 0.142840
O O11 0.669626 0.298900 0.449880
O O12 0.653571 0.193348 0.252606
O O13 0.439050 0.347426 0.837671
O O14 0.262179 0.186273 0.742097
O O15 0.241829 0.252618 0.518674
#
# Coordination Sequence:
#
# PCOD9250228 Si02
#       7
#     4   4   4   4   4   4   4
#     4  11  21  38  64  90 122 168 208 254 314 382
#     4  11  21  38  64  90 122 168 208 254 314 382
#     4  11  21  41  60  94 122 168 213 257 318 377
#     4  10  24  36  66  88 132 164 208 266 316 374
#     4  11  21  41  60  94 122 168 213 257 318 377
#     4  11  23  40  65  91 125 165 214 261 315 375
#     4  11  23  40  65  91 125 165 214 261 315 375
#
# _framework density 18.499969
#
# number of rings (size 3 to 8) (size 9 to 14) (size 15 to 20)
#    0.000    1.143    7.143    1.714    0.000    0.000 
#    2.571    1.429    0.000    0.000    0.000    0.000 
#    0.000    0.000    0.000    0.000    0.000    0.000 
#
# Total GULP energy -156196.196103 kJ/mol
# GULP energy per Si atom -5578.435575 kJ/mol
# Density = 1.845786 g / cm^3
# Si number density = 18.499969 Si / 1000 Ang^3
#
#
#
# Elastic Constant Matrix: (Units=GPa)
#
#
# Indices 1 2 3 4 5 6 
#
# 1 59.1111 40.8599 25.3389 0.0000 -13.1766 0.0000
# 2 40.8599 147.3351 32.4123 0.0000 -2.4565 0.0000
# 3 25.3389 32.4123 73.3773 0.0000 -14.3150 0.0000
# 4 0.0000 0.0000 0.0000 33.9727 0.0000 -2.2636
# 5 -13.1766 -2.4565 -14.3150 0.0000 37.8431 0.0000
# 6 0.0000 0.0000 0.0000 -2.2636 0.0000 10.2533
#
#
#
# Elastic Compliance Matrix: (Units=1/GPa)
#
#
# Indices 1 2 3 4 5 6 
#
# 1 0.024168 -0.005573 -0.004657 0.000000 0.006292 0.000000
# 2 -0.005573 0.008827 -0.002420 0.000000 -0.002283 0.000000
# 3 -0.004657 -0.002420 0.017230 0.000000 0.004739 0.000000
# 4 0.000000 0.000000 0.000000 0.029875 0.000000 0.006595
# 5 0.006292 -0.002283 0.004739 0.000000 0.030260 0.000000
# 6 0.000000 0.000000 0.000000 0.006595 0.000000 0.098985
#
#
# Mechanical properties :
#
#
# Convention : Reuss Voigt Hill
#
# Bulk Modulus (GPa) = 40.11927 53.00508 46.56218
# Shear Modulus (GPa) = 20.58006 28.49466 24.53736
#
# Velocity S-wave (km/s) = 3.33894 3.92887 3.64585
# Velocity P-wave (km/s) = 6.04962 7.02104 6.55335
#
# Compressibility (1/GPa) = 0.02492568
#
# Stress axis : x y z
#
# Youngs Moduli (GPa) = 41.37636 113.28687 58.03929
#
# Poissons Ratio (x) = 0.63137 0.27027
# Poissons Ratio (y) = 0.23060 0.14045
# Poissons Ratio (z) = 0.19267 0.27415
#
# Static dielectric constant tensor:
#      x y z
#    x 1.649180 0.000000 -0.001140 
#    y 0.000000 1.702910 0.000000 
#    z -0.001140 0.000000 1.457980 
# 
# From -- ./inp_files/16640.got.cif
#   From: 2010.05.17/outbox.cif.g08.bks.cpg/sg14_9_cif.got.tgz:16640.got - 2010.06.03 17:49:19.
