data_PCOD9250367
_publ_section_title
;
Structure prediction by ZEFSAII (Michael W. Deem and Ramdas Pophale) SiO2 
 PCOD9250367
Probable space group: P 21/C
;
_chemical_formula_sum "Si O2"
_cell_formula_units_Z 20
_cell_length_a 18.272055
_cell_length_b 10.063523
_cell_length_c 13.417025
_cell_angle_alpha 90.000000
_cell_angle_beta 158.792984
_cell_angle_gamma 90.000000
_cell_volume 892.459833
_symmetry_space_group_name_H-M "P 21/C"
_symmetry_group_IT_number 14
_symmetry_cell_setting 'monoclinic'
loop_
_space_group_symop_operation_xyz
x,y,z
-x,1/2+y,1/2-z
-x,-y,-z
x,1/2-y,1/2+z
loop_
_atom_site_type_symbol
_atom_site_label
_atom_site_fract_x
_atom_site_fract_y
_atom_site_fract_z
Si Si1 0.321785 0.329429 0.158822
Si Si2 0.582294 0.966615 0.713941
Si Si3 0.192888 0.446316 0.803470
Si Si4 0.183781 0.333496 0.198521
Si Si5 0.744226 0.400039 0.592301
O O1 0.294255 0.170178 0.128625
O O2 0.293665 0.374729 0.236185
O O3 0.545465 0.352495 0.398163
O O4 0.174102 0.407335 0.895484
O O5 0.500000 0.000000 0.500000
O O6 0.380314 0.954702 0.525570
O O7 0.703856 0.083735 0.923372
O O8 0.256518 0.306471 0.833330
O O9 0.000000 0.500000 0.500000
O O10 0.213205 0.450309 0.314790
O O11 0.945509 0.319389 0.871988
#
# Coordination Sequence:
#
# PCOD9250367 Si02
#       5
#     4   4   4   4   4
#     4  11  23  42  66  95 129 170 218 266 332 387
#     4  11  22  41  66  91 132 168 214 268 327 380
#     4  11  24  41  65  98 130 170 223 268 321 396
#     4  11  22  43  66  90 134 168 216 272 326 382
#     4  10  24  42  62  96 127 170 215 273 319 392
#
# _framework density 22.409972
#
# number of rings (size 3 to 8) (size 9 to 14) (size 15 to 20)
#    0.000    1.200    4.000    1.800    2.800    0.000 
#    0.000    0.000    0.000    0.000    0.000    0.000 
#    0.000    0.000    0.000    0.000    0.000    0.000 
#
# Total GULP energy -111751.983336 kJ/mol
# GULP energy per Si atom -5587.599167 kJ/mol
# Density = 2.235897 g / cm^3
# Si number density = 22.409972 Si / 1000 Ang^3
#
#
#
# Elastic Constant Matrix: (Units=GPa)
#
#
# Indices 1 2 3 4 5 6 
#
# 1 92.4216 -1.4530 6.6934 0.0000 -25.0854 0.0000
# 2 -1.4530 50.1599 4.0794 0.0000 -9.1701 0.0000
# 3 6.6934 4.0794 74.2016 0.0000 -6.9768 0.0000
# 4 0.0000 0.0000 0.0000 34.8349 0.0000 -5.5882
# 5 -25.0854 -9.1701 -6.9768 0.0000 40.0452 0.0000
# 6 0.0000 0.0000 0.0000 -5.5882 0.0000 26.5314
#
#
#
# Elastic Compliance Matrix: (Units=1/GPa)
#
#
# Indices 1 2 3 4 5 6 
#
# 1 0.013240 0.002008 -0.000490 0.000000 0.008668 0.000000
# 2 0.002008 0.021148 -0.000783 0.000000 0.005964 0.000000
# 3 -0.000490 -0.000783 0.013743 0.000000 0.001908 0.000000
# 4 0.000000 0.000000 0.000000 0.029711 0.000000 0.006258
# 5 0.008668 0.005964 0.001908 0.000000 0.032100 0.000000
# 6 0.000000 0.000000 0.000000 0.006258 0.000000 0.039009
#
#
# Mechanical properties :
#
#
# Convention : Reuss Voigt Hill
#
# Bulk Modulus (GPa) = 20.16027 26.15805 23.15916
# Shear Modulus (GPa) = 30.48498 34.11318 32.29908
#
# Velocity S-wave (km/s) = 3.69227 3.90581 3.80054
# Velocity P-wave (km/s) = 5.21467 5.66024 5.44202
#
# Compressibility (1/GPa) = 0.04960252
#
# Stress axis : x y z
#
# Youngs Moduli (GPa) = 75.52985 47.28470 72.76188
#
# Poissons Ratio (x) = -0.09495 0.03563
# Poissons Ratio (y) = -0.15167 0.05697
# Poissons Ratio (z) = 0.03698 0.03702
#
# Static dielectric constant tensor:
#      x y z
#    x 1.842590 0.000000 0.007650 
#    y 0.000000 1.851610 0.000000 
#    z 0.007650 0.000000 1.877080 
# 
# From -- ./inp_files/23762.got.cif
#   From: 2010.05.17/outbox.cif.g08.bks.cpg/sg14_12_cif.got.tgz:23762.got - 2010.06.03 17:49:19.
