data_PCOD9250667
_publ_section_title
;
Structure prediction by ZEFSAII (Michael W. Deem and Ramdas Pophale) SiO2 
 PCOD9250667
Probable space group: P 21/C
;
_chemical_formula_sum "Si O2"
_cell_formula_units_Z 16
_cell_length_a 15.659919
_cell_length_b 7.825415
_cell_length_c 9.875963
_cell_angle_alpha 90.000000
_cell_angle_beta 27.015644
_cell_angle_gamma 90.000000
_cell_volume 549.737997
_symmetry_space_group_name_H-M "P 21/C"
_symmetry_group_IT_number 14
_symmetry_cell_setting 'monoclinic'
loop_
_space_group_symop_operation_xyz
x,y,z
-x,1/2+y,1/2-z
-x,-y,-z
x,1/2-y,1/2+z
loop_
_atom_site_type_symbol
_atom_site_label
_atom_site_fract_x
_atom_site_fract_y
_atom_site_fract_z
Si Si1 0.637135 0.291923 0.668337
Si Si2 0.812293 0.611711 0.520292
Si Si3 0.990008 0.264123 0.494490
Si Si4 0.662796 0.916568 0.606750
O O1 0.739197 0.418562 0.629119
O O2 0.611284 0.095307 0.745192
O O3 0.456843 0.386299 0.860237
O O4 0.778334 0.265270 0.339847
O O5 0.951416 0.616144 0.193444
O O6 0.902207 0.717084 0.515173
O O7 0.643677 0.737597 0.711726
O O8 0.110362 0.416066 0.245809
#
# Coordination Sequence:
#
# PCOD9250667 Si02
#       4
#     4   4   4   4
#     4  12  22  47  73 101 146 183 230 294 344 419
#     4  10  25  47  68 105 141 181 236 281 352 410
#     4  10  25  47  71 105 140 182 236 287 348 415
#     4  10  24  45  67 108 136 187 231 283 350 414
#
# _framework density 29.104775
#
# number of rings (size 3 to 8) (size 9 to 14) (size 15 to 20)
#    1.500    0.000    2.500    1.500    3.500    1.000 
#    9.000    2.500    0.000    0.000    0.000    0.000 
#    0.000    0.000    0.000    0.000    0.000    0.000 
#
# Total GULP energy -89427.559202 kJ/mol
# GULP energy per Si atom -5589.222450 kJ/mol
# Density = 2.903853 g / cm^3
# Si number density = 29.104775 Si / 1000 Ang^3
#
#
#
# Elastic Constant Matrix: (Units=GPa)
#
#
# Indices 1 2 3 4 5 6 
#
# 1 120.8078 20.2455 6.5089 0.0000 13.0045 0.0000
# 2 20.2455 189.3680 39.5886 0.0000 15.2847 0.0000
# 3 6.5089 39.5886 149.5681 0.0000 -1.2383 0.0000
# 4 0.0000 0.0000 0.0000 55.7979 0.0000 3.8359
# 5 13.0045 15.2847 -1.2383 0.0000 50.9683 0.0000
# 6 0.0000 0.0000 0.0000 3.8359 0.0000 48.7219
#
#
#
# Elastic Compliance Matrix: (Units=1/GPa)
#
#
# Indices 1 2 3 4 5 6 
#
# 1 0.008623 -0.000719 -0.000201 0.000000 -0.001989 0.000000
# 2 -0.000719 0.005804 -0.001518 0.000000 -0.001594 0.000000
# 3 -0.000201 -0.001518 0.007102 0.000000 0.000679 0.000000
# 4 0.000000 0.000000 0.000000 0.018019 0.000000 -0.001419
# 5 -0.001989 -0.001594 0.000679 0.000000 0.020622 0.000000
# 6 0.000000 0.000000 0.000000 -0.001419 0.000000 0.020636
#
#
# Mechanical properties :
#
#
# Convention : Reuss Voigt Hill
#
# Bulk Modulus (GPa) = 60.05430 65.82556 62.93993
# Shear Modulus (GPa) = 54.80385 57.32434 56.06409
#
# Velocity S-wave (km/s) = 4.34405 4.44282 4.39371
# Velocity P-wave (km/s) = 6.77049 6.99886 6.88562
#
# Compressibility (1/GPa) = 0.01665160
#
# Stress axis : x y z
#
# Youngs Moduli (GPa) = 115.96694 172.30641 140.80335
#
# Poissons Ratio (x) = 0.12393 0.02835
# Poissons Ratio (y) = 0.08341 0.21374
# Poissons Ratio (z) = 0.02335 0.26157
#
# Static dielectric constant tensor:
#      x y z
#    x 2.190720 0.000000 0.119420 
#    y 0.000000 2.367410 0.000000 
#    z 0.119420 0.000000 2.411320 
# 
# From -- ./inp_files/33514.got.cif
#   From: 2010.05.17/outbox.cif.g08.bks.cpg/sg14_17_cif.got.tgz:33514.got - 2010.06.03 17:49:19.
