data_PCOD9250350
_publ_section_title
;
Structure prediction by ZEFSAII (Michael W. Deem and Ramdas Pophale) SiO2 
 PCOD9250350
Probable space group: P 21/C
;
_chemical_formula_sum "Si O2"
_cell_formula_units_Z 30
_cell_length_a 14.547776
_cell_length_b 8.734522
_cell_length_c 12.481770
_cell_angle_alpha 90.000000
_cell_angle_beta 57.909708
_cell_angle_gamma 90.000000
_cell_volume 1343.705193
_symmetry_space_group_name_H-M "P 21/C"
_symmetry_group_IT_number 14
_symmetry_cell_setting 'monoclinic'
loop_
_space_group_symop_operation_xyz
x,y,z
-x,1/2+y,1/2-z
-x,-y,-z
x,1/2-y,1/2+z
loop_
_atom_site_type_symbol
_atom_site_label
_atom_site_fract_x
_atom_site_fract_y
_atom_site_fract_z
Si Si1 0.283723 0.337062 0.236678
Si Si2 0.500000 0.500000 0.500000
Si Si3 0.573612 0.473999 0.694330
Si Si4 0.066230 0.983752 0.848846
Si Si5 0.264748 0.697149 0.945672
Si Si6 0.919583 0.319354 0.292069
Si Si7 0.590750 0.947753 0.528666
Si Si8 0.747269 0.493531 0.262827
O O1 0.372462 0.391900 0.268083
O O2 0.189719 0.463867 0.292543
O O3 0.241320 0.168088 0.284044
O O4 0.339280 0.330245 0.084234
O O5 0.525315 0.523099 0.611899
O O6 0.631859 0.474856 0.393187
O O7 0.663697 0.346424 0.618898
O O8 0.476734 0.401524 0.825626
O O9 0.054979 0.813016 0.809271
O O10 0.019347 0.098528 0.787734
O O11 0.000000 0.000000 0.000000
O O12 0.332641 0.586504 0.982714
O O13 0.248505 0.613664 0.843483
O O14 0.153014 0.740542 0.071023
O O15 0.843381 0.445020 0.282545
O O16 0.500000 0.000000 0.500000
#
# Coordination Sequence:
#
# PCOD9250350 Si02
#       8
#     4   2   4   4   4   4   4   4
#     4  11  26  49  70 109 149 193 249 313 374 445
#     4  12  26  40  68 108 150 200 244 288 370 452
#     4  11  25  44  71 107 154 201 246 300 368 454
#     4  12  27  51  82 108 144 195 255 322 385 443
#     4  12  25  47  71 108 150 196 245 307 365 449
#     4  12  26  51  76 110 146 196 252 318 378 449
#     4  10  24  41  71 103 148 192 243 297 367 443
#     4  12  28  43  73 111 149 197 245 300 372 452
#
# _framework density 22.326325000000001
#
# number of rings (size 3 to 8) (size 9 to 14) (size 15 to 20)
#    0.000    0.533    4.000    3.200    7.467    2.133 
#    0.000    2.667    0.000    0.000    0.000    0.000 
#    0.000    0.000    0.000    0.000    0.000    0.000 
#
# Total GULP energy -167506.366491 kJ/mol
# GULP energy per Si atom -5583.545550 kJ/mol
# Density = 2.227551 g / cm^3
# Si number density = 22.326325 Si / 1000 Ang^3
#
#
#
# Elastic Constant Matrix: (Units=GPa)
#
#
# Indices 1 2 3 4 5 6 
#
# 1 116.6444 20.2225 28.8703 0.0000 25.5187 0.0000
# 2 20.2225 79.8822 24.9548 0.0000 16.5185 0.0000
# 3 28.8703 24.9548 121.2919 0.0000 18.6984 0.0000
# 4 0.0000 0.0000 0.0000 30.9840 0.0000 4.7637
# 5 25.5187 16.5185 18.6984 0.0000 31.8031 0.0000
# 6 0.0000 0.0000 0.0000 4.7637 0.0000 -1.4650
#
#
#
# Elastic Compliance Matrix: (Units=1/GPa)
#
#
# Indices 1 2 3 4 5 6 
#
# 1 0.010632 -0.000776 -0.001229 0.000000 -0.007405 0.000000
# 2 -0.000776 0.014508 -0.001907 0.000000 -0.005791 0.000000
# 3 -0.001229 -0.001907 0.009484 0.000000 -0.003599 0.000000
# 4 0.000000 0.000000 0.000000 0.021517 0.000000 0.069967
# 5 -0.007405 -0.005791 -0.003599 0.000000 0.042509 0.000000
# 6 0.000000 0.000000 0.000000 0.069967 0.000000 -0.455074
#
#
# Mechanical properties :
#
#
# Convention : Reuss Voigt Hill
#
# Bulk Modulus (GPa) = 37.31516 51.76821 44.54168
# Shear Modulus (GPa) = -14.72044 28.51582 6.89769
#
# Velocity S-wave (km/s) = -2.57053 3.57771 1.75960
# Velocity P-wave (km/s) = 2.81774 6.34855 4.91140
#
# Compressibility (1/GPa) = 0.02679876
#
# Stress axis : x y z
#
# Youngs Moduli (GPa) = 94.05613 68.92576 105.43538
#
# Poissons Ratio (x) = 0.05350 0.12962
# Poissons Ratio (y) = 0.07301 0.20111
# Poissons Ratio (z) = 0.11563 0.13147
#
# Static dielectric constant tensor:
#      x y z
#    x 1.804830 0.000000 -0.003320 
#    y 0.000000 1.834220 0.000000 
#    z -0.003320 0.000000 1.843090 
# 
# From -- ./inp_files/31749.got.cif
#   From: 2010.05.17/outbox.cif.g08.bks.cpg/sg14_16_cif.got.tgz:31749.got - 2010.06.03 17:49:19.
