data_PCOD9250653
_publ_section_title
;
Structure prediction by ZEFSAII (Michael W. Deem and Ramdas Pophale) SiO2 
 PCOD9250653
Probable space group: P 21/C
;
_chemical_formula_sum "Si O2"
_cell_formula_units_Z 18
_cell_length_a 4.969009
_cell_length_b 16.900567
_cell_length_c 8.400806
_cell_angle_alpha 90.000000
_cell_angle_beta 100.914156
_cell_angle_gamma 90.000000
_cell_volume 692.730908
_symmetry_space_group_name_H-M "P 21/C"
_symmetry_group_IT_number 14
_symmetry_cell_setting 'monoclinic'
loop_
_space_group_symop_operation_xyz
x,y,z
-x,1/2+y,1/2-z
-x,-y,-z
x,1/2-y,1/2+z
loop_
_atom_site_type_symbol
_atom_site_label
_atom_site_fract_x
_atom_site_fract_y
_atom_site_fract_z
Si Si1 0.223217 0.644414 0.777261
Si Si2 0.757435 0.443688 0.534189
Si Si3 0.898398 0.633436 0.193035
Si Si4 0.500000 0.000000 0.500000
Si Si5 0.761295 0.769981 0.388112
O O1 0.271056 0.625272 0.598036
O O2 0.440016 0.710972 0.855729
O O3 0.915170 0.670343 0.782825
O O4 0.306597 0.566178 0.884101
O O5 0.500000 0.500000 0.500000
O O6 0.831185 0.412203 0.718312
O O7 0.000000 0.500000 0.500000
O O8 0.691769 0.571354 0.094307
O O9 0.797635 0.680105 0.338082
O O10 0.915948 0.702725 0.065061
#
# Coordination Sequence:
#
# PCOD9250653 Si02
#       5
#     4   4   4   2   4
#     4  11  25  47  72 114 151 203 253 321 390 462
#     4  12  26  44  74 111 151 194 251 321 377 459
#     4  11  26  50  78 115 155 205 263 319 399 460
#     4  10  24  44  82 106 154 196 264 316 380 454
#     4  11  27  46  78 107 156 201 254 322 392 468
#
# _framework density 25.984117999999999
#
# number of rings (size 3 to 8) (size 9 to 14) (size 15 to 20)
#    0.000    0.889    2.222    2.667    3.111   10.667 
#    0.000    0.000    0.000    0.000    0.000    0.000 
#    0.000    0.000    0.000    0.000    0.000    0.000 
#
# Total GULP energy -100412.525020 kJ/mol
# GULP energy per Si atom -5578.473612 kJ/mol
# Density = 2.592498 g / cm^3
# Si number density = 25.984118 Si / 1000 Ang^3
#
#
#
# Elastic Constant Matrix: (Units=GPa)
#
#
# Indices 1 2 3 4 5 6 
#
# 1 94.2028 16.9107 15.7064 0.0000 14.4052 0.0000
# 2 16.9107 125.8167 41.4179 0.0000 16.4857 0.0000
# 3 15.7064 41.4179 150.2299 0.0000 14.0528 0.0000
# 4 0.0000 0.0000 0.0000 36.1051 0.0000 5.4168
# 5 14.4052 16.4857 14.0528 0.0000 27.4762 0.0000
# 6 0.0000 0.0000 0.0000 5.4168 0.0000 30.9976
#
#
#
# Elastic Compliance Matrix: (Units=1/GPa)
#
#
# Indices 1 2 3 4 5 6 
#
# 1 0.011656 -0.000683 -0.000522 0.000000 -0.005434 0.000000
# 2 -0.000683 0.009272 -0.002098 0.000000 -0.004132 0.000000
# 3 -0.000522 -0.002098 0.007505 0.000000 -0.002306 0.000000
# 4 0.000000 0.000000 0.000000 0.028443 0.000000 -0.004970
# 5 -0.005434 -0.004132 -0.002306 0.000000 0.042903 0.000000
# 6 0.000000 0.000000 0.000000 -0.004970 0.000000 0.033129
#
#
# Mechanical properties :
#
#
# Convention : Reuss Voigt Hill
#
# Bulk Modulus (GPa) = 45.81491 57.59103 51.70297
# Shear Modulus (GPa) = 34.06234 38.66342 36.36288
#
# Velocity S-wave (km/s) = 3.62455 3.86160 3.74495
# Velocity P-wave (km/s) = 5.93183 6.48804 6.21616
#
# Compressibility (1/GPa) = 0.02182696
#
# Stress axis : x y z
#
# Youngs Moduli (GPa) = 85.79275 107.85131 133.23998
#
# Poissons Ratio (x) = 0.07363 0.06956
# Poissons Ratio (y) = 0.05857 0.27959
# Poissons Ratio (z) = 0.04479 0.22631
#
# Static dielectric constant tensor:
#      x y z
#    x 2.049250 0.000000 -0.122040 
#    y 0.000000 2.034850 0.000000 
#    z -0.122040 0.000000 2.164470 
# 
# From -- ./inp_files/5575.got.cif
#   From: 2010.05.17/outbox.cif.g08.bks.cpg/sg14_3_cif.got.tgz:5575.got - 2010.06.03 17:49:19.
