data_PCOD9250209
_publ_section_title
;
Structure prediction by ZEFSAII (Michael W. Deem and Ramdas Pophale) SiO2 
 PCOD9250209
Probable space group: P 21/C
;
_chemical_formula_sum "Si O2"
_cell_formula_units_Z 28
_cell_length_a 14.996628
_cell_length_b 11.286832
_cell_length_c 8.089365
_cell_angle_alpha 90.000000
_cell_angle_beta 52.730277
_cell_angle_gamma 90.000000
_cell_volume 1089.633759
_symmetry_space_group_name_H-M "P 21/C"
_symmetry_group_IT_number 14
_symmetry_cell_setting 'monoclinic'
loop_
_space_group_symop_operation_xyz
x,y,z
-x,1/2+y,1/2-z
-x,-y,-z
x,1/2-y,1/2+z
loop_
_atom_site_type_symbol
_atom_site_label
_atom_site_fract_x
_atom_site_fract_y
_atom_site_fract_z
Si Si1 0.273772 0.390263 0.080936
Si Si2 0.602163 0.962784 0.266224
Si Si3 0.098866 0.173066 0.221365
Si Si4 0.587131 0.413643 0.242157
Si Si5 0.063026 0.695582 0.804792
Si Si6 0.681934 0.320612 0.471322
Si Si7 0.886972 0.023444 0.030406
O O1 0.338739 0.365796 0.180876
O O2 0.187676 0.282285 0.136798
O O3 0.200234 0.501730 0.226617
O O4 0.356357 0.456313 0.858865
O O5 0.542128 0.912795 0.170659
O O6 0.500000 0.000000 0.500000
O O7 0.663253 0.085088 0.142032
O O8 0.153675 0.058470 0.079600
O O9 0.029555 0.143411 0.464962
O O10 0.005935 0.192915 0.183246
O O11 0.610692 0.372774 0.400681
O O12 0.641684 0.307912 0.073174
O O13 0.188466 0.692832 0.732051
O O14 0.083063 0.640331 0.601286
O O15 0.000000 0.000000 0.000000
#
# Coordination Sequence:
#
# PCOD9250209 Si02
#       7
#     4   4   4   4   4   4   4
#     4  11  24  47  70 103 147 189 243 310 372 434
#     4  10  23  49  72 105 143 187 246 316 369 441
#     4  12  26  45  68 108 145 196 239 299 372 440
#     4  11  26  45  75 104 147 192 253 311 377 441
#     4  12  25  41  70 100 146 189 248 290 363 454
#     4  12  25  45  74 109 140 197 250 300 380 453
#     4  12  25  45  68  99 152 190 247 300 364 444
#
# _framework density 25.696707
#
# number of rings (size 3 to 8) (size 9 to 14) (size 15 to 20)
#    0.000    0.571    4.286    3.429    6.000    1.143 
#    7.714    0.000    0.000    0.000    0.000    0.000 
#    0.000    0.000    0.000    0.000    0.000    0.000 
#
# Total GULP energy -156076.428145 kJ/mol
# GULP energy per Si atom -5574.158148 kJ/mol
# Density = 2.563822 g / cm^3
# Si number density = 25.696707 Si / 1000 Ang^3
#
#
#
# Elastic Constant Matrix: (Units=GPa)
#
#
# Indices 1 2 3 4 5 6 
#
# 1 110.2985 47.9841 5.8648 0.0000 14.7979 0.0000
# 2 47.9841 123.8344 36.5458 0.0000 -9.6023 0.0000
# 3 5.8648 36.5458 96.6226 0.0000 0.3716 0.0000
# 4 0.0000 0.0000 0.0000 31.8711 0.0000 17.4853
# 5 14.7979 -9.6023 0.3716 0.0000 24.6533 0.0000
# 6 0.0000 0.0000 0.0000 17.4853 0.0000 37.0603
#
#
#
# Elastic Compliance Matrix: (Units=1/GPa)
#
#
# Indices 1 2 3 4 5 6 
#
# 1 0.013158 -0.006396 0.001661 0.000000 -0.010414 0.000000
# 2 -0.006396 0.012529 -0.004384 0.000000 0.008785 0.000000
# 3 0.001661 -0.004384 0.011918 0.000000 -0.002884 0.000000
# 4 0.000000 0.000000 0.000000 0.042334 0.000000 -0.019974
# 5 -0.010414 0.008785 -0.002884 0.000000 0.050279 0.000000
# 6 0.000000 0.000000 0.000000 -0.019974 0.000000 0.036407
#
#
# Mechanical properties :
#
#
# Convention : Reuss Voigt Hill
#
# Bulk Modulus (GPa) = 51.63938 56.83830 54.23884
# Shear Modulus (GPa) = 26.13436 34.74098 30.43767
#
# Velocity S-wave (km/s) = 3.19255 3.68089 3.44539
# Velocity P-wave (km/s) = 5.80768 6.34289 6.08118
#
# Compressibility (1/GPa) = 0.01936507
#
# Stress axis : x y z
#
# Youngs Moduli (GPa) = 76.00124 79.81629 83.90566
#
# Poissons Ratio (x) = 0.51050 -0.13933
# Poissons Ratio (y) = 0.48610 0.36787
# Poissons Ratio (z) = -0.12621 0.34994
#
# Static dielectric constant tensor:
#      x y z
#    x 2.279330 0.000000 -0.250710 
#    y 0.000000 1.876590 0.000000 
#    z -0.250710 0.000000 2.333330 
# 
# From -- ./inp_files/15687.got.cif
#   From: 2010.05.17/outbox.cif.g08.bks.cpg/sg14_8_cif.got.tgz:15687.got - 2010.06.03 17:49:19.
