data_PCOD9250355
_publ_section_title
;
Structure prediction by ZEFSAII (Michael W. Deem and Ramdas Pophale) SiO2 
 PCOD9250355
Probable space group: P 21/C
;
_chemical_formula_sum "Si O2"
_cell_formula_units_Z 30
_cell_length_a 10.464269
_cell_length_b 7.969606
_cell_length_c 13.966081
_cell_angle_alpha 90.000000
_cell_angle_beta 104.867447
_cell_angle_gamma 90.000000
_cell_volume 1125.724334
_symmetry_space_group_name_H-M "P 21/C"
_symmetry_group_IT_number 14
_symmetry_cell_setting 'monoclinic'
loop_
_space_group_symop_operation_xyz
x,y,z
-x,1/2+y,1/2-z
-x,-y,-z
x,1/2-y,1/2+z
loop_
_atom_site_type_symbol
_atom_site_label
_atom_site_fract_x
_atom_site_fract_y
_atom_site_fract_z
Si Si1 0.810211 0.321589 0.565718
Si Si2 0.714841 0.683562 0.626883
Si Si3 0.476044 0.021728 0.762867
Si Si4 0.278182 0.370384 0.063706
Si Si5 0.339081 0.785306 0.304364
Si Si6 0.000000 0.000000 0.500000
Si Si7 0.105159 0.163630 0.176256
Si Si8 0.884993 0.287101 0.369370
O O1 0.770265 0.504120 0.600205
O O2 0.703099 0.200314 0.595094
O O3 0.811326 0.339682 0.452832
O O4 0.960027 0.258564 0.622100
O O5 0.587434 0.644564 0.669600
O O6 0.677409 0.794374 0.528148
O O7 0.826648 0.768838 0.715049
O O8 0.388355 0.042719 0.650377
O O9 0.621634 0.055313 0.750689
O O10 0.458085 0.841897 0.807947
O O11 0.203294 0.226935 0.112012
O O12 0.159761 0.502543 0.030944
O O13 0.211599 0.706539 0.227223
O O14 0.998901 0.160751 0.422411
O O15 0.075633 0.966183 0.168444
#
# Coordination Sequence:
#
# PCOD9250355 Si02
#       8
#     4   4   4   4   4   2   4   4
#     4  11  24  43  69 105 140 192 241 295 376 449
#     4  10  24  41  72  99 135 189 242 302 368 429
#     4  10  25  48  66  99 142 189 247 306 353 432
#     4  11  22  44  70 103 145 185 235 306 366 435
#     4  11  27  47  70 102 143 194 253 296 368 435
#     4  12  24  40  70 106 152 182 228 306 370 442
#     4  11  24  40  71 107 146 183 238 302 371 453
#     4  12  25  46  70 109 149 191 237 308 375 441
#
# _framework density 26.649509999999999
#
# number of rings (size 3 to 8) (size 9 to 14) (size 15 to 20)
#    0.000    1.067    4.000    1.200    7.467    2.133 
#    0.000    4.000    0.000    0.000    0.000    0.000 
#    0.000    0.000    0.000    0.000    0.000    0.000 
#
# Total GULP energy -167638.135631 kJ/mol
# GULP energy per Si atom -5587.937854 kJ/mol
# Density = 2.658885 g / cm^3
# Si number density = 26.649510 Si / 1000 Ang^3
#
#
#
# Elastic Constant Matrix: (Units=GPa)
#
#
# Indices 1 2 3 4 5 6 
#
# 1 66.5284 -7.2984 20.0955 0.0000 -10.7159 0.0000
# 2 -7.2984 87.9229 5.9267 0.0000 -2.5741 0.0000
# 3 20.0955 5.9267 104.8680 0.0000 -23.3636 0.0000
# 4 0.0000 0.0000 0.0000 36.5078 0.0000 -0.2771
# 5 -10.7159 -2.5741 -23.3636 0.0000 41.7945 0.0000
# 6 0.0000 0.0000 0.0000 -0.2771 0.0000 46.5387
#
#
#
# Elastic Compliance Matrix: (Units=1/GPa)
#
#
# Indices 1 2 3 4 5 6 
#
# 1 0.016458 0.001626 -0.002608 0.000000 0.002862 0.000000
# 2 0.001626 0.011583 -0.000816 0.000000 0.000674 0.000000
# 3 -0.002608 -0.000816 0.011333 0.000000 0.005616 0.000000
# 4 0.000000 0.000000 0.000000 0.027393 0.000000 0.000163
# 5 0.002862 0.000674 0.005616 0.000000 0.027841 0.000000
# 6 0.000000 0.000000 0.000000 0.000163 0.000000 0.021488
#
#
# Mechanical properties :
#
#
# Convention : Reuss Voigt Hill
#
# Bulk Modulus (GPa) = 27.95019 32.97410 30.46215
# Shear Modulus (GPa) = 37.98821 41.00790 39.49806
#
# Velocity S-wave (km/s) = 3.77964 3.92699 3.85402
# Velocity P-wave (km/s) = 5.43677 5.74124 5.59107
#
# Compressibility (1/GPa) = 0.03577793
#
# Stress axis : x y z
#
# Youngs Moduli (GPa) = 60.75955 86.33119 88.23818
#
# Poissons Ratio (x) = -0.14036 0.23014
# Poissons Ratio (y) = -0.09878 0.07200
# Poissons Ratio (z) = 0.15847 0.07045
#
# Static dielectric constant tensor:
#      x y z
#    x 2.159800 0.000000 -0.177470 
#    y 0.000000 2.692300 0.000000 
#    z -0.177470 0.000000 2.405110 
# 
# From -- ./inp_files/43501.got.cif
#   From: 2010.05.17/outbox.cif.g08.bks.cpg/sg14_22_cif.got.tgz:43501.got - 2010.06.03 17:49:19.
