data_PCOD9250242
_publ_section_title
;
Structure prediction by ZEFSAII (Michael W. Deem and Ramdas Pophale) SiO2 
 PCOD9250242
Probable space group: P 21/C
;
_chemical_formula_sum "Si O2"
_cell_formula_units_Z 28
_cell_length_a 15.092051
_cell_length_b 10.355434
_cell_length_c 8.256771
_cell_angle_alpha 90.000000
_cell_angle_beta 107.146933
_cell_angle_gamma 90.000000
_cell_volume 1233.051057
_symmetry_space_group_name_H-M "P 21/C"
_symmetry_group_IT_number 14
_symmetry_cell_setting 'monoclinic'
loop_
_space_group_symop_operation_xyz
x,y,z
-x,1/2+y,1/2-z
-x,-y,-z
x,1/2-y,1/2+z
loop_
_atom_site_type_symbol
_atom_site_label
_atom_site_fract_x
_atom_site_fract_y
_atom_site_fract_z
Si Si1 0.828934 0.815694 0.755415
Si Si2 0.818560 0.188426 0.958240
Si Si3 0.494992 0.199239 0.544366
Si Si4 0.118791 0.571647 0.842876
Si Si5 0.616087 0.121081 0.905793
Si Si6 0.905916 0.572493 0.622050
Si Si7 0.370421 0.151099 0.192298
O O1 0.851531 0.673612 0.705484
O O2 0.725579 0.825732 0.769680
O O3 0.844263 0.925269 0.625318
O O4 0.896026 0.864141 0.937262
O O5 0.865701 0.327356 0.004811
O O6 0.866074 0.072507 0.086687
O O7 0.827128 0.136678 0.779874
O O8 0.711940 0.198343 0.954260
O O9 0.568423 0.138616 0.705133
O O10 0.545995 0.326649 0.502113
O O11 0.454932 0.130029 0.364652
O O12 0.405205 0.231377 0.602903
O O13 0.011056 0.568394 0.738218
O O14 0.640274 0.971307 0.929770
#
# Coordination Sequence:
#
# PCOD9250242 Si02
#       7
#     4   4   4   4   4   4   4
#     4  11  23  40  65  90 128 163 207 261 307 376
#     4  11  23  40  65  90 128 163 207 261 307 376
#     4  10  24  38  64  90 124 162 202 262 304 376
#     4  11  22  41  63  92 123 164 207 258 315 369
#     4  11  21  41  61  91 124 160 209 250 315 363
#     4  11  22  41  63  92 123 164 207 258 315 369
#     4  11  21  41  61  91 124 160 209 250 315 363
#
# _framework density 22.707899999999999
#
# number of rings (size 3 to 8) (size 9 to 14) (size 15 to 20)
#    0.000    1.143    2.857    6.000    0.000    1.143 
#    0.000    2.857    0.000    0.000    0.000    0.000 
#    0.000    0.000    0.000    0.000    0.000    0.000 
#
# Total GULP energy -156538.440612 kJ/mol
# GULP energy per Si atom -5590.658593 kJ/mol
# Density = 2.265622 g / cm^3
# Si number density = 22.707900 Si / 1000 Ang^3
#
#
#
# Elastic Constant Matrix: (Units=GPa)
#
#
# Indices 1 2 3 4 5 6 
#
# 1 82.7441 39.9142 -8.3106 0.0000 8.2538 0.0000
# 2 39.9142 53.8986 6.8520 0.0000 -6.9441 0.0000
# 3 -8.3106 6.8520 34.3352 0.0000 6.6516 0.0000
# 4 0.0000 0.0000 0.0000 22.1518 0.0000 4.6622
# 5 8.2538 -6.9441 6.6516 0.0000 26.7975 0.0000
# 6 0.0000 0.0000 0.0000 4.6622 0.0000 15.9978
#
#
#
# Elastic Compliance Matrix: (Units=1/GPa)
#
#
# Indices 1 2 3 4 5 6 
#
# 1 0.027242 -0.024467 0.015054 0.000000 -0.018468 0.000000
# 2 -0.024467 0.042035 -0.018784 0.000000 0.023091 0.000000
# 3 0.015054 -0.018784 0.040296 0.000000 -0.019506 0.000000
# 4 0.000000 0.000000 0.000000 0.048093 0.000000 -0.014016
# 5 -0.018468 0.023091 -0.019506 0.000000 0.053831 0.000000
# 6 0.000000 0.000000 0.000000 -0.014016 0.000000 0.066593
#
#
# Mechanical properties :
#
#
# Convention : Reuss Voigt Hill
#
# Bulk Modulus (GPa) = 18.80438 27.54323 23.17381
# Shear Modulus (GPa) = 14.19609 21.82424 18.01016
#
# Velocity S-wave (km/s) = 2.50303 3.10350 2.81930
# Velocity P-wave (km/s) = 4.08075 4.99980 4.56347
#
# Compressibility (1/GPa) = 0.05317910
#
# Stress axis : x y z
#
# Youngs Moduli (GPa) = 36.70802 23.78961 24.81649
#
# Poissons Ratio (x) = 0.58206 -0.37359
# Poissons Ratio (y) = 0.89813 0.46615
# Poissons Ratio (z) = -0.55260 0.44686
#
# Static dielectric constant tensor:
#      x y z
#    x 1.814330 0.000000 -0.004980 
#    y 0.000000 1.860590 0.000000 
#    z -0.004980 0.000000 1.881850 
# 
# From -- ./inp_files/15576.got.cif
#   From: 2010.05.17/outbox.cif.g08.bks.cpg/sg14_8_cif.got.tgz:15576.got - 2010.06.03 17:49:19.
