data_PCOD9250655
_publ_section_title
;
Structure prediction by ZEFSAII (Michael W. Deem and Ramdas Pophale) SiO2 
 PCOD9250655
Probable space group: P 21/C
;
_chemical_formula_sum "Si O2"
_cell_formula_units_Z 24
_cell_length_a 10.777083
_cell_length_b 13.493726
_cell_length_c 19.094813
_cell_angle_alpha 90.000000
_cell_angle_beta 157.146360
_cell_angle_gamma 90.000000
_cell_volume 1078.459051
_symmetry_space_group_name_H-M "P 21/C"
_symmetry_group_IT_number 14
_symmetry_cell_setting 'monoclinic'
loop_
_space_group_symop_operation_xyz
x,y,z
-x,1/2+y,1/2-z
-x,-y,-z
x,1/2-y,1/2+z
loop_
_atom_site_type_symbol
_atom_site_label
_atom_site_fract_x
_atom_site_fract_y
_atom_site_fract_z
Si Si1 0.751538 0.435836 0.417023
Si Si2 0.143598 0.886335 0.447753
Si Si3 0.833233 0.686776 0.257354
Si Si4 0.672074 0.113154 0.292633
Si Si5 0.351357 0.311486 0.098859
Si Si6 0.272663 0.070527 0.428388
O O1 0.487207 0.509744 0.311437
O O2 0.564157 0.363166 0.268357
O O3 0.000000 0.500000 0.500000
O O4 0.945473 0.373306 0.573929
O O5 0.469820 0.840417 0.585949
O O6 0.222670 0.899351 0.571141
O O7 0.883820 0.802759 0.296975
O O8 0.086187 0.989803 0.378423
O O9 0.905319 0.643768 0.217654
O O10 0.402453 0.195793 0.138220
O O11 0.985100 0.156531 0.418517
O O12 0.452181 0.357747 0.076740
O O13 0.500000 0.000000 0.500000
#
# Coordination Sequence:
#
# PCOD9250655 Si02
#       6
#     4   4   4   4   4   4
#     4  12  22  41  66  97 129 173 221 267 326 389
#     4  11  22  42  66  93 133 171 214 277 333 376
#     4  11  24  40  68  94 128 176 218 264 330 400
#     4  12  24  40  70 102 133 171 224 280 326 387
#     4  12  25  41  68  98 133 174 223 272 330 391
#     4  10  24  45  64  92 135 177 212 270 334 392
#
# _framework density 22.253973999999999
#
# number of rings (size 3 to 8) (size 9 to 14) (size 15 to 20)
#    0.000    0.667    5.000    3.500    0.000    4.000 
#    0.000    1.667    0.000    0.000    0.000    0.000 
#    0.000    0.000    0.000    0.000    0.000    0.000 
#
# Total GULP energy -134274.326379 kJ/mol
# GULP energy per Si atom -5594.763599 kJ/mol
# Density = 2.220332 g / cm^3
# Si number density = 22.253974 Si / 1000 Ang^3
#
#
#
# Elastic Constant Matrix: (Units=GPa)
#
#
# Indices 1 2 3 4 5 6 
#
# 1 64.0881 4.5795 -1.6685 0.0000 -6.8994 0.0000
# 2 4.5795 60.6851 -24.2016 0.0000 -18.8956 0.0000
# 3 -1.6685 -24.2016 33.9619 0.0000 1.0868 0.0000
# 4 0.0000 0.0000 0.0000 31.0554 0.0000 -10.9997
# 5 -6.8994 -18.8956 1.0868 0.0000 34.7889 0.0000
# 6 0.0000 0.0000 0.0000 -10.9997 0.0000 -5.1550
#
#
#
# Elastic Compliance Matrix: (Units=1/GPa)
#
#
# Indices 1 2 3 4 5 6 
#
# 1 0.015960 0.000084 0.000742 0.000000 0.003188 0.000000
# 2 0.000084 0.029421 0.020478 0.000000 0.015357 0.000000
# 3 0.000742 0.020478 0.043757 0.000000 0.009903 0.000000
# 4 0.000000 0.000000 0.000000 0.018340 0.000000 -0.039133
# 5 0.003188 0.015357 0.009903 0.000000 0.037409 0.000000
# 6 0.000000 0.000000 0.000000 -0.039133 0.000000 -0.110484
#
#
# Mechanical properties :
#
#
# Convention : Reuss Voigt Hill
#
# Bulk Modulus (GPa) = 7.59034 12.90599 10.24816
# Shear Modulus (GPa) = 140.01937 24.13957 82.07947
#
# Velocity S-wave (km/s) = 7.94074 3.29710 6.07973
# Velocity P-wave (km/s) = 9.35372 4.50627 7.34161
#
# Compressibility (1/GPa) = 0.13174646
#
# Stress axis : x y z
#
# Youngs Moduli (GPa) = 62.65665 33.98974 22.85332
#
# Poissons Ratio (x) = -0.00286 -0.01696
# Poissons Ratio (y) = -0.00527 -0.46799
# Poissons Ratio (z) = -0.04649 -0.69605
#
# Static dielectric constant tensor:
#      x y z
#    x 1.931490 0.000000 0.074710 
#    y 0.000000 1.940450 0.000000 
#    z 0.074710 0.000000 1.800670 
# 
# From -- ./inp_files/16144.got.cif
#   From: 2010.05.17/outbox.cif.g08.bks.cpg/sg14_9_cif.got.tgz:16144.got - 2010.06.03 17:49:19.
