data_PCOD9250660
_publ_section_title
;
Structure prediction by ZEFSAII (Michael W. Deem and Ramdas Pophale) SiO2 
 PCOD9250660
Probable space group: P 21/C
;
_chemical_formula_sum "Si O2"
_cell_formula_units_Z 20
_cell_length_a 4.766420
_cell_length_b 8.670469
_cell_length_c 18.081179
_cell_angle_alpha 90.000000
_cell_angle_beta 102.825467
_cell_angle_gamma 90.000000
_cell_volume 728.599517
_symmetry_space_group_name_H-M "P 21/C"
_symmetry_group_IT_number 14
_symmetry_cell_setting 'monoclinic'
loop_
_space_group_symop_operation_xyz
x,y,z
-x,1/2+y,1/2-z
-x,-y,-z
x,1/2-y,1/2+z
loop_
_atom_site_type_symbol
_atom_site_label
_atom_site_fract_x
_atom_site_fract_y
_atom_site_fract_z
Si Si1 0.994026 0.705226 0.301316
Si Si2 0.230371 0.265581 0.861679
Si Si3 0.160849 0.573410 0.934500
Si Si4 0.421386 0.016667 0.155358
Si Si5 0.643256 0.840112 0.986756
O O1 0.995588 0.759021 0.216541
O O2 0.965616 0.844248 0.358922
O O3 0.277468 0.607416 0.333971
O O4 0.729514 0.583683 0.281823
O O5 0.295764 0.437479 0.892358
O O6 0.135408 0.196326 0.935533
O O7 0.000000 0.500000 0.000000
O O8 0.410276 0.699866 0.968427
O O9 0.501085 0.840784 0.147012
O O10 0.225205 0.103788 0.082437
O O11 0.500000 0.000000 0.000000
#
# Coordination Sequence:
#
# PCOD9250660 Si02
#       5
#     4   4   4   4   4
#     4  11  25  45  69 103 146 188 238 299 368 430
#     4  11  23  41  70 104 138 185 242 303 357 424
#     4  11  24  43  72 108 143 188 246 302 356 432
#     4  10  24  45  66  98 142 189 231 288 365 440
#     4   9  21  42  66  95 136 184 230 284 358 432
#
# _framework density 27.449923999999999
#
# number of rings (size 3 to 8) (size 9 to 14) (size 15 to 20)
#    0.000    1.600    0.000    3.000    0.000   12.800 
#    0.000   12.000    0.000    0.000    0.000    0.000 
#    0.000    0.000    0.000    0.000    0.000    0.000 
#
# Total GULP energy -111534.673031 kJ/mol
# GULP energy per Si atom -5576.733652 kJ/mol
# Density = 2.738745 g / cm^3
# Si number density = 27.449924 Si / 1000 Ang^3
#
#
#
# Elastic Constant Matrix: (Units=GPa)
#
#
# Indices 1 2 3 4 5 6 
#
# 1 93.2161 59.3314 25.7251 0.0000 -12.1500 0.0000
# 2 59.3314 210.7809 86.6240 0.0000 0.4841 0.0000
# 3 25.7251 86.6240 147.2598 0.0000 24.5516 0.0000
# 4 0.0000 0.0000 0.0000 32.7425 0.0000 0.6271
# 5 -12.1500 0.4841 24.5516 0.0000 30.0063 0.0000
# 6 0.0000 0.0000 0.0000 0.6271 0.0000 53.9593
#
#
#
# Elastic Compliance Matrix: (Units=1/GPa)
#
#
# Indices 1 2 3 4 5 6 
#
# 1 0.014267 -0.003311 -0.001756 0.000000 0.007268 0.000000
# 2 -0.003311 0.007334 -0.004044 0.000000 0.001850 0.000000
# 3 -0.001756 -0.004044 0.011098 0.000000 -0.009727 0.000000
# 4 0.000000 0.000000 0.000000 0.030548 0.000000 -0.000355
# 5 0.007268 0.001850 -0.009727 0.000000 0.044198 0.000000
# 6 0.000000 0.000000 0.000000 -0.000355 0.000000 0.018537
#
#
# Mechanical properties :
#
#
# Convention : Reuss Voigt Hill
#
# Bulk Modulus (GPa) = 69.07855 88.29084 78.68470
# Shear Modulus (GPa) = 33.55025 41.98003 37.76514
#
# Velocity S-wave (km/s) = 3.49984 3.91491 3.71318
# Velocity P-wave (km/s) = 6.44607 7.25738 6.86372
#
# Compressibility (1/GPa) = 0.01447627
#
# Stress axis : x y z
#
# Youngs Moduli (GPa) = 70.09157 136.35134 90.10467
#
# Poissons Ratio (x) = 0.45143 0.15827
# Poissons Ratio (y) = 0.23206 0.36441
# Poissons Ratio (z) = 0.12311 0.55144
#
# Static dielectric constant tensor:
#      x y z
#    x 2.175400 0.000000 -0.121200 
#    y 0.000000 2.266400 0.000000 
#    z -0.121200 0.000000 2.502470 
# 
# From -- ./inp_files/37014.got.cif
#   From: 2010.05.17/outbox.cif.g08.bks.cpg/sg14_19_cif.got.tgz:37014.got - 2010.06.03 17:49:19.
