data_PCOD9250076
_publ_section_title
;
Structure prediction by ZEFSAII (Michael W. Deem and Ramdas Pophale) SiO2 
 PCOD9250076
Probable space group: P 21/C
;
_chemical_formula_sum "Si O2"
_cell_formula_units_Z 32
_cell_length_a 13.777079
_cell_length_b 8.595851
_cell_length_c 21.591849
_cell_angle_alpha 90.000000
_cell_angle_beta 150.239877
_cell_angle_gamma 90.000000
_cell_volume 1269.232810
_symmetry_space_group_name_H-M "P 21/C"
_symmetry_group_IT_number 14
_symmetry_cell_setting 'monoclinic'
loop_
_space_group_symop_operation_xyz
x,y,z
-x,1/2+y,1/2-z
-x,-y,-z
x,1/2-y,1/2+z
loop_
_atom_site_type_symbol
_atom_site_label
_atom_site_fract_x
_atom_site_fract_y
_atom_site_fract_z
Si Si1 0.380751 0.175030 0.714231
Si Si2 0.407651 0.944557 0.826923
Si Si3 0.752794 0.228280 0.668200
Si Si4 0.861162 0.848285 0.610720
Si Si5 0.431112 0.548517 0.124011
Si Si6 0.354867 0.307754 0.398542
Si Si7 0.814606 0.612224 0.481405
Si Si8 0.841535 0.564804 0.282396
O O1 0.293473 0.054383 0.715436
O O2 0.560196 0.275234 0.843422
O O3 0.429640 0.074176 0.680324
O O4 0.234987 0.311308 0.611484
O O5 0.415142 0.036393 0.896066
O O6 0.320115 0.784944 0.803703
O O7 0.609573 0.927230 0.901394
O O8 0.564878 0.222784 0.520223
O O9 0.920050 0.351019 0.740212
O O10 0.838258 0.055672 0.722549
O O11 0.739785 0.995880 0.518464
O O12 0.734550 0.732294 0.583857
O O13 0.900518 0.752762 0.569521
O O14 0.637062 0.537026 0.203374
O O15 0.188351 0.233442 0.262714
O O16 0.969287 0.474700 0.572886
#
# Coordination Sequence:
#
# PCOD9250076 Si02
#       8
#     4   4   4   4   4   4   4   4
#     4  11  23  44  72  95 139 186 233 298 355 413
#     4  12  24  45  68 104 136 186 235 292 359 413
#     4  11  24  44  69  95 142 184 222 295 342 424
#     4  10  24  43  69 102 136 181 237 280 355 417
#     4  11  22  46  65  98 137 179 235 293 347 423
#     4  12  24  42  69 102 140 178 230 284 353 427
#     4  10  23  46  69  99 143 184 233 289 355 420
#     4  11  24  42  69 101 133 186 229 282 356 423
#
# _framework density 25.212081000000001
#
# number of rings (size 3 to 8) (size 9 to 14) (size 15 to 20)
#    0.000    1.000    5.000    1.500    1.750    1.500 
#    4.500    1.875    0.000    0.000    0.000    0.000 
#    0.000    0.000    0.000    0.000    0.000    0.000 
#
# Total GULP energy -178519.149615 kJ/mol
# GULP energy per Si atom -5578.723425 kJ/mol
# Density = 2.515470 g / cm^3
# Si number density = 25.212081 Si / 1000 Ang^3
#
#
#
# Elastic Constant Matrix: (Units=GPa)
#
#
# Indices 1 2 3 4 5 6 
#
# 1 84.0900 9.7381 20.6084 0.0000 0.6184 0.0000
# 2 9.7381 54.6088 -3.9381 0.0000 -5.3909 0.0000
# 3 20.6084 -3.9381 74.3821 0.0000 12.7357 0.0000
# 4 0.0000 0.0000 0.0000 27.8397 0.0000 -11.4780
# 5 0.6184 -5.3909 12.7357 0.0000 39.1679 0.0000
# 6 0.0000 0.0000 0.0000 -11.4780 0.0000 46.8645
#
#
#
# Elastic Compliance Matrix: (Units=1/GPa)
#
#
# Indices 1 2 3 4 5 6 
#
# 1 0.013137 -0.002554 -0.003896 0.000000 0.000708 0.000000
# 2 -0.002554 0.019084 0.001336 0.000000 0.002233 0.000000
# 3 -0.003896 0.001336 0.015410 0.000000 -0.004765 0.000000
# 4 0.000000 0.000000 0.000000 0.039954 0.000000 0.009786
# 5 0.000708 0.002233 -0.004765 0.000000 0.027377 0.000000
# 6 0.000000 0.000000 0.000000 0.009786 0.000000 0.023735
#
#
# Mechanical properties :
#
#
# Convention : Reuss Voigt Hill
#
# Bulk Modulus (GPa) = 26.73579 29.54418 28.13998
# Shear Modulus (GPa) = 30.97999 35.21926 33.09963
#
# Velocity S-wave (km/s) = 3.50919 3.74159 3.62726
# Velocity P-wave (km/s) = 5.20064 5.51450 5.35987
#
# Compressibility (1/GPa) = 0.03740305
#
# Stress axis : x y z
#
# Youngs Moduli (GPa) = 76.11827 52.39932 64.89179
#
# Poissons Ratio (x) = 0.13382 0.25284
# Poissons Ratio (y) = 0.19439 -0.08668
# Poissons Ratio (z) = 0.29658 -0.06999
#
# Static dielectric constant tensor:
#      x y z
#    x 1.985380 0.000000 -0.035250 
#    y 0.000000 2.072830 0.000000 
#    z -0.035250 0.000000 2.091520 
# 
# From -- ./inp_files/73762.got.cif
#   From: 2010.05.17/outbox.cif.g08.bks.cpg/sg14_37_cif.got.tgz:73762.got - 2010.06.03 17:49:19.
