data_PCOD9250534
_publ_section_title
;
Structure prediction by ZEFSAII (Michael W. Deem and Ramdas Pophale) SiO2 
 PCOD9250534
Probable space group: P 21/C
;
_chemical_formula_sum "Si O2"
_cell_formula_units_Z 28
_cell_length_a 11.354044
_cell_length_b 8.087651
_cell_length_c 14.046626
_cell_angle_alpha 90.000000
_cell_angle_beta 118.059915
_cell_angle_gamma 90.000000
_cell_volume 1138.251266
_symmetry_space_group_name_H-M "P 21/C"
_symmetry_group_IT_number 14
_symmetry_cell_setting 'monoclinic'
loop_
_space_group_symop_operation_xyz
x,y,z
-x,1/2+y,1/2-z
-x,-y,-z
x,1/2-y,1/2+z
loop_
_atom_site_type_symbol
_atom_site_label
_atom_site_fract_x
_atom_site_fract_y
_atom_site_fract_z
Si Si1 0.090836 0.015622 0.809908
Si Si2 0.465599 0.973269 0.146417
Si Si3 0.652017 0.160498 0.086588
Si Si4 0.078374 0.134195 0.413524
Si Si5 0.661031 0.976420 0.567322
Si Si6 0.982792 0.823513 0.940096
Si Si7 0.320242 0.292373 0.733509
O O1 0.242227 0.976104 0.841566
O O2 0.996917 0.993355 0.683598
O O3 0.057935 0.867361 0.871919
O O4 0.079511 0.189631 0.858180
O O5 0.580204 0.861774 0.237080
O O6 0.524179 0.120441 0.102595
O O7 0.378720 0.056125 0.194345
O O8 0.384267 0.864032 0.038524
O O9 0.705260 0.343544 0.120966
O O10 0.234979 0.076678 0.476775
O O11 0.989868 0.179360 0.472976
O O12 0.680824 0.844074 0.657098
O O13 0.500000 0.000000 0.500000
O O14 0.830823 0.780020 0.857049
O O15 0.000000 0.000000 0.000000
#
# Coordination Sequence:
#
# PCOD9250534 Si02
#       7
#     4   4   4   4   4   4   4
#     4  11  23  45  71 101 144 187 236 291 361 430
#     4  11  25  43  68 105 139 187 234 291 360 426
#     4  11  25  44  70 101 144 185 234 292 359 426
#     4  11  24  45  72 105 139 192 237 296 361 433
#     4  12  25  45  71 100 141 188 246 296 360 431
#     4  10  24  43  71 101 142 187 234 293 360 428
#     4  12  24  44  70 102 143 185 240 300 358 430
#
# _framework density 24.599136000000001
#
# number of rings (size 3 to 8) (size 9 to 14) (size 15 to 20)
#    0.000    0.857    2.857    4.286    8.000    0.000 
#    2.571    2.857    0.000    0.000    0.000    0.000 
#    0.000    0.000    0.000    0.000    0.000    0.000 
#
# Total GULP energy -156600.208337 kJ/mol
# GULP energy per Si atom -5592.864583 kJ/mol
# Density = 2.454315 g / cm^3
# Si number density = 24.599136 Si / 1000 Ang^3
#
#
#
# Elastic Constant Matrix: (Units=GPa)
#
#
# Indices 1 2 3 4 5 6 
#
# 1 80.4060 6.3924 16.2287 0.0000 -5.3083 0.0000
# 2 6.3924 112.6545 -3.3210 0.0000 4.0697 0.0000
# 3 16.2287 -3.3210 62.2538 0.0000 12.8575 0.0000
# 4 0.0000 0.0000 0.0000 23.2783 0.0000 3.0336
# 5 -5.3083 4.0697 12.8575 0.0000 43.4205 0.0000
# 6 0.0000 0.0000 0.0000 3.0336 0.0000 50.4287
#
#
#
# Elastic Compliance Matrix: (Units=1/GPa)
#
#
# Indices 1 2 3 4 5 6 
#
# 1 0.013564 -0.001002 -0.004209 0.000000 0.002998 0.000000
# 2 -0.001002 0.009009 0.001003 0.000000 -0.001264 0.000000
# 3 -0.004209 0.001003 0.018469 0.000000 -0.006078 0.000000
# 4 0.000000 0.000000 0.000000 0.043298 0.000000 -0.002605
# 5 0.002998 -0.001264 -0.006078 0.000000 0.025315 0.000000
# 6 0.000000 0.000000 0.000000 -0.002605 0.000000 0.019987
#
#
# Mechanical properties :
#
#
# Convention : Reuss Voigt Hill
#
# Bulk Modulus (GPa) = 30.65031 32.65716 31.65374
# Shear Modulus (GPa) = 33.57220 39.15980 36.36600
#
# Velocity S-wave (km/s) = 3.69829 3.99421 3.84910
# Velocity P-wave (km/s) = 5.54287 5.88015 5.71400
#
# Compressibility (1/GPa) = 0.03262610
#
# Stress axis : x y z
#
# Youngs Moduli (GPa) = 73.72489 111.00291 54.14441
#
# Poissons Ratio (x) = 0.11123 0.22787
# Poissons Ratio (y) = 0.07388 -0.05430
# Poissons Ratio (z) = 0.31028 -0.11132
#
# Static dielectric constant tensor:
#      x y z
#    x 1.970400 0.000000 -0.021060 
#    y 0.000000 1.952600 0.000000 
#    z -0.021060 0.000000 1.979260 
# 
# From -- ./inp_files/43827.got.cif
#   From: 2010.05.17/outbox.cif.g08.bks.cpg/sg14_22_cif.got.tgz:43827.got - 2010.06.03 17:49:19.
