data_PCOD9250028
_publ_section_title
;
Structure prediction by ZEFSAII (Michael W. Deem and Ramdas Pophale) SiO2 
 PCOD9250028
Probable space group: P 21/C
;
_chemical_formula_sum "Si O2"
_cell_formula_units_Z 20
_cell_length_a 19.030140
_cell_length_b 8.694793
_cell_length_c 11.944359
_cell_angle_alpha 90.000000
_cell_angle_beta 154.600243
_cell_angle_gamma 90.000000
_cell_volume 847.718809
_symmetry_space_group_name_H-M "P 21/C"
_symmetry_group_IT_number 14
_symmetry_cell_setting 'monoclinic'
loop_
_space_group_symop_operation_xyz
x,y,z
-x,1/2+y,1/2-z
-x,-y,-z
x,1/2-y,1/2+z
loop_
_atom_site_type_symbol
_atom_site_label
_atom_site_fract_x
_atom_site_fract_y
_atom_site_fract_z
Si Si1 0.189731 0.479830 0.802463
Si Si2 0.611439 0.040722 0.052440
Si Si3 0.129783 0.829012 0.421356
Si Si4 0.383837 0.195370 0.142914
Si Si5 0.778421 0.980410 0.898151
O O1 0.220638 0.606302 0.941367
O O2 0.281436 0.488962 0.816212
O O3 0.000000 0.500000 0.500000
O O4 0.231489 0.314244 0.912530
O O5 0.789600 0.082397 0.357539
O O6 0.534188 0.190601 0.882626
O O7 0.500000 0.000000 0.000000
O O8 0.610337 0.904711 0.960911
O O9 0.163342 0.649780 0.483333
O O10 0.939647 0.871773 0.135101
O O11 0.350447 0.088389 0.201348
#
# Coordination Sequence:
#
# PCOD9250028 Si02
#       5
#     4   4   4   4   4
#     4  10  23  45  72 105 145 183 236 296 356 424
#     4  12  29  49  73 105 152 191 247 294 366 433
#     4  11  26  46  76 110 145 191 239 301 360 435
#     4  12  28  48  74 104 147 196 241 303 359 427
#     4  11  26  47  76 106 148 186 247 298 362 424
#
# _framework density 23.592727
#
# number of rings (size 3 to 8) (size 9 to 14) (size 15 to 20)
#    0.000    0.800    2.000    3.600   14.000    1.600 
#    0.000    0.000    0.000    0.000    0.000    0.000 
#    0.000    0.000    0.000    0.000    0.000    0.000 
#
# Total GULP energy -112073.841467 kJ/mol
# GULP energy per Si atom -5603.692073 kJ/mol
# Density = 2.353903 g / cm^3
# Si number density = 23.592727 Si / 1000 Ang^3
#
#
#
# Elastic Constant Matrix: (Units=GPa)
#
#
# Indices 1 2 3 4 5 6 
#
# 1 135.7631 59.1687 4.0209 0.0000 -21.9088 0.0000
# 2 59.1687 136.1126 -4.7994 0.0000 -18.7111 0.0000
# 3 4.0209 -4.7994 72.5399 0.0000 -11.7418 0.0000
# 4 0.0000 0.0000 0.0000 36.6503 0.0000 -3.1965
# 5 -21.9088 -18.7111 -11.7418 0.0000 38.3960 0.0000
# 6 0.0000 0.0000 0.0000 -3.1965 0.0000 53.1388
#
#
#
# Elastic Compliance Matrix: (Units=1/GPa)
#
#
# Indices 1 2 3 4 5 6 
#
# 1 0.009549 -0.003662 -0.000188 0.000000 0.003607 0.000000
# 2 -0.003662 0.009379 0.001289 0.000000 0.002875 0.000000
# 3 -0.000188 0.001289 0.014693 0.000000 0.005014 0.000000
# 4 0.000000 0.000000 0.000000 0.027429 0.000000 0.001650
# 5 0.003607 0.002875 0.005014 0.000000 0.031037 0.000000
# 6 0.000000 0.000000 0.000000 0.001650 0.000000 0.018918
#
#
# Mechanical properties :
#
#
# Convention : Reuss Voigt Hill
#
# Bulk Modulus (GPa) = 35.08744 51.24399 43.16571
# Shear Modulus (GPa) = 39.80039 44.70539 42.25289
#
# Velocity S-wave (km/s) = 4.11174 4.35774 4.23653
# Velocity P-wave (km/s) = 6.11934 6.86202 6.50129
#
# Compressibility (1/GPa) = 0.02850023
#
# Stress axis : x y z
#
# Youngs Moduli (GPa) = 104.71911 106.61612 68.06037
#
# Poissons Ratio (x) = 0.39042 0.01278
# Poissons Ratio (y) = 0.38347 -0.08773
# Poissons Ratio (z) = 0.01966 -0.13743
#
# Static dielectric constant tensor:
#      x y z
#    x 1.908770 0.000000 0.015920 
#    y 0.000000 1.835530 0.000000 
#    z 0.015920 0.000000 1.902650 
# 
# From -- ./inp_files/33690.got.cif
#   From: 2010.05.17/outbox.cif.g08.bks.cpg/sg14_17_cif.got.tgz:33690.got - 2010.06.03 17:49:19.
