data_PCOD9250859
_publ_section_title
;
Structure prediction by ZEFSAII (Michael W. Deem and Ramdas Pophale) SiO2 
 PCOD9250859
Probable space group: P 21/C
;
_chemical_formula_sum "Si O2"
_cell_formula_units_Z 16
_cell_length_a 9.701935
_cell_length_b 13.796589
_cell_length_c 9.381138
_cell_angle_alpha 90.000000
_cell_angle_beta 33.252848
_cell_angle_gamma 90.000000
_cell_volume 688.543559
_symmetry_space_group_name_H-M "P 21/C"
_symmetry_group_IT_number 14
_symmetry_cell_setting 'monoclinic'
loop_
_space_group_symop_operation_xyz
x,y,z
-x,1/2+y,1/2-z
-x,-y,-z
x,1/2-y,1/2+z
loop_
_atom_site_type_symbol
_atom_site_label
_atom_site_fract_x
_atom_site_fract_y
_atom_site_fract_z
Si Si1 0.465816 0.755983 0.283957
Si Si2 0.009359 0.184615 0.162268
Si Si3 0.659749 0.072596 0.264551
Si Si4 0.372608 0.055869 0.981030
O O1 0.477860 0.672791 0.156331
O O2 0.434834 0.863485 0.245386
O O3 0.219914 0.746458 0.594321
O O4 0.743355 0.761682 0.112299
O O5 0.903337 0.108764 0.138973
O O6 0.124698 0.124636 0.197620
O O7 0.500000 0.000000 0.500000
O O8 0.691685 0.020519 0.086470
O O9 0.500000 0.000000 0.000000
#
# Coordination Sequence:
#
# PCOD9250859 Si02
#       4
#     4   4   4   4
#     4  10  26  44  71 106 146 182 251 299 363 428
#     4  10  24  48  68 107 141 194 239 303 367 435
#     4  12  24  48  79 105 150 198 251 299 380 443
#     4  10  25  44  72 107 147 187 246 303 367 432
#
# _framework density 23.237454
#
# number of rings (size 3 to 8) (size 9 to 14) (size 15 to 20)
#    1.500    0.000    2.500    0.750    3.500    9.000 
#    0.000    0.000    0.000    0.000    0.000    0.000 
#    0.000    0.000    0.000    0.000    0.000    0.000 
#
# Total GULP energy -89153.350524 kJ/mol
# GULP energy per Si atom -5572.084408 kJ/mol
# Density = 2.318456 g / cm^3
# Si number density = 23.237454 Si / 1000 Ang^3
#
#
#
# Elastic Constant Matrix: (Units=GPa)
#
#
# Indices 1 2 3 4 5 6 
#
# 1 153.6132 43.2748 48.9345 0.0000 -19.3402 0.0000
# 2 43.2748 73.6984 12.2595 0.0000 -7.5530 0.0000
# 3 48.9345 12.2595 119.1617 0.0000 -35.9696 0.0000
# 4 0.0000 0.0000 0.0000 20.8129 0.0000 8.0248
# 5 -19.3402 -7.5530 -35.9696 0.0000 33.9847 0.0000
# 6 0.0000 0.0000 0.0000 8.0248 0.0000 51.9409
#
#
#
# Elastic Compliance Matrix: (Units=1/GPa)
#
#
# Indices 1 2 3 4 5 6 
#
# 1 0.008846 -0.004618 -0.002862 0.000000 0.000978 0.000000
# 2 -0.004618 0.016339 0.000761 0.000000 0.001809 0.000000
# 3 -0.002862 0.000761 0.013296 0.000000 0.012613 0.000000
# 4 0.000000 0.000000 0.000000 0.051091 0.000000 -0.007893
# 5 0.000978 0.001809 0.012613 0.000000 0.043734 0.000000
# 6 0.000000 0.000000 0.000000 -0.007893 0.000000 0.020472
#
#
# Mechanical properties :
#
#
# Convention : Reuss Voigt Hill
#
# Bulk Modulus (GPa) = 39.92906 61.71231 50.82069
# Shear Modulus (GPa) = 28.47987 37.48133 32.98060
#
# Velocity S-wave (km/s) = 3.50466 4.02054 3.77143
# Velocity P-wave (km/s) = 5.79631 6.94031 6.39395
#
# Compressibility (1/GPa) = 0.02504442
#
# Stress axis : x y z
#
# Youngs Moduli (GPa) = 113.04999 61.20316 75.20840
#
# Poissons Ratio (x) = 0.28262 0.21526
# Poissons Ratio (y) = 0.52203 -0.05727
# Poissons Ratio (z) = 0.32356 -0.04661
#
# Static dielectric constant tensor:
#      x y z
#    x 1.868730 0.000000 -0.024640 
#    y 0.000000 1.888510 0.000000 
#    z -0.024640 0.000000 1.662970 
# 
# From -- ./inp_files/5008.got.cif
#   From: 2010.05.17/outbox.cif.g08.bks.cpg/sg14_3_cif.got.tgz:5008.got - 2010.06.03 17:49:19.
