data_PCOD9250158
_publ_section_title
;
Structure prediction by ZEFSAII (Michael W. Deem and Ramdas Pophale) SiO2 
 PCOD9250158
Probable space group: P 21/C
;
_chemical_formula_sum "Si O2"
_cell_formula_units_Z 20
_cell_length_a 14.612147
_cell_length_b 11.741211
_cell_length_c 10.608913
_cell_angle_alpha 90.000000
_cell_angle_beta 154.703537
_cell_angle_gamma 90.000000
_cell_volume 777.737055
_symmetry_space_group_name_H-M "P 21/C"
_symmetry_group_IT_number 14
_symmetry_cell_setting 'monoclinic'
loop_
_space_group_symop_operation_xyz
x,y,z
-x,1/2+y,1/2-z
-x,-y,-z
x,1/2-y,1/2+z
loop_
_atom_site_type_symbol
_atom_site_label
_atom_site_fract_x
_atom_site_fract_y
_atom_site_fract_z
Si Si1 0.284286 0.431948 0.983313
Si Si2 0.532748 0.601007 0.137876
Si Si3 0.195455 0.037979 0.653479
Si Si4 0.332014 0.812254 0.934942
Si Si5 0.883952 0.784425 0.942882
O O1 0.423522 0.544579 0.123604
O O2 0.162228 0.453683 0.961774
O O3 0.465908 0.334545 0.224214
O O4 0.131907 0.379967 0.685754
O O5 0.772834 0.652173 0.423916
O O6 0.500000 0.500000 0.000000
O O7 0.384734 0.705523 0.914037
O O8 0.337092 0.927882 0.860325
O O9 0.247394 0.168563 0.753049
O O10 0.000000 0.000000 0.500000
O O11 0.119557 0.771567 0.744000
#
# Coordination Sequence:
#
# PCOD9250158 Si02
#       5
#     4   4   4   4   4
#     4  11  24  44  77 104 153 201 233 306 384 415
#     4  10  24  45  69 104 148 181 245 300 353 439
#     4  10  23  47  71 108 144 185 250 302 350 449
#     4  11  24  46  74 103 144 192 241 301 358 439
#     4  10  24  49  69 111 145 185 248 303 354 450
#
# _framework density 25.715633
#
# number of rings (size 3 to 8) (size 9 to 14) (size 15 to 20)
#    0.000    1.600    2.000    0.600    2.800    4.800 
#   36.000    0.000    0.000    0.000    0.000    0.000 
#    0.000    0.000    0.000    0.000    0.000    0.000 
#
# Total GULP energy -111490.195509 kJ/mol
# GULP energy per Si atom -5574.509775 kJ/mol
# Density = 2.565710 g / cm^3
# Si number density = 25.715633 Si / 1000 Ang^3
#
#
#
# Elastic Constant Matrix: (Units=GPa)
#
#
# Indices 1 2 3 4 5 6 
#
# 1 167.6683 55.7817 24.7919 0.0000 24.1740 0.0000
# 2 55.7817 193.6907 28.1476 0.0000 15.4886 0.0000
# 3 24.7919 28.1476 43.8853 0.0000 24.9306 0.0000
# 4 0.0000 0.0000 0.0000 41.8247 0.0000 16.0158
# 5 24.1740 15.4886 24.9306 0.0000 35.6607 0.0000
# 6 0.0000 0.0000 0.0000 16.0158 0.0000 66.4330
#
#
#
# Elastic Compliance Matrix: (Units=1/GPa)
#
#
# Indices 1 2 3 4 5 6 
#
# 1 0.007155 -0.001634 -0.001064 0.000000 -0.003396 0.000000
# 2 -0.001634 0.006067 -0.003484 0.000000 0.000909 0.000000
# 3 -0.001064 -0.003484 0.040397 0.000000 -0.026007 0.000000
# 4 0.000000 0.000000 0.000000 0.026341 0.000000 -0.006350
# 5 -0.003396 0.000909 -0.026007 0.000000 0.048131 0.000000
# 6 0.000000 0.000000 0.000000 -0.006350 0.000000 0.016584
#
#
# Mechanical properties :
#
#
# Convention : Reuss Voigt Hill
#
# Bulk Modulus (GPa) = 24.24078 69.18742 46.71410
# Shear Modulus (GPa) = 29.27539 48.55188 38.91364
#
# Velocity S-wave (km/s) = 3.37772 4.34986 3.89424
# Velocity P-wave (km/s) = 4.96578 7.22438 6.19881
#
# Compressibility (1/GPa) = 0.04125279
#
# Stress axis : x y z
#
# Youngs Moduli (GPa) = 139.76378 164.81950 24.75443
#
# Poissons Ratio (x) = 0.26937 0.02635
# Poissons Ratio (y) = 0.22842 0.08625
# Poissons Ratio (z) = 0.14876 0.57430
#
# Static dielectric constant tensor:
#      x y z
#    x 2.120890 0.000000 0.074010 
#    y 0.000000 2.093030 0.000000 
#    z 0.074010 0.000000 2.228450 
# 
# From -- ./inp_files/32413.got.cif
#   From: 2010.05.17/outbox.cif.g08.bks.cpg/sg14_17_cif.got.tgz:32413.got - 2010.06.03 17:49:19.
