data_PCOD9250008
_publ_section_title
;
Structure prediction by ZEFSAII (Michael W. Deem and Ramdas Pophale) SiO2 
 PCOD9250008
Probable space group: P 21/C
;
_chemical_formula_sum "Si O2"
_cell_formula_units_Z 24
_cell_length_a 10.377510
_cell_length_b 11.053010
_cell_length_c 10.687486
_cell_angle_alpha 90.000000
_cell_angle_beta 56.696775
_cell_angle_gamma 90.000000
_cell_volume 1024.564764
_symmetry_space_group_name_H-M "P 21/C"
_symmetry_group_IT_number 14
_symmetry_cell_setting 'monoclinic'
loop_
_space_group_symop_operation_xyz
x,y,z
-x,1/2+y,1/2-z
-x,-y,-z
x,1/2-y,1/2+z
loop_
_atom_site_type_symbol
_atom_site_label
_atom_site_fract_x
_atom_site_fract_y
_atom_site_fract_z
Si Si1 0.802780 0.022233 0.047837
Si Si2 0.510607 0.072270 0.331446
Si Si3 0.919396 0.159493 0.748679
Si Si4 0.804952 0.417236 0.812582
Si Si5 0.767659 0.739374 0.024877
Si Si6 0.206165 0.507001 0.912076
O O1 0.116310 0.944502 0.863095
O O2 0.884211 0.074132 0.883437
O O3 0.768703 0.878819 0.060249
O O4 0.637144 0.091157 0.154101
O O5 0.631636 0.037619 0.375691
O O6 0.400384 0.186374 0.423934
O O7 0.388335 0.976408 0.340898
O O8 0.809811 0.274975 0.824146
O O9 0.865686 0.093533 0.650379
O O10 0.092098 0.215689 0.646954
O O11 0.862517 0.471431 0.911977
O O12 0.807578 0.636919 0.109798
#
# Coordination Sequence:
#
# PCOD9250008 Si02
#       6
#     4   4   4   4   4   4
#     4  10  25  47  71 106 135 188 240 290 353 417
#     4   8  23  45  69 100 136 187 240 288 346 420
#     4  12  25  44  72 107 146 185 233 297 355 423
#     4  10  23  45  72  97 142 189 234 286 355 420
#     4  10  25  45  72 104 143 184 236 295 354 426
#     4  10  23  45  69  99 146 181 233 287 362 408
#
# _framework density 23.424579999999999
#
# number of rings (size 3 to 8) (size 9 to 14) (size 15 to 20)
#    2.000    0.000    0.000    2.000    4.667    2.667 
#    6.000    0.000    0.000    0.000    0.000    0.000 
#    0.000    0.000    0.000    0.000    0.000    0.000 
#
# Total GULP energy -133620.721675 kJ/mol
# GULP energy per Si atom -5567.530070 kJ/mol
# Density = 2.337126 g / cm^3
# Si number density = 23.424580 Si / 1000 Ang^3
#
#
#
# Elastic Constant Matrix: (Units=GPa)
#
#
# Indices 1 2 3 4 5 6 
#
# 1 122.1884 33.1612 48.8584 0.0000 3.6724 0.0000
# 2 33.1612 130.8585 19.2680 0.0000 23.1701 0.0000
# 3 48.8584 19.2680 121.0813 0.0000 9.2517 0.0000
# 4 0.0000 0.0000 0.0000 36.1482 0.0000 1.6907
# 5 3.6724 23.1701 9.2517 0.0000 38.0870 0.0000
# 6 0.0000 0.0000 0.0000 1.6907 0.0000 25.1650
#
#
#
# Elastic Compliance Matrix: (Units=1/GPa)
#
#
# Indices 1 2 3 4 5 6 
#
# 1 0.010324 -0.002278 -0.003906 0.000000 0.001339 0.000000
# 2 -0.002278 0.009184 -0.000134 0.000000 -0.005334 0.000000
# 3 -0.003906 -0.000134 0.010007 0.000000 -0.001972 0.000000
# 4 0.000000 0.000000 0.000000 0.027751 0.000000 -0.001864
# 5 0.001339 -0.005334 -0.001972 0.000000 0.029851 0.000000
# 6 0.000000 0.000000 0.000000 -0.001864 0.000000 0.039863
#
#
# Mechanical properties :
#
#
# Convention : Reuss Voigt Hill
#
# Bulk Modulus (GPa) = 59.25003 64.07815 61.66409
# Shear Modulus (GPa) = 34.42533 38.06942 36.24737
#
# Velocity S-wave (km/s) = 3.83773 4.03574 3.93798
# Velocity P-wave (km/s) = 6.70719 7.00933 6.85992
#
# Compressibility (1/GPa) = 0.01687763
#
# Stress axis : x y z
#
# Youngs Moduli (GPa) = 96.86310 108.89091 99.92987
#
# Poissons Ratio (x) = 0.24808 0.39029
# Poissons Ratio (y) = 0.22068 0.01344
# Poissons Ratio (z) = 0.37831 0.01464
#
# Static dielectric constant tensor:
#      x y z
#    x 1.901190 0.000000 -0.072480 
#    y 0.000000 1.889750 0.000000 
#    z -0.072480 0.000000 2.011620 
# 
# From -- ./inp_files/28974.got.cif
#   From: 2010.05.17/outbox.cif.g08.bks.cpg/sg14_15_cif.got.tgz:28974.got - 2010.06.03 17:49:19.
