data_PCOD9250734
_publ_section_title
;
Structure prediction by ZEFSAII (Michael W. Deem and Ramdas Pophale) SiO2 
 PCOD9250734
Probable space group: P 21/C
;
_chemical_formula_sum "Si O2"
_cell_formula_units_Z 32
_cell_length_a 14.855504
_cell_length_b 14.524112
_cell_length_c 9.340712
_cell_angle_alpha 90.000000
_cell_angle_beta 126.113167
_cell_angle_gamma 90.000000
_cell_volume 1628.133788
_symmetry_space_group_name_H-M "P 21/C"
_symmetry_group_IT_number 14
_symmetry_cell_setting 'monoclinic'
loop_
_space_group_symop_operation_xyz
x,y,z
-x,1/2+y,1/2-z
-x,-y,-z
x,1/2-y,1/2+z
loop_
_atom_site_type_symbol
_atom_site_label
_atom_site_fract_x
_atom_site_fract_y
_atom_site_fract_z
Si Si1 0.121309 0.183528 0.001628
Si Si2 0.845590 0.010841 0.434424
Si Si3 0.593496 0.054336 0.174011
Si Si4 0.791235 0.547244 0.188898
Si Si5 0.662247 0.721448 0.934817
Si Si6 0.025200 0.151094 0.601411
Si Si7 0.504008 0.725769 0.528805
Si Si8 0.582144 0.429810 0.000712
O O1 0.143822 0.092611 0.117921
O O2 0.240254 0.224330 0.057411
O O3 0.061232 0.259240 0.045626
O O4 0.051445 0.167067 0.792465
O O5 0.715193 0.011521 0.279952
O O6 0.901510 0.110480 0.464029
O O7 0.862167 0.983871 0.617360
O O8 0.900351 0.933226 0.387744
O O9 0.590915 0.155673 0.105127
O O10 0.566022 0.061472 0.315485
O O11 0.500000 0.000000 0.000000
O O12 0.715168 0.631059 0.055754
O O13 0.707869 0.464108 0.150816
O O14 0.563321 0.699281 0.732346
O O15 0.603179 0.778573 0.004904
O O16 0.453539 0.827639 0.488920
O O17 0.500000 0.500000 0.000000
#
# Coordination Sequence:
#
# PCOD9250734 Si02
#       8
#     4   4   4   4   4   4   4   4
#     4  12  22  39  69  98 120 167 218 270 327 376
#     4  10  24  46  63  93 131 166 214 269 324 384
#     4  11  26  41  66  94 131 177 215 258 328 389
#     4  11  22  39  64  91 128 164 216 277 314 383
#     4  12  20  36  62  95 129 161 224 261 313 380
#     4  11  23  43  70  93 127 163 215 273 321 382
#     4  12  23  38  59  93 133 177 211 263 325 386
#     4  11  22  39  58  90 130 170 210 266 316 380
#
# _framework density 19.654405000000001
#
# number of rings (size 3 to 8) (size 9 to 14) (size 15 to 20)
#    0.000    0.750    6.250    1.500    1.750    0.500 
#    4.500    0.000    0.000    0.000    0.000    0.000 
#    0.000    0.000    0.000    0.000    0.000    0.000 
#
# Total GULP energy -178823.904286 kJ/mol
# GULP energy per Si atom -5588.247009 kJ/mol
# Density = 1.960967 g / cm^3
# Si number density = 19.654405 Si / 1000 Ang^3
#
#
#
# Elastic Constant Matrix: (Units=GPa)
#
#
# Indices 1 2 3 4 5 6 
#
# 1 46.5100 24.2778 38.8310 0.0000 -4.4814 0.0000
# 2 24.2778 77.2778 35.1932 0.0000 1.0457 0.0000
# 3 38.8310 35.1932 106.3747 0.0000 -9.0677 0.0000
# 4 0.0000 0.0000 0.0000 34.4838 0.0000 2.5220
# 5 -4.4814 1.0457 -9.0677 0.0000 20.6173 0.0000
# 6 0.0000 0.0000 0.0000 2.5220 0.0000 15.4492
#
#
#
# Elastic Compliance Matrix: (Units=1/GPa)
#
#
# Indices 1 2 3 4 5 6 
#
# 1 0.033151 -0.005969 -0.009856 0.000000 0.003174 0.000000
# 2 -0.005969 0.016505 -0.003598 0.000000 -0.003717 0.000000
# 3 -0.009856 -0.003598 0.014568 0.000000 0.004447 0.000000
# 4 0.000000 0.000000 0.000000 0.029349 0.000000 -0.004791
# 5 0.003174 -0.003717 0.004447 0.000000 0.051337 0.000000
# 6 0.000000 0.000000 0.000000 -0.004791 0.000000 0.065510
#
#
# Mechanical properties :
#
#
# Convention : Reuss Voigt Hill
#
# Bulk Modulus (GPa) = 39.40609 47.41852 43.41231
# Shear Modulus (GPa) = 19.40035 22.90078 21.15057
#
# Velocity S-wave (km/s) = 3.14518 3.41717 3.28399
# Velocity P-wave (km/s) = 5.76911 6.30459 6.04278
#
# Compressibility (1/GPa) = 0.02537679
#
# Stress axis : x y z
#
# Youngs Moduli (GPa) = 30.16478 60.58905 68.64281
#
# Poissons Ratio (x) = 0.36167 0.67655
# Poissons Ratio (y) = 0.18006 0.24700
# Poissons Ratio (z) = 0.29731 0.21802
#
# Static dielectric constant tensor:
#      x y z
#    x 1.695650 0.000000 -0.005190 
#    y 0.000000 1.709330 0.000000 
#    z -0.005190 0.000000 1.710800 
# 
# From -- ./inp_files/16254.got.cif
#   From: 2010.05.17/outbox.cif.g08.bks.cpg/sg14_9_cif.got.tgz:16254.got - 2010.06.03 17:49:19.
