data_PCOD9250933
_publ_section_title
;
Structure prediction by ZEFSAII (Michael W. Deem and Ramdas Pophale) SiO2 
 PCOD9250933
Probable space group: P 21/C
;
_chemical_formula_sum "Si O2"
_cell_formula_units_Z 32
_cell_length_a 8.090973
_cell_length_b 8.627062
_cell_length_c 24.062896
_cell_angle_alpha 90.000000
_cell_angle_beta 64.894124
_cell_angle_gamma 90.000000
_cell_volume 1520.940236
_symmetry_space_group_name_H-M "P 21/C"
_symmetry_group_IT_number 14
_symmetry_cell_setting 'monoclinic'
loop_
_space_group_symop_operation_xyz
x,y,z
-x,1/2+y,1/2-z
-x,-y,-z
x,1/2-y,1/2+z
loop_
_atom_site_type_symbol
_atom_site_label
_atom_site_fract_x
_atom_site_fract_y
_atom_site_fract_z
Si Si1 0.002619 0.473018 0.722078
Si Si2 0.752934 0.223923 0.209935
Si Si3 0.417893 0.888043 0.432931
Si Si4 0.453838 0.594160 0.356530
Si Si5 0.337275 0.803663 0.154314
Si Si6 0.764001 0.450050 0.922421
Si Si7 0.204529 0.465739 0.862116
Si Si8 0.214715 0.230433 0.263170
O O1 0.961263 0.325569 0.689821
O O2 0.837932 0.595154 0.744205
O O3 0.168180 0.577144 0.679763
O O4 0.049001 0.389538 0.772977
O O5 0.683850 0.100927 0.175228
O O6 0.667890 0.223784 0.283832
O O7 0.732258 0.392896 0.187101
O O8 0.633297 0.916474 0.414630
O O9 0.322354 0.003314 0.401054
O O10 0.394478 0.715678 0.411752
O O11 0.314036 0.914170 0.505337
O O12 0.494482 0.422941 0.372596
O O13 0.628030 0.671871 0.300165
O O14 0.295607 0.690668 0.109790
O O15 0.982718 0.475047 0.898856
O O16 0.251824 0.308335 0.821977
#
# Coordination Sequence:
#
# PCOD9250933 Si02
#       8
#     4   4   4   4   4   4   4   4
#     4  11  20  34  53  89 122 158 199 240 316 384
#     4  11  23  36  58  96 128 158 203 262 335 379
#     4  10  26  43  66  92 121 174 214 255 312 368
#     4  10  25  38  59  90 131 160 201 263 320 382
#     4  11  23  37  60  90 123 165 203 257 321 375
#     4  11  24  44  67  90 123 170 218 259 301 379
#     4  11  21  42  65  93 127 160 211 266 315 382
#     4  11  21  34  58  91 124 160 196 259 325 373
#
# _framework density 21.039618000000001
#
# number of rings (size 3 to 8) (size 9 to 14) (size 15 to 20)
#    0.000    1.250    5.000    0.375   10.500    0.500 
#    0.000    0.000    0.000    1.500    0.000    0.000 
#    0.000    0.000    0.000    0.000    0.000    0.000 
#
# Total GULP energy -178404.031474 kJ/mol
# GULP energy per Si atom -5575.125984 kJ/mol
# Density = 2.099173 g / cm^3
# Si number density = 21.039618 Si / 1000 Ang^3
#
#
#
# Elastic Constant Matrix: (Units=GPa)
#
#
# Indices 1 2 3 4 5 6 
#
# 1 90.0804 7.4452 29.0539 0.0000 16.8981 0.0000
# 2 7.4452 62.5895 23.2539 0.0000 18.8217 0.0000
# 3 29.0539 23.2539 91.0764 0.0000 32.6320 0.0000
# 4 0.0000 0.0000 0.0000 23.3519 0.0000 6.7614
# 5 16.8981 18.8217 32.6320 0.0000 31.8176 0.0000
# 6 0.0000 0.0000 0.0000 6.7614 0.0000 47.4408
#
#
#
# Elastic Compliance Matrix: (Units=1/GPa)
#
#
# Indices 1 2 3 4 5 6 
#
# 1 0.012739 0.000835 -0.002650 0.000000 -0.004542 0.000000
# 2 0.000835 0.019592 -0.001513 0.000000 -0.010481 0.000000
# 3 -0.002650 -0.001513 0.018001 0.000000 -0.016160 0.000000
# 4 0.000000 0.000000 0.000000 0.044666 0.000000 -0.006366
# 5 -0.004542 -0.010481 -0.016160 0.000000 0.056615 0.000000
# 6 0.000000 0.000000 0.000000 -0.006366 0.000000 0.021986
#
#
# Mechanical properties :
#
#
# Convention : Reuss Voigt Hill
#
# Bulk Modulus (GPa) = 22.89589 40.36138 31.62863
# Shear Modulus (GPa) = 25.66554 32.78829 29.22692
#
# Velocity S-wave (km/s) = 3.49645 3.95195 3.73116
# Velocity P-wave (km/s) = 5.21595 6.32843 5.79893
#
# Compressibility (1/GPa) = 0.04367597
#
# Stress axis : x y z
#
# Youngs Moduli (GPa) = 78.50041 51.04169 55.55153
#
# Poissons Ratio (x) = -0.04262 0.14719
# Poissons Ratio (y) = -0.06554 0.08407
# Poissons Ratio (z) = 0.20799 0.07725
#
# Static dielectric constant tensor:
#      x y z
#    x 2.189330 0.000000 0.008600 
#    y 0.000000 1.772280 0.000000 
#    z 0.008600 0.000000 1.730480 
# 
# From -- ./inp_files/71920.got.cif
#   From: 2010.05.17/outbox.cif.g08.bks.cpg/sg14_36_cif.got.tgz:71920.got - 2010.06.03 17:49:19.
