data_PCOD9250895
_publ_section_title
;
Structure prediction by ZEFSAII (Michael W. Deem and Ramdas Pophale) SiO2 
 PCOD9250895
Probable space group: P 21/C
;
_chemical_formula_sum "Si O2"
_cell_formula_units_Z 20
_cell_length_a 7.452899
_cell_length_b 9.340734
_cell_length_c 19.196725
_cell_angle_alpha 90.000000
_cell_angle_beta 32.779196
_cell_angle_gamma 90.000000
_cell_volume 723.525788
_symmetry_space_group_name_H-M "P 21/C"
_symmetry_group_IT_number 14
_symmetry_cell_setting 'monoclinic'
loop_
_space_group_symop_operation_xyz
x,y,z
-x,1/2+y,1/2-z
-x,-y,-z
x,1/2-y,1/2+z
loop_
_atom_site_type_symbol
_atom_site_label
_atom_site_fract_x
_atom_site_fract_y
_atom_site_fract_z
Si Si1 0.135254 0.118468 0.245731
Si Si2 0.481794 0.502819 0.891441
Si Si3 0.611704 0.222975 0.982773
Si Si4 0.868688 0.707878 0.489763
Si Si5 0.431658 0.020085 0.792073
O O1 0.491585 0.935134 0.310920
O O2 0.475432 0.131364 0.091319
O O3 0.235049 0.012844 0.274383
O O4 0.974749 0.262576 0.331126
O O5 0.211427 0.375849 0.976056
O O6 0.838427 0.433161 0.793484
O O7 0.568552 0.380423 0.031635
O O8 0.370482 0.180207 0.998561
O O9 0.757469 0.635614 0.598855
O O10 0.212836 0.627013 0.360385
#
# Coordination Sequence:
#
# PCOD9250895 Si02
#       5
#     4   4   4   4   4
#     4  11  26  45  76 110 154 200 263 316 390 467
#     4  11  26  48  77 111 155 210 262 319 389 466
#     4  11  26  50  78 110 154 211 259 323 391 461
#     4  10  24  49  72 111 160 199 260 321 392 467
#     4  11  26  44  78 114 153 204 256 330 388 460
#
# _framework density 27.642416999999998
#
# number of rings (size 3 to 8) (size 9 to 14) (size 15 to 20)
#    0.000    1.200    2.000    2.400   11.200    4.800 
#    0.000    0.000    0.000    0.000    0.000    0.000 
#    0.000    0.000    0.000    0.000    0.000    0.000 
#
# Total GULP energy -111994.705029 kJ/mol
# GULP energy per Si atom -5599.735251 kJ/mol
# Density = 2.757950 g / cm^3
# Si number density = 27.642417 Si / 1000 Ang^3
#
#
#
# Elastic Constant Matrix: (Units=GPa)
#
#
# Indices 1 2 3 4 5 6 
#
# 1 152.7061 37.8033 66.6908 0.0000 19.4362 0.0000
# 2 37.8033 129.2727 38.4696 0.0000 2.0824 0.0000
# 3 66.6908 38.4696 111.2634 0.0000 15.9996 0.0000
# 4 0.0000 0.0000 0.0000 37.9582 0.0000 7.7829
# 5 19.4362 2.0824 15.9996 0.0000 39.4948 0.0000
# 6 0.0000 0.0000 0.0000 7.7829 0.0000 38.0032
#
#
#
# Elastic Compliance Matrix: (Units=1/GPa)
#
#
# Indices 1 2 3 4 5 6 
#
# 1 0.009259 -0.001254 -0.004747 0.000000 -0.002567 0.000000
# 2 -0.001254 0.008816 -0.002462 0.000000 0.001149 0.000000
# 3 -0.004747 -0.002462 0.013092 0.000000 -0.002838 0.000000
# 4 0.000000 0.000000 0.000000 0.027499 0.000000 -0.005632
# 5 -0.002567 0.001149 -0.002838 0.000000 0.027672 0.000000
# 6 0.000000 0.000000 0.000000 -0.005632 0.000000 0.027467
#
#
# Mechanical properties :
#
#
# Convention : Reuss Voigt Hill
#
# Bulk Modulus (GPa) = 70.21520 75.46330 72.83925
# Shear Modulus (GPa) = 36.90603 39.77648 38.34126
#
# Velocity S-wave (km/s) = 3.65790 3.79749 3.72834
# Velocity P-wave (km/s) = 6.58002 6.82546 6.70387
#
# Compressibility (1/GPa) = 0.01424193
#
# Stress axis : x y z
#
# Youngs Moduli (GPa) = 108.00551 113.42556 76.37985
#
# Poissons Ratio (x) = 0.14218 0.36258
# Poissons Ratio (y) = 0.13539 0.18806
# Poissons Ratio (z) = 0.51271 0.27928
#
# Static dielectric constant tensor:
#      x y z
#    x 2.019920 0.000000 -0.026200 
#    y 0.000000 2.209940 0.000000 
#    z -0.026200 0.000000 2.161910 
# 
# From -- ./inp_files/37494.got.cif
#   From: 2010.05.17/outbox.cif.g08.bks.cpg/sg14_19_cif.got.tgz:37494.got - 2010.06.03 17:49:19.
