data_PCOD9250101
_publ_section_title
;
Structure prediction by ZEFSAII (Michael W. Deem and Ramdas Pophale) SiO2 
 PCOD9250101
Probable space group: P 21/C
;
_chemical_formula_sum "Si O2"
_cell_formula_units_Z 32
_cell_length_a 14.844228
_cell_length_b 12.809900
_cell_length_c 26.385236
_cell_angle_alpha 90.000000
_cell_angle_beta 160.712562
_cell_angle_gamma 90.000000
_cell_volume 1657.229741
_symmetry_space_group_name_H-M "P 21/C"
_symmetry_group_IT_number 14
_symmetry_cell_setting 'monoclinic'
loop_
_space_group_symop_operation_xyz
x,y,z
-x,1/2+y,1/2-z
-x,-y,-z
x,1/2-y,1/2+z
loop_
_atom_site_type_symbol
_atom_site_label
_atom_site_fract_x
_atom_site_fract_y
_atom_site_fract_z
Si Si1 0.449766 0.336067 0.356541
Si Si2 0.255328 0.931063 0.890801
Si Si3 0.814684 0.141186 0.542386
Si Si4 0.156968 0.737758 0.255786
Si Si5 0.244886 0.573543 0.872448
Si Si6 0.391126 0.528580 0.248814
Si Si7 0.755817 0.946848 0.436536
Si Si8 0.602189 0.769900 0.906089
O O1 0.618514 0.363356 0.497010
O O2 0.598296 0.232402 0.415010
O O3 0.463224 0.435002 0.325836
O O4 0.127289 0.323054 0.197459
O O5 0.143610 0.863738 0.784300
O O6 0.019474 0.007670 0.784002
O O7 0.500000 0.000000 0.000000
O O8 0.792011 0.110026 0.589297
O O9 0.751124 0.038157 0.475883
O O10 0.282621 0.826543 0.357582
O O11 0.342654 0.724131 0.305217
O O12 0.862314 0.772778 0.080772
O O13 0.500000 0.500000 0.000000
O O14 0.396479 0.484978 0.194819
O O15 0.578887 0.629109 0.358030
O O16 0.076665 0.563412 0.092380
O O17 0.633890 0.838880 0.392838
#
# Coordination Sequence:
#
# PCOD9250101 Si02
#       8
#     4   4   4   4   4   4   4   4
#     4  11  24  42  66  96 132 171 219 267 330 392
#     4  12  23  40  64  88 133 182 217 256 323 395
#     4  11  24  43  64  98 132 172 216 270 327 392
#     4  12  24  40  63  96 131 174 216 267 322 387
#     4  12  25  38  62  94 134 174 219 268 318 382
#     4  10  23  46  72  95 129 176 212 275 340 391
#     4  10  23  46  72  94 132 171 217 274 338 391
#     4  12  24  44  67 100 129 172 225 269 328 398
#
# _framework density 19.309332000000001
#
# number of rings (size 3 to 8) (size 9 to 14) (size 15 to 20)
#    0.000    0.750    3.750    4.500    3.500    0.000 
#    2.250    0.625    0.000    0.000    0.000    0.000 
#    0.000    0.000    0.000    0.000    0.000    0.000 
#
# Total GULP energy -178901.555826 kJ/mol
# GULP energy per Si atom -5590.673620 kJ/mol
# Density = 1.926538 g / cm^3
# Si number density = 19.309332 Si / 1000 Ang^3
#
#
#
# Elastic Constant Matrix: (Units=GPa)
#
#
# Indices 1 2 3 4 5 6 
#
# 1 70.5498 39.4830 11.0759 0.0000 -20.4412 0.0000
# 2 39.4830 208.7942 24.9785 0.0000 28.2270 0.0000
# 3 11.0759 24.9785 70.4244 0.0000 -11.4117 0.0000
# 4 0.0000 0.0000 0.0000 44.3562 0.0000 -3.4558
# 5 -20.4412 28.2270 -11.4117 0.0000 50.6823 0.0000
# 6 0.0000 0.0000 0.0000 -3.4558 0.0000 23.8023
#
#
#
# Elastic Compliance Matrix: (Units=1/GPa)
#
#
# Indices 1 2 3 4 5 6 
#
# 1 0.020469 -0.005487 0.000581 0.000000 0.011443 0.000000
# 2 -0.005487 0.007070 -0.002741 0.000000 -0.006768 0.000000
# 3 0.000581 -0.002741 0.015948 0.000000 0.005352 0.000000
# 4 0.000000 0.000000 0.000000 0.022803 0.000000 0.003311
# 5 0.011443 -0.006768 0.005352 0.000000 0.029320 0.000000
# 6 0.000000 0.000000 0.000000 0.003311 0.000000 0.042493
#
#
# Mechanical properties :
#
#
# Convention : Reuss Voigt Hill
#
# Bulk Modulus (GPa) = 35.47059 55.64925 45.55992
# Shear Modulus (GPa) = 30.71332 42.05021 36.38176
#
# Velocity S-wave (km/s) = 3.99255 4.67166 4.34539
# Velocity P-wave (km/s) = 6.29790 7.61457 6.98732
#
# Compressibility (1/GPa) = 0.02819237
#
# Stress axis : x y z
#
# Youngs Moduli (GPa) = 48.85320 141.44390 62.70474
#
# Poissons Ratio (x) = 0.77614 -0.03644
# Poissons Ratio (y) = 0.26807 0.17189
# Poissons Ratio (z) = -0.02839 0.38774
#
# Static dielectric constant tensor:
#      x y z
#    x 0.293540 0.000000 -0.282810 
#    y 0.000000 1.669430 0.000000 
#    z -0.282810 0.000000 1.596420 
# 
# From -- ./inp_files/77584.got.cif
#   From: 2010.05.17/outbox.cif.g08.bks.cpg/sg14_39_cif.got.tgz:77584.got - 2010.06.03 17:49:19.
