data_PCOD9250969
_publ_section_title
;
Structure prediction by ZEFSAII (Michael W. Deem and Ramdas Pophale) SiO2 
 PCOD9250969
Probable space group: P 21/C
;
_chemical_formula_sum "Si O2"
_cell_formula_units_Z 32
_cell_length_a 26.263369
_cell_length_b 5.522499
_cell_length_c 9.221343
_cell_angle_alpha 90.000000
_cell_angle_beta 70.737308
_cell_angle_gamma 90.000000
_cell_volume 1262.582010
_symmetry_space_group_name_H-M "P 21/C"
_symmetry_group_IT_number 14
_symmetry_cell_setting 'monoclinic'
loop_
_space_group_symop_operation_xyz
x,y,z
-x,1/2+y,1/2-z
-x,-y,-z
x,1/2-y,1/2+z
loop_
_atom_site_type_symbol
_atom_site_label
_atom_site_fract_x
_atom_site_fract_y
_atom_site_fract_z
Si Si1 0.343893 0.082560 0.899378
Si Si2 0.245475 0.417733 0.082436
Si Si3 0.620964 0.935385 0.847910
Si Si4 0.727921 0.290990 0.190155
Si Si5 0.851115 0.918730 0.184295
Si Si6 0.483946 0.559442 0.683653
Si Si7 0.062080 0.026172 0.402093
Si Si8 0.880456 0.209769 0.904018
O O1 0.371509 0.169687 0.724648
O O2 0.303946 0.867458 0.898857
O O3 0.302595 0.290395 0.996376
O O4 0.391587 0.054840 0.970766
O O5 0.251990 0.615534 0.203811
O O6 0.197535 0.260291 0.200543
O O7 0.232471 0.539127 0.939080
O O8 0.680340 0.047009 0.797607
O O9 0.581238 0.070863 0.777097
O O10 0.908513 0.785587 0.124913
O O11 0.854860 0.129048 0.301407
O O12 0.843375 0.024103 0.030337
O O13 0.497316 0.318460 0.767670
O O14 0.500000 0.500000 0.500000
O O15 0.093934 0.875772 0.495299
O O16 0.073523 0.929824 0.229460
O O17 0.000000 0.000000 0.500000
#
# Coordination Sequence:
#
# PCOD9250969 Si02
#       8
#     4   4   4   4   4   4   4   4
#     4  11  23  42  66 103 130 191 228 290 352 430
#     4  11  24  40  69  97 141 175 228 278 345 426
#     4  11  25  43  72  96 145 182 247 295 363 436
#     4  11  23  42  65 101 134 185 226 283 347 428
#     4  11  24  45  67 105 139 178 220 288 348 417
#     4  12  29  50  77 115 153 207 262 335 400 464
#     4  11  26  44  72  96 135 174 230 279 344 408
#     4  10  25  43  68 102 128 179 219 274 348 400
#
# _framework density 25.344887
#
# number of rings (size 3 to 8) (size 9 to 14) (size 15 to 20)
#    0.000    1.000    2.500    2.625    7.000    5.000 
#    0.000    0.000    0.000    0.000    0.000    0.000 
#    0.000    0.000    0.000    0.000    0.000    0.000 
#
# Total GULP energy -178808.330980 kJ/mol
# GULP energy per Si atom -5587.760343 kJ/mol
# Density = 2.528720 g / cm^3
# Si number density = 25.344887 Si / 1000 Ang^3
#
#
#
# Elastic Constant Matrix: (Units=GPa)
#
#
# Indices 1 2 3 4 5 6 
#
# 1 60.8683 9.2227 14.2890 0.0000 15.0439 0.0000
# 2 9.2227 73.0221 37.5737 0.0000 17.7880 0.0000
# 3 14.2890 37.5737 139.2067 0.0000 20.9605 0.0000
# 4 0.0000 0.0000 0.0000 692.1746 0.0000 137.5782
# 5 15.0439 17.7880 20.9605 0.0000 43.2626 0.0000
# 6 0.0000 0.0000 0.0000 137.5782 0.0000 57.5654
#
#
#
# Elastic Compliance Matrix: (Units=1/GPa)
#
#
# Indices 1 2 3 4 5 6 
#
# 1 0.018109 -0.000449 -0.000882 0.000000 -0.005686 0.000000
# 2 -0.000449 0.016900 -0.003767 0.000000 -0.004967 0.000000
# 3 -0.000882 -0.003767 0.008642 0.000000 -0.002331 0.000000
# 4 0.000000 0.000000 0.000000 0.002752 0.000000 -0.006577
# 5 -0.005686 -0.004967 -0.002331 0.000000 0.028264 0.000000
# 6 0.000000 0.000000 0.000000 -0.006577 0.000000 0.033091
#
#
# Mechanical properties :
#
#
# Convention : Reuss Voigt Hill
#
# Bulk Modulus (GPa) = 29.89054 43.91866 36.90460
# Shear Modulus (GPa) = 38.72840 172.73462 105.73151
#
# Velocity S-wave (km/s) = 3.91328 8.26448 6.46588
# Velocity P-wave (km/s) = 5.67780 10.41320 8.38666
#
# Compressibility (1/GPa) = 0.03345540
#
# Stress axis : x y z
#
# Youngs Moduli (GPa) = 55.22096 59.17256 115.71409
#
# Poissons Ratio (x) = 0.02654 0.10202
# Poissons Ratio (y) = 0.02477 0.43595
# Poissons Ratio (z) = 0.04869 0.22293
#
# Static dielectric constant tensor:
#      x y z
#    x 2.037680 0.000000 -0.062430 
#    y 0.000000 2.096020 0.000000 
#    z -0.062430 0.000000 2.072860 
# 
# From -- ./inp_files/19886.got.cif
#   From: 2010.05.17/outbox.cif.g08.bks.cpg/sg14_10_cif.got.tgz:19886.got - 2010.06.03 17:49:19.
