data_PCOD9250963
_publ_section_title
;
Structure prediction by ZEFSAII (Michael W. Deem and Ramdas Pophale) SiO2 
 PCOD9250963
Probable space group: P 21/C
;
_chemical_formula_sum "Si O2"
_cell_formula_units_Z 28
_cell_length_a 16.086193
_cell_length_b 9.510950
_cell_length_c 9.430372
_cell_angle_alpha 90.000000
_cell_angle_beta 123.668858
_cell_angle_gamma 90.000000
_cell_volume 1200.777968
_symmetry_space_group_name_H-M "P 21/C"
_symmetry_group_IT_number 14
_symmetry_cell_setting 'monoclinic'
loop_
_space_group_symop_operation_xyz
x,y,z
-x,1/2+y,1/2-z
-x,-y,-z
x,1/2-y,1/2+z
loop_
_atom_site_type_symbol
_atom_site_label
_atom_site_fract_x
_atom_site_fract_y
_atom_site_fract_z
Si Si1 0.334956 0.530693 0.116074
Si Si2 0.533672 0.108470 0.707505
Si Si3 0.926670 0.643271 0.766753
Si Si4 0.794369 0.783398 0.392065
Si Si5 0.735053 0.480578 0.247118
Si Si6 0.057390 0.590746 0.432814
Si Si7 0.554945 0.350735 0.543338
O O1 0.445089 0.498740 0.157006
O O2 0.292430 0.382906 0.132915
O O3 0.347892 0.630661 0.264649
O O4 0.269946 0.573282 0.919235
O O5 0.494762 0.228516 0.564584
O O6 0.630309 0.042879 0.726054
O O7 0.567771 0.174429 0.889972
O O8 0.858102 0.719398 0.581904
O O9 0.862726 0.628788 0.848785
O O10 0.958182 0.496635 0.726811
O O11 0.013957 0.753817 0.881444
O O12 0.755824 0.647525 0.270070
O O13 0.826558 0.411250 0.416732
O O14 0.000000 0.500000 0.500000
O O15 0.500000 0.500000 0.500000
#
# Coordination Sequence:
#
# PCOD9250963 Si02
#       7
#     4   4   4   4   4   4   4
#     4  11  24  40  73  97 142 183 239 281 348 420
#     4  11  25  43  66 100 143 181 237 286 353 406
#     4  11  23  46  74 104 139 181 236 295 362 429
#     4  11  23  41  71 104 132 185 241 279 350 431
#     4  11  24  42  70  97 142 183 233 292 354 411
#     4  11  23  48  73 104 143 181 239 299 362 423
#     4  10  25  43  65  97 134 184 235 280 345 414
#
# _framework density 23.318216
#
# number of rings (size 3 to 8) (size 9 to 14) (size 15 to 20)
#    0.000    1.143    4.286    1.286   12.000    0.571 
#    7.714    0.000    0.000    0.000    0.000    0.000 
#    0.000    0.000    0.000    0.000    0.000    0.000 
#
# Total GULP energy -156714.526515 kJ/mol
# GULP energy per Si atom -5596.947376 kJ/mol
# Density = 2.326514 g / cm^3
# Si number density = 23.318216 Si / 1000 Ang^3
#
#
#
# Elastic Constant Matrix: (Units=GPa)
#
#
# Indices 1 2 3 4 5 6 
#
# 1 90.4929 17.0675 24.0340 0.0000 0.5942 0.0000
# 2 17.0675 53.4468 20.1708 0.0000 8.5471 0.0000
# 3 24.0340 20.1708 119.4929 0.0000 -19.0239 0.0000
# 4 0.0000 0.0000 0.0000 40.7725 0.0000 -5.1181
# 5 0.5942 8.5471 -19.0239 0.0000 40.3535 0.0000
# 6 0.0000 0.0000 0.0000 -5.1181 0.0000 35.4451
#
#
#
# Elastic Compliance Matrix: (Units=1/GPa)
#
#
# Indices 1 2 3 4 5 6 
#
# 1 0.012162 -0.003049 -0.002008 0.000000 -0.000480 0.000000
# 2 -0.003049 0.022345 -0.004222 0.000000 -0.006678 0.000000
# 3 -0.002008 -0.004222 0.010414 0.000000 0.005833 0.000000
# 4 0.000000 0.000000 0.000000 0.024979 0.000000 0.003607
# 5 -0.000480 -0.006678 0.005833 0.000000 0.028953 0.000000
# 6 0.000000 0.000000 0.000000 0.003607 0.000000 0.028733
#
#
# Mechanical properties :
#
#
# Convention : Reuss Voigt Hill
#
# Bulk Modulus (GPa) = 37.93165 42.88637 40.40901
# Shear Modulus (GPa) = 32.27219 36.79158 34.53188
#
# Velocity S-wave (km/s) = 3.72424 3.97647 3.85242
# Velocity P-wave (km/s) = 5.89877 6.28608 6.09550
#
# Compressibility (1/GPa) = 0.02636321
#
# Stress axis : x y z
#
# Youngs Moduli (GPa) = 82.22241 44.75217 96.02559
#
# Poissons Ratio (x) = 0.13646 0.19281
# Poissons Ratio (y) = 0.25072 0.40541
# Poissons Ratio (z) = 0.16509 0.18894
#
# Static dielectric constant tensor:
#      x y z
#    x 1.839620 0.000000 0.003050 
#    y 0.000000 1.883610 0.000000 
#    z 0.003050 0.000000 1.933100 
# 
# From -- ./inp_files/15871.got.cif
#   From: 2010.05.17/outbox.cif.g08.bks.cpg/sg14_8_cif.got.tgz:15871.got - 2010.06.03 17:49:19.
