data_PCOD9250070
_publ_section_title
;
Structure prediction by ZEFSAII (Michael W. Deem and Ramdas Pophale) SiO2 
 PCOD9250070
Probable space group: P 21/C
;
_chemical_formula_sum "Si O2"
_cell_formula_units_Z 20
_cell_length_a 7.120550
_cell_length_b 17.830217
_cell_length_c 12.448417
_cell_angle_alpha 90.000000
_cell_angle_beta 30.403938
_cell_angle_gamma 90.000000
_cell_volume 799.861265
_symmetry_space_group_name_H-M "P 21/C"
_symmetry_group_IT_number 14
_symmetry_cell_setting 'monoclinic'
loop_
_space_group_symop_operation_xyz
x,y,z
-x,1/2+y,1/2-z
-x,-y,-z
x,1/2-y,1/2+z
loop_
_atom_site_type_symbol
_atom_site_label
_atom_site_fract_x
_atom_site_fract_y
_atom_site_fract_z
Si Si1 0.655818 0.649760 0.829839
Si Si2 0.703589 0.894197 0.068481
Si Si3 0.149495 0.180773 0.215736
Si Si4 0.536643 0.554251 0.319456
Si Si5 0.107839 0.430352 0.076362
O O1 0.803345 0.624412 0.641146
O O2 0.786105 0.731879 0.802108
O O3 0.740109 0.592268 0.883890
O O4 0.214996 0.660198 0.038751
O O5 0.257641 0.881242 0.272766
O O6 0.737597 0.983720 0.029268
O O7 0.898783 0.843538 0.883754
O O8 0.477632 0.127775 0.100661
O O9 0.925123 0.512834 0.162557
O O10 0.592989 0.573571 0.166679
#
# Coordination Sequence:
#
# PCOD9250070 Si02
#       5
#     4   4   4   4   4
#     4  12  26  43  69  99 138 181 222 276 340 401
#     4  10  23  46  68 100 130 179 224 277 336 397
#     4  12  25  43  69 100 138 178 225 279 335 397
#     4   9  20  45  74  94 138 173 222 286 327 393
#     4   9  20  45  71  96 136 172 219 282 332 392
#
# _framework density 25.004335000000001
#
# number of rings (size 3 to 8) (size 9 to 14) (size 15 to 20)
#    1.200    0.400    2.000    1.800    2.800    4.800 
#    3.600    2.000    0.000    0.000    0.000    0.000 
#    0.000    0.000    0.000    0.000    0.000    0.000 
#
# Total GULP energy -111935.939574 kJ/mol
# GULP energy per Si atom -5596.796979 kJ/mol
# Density = 2.494742 g / cm^3
# Si number density = 25.004335 Si / 1000 Ang^3
#
#
#
# Elastic Constant Matrix: (Units=GPa)
#
#
# Indices 1 2 3 4 5 6 
#
# 1 124.4118 55.8962 20.4739 0.0000 33.0215 0.0000
# 2 55.8962 150.4817 28.2514 0.0000 28.6378 0.0000
# 3 20.4739 28.2514 66.9944 0.0000 24.2903 0.0000
# 4 0.0000 0.0000 0.0000 20.1806 0.0000 5.4705
# 5 33.0215 28.6378 24.2903 0.0000 53.2593 0.0000
# 6 0.0000 0.0000 0.0000 5.4705 0.0000 27.7798
#
#
#
# Elastic Compliance Matrix: (Units=1/GPa)
#
#
# Indices 1 2 3 4 5 6 
#
# 1 0.010736 -0.003006 -0.000223 0.000000 -0.004938 0.000000
# 2 -0.003006 0.008478 -0.002012 0.000000 -0.001777 0.000000
# 3 -0.000223 -0.002012 0.018452 0.000000 -0.007196 0.000000
# 4 0.000000 0.000000 0.000000 0.052347 0.000000 -0.010308
# 5 -0.004938 -0.001777 -0.007196 0.000000 0.026075 0.000000
# 6 0.000000 0.000000 0.000000 -0.010308 0.000000 0.038027
#
#
# Mechanical properties :
#
#
# Convention : Reuss Voigt Hill
#
# Bulk Modulus (GPa) = 36.78656 61.23678 49.01167
# Shear Modulus (GPa) = 28.79212 36.06169 32.42691
#
# Velocity S-wave (km/s) = 3.39704 3.80177 3.60509
# Velocity P-wave (km/s) = 5.48912 6.61929 6.08052
#
# Compressibility (1/GPa) = 0.02718384
#
# Stress axis : x y z
#
# Youngs Moduli (GPa) = 93.14585 117.95349 54.19435
#
# Poissons Ratio (x) = 0.35459 0.01207
# Poissons Ratio (y) = 0.28002 0.10904
# Poissons Ratio (z) = 0.02075 0.23733
#
# Static dielectric constant tensor:
#      x y z
#    x 1.962820 0.000000 -0.075950 
#    y 0.000000 1.928060 0.000000 
#    z -0.075950 0.000000 1.992970 
# 
# From -- ./inp_files/21446.got.cif
#   From: 2010.05.17/outbox.cif.g08.bks.cpg/sg14_11_cif.got.tgz:21446.got - 2010.06.03 17:49:19.
