data_PCOD9250756
_publ_section_title
;
Structure prediction by ZEFSAII (Michael W. Deem and Ramdas Pophale) SiO2 
 PCOD9250756
Probable space group: P 21/C
;
_chemical_formula_sum "Si O2"
_cell_formula_units_Z 28
_cell_length_a 7.200261
_cell_length_b 10.291893
_cell_length_c 19.117834
_cell_angle_alpha 90.000000
_cell_angle_beta 113.220184
_cell_angle_gamma 90.000000
_cell_volume 1301.955222
_symmetry_space_group_name_H-M "P 21/C"
_symmetry_group_IT_number 14
_symmetry_cell_setting 'monoclinic'
loop_
_space_group_symop_operation_xyz
x,y,z
-x,1/2+y,1/2-z
-x,-y,-z
x,1/2-y,1/2+z
loop_
_atom_site_type_symbol
_atom_site_label
_atom_site_fract_x
_atom_site_fract_y
_atom_site_fract_z
Si Si1 0.610644 0.557759 0.331531
Si Si2 0.978421 0.746359 0.413865
Si Si3 0.055748 0.272517 0.834406
Si Si4 0.271794 0.754867 0.336441
Si Si5 0.919899 0.386597 0.436588
Si Si6 0.417240 0.451614 0.838151
Si Si7 0.136430 0.974479 0.587177
O O1 0.816082 0.639649 0.367812
O O2 0.437008 0.644957 0.341506
O O3 0.690909 0.423244 0.378890
O O4 0.562643 0.543255 0.243021
O O5 0.866886 0.880935 0.380397
O O6 0.175972 0.727564 0.397135
O O7 0.042920 0.731787 0.504327
O O8 0.263668 0.338368 0.839382
O O9 0.908920 0.248298 0.747235
O O10 0.047963 0.146897 0.885251
O O11 0.952606 0.381039 0.867685
O O12 0.350308 0.903004 0.349500
O O13 0.000000 0.500000 0.500000
O O14 0.640369 0.431546 0.900546
O O15 0.000000 0.000000 0.500000
#
# Coordination Sequence:
#
# PCOD9250756 Si02
#       7
#     4   4   4   4   4   4   4
#     4  11  23  43  70 101 142 190 239 294 372 434
#     4  11  23  44  67  99 143 188 236 301 359 434
#     4  12  24  43  72 105 139 185 241 299 364 436
#     4  12  24  41  73 107 141 187 245 296 368 441
#     4  10  24  46  68  96 146 190 236 301 362 436
#     4  12  25  42  73 106 140 191 240 303 362 436
#     4  12  25  44  67 100 144 184 237 300 361 431
#
# _framework density 21.506117
#
# number of rings (size 3 to 8) (size 9 to 14) (size 15 to 20)
#    0.000    0.571    8.571    0.000    0.000    1.143 
#    5.143    7.143    0.000    0.000    0.000    0.000 
#    0.000    0.000    0.000    0.000    0.000    0.000 
#
# Total GULP energy -156258.974199 kJ/mol
# GULP energy per Si atom -5580.677650 kJ/mol
# Density = 2.145717 g / cm^3
# Si number density = 21.506117 Si / 1000 Ang^3
#
#
#
# Elastic Constant Matrix: (Units=GPa)
#
#
# Indices 1 2 3 4 5 6 
#
# 1 99.9783 9.6448 12.8901 0.0000 12.7084 0.0000
# 2 9.6448 62.6037 -3.8670 0.0000 12.4345 0.0000
# 3 12.8901 -3.8670 87.6515 0.0000 12.7566 0.0000
# 4 0.0000 0.0000 0.0000 31.6443 0.0000 2.5763
# 5 12.7084 12.4345 12.7566 0.0000 35.8170 0.0000
# 6 0.0000 0.0000 0.0000 2.5763 0.0000 39.1826
#
#
#
# Elastic Compliance Matrix: (Units=1/GPa)
#
#
# Indices 1 2 3 4 5 6 
#
# 1 0.010640 -0.001124 -0.001183 0.000000 -0.002964 0.000000
# 2 -0.001124 0.017522 0.001862 0.000000 -0.006348 0.000000
# 3 -0.001183 0.001862 0.012337 0.000000 -0.004621 0.000000
# 4 0.000000 0.000000 0.000000 0.031771 0.000000 -0.002089
# 5 -0.002964 -0.006348 -0.004621 0.000000 0.032821 0.000000
# 6 0.000000 0.000000 0.000000 -0.002089 0.000000 0.025659
#
#
# Mechanical properties :
#
#
# Convention : Reuss Voigt Hill
#
# Bulk Modulus (GPa) = 25.24554 31.95212 28.59883
# Shear Modulus (GPa) = 34.52012 36.76650 35.64331
#
# Velocity S-wave (km/s) = 4.01075 4.13920 4.07548
# Velocity P-wave (km/s) = 5.76303 6.14275 5.95592
#
# Compressibility (1/GPa) = 0.03961095
#
# Stress axis : x y z
#
# Youngs Moduli (GPa) = 93.98668 57.06971 81.05404
#
# Poissons Ratio (x) = 0.06412 0.09588
# Poissons Ratio (y) = 0.10560 -0.15093
# Poissons Ratio (z) = 0.11118 -0.10627
#
# Static dielectric constant tensor:
#      x y z
#    x 1.764590 0.000000 -0.009490 
#    y 0.000000 2.113620 0.000000 
#    z -0.009490 0.000000 1.786050 
# 
# From -- ./inp_files/63551.got.cif
#   From: 2010.05.17/outbox.cif.g08.bks.cpg/sg14_32_cif.got.tgz:63551.got - 2010.06.03 17:49:19.
