data_PCOD9250569
_publ_section_title
;
Structure prediction by ZEFSAII (Michael W. Deem and Ramdas Pophale) SiO2 
 PCOD9250569
Probable space group: P 21/C
;
_chemical_formula_sum "Si O2"
_cell_formula_units_Z 32
_cell_length_a 14.477991
_cell_length_b 10.645708
_cell_length_c 8.485846
_cell_angle_alpha 90.000000
_cell_angle_beta 91.080766
_cell_angle_gamma 90.000000
_cell_volume 1307.677738
_symmetry_space_group_name_H-M "P 21/C"
_symmetry_group_IT_number 14
_symmetry_cell_setting 'monoclinic'
loop_
_space_group_symop_operation_xyz
x,y,z
-x,1/2+y,1/2-z
-x,-y,-z
x,1/2-y,1/2+z
loop_
_atom_site_type_symbol
_atom_site_label
_atom_site_fract_x
_atom_site_fract_y
_atom_site_fract_z
Si Si1 0.029222 0.495080 0.748581
Si Si2 0.506542 0.670476 0.427711
Si Si3 0.239506 0.382545 0.070329
Si Si4 0.745824 0.341611 0.025470
Si Si5 0.046230 0.192727 0.520827
Si Si6 0.378961 0.825503 0.189159
Si Si7 0.358019 0.278920 0.804669
Si Si8 0.107141 0.885802 0.974899
O O1 0.110375 0.525904 0.627341
O O2 0.018044 0.610292 0.867082
O O3 0.926384 0.466013 0.675120
O O4 0.053517 0.376604 0.855124
O O5 0.453179 0.773613 0.318554
O O6 0.428608 0.606543 0.538556
O O7 0.572354 0.728278 0.561650
O O8 0.581692 0.625319 0.300432
O O9 0.147107 0.304100 0.095483
O O10 0.314403 0.335336 0.201151
O O11 0.217739 0.530634 0.053087
O O12 0.279122 0.344453 0.901821
O O13 0.701528 0.372256 0.195220
O O14 0.667098 0.292889 0.902693
O O15 0.815418 0.220997 0.040934
O O16 0.990785 0.318085 0.493097
#
# Coordination Sequence:
#
# PCOD9250569 Si02
#       8
#     4   4   4   4   4   4   4   4
#     4  10  24  44  66  94 126 192 216 256 330 386
#     4   8  16  42  66  89 132 169 205 266 334 393
#     4  11  25  40  62  97 125 173 220 273 326 382
#     4  11  24  40  65  97 134 161 222 274 332 375
#     4  11  24  40  65  89 133 173 222 262 314 381
#     4   9  20  38  67 100 126 166 209 270 330 401
#     4   9  20  42  67  88 130 172 215 270 324 401
#     4  11  25  43  66  96 134 180 216 268 319 390
#
# _framework density 24.470862
#
# number of rings (size 3 to 8) (size 9 to 14) (size 15 to 20)
#    0.000    2.000    0.000    2.250   10.500    0.000 
#    0.000   28.750    0.000    0.000    0.000    0.000 
#    0.000    0.000    0.000    0.000    0.000    0.000 
#
# Total GULP energy -178394.279293 kJ/mol
# GULP energy per Si atom -5574.821228 kJ/mol
# Density = 2.441516 g / cm^3
# Si number density = 24.470862 Si / 1000 Ang^3
#
#
#
# Elastic Constant Matrix: (Units=GPa)
#
#
# Indices 1 2 3 4 5 6 
#
# 1 74.5156 -6.8319 33.1992 0.0000 -7.9725 0.0000
# 2 -6.8319 37.5706 13.0050 0.0000 -14.1344 0.0000
# 3 33.1992 13.0050 120.8649 0.0000 -3.6503 0.0000
# 4 0.0000 0.0000 0.0000 20.5960 0.0000 13.8319
# 5 -7.9725 -14.1344 -3.6503 0.0000 35.4377 0.0000
# 6 0.0000 0.0000 0.0000 13.8319 0.0000 10.3018
#
#
#
# Elastic Compliance Matrix: (Units=1/GPa)
#
#
# Indices 1 2 3 4 5 6 
#
# 1 0.017111 0.007280 -0.005296 0.000000 0.006208 0.000000
# 2 0.007280 0.035537 -0.005363 0.000000 0.015260 0.000000
# 3 -0.005296 -0.005363 0.010237 0.000000 -0.002276 0.000000
# 4 0.000000 0.000000 0.000000 0.494020 0.000000 -0.663306
# 5 0.006208 0.015260 -0.002276 0.000000 0.035467 0.000000
# 6 0.000000 0.000000 0.000000 -0.663306 0.000000 0.987673
#
#
# Mechanical properties :
#
#
# Convention : Reuss Voigt Hill
#
# Bulk Modulus (GPa) = 17.81633 34.63288 26.22461
# Shear Modulus (GPa) = 3.11427 26.17235 14.64331
#
# Velocity S-wave (km/s) = 1.12934 3.27392 2.44887
# Velocity P-wave (km/s) = 2.99950 5.33618 4.32850
#
# Compressibility (1/GPa) = 0.05612829
#
# Stress axis : x y z
#
# Youngs Moduli (GPa) = 58.44131 28.13933 97.68790
#
# Poissons Ratio (x) = -0.20486 0.51735
# Poissons Ratio (y) = -0.42546 0.52387
# Poissons Ratio (z) = 0.30950 0.15090
#
# Static dielectric constant tensor:
#      x y z
#    x 2.006680 0.000000 -0.059410 
#    y 0.000000 1.977490 0.000000 
#    z -0.059410 0.000000 1.986610 
# 
# From -- ./inp_files/15554.got.cif
#   From: 2010.05.17/outbox.cif.g08.bks.cpg/sg14_8_cif.got.tgz:15554.got - 2010.06.03 17:49:19.
