data_PCOD9250344
_publ_section_title
;
Structure prediction by ZEFSAII (Michael W. Deem and Ramdas Pophale) SiO2 
 PCOD9250344
Probable space group: P 21/C
;
_chemical_formula_sum "Si O2"
_cell_formula_units_Z 24
_cell_length_a 20.001430
_cell_length_b 5.427235
_cell_length_c 20.035483
_cell_angle_alpha 90.000000
_cell_angle_beta 151.668771
_cell_angle_gamma 90.000000
_cell_volume 1032.138502
_symmetry_space_group_name_H-M "P 21/C"
_symmetry_group_IT_number 14
_symmetry_cell_setting 'monoclinic'
loop_
_space_group_symop_operation_xyz
x,y,z
-x,1/2+y,1/2-z
-x,-y,-z
x,1/2-y,1/2+z
loop_
_atom_site_type_symbol
_atom_site_label
_atom_site_fract_x
_atom_site_fract_y
_atom_site_fract_z
Si Si1 0.364898 0.003920 0.199295
Si Si2 0.360400 0.218067 0.819026
Si Si3 0.314860 0.726271 0.853044
Si Si4 0.648651 0.729644 0.947001
Si Si5 0.869668 0.071813 0.202194
Si Si6 0.153667 0.840554 0.454638
O O1 0.504779 0.873982 0.350471
O O2 0.335836 0.239324 0.219051
O O3 0.394560 0.075701 0.148528
O O4 0.233442 0.822983 0.078744
O O5 0.307805 0.467913 0.808707
O O6 0.294346 0.967370 0.788638
O O7 0.528582 0.225319 0.980061
O O8 0.203237 0.729606 0.814836
O O9 0.751600 0.860176 0.089427
O O10 0.735765 0.521827 0.984309
O O11 0.016954 0.980457 0.359973
O O12 0.897845 0.166655 0.151874
#
# Coordination Sequence:
#
# PCOD9250344 Si02
#       6
#     4   4   4   4   4   4
#     4  11  24  39  65  98 130 170 221 277 343 395
#     4  10  24  43  65  98 135 175 229 278 326 394
#     4  10  24  41  69  96 132 183 224 277 325 399
#     4  11  23  39  65  96 129 170 213 281 340 395
#     4  11  24  41  66  97 131 173 226 269 343 409
#     4  11  23  41  64  96 133 171 213 287 338 401
#
# _framework density 23.252694000000002
#
# number of rings (size 3 to 8) (size 9 to 14) (size 15 to 20)
#    0.000    1.333    3.333    1.000   14.000    0.000 
#    0.000    1.667    0.000    0.000    0.000    0.000 
#    0.000    0.000    0.000    0.000    0.000    0.000 
#
# Total GULP energy -134409.630886 kJ/mol
# GULP energy per Si atom -5600.401287 kJ/mol
# Density = 2.319977 g / cm^3
# Si number density = 23.252694 Si / 1000 Ang^3
#
#
#
# Elastic Constant Matrix: (Units=GPa)
#
#
# Indices 1 2 3 4 5 6 
#
# 1 69.8167 21.2394 20.5628 0.0000 -2.4042 0.0000
# 2 21.2394 89.9134 29.1221 0.0000 5.7130 0.0000
# 3 20.5628 29.1221 69.3102 0.0000 10.1513 0.0000
# 4 0.0000 0.0000 0.0000 25.6615 0.0000 -0.8547
# 5 -2.4042 5.7130 10.1513 0.0000 16.7888 0.0000
# 6 0.0000 0.0000 0.0000 -0.8547 0.0000 30.9248
#
#
#
# Elastic Compliance Matrix: (Units=1/GPa)
#
#
# Indices 1 2 3 4 5 6 
#
# 1 0.016784 -0.002838 -0.004696 0.000000 0.006209 0.000000
# 2 -0.002838 0.013376 -0.004446 0.000000 -0.002270 0.000000
# 3 -0.004696 -0.004446 0.019273 0.000000 -0.010813 0.000000
# 4 0.000000 0.000000 0.000000 0.039005 0.000000 0.001078
# 5 0.006209 -0.002270 -0.010813 0.000000 0.067763 0.000000
# 6 0.000000 0.000000 0.000000 0.001078 0.000000 0.032366
#
#
# Mechanical properties :
#
#
# Convention : Reuss Voigt Hill
#
# Bulk Modulus (GPa) = 39.25798 41.20987 40.23393
# Shear Modulus (GPa) = 22.62258 25.21609 23.91934
#
# Velocity S-wave (km/s) = 3.12252 3.29665 3.21077
# Velocity P-wave (km/s) = 5.46992 5.67905 5.57547
#
# Compressibility (1/GPa) = 0.02547253
#
# Stress axis : x y z
#
# Youngs Moduli (GPa) = 59.58210 74.75825 51.88636
#
# Poissons Ratio (x) = 0.21217 0.24367
# Poissons Ratio (y) = 0.16910 0.23068
# Poissons Ratio (z) = 0.27981 0.33237
#
# Static dielectric constant tensor:
#      x y z
#    x 1.857900 0.000000 -0.035880 
#    y 0.000000 1.935480 0.000000 
#    z -0.035880 0.000000 1.839810 
# 
# From -- ./inp_files/69617.got.cif
#   From: 2010.05.17/outbox.cif.g08.bks.cpg/sg14_35_cif.got.tgz:69617.got - 2010.06.03 17:49:19.
