data_PCOD9250824
_publ_section_title
;
Structure prediction by ZEFSAII (Michael W. Deem and Ramdas Pophale) SiO2 
 PCOD9250824
Probable space group: P 21/C
;
_chemical_formula_sum "Si O2"
_cell_formula_units_Z 28
_cell_length_a 13.392052
_cell_length_b 6.052988
_cell_length_c 17.474506
_cell_angle_alpha 90.000000
_cell_angle_beta 116.882682
_cell_angle_gamma 90.000000
_cell_volume 1263.440177
_symmetry_space_group_name_H-M "P 21/C"
_symmetry_group_IT_number 14
_symmetry_cell_setting 'monoclinic'
loop_
_space_group_symop_operation_xyz
x,y,z
-x,1/2+y,1/2-z
-x,-y,-z
x,1/2-y,1/2+z
loop_
_atom_site_type_symbol
_atom_site_label
_atom_site_fract_x
_atom_site_fract_y
_atom_site_fract_z
Si Si1 0.404662 0.375966 0.285854
Si Si2 0.755874 0.379839 0.433792
Si Si3 0.054997 0.947506 0.284605
Si Si4 0.802694 0.892125 0.796419
Si Si5 0.025749 0.674772 0.941782
Si Si6 0.450606 0.114576 0.056858
Si Si7 0.589612 0.482651 0.883767
O O1 0.280102 0.299340 0.260374
O O2 0.451456 0.588905 0.345215
O O3 0.415552 0.391667 0.198759
O O4 0.491725 0.194897 0.346128
O O5 0.744328 0.466754 0.343210
O O6 0.884790 0.361646 0.502325
O O7 0.667939 0.512703 0.455786
O O8 0.709471 0.132606 0.422760
O O9 0.074464 0.940208 0.382121
O O10 0.002213 0.696805 0.249314
O O11 0.157599 0.963345 0.261221
O O12 0.909796 0.783669 0.874567
O O13 0.000000 0.500000 0.000000
O O14 0.425053 0.371715 0.046621
O O15 0.500000 0.000000 0.000000
#
# Coordination Sequence:
#
# PCOD9250824 Si02
#       7
#     4   4   4   4   4   4   4
#     4  11  21  40  69  95 129 178 228 289 339 427
#     4  11  24  42  69  98 138 180 231 291 355 428
#     4  10  24  47  68 101 144 188 244 295 352 436
#     4  11  23  44  69 105 137 185 242 290 360 439
#     4  11  24  44  70 102 142 185 235 295 361 438
#     4  11  26  44  65 102 138 178 229 293 361 416
#     4  11  21  42  67  96 131 175 235 278 354 422
#
# _framework density 22.161712999999999
#
# number of rings (size 3 to 8) (size 9 to 14) (size 15 to 20)
#    0.000    1.143    2.857    3.000    0.000    6.857 
#   10.286    0.000    0.000    0.000    0.000    0.000 
#    0.000    0.000    0.000    0.000    0.000    0.000 
#
# Total GULP energy -156154.900515 kJ/mol
# GULP energy per Si atom -5576.960733 kJ/mol
# Density = 2.211127 g / cm^3
# Si number density = 22.161713 Si / 1000 Ang^3
#
#
#
# Elastic Constant Matrix: (Units=GPa)
#
#
# Indices 1 2 3 4 5 6 
#
# 1 90.6082 11.5091 16.2378 0.0000 -7.6773 0.0000
# 2 11.5091 53.7033 2.3157 0.0000 -5.0894 0.0000
# 3 16.2378 2.3157 46.4314 0.0000 -8.3531 0.0000
# 4 0.0000 0.0000 0.0000 29.6025 0.0000 -0.7379
# 5 -7.6773 -5.0894 -8.3531 0.0000 60.8654 0.0000
# 6 0.0000 0.0000 0.0000 -0.7379 0.0000 27.3146
#
#
#
# Elastic Compliance Matrix: (Units=1/GPa)
#
#
# Indices 1 2 3 4 5 6 
#
# 1 0.012115 -0.002350 -0.003978 0.000000 0.000786 0.000000
# 2 -0.002350 0.019246 0.000101 0.000000 0.001327 0.000000
# 3 -0.003978 0.000101 0.023413 0.000000 0.002720 0.000000
# 4 0.000000 0.000000 0.000000 0.033804 0.000000 0.000913
# 5 0.000786 0.001327 0.002720 0.000000 0.017013 0.000000
# 6 0.000000 0.000000 0.000000 0.000913 0.000000 0.036635
#
#
# Mechanical properties :
#
#
# Convention : Reuss Voigt Hill
#
# Bulk Modulus (GPa) = 23.63075 27.87423 25.75249
# Shear Modulus (GPa) = 29.62334 34.26854 31.94594
#
# Velocity S-wave (km/s) = 3.66004 3.93656 3.80082
# Velocity P-wave (km/s) = 5.34296 5.76775 5.55942
#
# Compressibility (1/GPa) = 0.04231774
#
# Stress axis : x y z
#
# Youngs Moduli (GPa) = 82.54551 51.95918 42.71207
#
# Poissons Ratio (x) = 0.12212 0.16991
# Poissons Ratio (y) = 0.19400 -0.00430
# Poissons Ratio (z) = 0.32837 -0.00523
#
# Static dielectric constant tensor:
#      x y z
#    x 1.827830 0.000000 0.003470 
#    y 0.000000 2.296800 0.000000 
#    z 0.003470 0.000000 1.825500 
# 
# From -- ./inp_files/58647.got.cif
#   From: 2010.05.17/outbox.cif.g08.bks.cpg/sg14_30_cif.got.tgz:58647.got - 2010.06.03 17:49:19.
