data_PCOD9250213
_publ_section_title
;
Structure prediction by ZEFSAII (Michael W. Deem and Ramdas Pophale) SiO2 
 PCOD9250213
Probable space group: P 21/C
;
_chemical_formula_sum "Si O2"
_cell_formula_units_Z 28
_cell_length_a 9.039257
_cell_length_b 12.737684
_cell_length_c 9.364957
_cell_angle_alpha 90.000000
_cell_angle_beta 67.301803
_cell_angle_gamma 90.000000
_cell_volume 994.761607
_symmetry_space_group_name_H-M "P 21/C"
_symmetry_group_IT_number 14
_symmetry_cell_setting 'monoclinic'
loop_
_space_group_symop_operation_xyz
x,y,z
-x,1/2+y,1/2-z
-x,-y,-z
x,1/2-y,1/2+z
loop_
_atom_site_type_symbol
_atom_site_label
_atom_site_fract_x
_atom_site_fract_y
_atom_site_fract_z
Si Si1 0.803674 0.208523 0.513953
Si Si2 0.962931 0.895994 0.117947
Si Si3 0.714806 0.745981 0.369005
Si Si4 0.920082 0.564887 0.212316
Si Si5 0.609106 0.888666 0.667210
Si Si6 0.618696 0.344488 0.370730
Si Si7 0.661539 0.982805 0.098999
O O1 0.681199 0.244210 0.435772
O O2 0.711763 0.170878 0.688031
O O3 0.910553 0.314236 0.497937
O O4 0.927070 0.121593 0.411965
O O5 0.826857 0.817373 0.227940
O O6 0.028551 0.958068 0.232023
O O7 0.844896 0.977536 0.080791
O O8 0.644611 0.825156 0.511475
O O9 0.589129 0.692631 0.306823
O O10 0.565814 0.625264 0.599405
O O11 0.776913 0.556771 0.149903
O O12 0.840428 0.649909 0.353063
O O13 0.454839 0.962897 0.738994
O O14 0.655132 0.445212 0.459061
#
# Coordination Sequence:
#
# PCOD9250213 Si02
#       7
#     4   4   4   4   4   4   4
#     4  11  27  53  87 123 165 227 285 355 415 517
#     4  11  25  50  86 122 170 218 290 351 433 490
#     4   9  24  44  77 119 162 223 280 351 415 511
#     4   9  24  46  80 124 160 220 290 350 411 499
#     4  10  23  49  78 112 168 219 274 351 423 497
#     4  11  29  55  81 122 166 223 281 345 431 503
#     4  11  28  53  85 120 171 222 281 353 425 515
#
# _framework density 28.147445000000001
#
# number of rings (size 3 to 8) (size 9 to 14) (size 15 to 20)
#    0.857    0.857    0.000    0.857    8.000    6.286 
#    5.143    0.000    0.000    0.000    0.000    0.000 
#    0.000    0.000    0.000    0.000    0.000    0.000 
#
# Total GULP energy -156855.930347 kJ/mol
# GULP energy per Si atom -5601.997512 kJ/mol
# Density = 2.808338 g / cm^3
# Si number density = 28.147445 Si / 1000 Ang^3
#
#
#
# Elastic Constant Matrix: (Units=GPa)
#
#
# Indices 1 2 3 4 5 6 
#
# 1 176.8918 32.5020 51.4149 0.0000 -32.8270 0.0000
# 2 32.5020 110.3426 22.4850 0.0000 -6.3815 0.0000
# 3 51.4149 22.4850 151.6994 0.0000 -35.6458 0.0000
# 4 0.0000 0.0000 0.0000 55.8764 0.0000 -10.8561
# 5 -32.8270 -6.3815 -35.6458 0.0000 43.3980 0.0000
# 6 0.0000 0.0000 0.0000 -10.8561 0.0000 46.9462
#
#
#
# Elastic Compliance Matrix: (Units=1/GPa)
#
#
# Indices 1 2 3 4 5 6 
#
# 1 0.007058 -0.001599 -0.001185 0.000000 0.004131 0.000000
# 2 -0.001599 0.009710 -0.001048 0.000000 -0.000643 0.000000
# 3 -0.001185 -0.001048 0.008553 0.000000 0.005975 0.000000
# 4 0.000000 0.000000 0.000000 0.018739 0.000000 0.004333
# 5 0.004131 -0.000643 0.005975 0.000000 0.030980 0.000000
# 6 0.000000 0.000000 0.000000 0.004333 0.000000 0.022303
#
#
# Mechanical properties :
#
#
# Convention : Reuss Voigt Hill
#
# Bulk Modulus (GPa) = 56.63309 72.41528 64.52418
# Shear Modulus (GPa) = 45.08927 51.41291 48.25109
#
# Velocity S-wave (km/s) = 4.00671 4.27846 4.14481
# Velocity P-wave (km/s) = 6.44739 7.08449 6.77343
#
# Compressibility (1/GPa) = 0.01765752
#
# Stress axis : x y z
#
# Youngs Moduli (GPa) = 141.68850 102.98615 116.92084
#
# Poissons Ratio (x) = 0.16464 0.13849
# Poissons Ratio (y) = 0.22651 0.12258
# Poissons Ratio (z) = 0.16783 0.10797
#
# Static dielectric constant tensor:
#      x y z
#    x 2.228420 0.000000 0.014000 
#    y 0.000000 2.387960 0.000000 
#    z 0.014000 0.000000 2.286530 
# 
# From -- ./inp_files/12978.got.cif
#   From: 2010.05.17/outbox.cif.g08.bks.cpg/sg14_7_cif.got.tgz:12978.got - 2010.06.03 17:49:19.
