data_PCOD9250883
_publ_section_title
;
Structure prediction by ZEFSAII (Michael W. Deem and Ramdas Pophale) SiO2 
 PCOD9250883
Probable space group: P 21/C
;
_chemical_formula_sum "Si O2"
_cell_formula_units_Z 20
_cell_length_a 7.904469
_cell_length_b 10.841346
_cell_length_c 10.735945
_cell_angle_alpha 90.000000
_cell_angle_beta 59.167575
_cell_angle_gamma 90.000000
_cell_volume 789.991584
_symmetry_space_group_name_H-M "P 21/C"
_symmetry_group_IT_number 14
_symmetry_cell_setting 'monoclinic'
loop_
_space_group_symop_operation_xyz
x,y,z
-x,1/2+y,1/2-z
-x,-y,-z
x,1/2-y,1/2+z
loop_
_atom_site_type_symbol
_atom_site_label
_atom_site_fract_x
_atom_site_fract_y
_atom_site_fract_z
Si Si1 0.072788 0.183637 0.294398
Si Si2 0.588224 0.956550 0.147989
Si Si3 0.097131 0.051321 0.753686
Si Si4 0.256975 0.931840 0.468771
Si Si5 0.497948 0.301457 0.545186
O O1 0.987764 0.318050 0.292448
O O2 0.303503 0.208297 0.204262
O O3 0.029018 0.073844 0.212626
O O4 0.962646 0.128379 0.457533
O O5 0.381259 0.964041 0.301590
O O6 0.767964 0.955020 0.175731
O O7 0.607887 0.078204 0.056763
O O8 0.569904 0.837388 0.067403
O O9 0.233938 0.039653 0.578568
O O10 0.377336 0.821393 0.489579
#
# Coordination Sequence:
#
# PCOD9250883 Si02
#       5
#     4   4   4   4   4
#     4  10  25  46  73 111 143 188 258 293 371 437
#     4  11  25  46  75 103 155 192 243 307 375 436
#     4  10  24  48  75 108 144 198 243 309 360 447
#     4  10  25  46  77 103 147 196 247 299 373 437
#     4  11  26  45  71 114 144 191 249 309 366 440
#
# _framework density 25.316724000000001
#
# number of rings (size 3 to 8) (size 9 to 14) (size 15 to 20)
#    1.200    0.400    2.000    0.600    8.400    1.600 
#    3.600    0.000    0.000    0.000    0.000    0.000 
#    0.000    0.000    0.000    0.000    0.000    0.000 
#
# Total GULP energy -111857.669172 kJ/mol
# GULP energy per Si atom -5592.883459 kJ/mol
# Density = 2.525910 g / cm^3
# Si number density = 25.316724 Si / 1000 Ang^3
#
#
#
# Elastic Constant Matrix: (Units=GPa)
#
#
# Indices 1 2 3 4 5 6 
#
# 1 71.5603 34.9138 21.4940 0.0000 9.3576 0.0000
# 2 34.9138 151.3085 44.5340 0.0000 8.7760 0.0000
# 3 21.4940 44.5340 83.5289 0.0000 -9.7492 0.0000
# 4 0.0000 0.0000 0.0000 44.7255 0.0000 -17.5741
# 5 9.3576 8.7760 -9.7492 0.0000 41.0501 0.0000
# 6 0.0000 0.0000 0.0000 -17.5741 0.0000 34.6030
#
#
#
# Elastic Compliance Matrix: (Units=1/GPa)
#
#
# Indices 1 2 3 4 5 6 
#
# 1 0.016817 -0.002646 -0.003392 0.000000 -0.004073 0.000000
# 2 -0.002646 0.008568 -0.004146 0.000000 -0.002213 0.000000
# 3 -0.003392 -0.004146 0.015683 0.000000 0.005384 0.000000
# 4 0.000000 0.000000 0.000000 0.027933 0.000000 0.014186
# 5 -0.004073 -0.002213 0.005384 0.000000 0.027041 0.000000
# 6 0.000000 0.000000 0.000000 0.014186 0.000000 0.036104
#
#
# Mechanical properties :
#
#
# Convention : Reuss Voigt Hill
#
# Bulk Modulus (GPa) = 48.30655 56.47570 52.39113
# Shear Modulus (GPa) = 31.36494 37.77277 34.56886
#
# Velocity S-wave (km/s) = 3.52362 3.86684 3.69922
# Velocity P-wave (km/s) = 5.97301 6.50329 6.24378
#
# Compressibility (1/GPa) = 0.02070113
#
# Stress axis : x y z
#
# Youngs Moduli (GPa) = 59.46504 116.71300 63.76129
#
# Poissons Ratio (x) = 0.30879 0.21629
# Poissons Ratio (y) = 0.15733 0.26433
# Poissons Ratio (z) = 0.20172 0.48385
#
# Static dielectric constant tensor:
#      x y z
#    x 2.020030 0.000000 -0.075030 
#    y 0.000000 2.003840 0.000000 
#    z -0.075030 0.000000 2.008240 
# 
# From -- ./inp_files/23734.got.cif
#   From: 2010.05.17/outbox.cif.g08.bks.cpg/sg14_12_cif.got.tgz:23734.got - 2010.06.03 17:49:19.
