data_PCOD9250036
_publ_section_title
;
Structure prediction by ZEFSAII (Michael W. Deem and Ramdas Pophale) SiO2 
 PCOD9250036
Probable space group: P 21/C
;
_chemical_formula_sum "Si O2"
_cell_formula_units_Z 30
_cell_length_a 11.053639
_cell_length_b 11.063080
_cell_length_c 18.912673
_cell_angle_alpha 90.000000
_cell_angle_beta 27.915432
_cell_angle_gamma 90.000000
_cell_volume 1082.768995
_symmetry_space_group_name_H-M "P 21/C"
_symmetry_group_IT_number 14
_symmetry_cell_setting 'monoclinic'
loop_
_space_group_symop_operation_xyz
x,y,z
-x,1/2+y,1/2-z
-x,-y,-z
x,1/2-y,1/2+z
loop_
_atom_site_type_symbol
_atom_site_label
_atom_site_fract_x
_atom_site_fract_y
_atom_site_fract_z
Si Si1 0.727595 0.946712 0.997817
Si Si2 0.942528 0.731794 0.506835
Si Si3 0.567410 0.320564 0.647197
Si Si4 0.144548 0.676232 0.119223
Si Si5 0.472260 0.722117 0.070026
Si Si6 0.000000 0.500000 0.000000
Si Si7 0.811028 0.616283 0.774381
Si Si8 0.612372 0.982074 0.585587
O O1 0.576203 0.856489 0.023940
O O2 0.869240 0.863227 0.983786
O O3 0.934502 0.032778 0.850687
O O4 0.539571 0.042623 0.133417
O O5 0.685197 0.768239 0.684584
O O6 0.176221 0.681947 0.435262
O O7 0.028280 0.867909 0.440693
O O8 0.642218 0.244043 0.539202
O O9 0.895910 0.745246 0.220594
O O10 0.194621 0.709654 0.175271
O O11 0.174410 0.540189 0.078423
O O12 0.627294 0.633355 0.936574
O O13 0.530411 0.655586 0.113602
O O14 0.270671 0.521717 0.901321
O O15 0.654479 0.548511 0.794886
#
# Coordination Sequence:
#
# PCOD9250036 Si02
#       8
#     4   4   4   4   4   2   4   4
#     4  11  27  50  77 118 152 216 264 330 408 484
#     4  12  28  51  77 115 159 213 270 344 403 490
#     4  11  28  48  79 111 161 204 273 335 411 482
#     4  10  23  45  73 109 149 206 254 327 410 474
#     4  11  25  46  77 113 158 203 270 328 406 489
#     4  12  26  46  76 112 150 208 278 320 414 472
#     4  10  25  45  78 109 156 204 261 334 395 482
#     4  11  24  47  71 110 154 204 270 333 407 477
#
# _framework density 27.70674
#
# number of rings (size 3 to 8) (size 9 to 14) (size 15 to 20)
#    0.000    1.067    2.667    2.000   14.933    2.133 
#    2.400    0.000    0.000    0.000    0.000    0.000 
#    0.000    0.000    0.000    0.000    0.000    0.000 
#
# Total GULP energy -167358.467679 kJ/mol
# GULP energy per Si atom -5578.615589 kJ/mol
# Density = 2.764368 g / cm^3
# Si number density = 27.706740 Si / 1000 Ang^3
#
#
#
# Elastic Constant Matrix: (Units=GPa)
#
#
# Indices 1 2 3 4 5 6 
#
# 1 107.0608 -0.5073 28.1557 0.0000 5.2137 0.0000
# 2 -0.5073 123.1107 -0.0903 0.0000 15.5137 0.0000
# 3 28.1557 -0.0903 92.5743 0.0000 -3.3206 0.0000
# 4 0.0000 0.0000 0.0000 38.0262 0.0000 -2.2739
# 5 5.2137 15.5137 -3.3206 0.0000 31.7866 0.0000
# 6 0.0000 0.0000 0.0000 -2.2739 0.0000 58.6808
#
#
#
# Elastic Compliance Matrix: (Units=1/GPa)
#
#
# Indices 1 2 3 4 5 6 
#
# 1 0.010292 0.000314 -0.003208 0.000000 -0.002177 0.000000
# 2 0.000314 0.008667 -0.000242 0.000000 -0.004307 0.000000
# 3 -0.003208 -0.000242 0.011845 0.000000 0.001881 0.000000
# 4 0.000000 0.000000 0.000000 0.026359 0.000000 0.001021
# 5 -0.002177 -0.004307 0.001881 0.000000 0.034115 0.000000
# 6 0.000000 0.000000 0.000000 0.001021 0.000000 0.017081
#
#
# Mechanical properties :
#
#
# Convention : Reuss Voigt Hill
#
# Bulk Modulus (GPa) = 40.76158 41.98465 41.37312
# Shear Modulus (GPa) = 40.71459 45.37789 43.04624
#
# Velocity S-wave (km/s) = 3.83754 4.05136 3.94590
# Velocity P-wave (km/s) = 5.86339 6.08858 5.97705
#
# Compressibility (1/GPa) = 0.02453290
#
# Stress axis : x y z
#
# Youngs Moduli (GPa) = 97.16650 115.38576 84.42355
#
# Poissons Ratio (x) = -0.03627 0.27082
# Poissons Ratio (y) = -0.03054 0.02040
# Poissons Ratio (z) = 0.31170 0.02788
#
# Static dielectric constant tensor:
#      x y z
#    x 2.262210 0.000000 0.090600 
#    y 0.000000 2.246270 0.000000 
#    z 0.090600 0.000000 2.439580 
# 
# From -- ./inp_files/67331.got.cif
#   From: 2010.05.17/outbox.cif.g08.bks.cpg/sg14_34_cif.got.tgz:67331.got - 2010.06.03 17:49:19.
