data_PCOD9250357
_publ_section_title
;
Structure prediction by ZEFSAII (Michael W. Deem and Ramdas Pophale) SiO2 
 PCOD9250357
Probable space group: P 21/C
;
_chemical_formula_sum "Si O2"
_cell_formula_units_Z 28
_cell_length_a 8.702015
_cell_length_b 13.934103
_cell_length_c 14.178631
_cell_angle_alpha 90.000000
_cell_angle_beta 135.085634
_cell_angle_gamma 90.000000
_cell_volume 1213.858547
_symmetry_space_group_name_H-M "P 21/C"
_symmetry_group_IT_number 14
_symmetry_cell_setting 'monoclinic'
loop_
_space_group_symop_operation_xyz
x,y,z
-x,1/2+y,1/2-z
-x,-y,-z
x,1/2-y,1/2+z
loop_
_atom_site_type_symbol
_atom_site_label
_atom_site_fract_x
_atom_site_fract_y
_atom_site_fract_z
Si Si1 0.312923 0.265288 0.238241
Si Si2 0.815645 0.018691 0.065127
Si Si3 0.515836 0.564892 0.914396
Si Si4 0.047433 0.109789 0.488493
Si Si5 0.255744 0.049267 0.178177
Si Si6 0.333798 0.750179 0.255112
Si Si7 0.456961 0.152385 0.983119
O O1 0.239505 0.162518 0.169873
O O2 0.541761 0.282688 0.284924
O O3 0.356627 0.270907 0.368056
O O4 0.141205 0.340495 0.123764
O O5 0.683483 0.112316 0.039054
O O6 0.774393 0.996513 0.936912
O O7 0.713032 0.934529 0.082844
O O8 0.074217 0.022592 0.177378
O O9 0.482092 0.488634 0.815271
O O10 0.336929 0.650379 0.818389
O O11 0.500000 0.500000 0.000000
O O12 0.754267 0.608210 0.000725
O O13 0.864182 0.180983 0.363322
O O14 0.000000 0.000000 0.500000
O O15 0.488414 0.686308 0.388804
#
# Coordination Sequence:
#
# PCOD9250357 Si02
#       7
#     4   4   4   4   4   4   4
#     4  11  25  45  73 105 144 191 248 310 371 448
#     4  10  24  41  74 100 139 189 243 304 363 448
#     4  11  26  46  70 106 153 192 244 309 373 447
#     4  11  27  46  73 104 149 191 242 309 382 442
#     4  11  23  45  70 103 146 188 241 306 381 437
#     4  11  25  46  73 107 147 193 249 305 376 452
#     4  11  24  45  73 104 140 190 253 297 364 453
#
# _framework density 23.066938
#
# number of rings (size 3 to 8) (size 9 to 14) (size 15 to 20)
#    0.000    1.143    1.429    3.429   12.000    0.000 
#    2.571    0.000    0.000    0.000    0.000    0.000 
#    0.000    0.000    0.000    0.000    0.000    0.000 
#
# Total GULP energy -156258.469588 kJ/mol
# GULP energy per Si atom -5580.659628 kJ/mol
# Density = 2.301444 g / cm^3
# Si number density = 23.066938 Si / 1000 Ang^3
#
#
#
# Elastic Constant Matrix: (Units=GPa)
#
#
# Indices 1 2 3 4 5 6 
#
# 1 54.3778 14.9410 37.4553 0.0000 1.5778 0.0000
# 2 14.9410 113.9066 36.2450 0.0000 19.9389 0.0000
# 3 37.4553 36.2450 104.8818 0.0000 -1.1083 0.0000
# 4 0.0000 0.0000 0.0000 34.5267 0.0000 -1.4290
# 5 1.5778 19.9389 -1.1083 0.0000 26.3142 0.0000
# 6 0.0000 0.0000 0.0000 -1.4290 0.0000 22.6293
#
#
#
# Elastic Compliance Matrix: (Units=1/GPa)
#
#
# Indices 1 2 3 4 5 6 
#
# 1 0.024479 -0.000135 -0.008714 0.000000 -0.001732 0.000000
# 2 -0.000135 0.011672 -0.004081 0.000000 -0.009008 0.000000
# 3 -0.008714 -0.004081 0.014101 0.000000 0.004208 0.000000
# 4 0.000000 0.000000 0.000000 0.029039 0.000000 0.001834
# 5 -0.001732 -0.009008 0.004208 0.000000 0.045109 0.000000
# 6 0.000000 0.000000 0.000000 0.001834 0.000000 0.044306
#
#
# Mechanical properties :
#
#
# Convention : Reuss Voigt Hill
#
# Bulk Modulus (GPa) = 40.99402 50.04985 45.52194
# Shear Modulus (GPa) = 24.66744 28.99570 26.83157
#
# Velocity S-wave (km/s) = 3.27369 3.54930 3.41428
# Velocity P-wave (km/s) = 5.66567 6.20818 5.94312
#
# Compressibility (1/GPa) = 0.02439380
#
# Stress axis : x y z
#
# Youngs Moduli (GPa) = 40.85106 85.67440 70.91693
#
# Poissons Ratio (x) = 0.01156 0.61795
# Poissons Ratio (y) = 0.00551 0.28939
# Poissons Ratio (z) = 0.35596 0.34961
#
# Static dielectric constant tensor:
#      x y z
#    x 1.873760 0.000000 0.071080 
#    y 0.000000 1.962660 0.000000 
#    z 0.071080 0.000000 1.896560 
# 
# From -- ./inp_files/41439.got.cif
#   From: 2010.05.17/outbox.cif.g08.bks.cpg/sg14_21_cif.got.tgz:41439.got - 2010.06.03 17:49:19.
