data_PCOD9250188
_publ_section_title
;
Structure prediction by ZEFSAII (Michael W. Deem and Ramdas Pophale) SiO2 
 PCOD9250188
Probable space group: P 21/C
;
_chemical_formula_sum "Si O2"
_cell_formula_units_Z 26
_cell_length_a 22.805526
_cell_length_b 11.855864
_cell_length_c 8.400281
_cell_angle_alpha 90.000000
_cell_angle_beta 29.903245
_cell_angle_gamma 90.000000
_cell_volume 1132.307463
_symmetry_space_group_name_H-M "P 21/C"
_symmetry_group_IT_number 14
_symmetry_cell_setting 'monoclinic'
loop_
_space_group_symop_operation_xyz
x,y,z
-x,1/2+y,1/2-z
-x,-y,-z
x,1/2-y,1/2+z
loop_
_atom_site_type_symbol
_atom_site_label
_atom_site_fract_x
_atom_site_fract_y
_atom_site_fract_z
Si Si1 0.188276 0.120159 0.514549
Si Si2 0.286890 0.850709 0.818256
Si Si3 0.720762 0.684761 0.862580
Si Si4 0.000000 0.500000 0.500000
Si Si5 0.721193 0.397375 0.290890
Si Si6 0.477834 0.020054 0.239286
Si Si7 0.905460 0.992950 0.859324
O O1 0.264164 0.149245 0.490152
O O2 0.252452 0.184127 0.222256
O O3 0.178531 0.982689 0.513102
O O4 0.050812 0.136379 0.857889
O O5 0.289107 0.718368 0.779793
O O6 0.404579 0.916747 0.485974
O O7 0.264304 0.875738 0.056927
O O8 0.185893 0.905372 0.948578
O O9 0.825818 0.619140 0.526776
O O10 0.601770 0.633804 0.070264
O O11 0.040333 0.494671 0.594905
O O12 0.599524 0.462351 0.543342
O O13 0.500000 0.000000 0.000000
O O14 0.000000 0.000000 0.500000
#
# Coordination Sequence:
#
# PCOD9250188 Si02
#       7
#     4   4   4   2   4   4   4
#     4  11  25  45  69 107 139 188 241 303 367 441
#     4  11  27  45  70 106 145 192 246 301 365 436
#     4  10  25  42  71 101 143 183 243 299 363 438
#     4  10  24  44  72 100 140 182 246 294 368 426
#     4  12  26  44  72 103 148 191 244 298 368 436
#     4  11  23  46  70 100 144 191 242 301 361 433
#     4  10  23  48  71 103 139 187 245 304 364 433
#
# _framework density 22.961960000000001
#
# number of rings (size 3 to 8) (size 9 to 14) (size 15 to 20)
#    0.000    1.231    1.538    2.308   12.923    2.462 
#    2.769    0.000    0.000    0.000    0.000    0.000 
#    0.000    0.000    0.000    0.000    0.000    0.000 
#
# Total GULP energy -145028.525781 kJ/mol
# GULP energy per Si atom -5578.020222 kJ/mol
# Density = 2.290970 g / cm^3
# Si number density = 22.961960 Si / 1000 Ang^3
#
#
#
# Elastic Constant Matrix: (Units=GPa)
#
#
# Indices 1 2 3 4 5 6 
#
# 1 99.8231 14.9212 26.4028 0.0000 0.2480 0.0000
# 2 14.9212 110.7573 21.0082 0.0000 6.9540 0.0000
# 3 26.4028 21.0082 66.5875 0.0000 9.7054 0.0000
# 4 0.0000 0.0000 0.0000 34.4193 0.0000 11.8294
# 5 0.2480 6.9540 9.7054 0.0000 51.6823 0.0000
# 6 0.0000 0.0000 0.0000 11.8294 0.0000 19.2891
#
#
#
# Elastic Compliance Matrix: (Units=1/GPa)
#
#
# Indices 1 2 3 4 5 6 
#
# 1 0.011281 -0.000746 -0.004364 0.000000 0.000866 0.000000
# 2 -0.000746 0.009681 -0.002641 0.000000 -0.000803 0.000000
# 3 -0.004364 -0.002641 0.018020 0.000000 -0.003008 0.000000
# 4 0.000000 0.000000 0.000000 0.036813 0.000000 -0.022576
# 5 0.000866 -0.000803 -0.003008 0.000000 0.020018 0.000000
# 6 0.000000 0.000000 0.000000 -0.022576 0.000000 0.065688
#
#
# Mechanical properties :
#
#
# Convention : Reuss Voigt Hill
#
# Bulk Modulus (GPa) = 42.59164 44.64804 43.61984
# Shear Modulus (GPa) = 27.05196 35.40051 31.22624
#
# Velocity S-wave (km/s) = 3.43610 3.93071 3.69170
# Velocity P-wave (km/s) = 5.85930 6.33145 6.09994
#
# Compressibility (1/GPa) = 0.02347878
#
# Stress axis : x y z
#
# Youngs Moduli (GPa) = 88.64160 103.29821 55.49431
#
# Poissons Ratio (x) = 0.07711 0.24217
# Poissons Ratio (y) = 0.06617 0.14657
# Poissons Ratio (z) = 0.38682 0.27283
#
# Static dielectric constant tensor:
#      x y z
#    x 1.979360 0.000000 -0.471920 
#    y 0.000000 1.975670 0.000000 
#    z -0.471920 0.000000 3.035740 
# 
# From -- ./inp_files/19466.got.cif
#   From: 2010.05.17/outbox.cif.g08.bks.cpg/sg14_10_cif.got.tgz:19466.got - 2010.06.03 17:49:19.
