data_PCOD9250252
_publ_section_title
;
Structure prediction by ZEFSAII (Michael W. Deem and Ramdas Pophale) SiO2 
 PCOD9250252
Probable space group: P 21/C
;
_chemical_formula_sum "Si O2"
_cell_formula_units_Z 28
_cell_length_a 4.871013
_cell_length_b 26.817740
_cell_length_c 8.541430
_cell_angle_alpha 90.000000
_cell_angle_beta 96.146147
_cell_angle_gamma 90.000000
_cell_volume 1109.349876
_symmetry_space_group_name_H-M "P 21/C"
_symmetry_group_IT_number 14
_symmetry_cell_setting 'monoclinic'
loop_
_space_group_symop_operation_xyz
x,y,z
-x,1/2+y,1/2-z
-x,-y,-z
x,1/2-y,1/2+z
loop_
_atom_site_type_symbol
_atom_site_label
_atom_site_fract_x
_atom_site_fract_y
_atom_site_fract_z
Si Si1 0.786539 0.543253 0.298294
Si Si2 0.503300 0.814501 0.844692
Si Si3 0.744510 0.713728 0.839639
Si Si4 0.264263 0.591299 0.154500
Si Si5 0.974801 0.294818 0.459038
Si Si6 0.039830 0.435645 0.336656
Si Si7 0.457474 0.609973 0.822091
O O1 0.955695 0.578630 0.189154
O O2 0.894655 0.487480 0.280507
O O3 0.464126 0.550602 0.247374
O O4 0.848129 0.557218 0.481444
O O5 0.549869 0.759906 0.773264
O O6 0.364725 0.855637 0.729215
O O7 0.806089 0.828058 0.927658
O O8 0.319279 0.805052 0.986529
O O9 0.923046 0.738565 0.988678
O O10 0.956737 0.700418 0.716483
O O11 0.569312 0.665184 0.864062
O O12 0.325208 0.590109 0.974762
O O13 0.284407 0.419776 0.235318
O O14 0.791461 0.395640 0.316808
#
# Coordination Sequence:
#
# PCOD9250252 Si02
#       7
#     4   4   4   4   4   4   4
#     4  11  26  49  73  97 143 179 237 285 359 425
#     4  10  25  42  65  99 134 183 223 270 341 408
#     4  10  26  42  66  99 140 178 226 283 334 409
#     4  12  25  45  72 105 138 187 230 292 346 422
#     4  10  24  39  67  89 137 181 222 273 335 399
#     4  11  27  47  71 106 133 185 231 295 351 424
#     4  12  27  42  72 107 141 176 241 286 351 405
#
# _framework density 25.240010000000002
#
# number of rings (size 3 to 8) (size 9 to 14) (size 15 to 20)
#    0.857    0.286    0.000    4.286   10.000    5.714 
#    0.000    0.000    0.000    0.000    0.000    0.000 
#    0.000    0.000    0.000    0.000    0.000    0.000 
#
# Total GULP energy -156968.433853 kJ/mol
# GULP energy per Si atom -5606.015495 kJ/mol
# Density = 2.518256 g / cm^3
# Si number density = 25.240010 Si / 1000 Ang^3
#
#
#
# Elastic Constant Matrix: (Units=GPa)
#
#
# Indices 1 2 3 4 5 6 
#
# 1 79.5818 0.8171 0.0543 0.0000 -13.4786 0.0000
# 2 0.8171 112.0411 13.3493 0.0000 -12.9449 0.0000
# 3 0.0543 13.3493 84.0776 0.0000 -17.9013 0.0000
# 4 0.0000 0.0000 0.0000 30.0683 0.0000 -4.9098
# 5 -13.4786 -12.9449 -17.9013 0.0000 37.5701 0.0000
# 6 0.0000 0.0000 0.0000 -4.9098 0.0000 33.0460
#
#
#
# Elastic Compliance Matrix: (Units=1/GPa)
#
#
# Indices 1 2 3 4 5 6 
#
# 1 0.013493 0.000407 0.001099 0.000000 0.005504 0.000000
# 2 0.000407 0.009367 -0.000856 0.000000 0.002965 0.000000
# 3 0.001099 -0.000856 0.013411 0.000000 0.006489 0.000000
# 4 0.000000 0.000000 0.000000 0.034085 0.000000 0.005064
# 5 0.005504 0.002965 0.006489 0.000000 0.032705 0.000000
# 6 0.000000 0.000000 0.000000 0.005064 0.000000 0.031013
#
#
# Mechanical properties :
#
#
# Convention : Reuss Voigt Hill
#
# Bulk Modulus (GPa) = 26.61770 33.79355 30.20563
# Shear Modulus (GPa) = 34.41201 37.56887 35.99044
#
# Velocity S-wave (km/s) = 3.69642 3.86225 3.78024
# Velocity P-wave (km/s) = 5.36533 5.77124 5.57198
#
# Compressibility (1/GPa) = 0.03756898
#
# Stress axis : x y z
#
# Youngs Moduli (GPa) = 74.11239 106.75842 74.56786
#
# Poissons Ratio (x) = -0.04341 -0.08193
# Poissons Ratio (y) = -0.03014 0.06384
# Poissons Ratio (z) = -0.08143 0.09140
#
# Static dielectric constant tensor:
#      x y z
#    x 1.945090 0.000000 0.075660 
#    y 0.000000 2.048400 0.000000 
#    z 0.075660 0.000000 1.941650 
# 
# From -- ./inp_files/6671.got.cif
#   From: 2010.05.17/outbox.cif.g08.bks.cpg/sg14_4_cif.got.tgz:6671.got - 2010.06.03 17:49:19.
