data_PCOD9250896
_publ_section_title
;
Structure prediction by ZEFSAII (Michael W. Deem and Ramdas Pophale) SiO2 
 PCOD9250896
Probable space group: P 21/C
;
_chemical_formula_sum "Si O2"
_cell_formula_units_Z 16
_cell_length_a 7.636382
_cell_length_b 6.349242
_cell_length_c 17.018563
_cell_angle_alpha 90.000000
_cell_angle_beta 39.200706
_cell_angle_gamma 90.000000
_cell_volume 521.526268
_symmetry_space_group_name_H-M "P 21/C"
_symmetry_group_IT_number 14
_symmetry_cell_setting 'monoclinic'
loop_
_space_group_symop_operation_xyz
x,y,z
-x,1/2+y,1/2-z
-x,-y,-z
x,1/2-y,1/2+z
loop_
_atom_site_type_symbol
_atom_site_label
_atom_site_fract_x
_atom_site_fract_y
_atom_site_fract_z
Si Si1 0.616949 0.663714 0.270719
Si Si2 0.950547 0.391439 0.602417
Si Si3 0.783812 0.059943 0.475744
Si Si4 0.256808 0.615148 0.628588
O O1 0.378462 0.635221 0.289742
O O2 0.905064 0.660781 0.120845
O O3 0.444971 0.823838 0.389948
O O4 0.700642 0.467617 0.299174
O O5 0.004456 0.510312 0.667015
O O6 0.000000 0.500000 0.500000
O O7 0.149047 0.185620 0.537880
O O8 0.727859 0.144390 0.405824
O O9 0.500000 0.500000 0.500000
#
# Coordination Sequence:
#
# PCOD9250896 Si02
#       4
#     4   4   4   4
#     4  11  27  52  75 120 166 215 277 337 425 490
#     4  12  25  49  79 115 160 215 275 340 420 496
#     4  11  27  50  82 116 164 221 270 351 406 502
#     4  10  24  49  73 116 160 209 279 330 417 491
#
# _framework density 30.679183999999999
#
# number of rings (size 3 to 8) (size 9 to 14) (size 15 to 20)
#    0.000    1.000    5.000    0.750    7.000    4.000 
#    4.500    0.000    0.000    0.000    0.000    0.000 
#    0.000    0.000    0.000    0.000    0.000    0.000 
#
# Total GULP energy -89279.199058 kJ/mol
# GULP energy per Si atom -5579.949941 kJ/mol
# Density = 3.060936 g / cm^3
# Si number density = 30.679184 Si / 1000 Ang^3
#
#
#
# Elastic Constant Matrix: (Units=GPa)
#
#
# Indices 1 2 3 4 5 6 
#
# 1 176.6255 89.2697 38.8417 0.0000 16.1894 0.0000
# 2 89.2697 206.7580 93.7630 0.0000 29.6203 0.0000
# 3 38.8417 93.7630 183.1716 0.0000 4.3617 0.0000
# 4 0.0000 0.0000 0.0000 53.0255 0.0000 24.5486
# 5 16.1894 29.6203 4.3617 0.0000 79.5834 0.0000
# 6 0.0000 0.0000 0.0000 24.5486 0.0000 76.2128
#
#
#
# Elastic Compliance Matrix: (Units=1/GPa)
#
#
# Indices 1 2 3 4 5 6 
#
# 1 0.007251 -0.003114 0.000064 0.000000 -0.000320 0.000000
# 2 -0.003114 0.008034 -0.003401 0.000000 -0.002170 0.000000
# 3 0.000064 -0.003401 0.007166 0.000000 0.000860 0.000000
# 4 0.000000 0.000000 0.000000 0.022164 0.000000 -0.007139
# 5 -0.000320 -0.002170 0.000860 0.000000 0.013391 0.000000
# 6 0.000000 0.000000 0.000000 -0.007139 0.000000 0.015421
#
#
# Mechanical properties :
#
#
# Convention : Reuss Voigt Hill
#
# Bulk Modulus (GPa) = 104.71150 112.25598 108.48374
# Shear Modulus (GPa) = 55.85933 64.74304 60.30118
#
# Velocity S-wave (km/s) = 4.27166 4.59881 4.43825
# Velocity P-wave (km/s) = 7.65080 8.05410 7.85503
#
# Compressibility (1/GPa) = 0.00955005
#
# Stress axis : x y z
#
# Youngs Moduli (GPa) = 137.91805 124.47052 139.54783
#
# Poissons Ratio (x) = 0.38758 -0.00893
# Poissons Ratio (y) = 0.42945 0.47454
# Poissons Ratio (z) = -0.00883 0.42327
#
# Static dielectric constant tensor:
#      x y z
#    x 2.720650 0.000000 -0.127050 
#    y 0.000000 2.845400 0.000000 
#    z -0.127050 0.000000 2.400520 
# 
# From -- ./inp_files/14825.got.cif
#   From: 2010.05.17/outbox.cif.g08.bks.cpg/sg14_8_cif.got.tgz:14825.got - 2010.06.03 17:49:19.
