data_PCOD9250968
_publ_section_title
;
Structure prediction by ZEFSAII (Michael W. Deem and Ramdas Pophale) SiO2 
 PCOD9250968
Probable space group: P 21/C
;
_chemical_formula_sum "Si O2"
_cell_formula_units_Z 24
_cell_length_a 18.647635
_cell_length_b 5.272441
_cell_length_c 13.271819
_cell_angle_alpha 90.000000
_cell_angle_beta 133.576026
_cell_angle_gamma 90.000000
_cell_volume 945.323733
_symmetry_space_group_name_H-M "P 21/C"
_symmetry_group_IT_number 14
_symmetry_cell_setting 'monoclinic'
loop_
_space_group_symop_operation_xyz
x,y,z
-x,1/2+y,1/2-z
-x,-y,-z
x,1/2-y,1/2+z
loop_
_atom_site_type_symbol
_atom_site_label
_atom_site_fract_x
_atom_site_fract_y
_atom_site_fract_z
Si Si1 0.106710 0.039155 0.467532
Si Si2 0.214361 0.834502 0.204369
Si Si3 0.232978 0.081403 0.997935
Si Si4 0.563219 0.249724 0.582101
Si Si5 0.552569 0.441130 0.288254
Si Si6 0.915520 0.213829 0.752308
O O1 0.198114 0.135508 0.487095
O O2 0.020258 0.235343 0.407600
O O3 0.152204 0.911108 0.608799
O O4 0.053967 0.868485 0.331477
O O5 0.324890 0.772767 0.349015
O O6 0.149656 0.950829 0.232013
O O7 0.223199 0.977853 0.105014
O O8 0.344139 0.041853 0.068493
O O9 0.159099 0.942624 0.850340
O O10 0.500000 0.500000 0.500000
O O11 0.576949 0.231072 0.715295
O O12 0.500000 0.000000 0.500000
O O13 0.500524 0.708345 0.204061
#
# Coordination Sequence:
#
# PCOD9250968 Si02
#       6
#     4   4   4   4   4   4
#     4  11  23  45  68 100 137 174 233 288 346 423
#     4  10  26  42  69  97 138 179 230 285 354 411
#     4  10  25  43  67  99 139 176 231 286 343 425
#     4  11  26  46  69 104 142 182 241 289 346 427
#     4  11  26  44  72 103 140 187 232 293 357 415
#     4  11  23  44  68 100 132 181 226 286 351 419
#
# _framework density 25.388127999999998
#
# number of rings (size 3 to 8) (size 9 to 14) (size 15 to 20)
#    0.000    1.333    1.667    1.500   16.333    2.000 
#    0.000    0.000    0.000    0.000    0.000    0.000 
#    0.000    0.000    0.000    0.000    0.000    0.000 
#
# Total GULP energy -133807.778189 kJ/mol
# GULP energy per Si atom -5575.324091 kJ/mol
# Density = 2.533034 g / cm^3
# Si number density = 25.388128 Si / 1000 Ang^3
#
#
#
# Elastic Constant Matrix: (Units=GPa)
#
#
# Indices 1 2 3 4 5 6 
#
# 1 98.5388 14.9456 39.7183 0.0000 15.4381 0.0000
# 2 14.9456 70.8665 21.0343 0.0000 19.2904 0.0000
# 3 39.7183 21.0343 113.7234 0.0000 33.3825 0.0000
# 4 0.0000 0.0000 0.0000 34.9898 0.0000 -2.2998
# 5 15.4381 19.2904 33.3825 0.0000 55.7182 0.0000
# 6 0.0000 0.0000 0.0000 -2.2998 0.0000 31.9919
#
#
#
# Elastic Compliance Matrix: (Units=1/GPa)
#
#
# Indices 1 2 3 4 5 6 
#
# 1 0.011950 -0.001232 -0.003760 0.000000 -0.000632 0.000000
# 2 -0.001232 0.015942 -0.001211 0.000000 -0.004452 0.000000
# 3 -0.003760 -0.001211 0.012015 0.000000 -0.005737 0.000000
# 4 0.000000 0.000000 0.000000 0.028715 0.000000 0.002064
# 5 -0.000632 -0.004452 -0.005737 0.000000 0.023101 0.000000
# 6 0.000000 0.000000 0.000000 0.002064 0.000000 0.031406
#
#
# Mechanical properties :
#
#
# Convention : Reuss Voigt Hill
#
# Bulk Modulus (GPa) = 36.36476 48.28058 42.32267
# Shear Modulus (GPa) = 34.55335 38.36869 36.46102
#
# Velocity S-wave (km/s) = 3.69318 3.89174 3.79376
# Velocity P-wave (km/s) = 5.70445 6.26518 5.99138
#
# Compressibility (1/GPa) = 0.02749915
#
# Stress axis : x y z
#
# Youngs Moduli (GPa) = 83.68375 62.72578 83.23159
#
# Poissons Ratio (x) = 0.07729 0.31297
# Poissons Ratio (y) = 0.10311 0.10083
# Poissons Ratio (z) = 0.31467 0.07599
#
# Static dielectric constant tensor:
#      x y z
#    x 2.188260 0.000000 -0.057920 
#    y 0.000000 2.284460 0.000000 
#    z -0.057920 0.000000 2.078870 
# 
# From -- ./inp_files/49592.got.cif
#   From: 2010.05.17/outbox.cif.g08.bks.cpg/sg14_25_cif.got.tgz:49592.got - 2010.06.03 17:49:19.
