data_PCOD9250086
_publ_section_title
;
Structure prediction by ZEFSAII (Michael W. Deem and Ramdas Pophale) SiO2 
 PCOD9250086
Probable space group: P 21/C
;
_chemical_formula_sum "Si O2"
_cell_formula_units_Z 26
_cell_length_a 19.190900
_cell_length_b 5.120963
_cell_length_c 28.438985
_cell_angle_alpha 90.000000
_cell_angle_beta 159.815480
_cell_angle_gamma 90.000000
_cell_volume 964.353679
_symmetry_space_group_name_H-M "P 21/C"
_symmetry_group_IT_number 14
_symmetry_cell_setting 'monoclinic'
loop_
_space_group_symop_operation_xyz
x,y,z
-x,1/2+y,1/2-z
-x,-y,-z
x,1/2-y,1/2+z
loop_
_atom_site_type_symbol
_atom_site_label
_atom_site_fract_x
_atom_site_fract_y
_atom_site_fract_z
Si Si1 0.226658 0.909939 0.452193
Si Si2 0.042133 0.104279 0.149120
Si Si3 0.500000 0.500000 0.500000
Si Si4 0.390898 0.415957 0.325091
Si Si5 0.774068 0.753715 0.420309
Si Si6 0.095298 0.769836 0.264646
Si Si7 0.648119 0.252741 0.290373
O O1 0.453605 0.813619 0.591894
O O2 0.123769 0.821014 0.337605
O O3 0.138189 0.771593 0.442279
O O4 0.136647 0.202483 0.395125
O O5 0.183949 0.275471 0.206839
O O6 0.160408 0.000303 0.270436
O O7 0.958204 0.859106 0.066884
O O8 0.475076 0.530115 0.427078
O O9 0.254908 0.550572 0.351757
O O10 0.370960 0.636697 0.273445
O O11 0.782247 0.039053 0.403271
O O12 0.574239 0.748288 0.326688
O O13 0.736067 0.538594 0.355401
#
# Coordination Sequence:
#
# PCOD9250086 Si02
#       7
#     4   4   2   4   4   4   4
#     4  11  23  44  64 102 138 193 230 293 358 438
#     4  12  25  43  69 104 136 192 236 305 351 445
#     4  10  24  42  68 106 138 180 232 296 342 448
#     4  11  25  44  71 103 144 182 243 289 374 426
#     4  10  24  44  74 101 145 185 258 298 372 425
#     4  11  24  42  69  96 149 184 240 289 365 427
#     4  10  23  46  70 107 138 196 239 315 361 441
#
# _framework density 26.961061999999998
#
# number of rings (size 3 to 8) (size 9 to 14) (size 15 to 20)
#    0.000    1.231    4.615    0.000    2.154    7.385 
#    0.000    0.000    0.000    0.000    0.000    0.000 
#    0.000    0.000    0.000    0.000    0.000    0.000 
#
# Total GULP energy -145334.966432 kJ/mol
# GULP energy per Si atom -5589.806401 kJ/mol
# Density = 2.689970 g / cm^3
# Si number density = 26.961062 Si / 1000 Ang^3
#
#
#
# Elastic Constant Matrix: (Units=GPa)
#
#
# Indices 1 2 3 4 5 6 
#
# 1 155.2288 20.4754 59.7193 0.0000 -1.3918 0.0000
# 2 20.4754 76.1693 21.1897 0.0000 -0.2350 0.0000
# 3 59.7193 21.1897 87.9381 0.0000 -17.5662 0.0000
# 4 0.0000 0.0000 0.0000 12.9512 0.0000 -9.8036
# 5 -1.3918 -0.2350 -17.5662 0.0000 42.0437 0.0000
# 6 0.0000 0.0000 0.0000 -9.8036 0.0000 29.2127
#
#
#
# Elastic Compliance Matrix: (Units=1/GPa)
#
#
# Indices 1 2 3 4 5 6 
#
# 1 0.008974 -0.000634 -0.006418 0.000000 -0.002388 0.000000
# 2 -0.000634 0.014199 -0.003251 0.000000 -0.001300 0.000000
# 3 -0.006418 -0.003251 0.017967 0.000000 0.007276 0.000000
# 4 0.000000 0.000000 0.000000 0.103508 0.000000 0.034737
# 5 -0.002388 -0.001300 0.007276 0.000000 0.026738 0.000000
# 6 0.000000 0.000000 0.000000 0.034737 0.000000 0.045889
#
#
# Mechanical properties :
#
#
# Convention : Reuss Voigt Hill
#
# Bulk Modulus (GPa) = 48.69914 58.01165 53.35539
# Shear Modulus (GPa) = 20.43102 31.37164 25.90133
#
# Velocity S-wave (km/s) = 2.75580 3.41484 3.10287
# Velocity P-wave (km/s) = 5.31299 6.09194 5.71575
#
# Compressibility (1/GPa) = 0.02053424
#
# Stress axis : x y z
#
# Youngs Moduli (GPa) = 111.43874 70.42572 55.65756
#
# Poissons Ratio (x) = 0.04466 0.35722
# Poissons Ratio (y) = 0.07066 0.18092
# Poissons Ratio (z) = 0.71524 0.22892
#
# Static dielectric constant tensor:
#      x y z
#    x 2.047210 0.000000 -0.002570 
#    y 0.000000 2.167450 0.000000 
#    z -0.002570 0.000000 2.077540 
# 
# From -- ./inp_files/80482.got.cif
#   From: 2010.05.17/outbox.cif.g08.bks.cpg/sg14_41_cif.got.tgz:80482.got - 2010.06.03 17:49:19.
