data_PCOD9250268
_publ_section_title
;
Structure prediction by ZEFSAII (Michael W. Deem and Ramdas Pophale) SiO2 
 PCOD9250268
Probable space group: P 21/C
;
_chemical_formula_sum "Si O2"
_cell_formula_units_Z 20
_cell_length_a 14.780351
_cell_length_b 13.941402
_cell_length_c 10.721284
_cell_angle_alpha 90.000000
_cell_angle_beta 19.313044
_cell_angle_gamma 90.000000
_cell_volume 730.652047
_symmetry_space_group_name_H-M "P 21/C"
_symmetry_group_IT_number 14
_symmetry_cell_setting 'monoclinic'
loop_
_space_group_symop_operation_xyz
x,y,z
-x,1/2+y,1/2-z
-x,-y,-z
x,1/2-y,1/2+z
loop_
_atom_site_type_symbol
_atom_site_label
_atom_site_fract_x
_atom_site_fract_y
_atom_site_fract_z
Si Si1 0.401603 0.468343 0.491118
Si Si2 0.994926 0.698851 0.016556
Si Si3 0.854268 0.182169 0.421859
Si Si4 0.756317 0.885278 0.411516
Si Si5 0.185863 0.477352 0.424291
O O1 0.500000 0.500000 0.500000
O O2 0.124488 0.407332 0.850695
O O3 0.626471 0.388300 0.162819
O O4 0.473029 0.561802 0.314355
O O5 0.767626 0.772437 0.373561
O O6 0.217344 0.709447 0.840960
O O7 0.076675 0.740814 0.774230
O O8 0.109153 0.108849 0.115824
O O9 0.866169 0.923702 0.137904
O O10 0.989715 0.931187 0.197578
O O11 0.500000 0.500000 0.000000
#
# Coordination Sequence:
#
# PCOD9250268 Si02
#       5
#     4   4   4   4   4
#     4  11  24  43  66  96 139 179 222 285 347 405
#     4  11  23  42  68  99 138 182 226 283 340 400
#     4  10  24  40  63  98 131 174 230 275 333 412
#     4   9  20  36  58  94 129 167 225 270 320 404
#     4   9  17  35  61  86 122 169 215 272 331 384
#
# _framework density 27.372809
#
# number of rings (size 3 to 8) (size 9 to 14) (size 15 to 20)
#    0.000    2.000    0.000    3.600    0.000    7.200 
#    0.000    0.000    0.000    0.000    0.000    0.000 
#    0.000    0.000    0.000    0.000    0.000    0.000 
#
# Total GULP energy -111585.339589 kJ/mol
# GULP energy per Si atom -5579.266979 kJ/mol
# Density = 2.731051 g / cm^3
# Si number density = 27.372809 Si / 1000 Ang^3
#
#
#
# Elastic Constant Matrix: (Units=GPa)
#
#
# Indices 1 2 3 4 5 6 
#
# 1 111.7540 41.2172 21.0703 0.0000 37.8156 0.0000
# 2 41.2172 193.3647 42.1210 0.0000 1.5274 0.0000
# 3 21.0703 42.1210 103.1154 0.0000 -2.5940 0.0000
# 4 0.0000 0.0000 0.0000 46.5327 0.0000 -0.0479
# 5 37.8156 1.5274 -2.5940 0.0000 45.4426 0.0000
# 6 0.0000 0.0000 0.0000 -0.0479 0.0000 32.0920
#
#
#
# Elastic Compliance Matrix: (Units=1/GPa)
#
#
# Indices 1 2 3 4 5 6 
#
# 1 0.014330 -0.002477 -0.002217 0.000000 -0.011968 0.000000
# 2 -0.002477 0.006110 -0.001946 0.000000 0.001745 0.000000
# 3 -0.002217 -0.001946 0.011010 0.000000 0.002539 0.000000
# 4 0.000000 0.000000 0.000000 0.021490 0.000000 0.000032
# 5 -0.011968 0.001745 0.002539 0.000000 0.032051 0.000000
# 6 0.000000 0.000000 0.000000 0.000032 0.000000 0.031161
#
#
# Mechanical properties :
#
#
# Convention : Reuss Voigt Hill
#
# Bulk Modulus (GPa) = 55.03910 68.56127 61.80018
# Shear Modulus (GPa) = 36.90393 45.06848 40.98620
#
# Velocity S-wave (km/s) = 3.67576 4.06207 3.87374
# Velocity P-wave (km/s) = 6.17785 6.86310 6.52947
#
# Compressibility (1/GPa) = 0.01816890
#
# Stress axis : x y z
#
# Youngs Moduli (GPa) = 69.78597 163.67712 90.82983
#
# Poissons Ratio (x) = 0.40541 0.20140
# Poissons Ratio (y) = 0.17285 0.17672
# Poissons Ratio (z) = 0.15474 0.31846
#
# Static dielectric constant tensor:
#      x y z
#    x 2.318860 0.000000 -0.023740 
#    y 0.000000 2.205630 0.000000 
#    z -0.023740 0.000000 2.180200 
# 
# From -- ./inp_files/34068.got.cif
#   From: 2010.05.17/outbox.cif.g08.bks.cpg/sg14_18_cif.got.tgz:34068.got - 2010.06.03 17:49:19.
