data_PCOD9250013
_publ_section_title
;
Structure prediction by ZEFSAII (Michael W. Deem and Ramdas Pophale) SiO2 
 PCOD9250013
Probable space group: P 21/C
;
_chemical_formula_sum "Si O2"
_cell_formula_units_Z 24
_cell_length_a 7.146530
_cell_length_b 14.294675
_cell_length_c 9.360170
_cell_angle_alpha 90.000000
_cell_angle_beta 87.625521
_cell_angle_gamma 90.000000
_cell_volume 955.388899
_symmetry_space_group_name_H-M "P 21/C"
_symmetry_group_IT_number 14
_symmetry_cell_setting 'monoclinic'
loop_
_space_group_symop_operation_xyz
x,y,z
-x,1/2+y,1/2-z
-x,-y,-z
x,1/2-y,1/2+z
loop_
_atom_site_type_symbol
_atom_site_label
_atom_site_fract_x
_atom_site_fract_y
_atom_site_fract_z
Si Si1 0.615384 0.608870 0.946394
Si Si2 0.837844 0.950754 0.178218
Si Si3 0.226054 0.674759 0.074231
Si Si4 0.293902 0.852787 0.904585
Si Si5 0.273194 0.321233 0.559684
Si Si6 0.120851 0.438969 0.824823
O O1 0.674742 0.555328 0.802423
O O2 0.717914 0.709863 0.934833
O O3 0.401600 0.633807 0.981862
O O4 0.700926 0.556133 0.079961
O O5 0.797174 0.044656 0.088620
O O6 0.032690 0.969500 0.253826
O O7 0.817601 0.861365 0.080530
O O8 0.283690 0.680464 0.239495
O O9 0.048391 0.606790 0.079394
O O10 0.194734 0.775903 0.006167
O O11 0.510810 0.855956 0.943143
O O12 0.170474 0.366111 0.697927
#
# Coordination Sequence:
#
# PCOD9250013 Si02
#       6
#     4   4   4   4   4   4
#     4  11  24  46  72  96 142 184 227 277 344 406
#     4  11  25  44  70 105 136 180 230 287 334 406
#     4  10  24  44  70 102 137 182 224 280 339 411
#     4  10  23  45  70 105 137 179 233 274 347 399
#     4  11  23  46  70 101 139 182 228 280 344 405
#     4  11  24  44  68 103 139 176 231 279 344 397
#
# _framework density 25.120659
#
# number of rings (size 3 to 8) (size 9 to 14) (size 15 to 20)
#    0.000    1.333    1.667    2.500   11.667    2.667 
#    6.000    0.000    0.000    0.000    0.000    0.000 
#    0.000    0.000    0.000    0.000    0.000    0.000 
#
# Total GULP energy -134648.575176 kJ/mol
# GULP energy per Si atom -5610.357299 kJ/mol
# Density = 2.506348 g / cm^3
# Si number density = 25.120659 Si / 1000 Ang^3
#
#
#
# Elastic Constant Matrix: (Units=GPa)
#
#
# Indices 1 2 3 4 5 6 
#
# 1 63.9267 18.7707 5.3727 0.0000 -1.3540 0.0000
# 2 18.7707 101.8077 30.9389 0.0000 1.8895 0.0000
# 3 5.3727 30.9389 76.4300 0.0000 -9.1169 0.0000
# 4 0.0000 0.0000 0.0000 52.1042 0.0000 2.0188
# 5 -1.3540 1.8895 -9.1169 0.0000 34.3376 0.0000
# 6 0.0000 0.0000 0.0000 2.0188 0.0000 27.7957
#
#
#
# Elastic Compliance Matrix: (Units=1/GPa)
#
#
# Indices 1 2 3 4 5 6 
#
# 1 0.016564 -0.003134 0.000209 0.000000 0.000881 0.000000
# 2 -0.003134 0.011912 -0.004848 0.000000 -0.002066 0.000000
# 3 0.000209 -0.004848 0.015557 0.000000 0.004406 0.000000
# 4 0.000000 0.000000 0.000000 0.019246 0.000000 -0.001398
# 5 0.000881 -0.002066 0.004406 0.000000 0.030441 0.000000
# 6 0.000000 0.000000 0.000000 -0.001398 0.000000 0.036078
#
#
# Mechanical properties :
#
#
# Convention : Reuss Voigt Hill
#
# Bulk Modulus (GPa) = 35.10272 39.14768 37.12520
# Shear Modulus (GPa) = 32.29132 35.31964 33.80548
#
# Velocity S-wave (km/s) = 3.58921 3.75373 3.67239
# Velocity P-wave (km/s) = 5.58395 5.86558 5.72650
#
# Compressibility (1/GPa) = 0.02848782
#
# Stress axis : x y z
#
# Youngs Moduli (GPa) = 60.37114 83.94935 64.27895
#
# Poissons Ratio (x) = 0.26310 -0.01346
# Poissons Ratio (y) = 0.18920 0.31163
# Poissons Ratio (z) = -0.01264 0.40700
#
# Static dielectric constant tensor:
#      x y z
#    x 1.968660 0.000000 0.017930 
#    y 0.000000 1.981240 0.000000 
#    z 0.017930 0.000000 1.943930 
# 
# From -- ./inp_files/8525.got.cif
#   From: 2010.05.17/outbox.cif.g08.bks.cpg/sg14_5_cif.got.tgz:8525.got - 2010.06.03 17:49:19.
