data_PCOD9250854
_publ_section_title
;
Structure prediction by ZEFSAII (Michael W. Deem and Ramdas Pophale) SiO2 
 PCOD9250854
Probable space group: P 21/C
;
_chemical_formula_sum "Si O2"
_cell_formula_units_Z 22
_cell_length_a 12.010696
_cell_length_b 4.965599
_cell_length_c 14.304156
_cell_angle_alpha 90.000000
_cell_angle_beta 83.457130
_cell_angle_gamma 90.000000
_cell_volume 847.547783
_symmetry_space_group_name_H-M "P 21/C"
_symmetry_group_IT_number 14
_symmetry_cell_setting 'monoclinic'
loop_
_space_group_symop_operation_xyz
x,y,z
-x,1/2+y,1/2-z
-x,-y,-z
x,1/2-y,1/2+z
loop_
_atom_site_type_symbol
_atom_site_label
_atom_site_fract_x
_atom_site_fract_y
_atom_site_fract_z
Si Si1 0.000000 0.500000 0.000000
Si Si2 0.355423 0.954423 0.287766
Si Si3 0.778761 0.755530 0.940387
Si Si4 0.076949 0.265127 0.249091
Si Si5 0.590524 0.542547 0.838996
Si Si6 0.167253 0.878487 0.903804
O O1 0.868995 0.554635 0.977557
O O2 0.045689 0.768954 0.943819
O O3 0.382022 0.758112 0.197591
O O4 0.457260 0.918835 0.351648
O O5 0.241923 0.838950 0.342077
O O6 0.367041 0.256705 0.248245
O O7 0.837464 0.839380 0.836866
O O8 0.662080 0.621802 0.922170
O O9 0.768088 0.994331 0.015063
O O10 0.135760 0.378936 0.335597
O O11 0.008863 0.527183 0.219112
#
# Coordination Sequence:
#
# PCOD9250854 Si02
#       6
#     2   4   4   4   4   4
#     4  12  28  46  66 112 152 192 252 308 356 456
#     4  10  24  48  76 110 143 198 246 308 364 449
#     4  12  27  45  74 109 149 195 244 316 357 457
#     4  12  28  46  73 103 148 204 244 295 378 435
#     4  10  24  47  78 106 147 193 255 297 373 441
#     4  12  28  44  74 109 153 191 249 311 367 440
#
# _framework density 25.957239999999999
#
# number of rings (size 3 to 8) (size 9 to 14) (size 15 to 20)
#    0.000    0.727    3.636    1.636   10.182    0.727 
#    0.000    0.909    0.000    0.000    0.000    0.000 
#    0.000    0.000    0.000    0.000    0.000    0.000 
#
# Total GULP energy -122909.096267 kJ/mol
# GULP energy per Si atom -5586.777103 kJ/mol
# Density = 2.589816 g / cm^3
# Si number density = 25.957240 Si / 1000 Ang^3
#
#
#
# Elastic Constant Matrix: (Units=GPa)
#
#
# Indices 1 2 3 4 5 6 
#
# 1 123.1637 16.1963 16.9299 0.0000 39.7327 0.0000
# 2 16.1963 83.6009 13.6083 0.0000 -6.1038 0.0000
# 3 16.9299 13.6083 91.1520 0.0000 1.8757 0.0000
# 4 0.0000 0.0000 0.0000 26.7841 0.0000 2.2776
# 5 39.7327 -6.1038 1.8757 0.0000 41.8682 0.0000
# 6 0.0000 0.0000 0.0000 2.2776 0.0000 39.8453
#
#
#
# Elastic Compliance Matrix: (Units=1/GPa)
#
#
# Indices 1 2 3 4 5 6 
#
# 1 0.012799 -0.003125 -0.001653 0.000000 -0.012528 0.000000
# 2 -0.003125 0.013171 -0.001488 0.000000 0.004953 0.000000
# 3 -0.001653 -0.001488 0.011483 0.000000 0.000837 0.000000
# 4 0.000000 0.000000 0.000000 0.037518 0.000000 -0.002145
# 5 -0.012528 0.004953 0.000837 0.000000 0.036458 0.000000
# 6 0.000000 0.000000 0.000000 -0.002145 0.000000 0.025220
#
#
# Mechanical properties :
#
#
# Convention : Reuss Voigt Hill
#
# Bulk Modulus (GPa) = 40.12727 43.48728 41.80727
# Shear Modulus (GPa) = 31.74891 38.44500 35.09695
#
# Velocity S-wave (km/s) = 3.50111 3.85267 3.68109
# Velocity P-wave (km/s) = 5.64236 6.04818 5.84879
#
# Compressibility (1/GPa) = 0.02492071
#
# Stress axis : x y z
#
# Youngs Moduli (GPa) = 78.13206 75.92549 87.08870
#
# Poissons Ratio (x) = 0.23728 0.14394
# Poissons Ratio (y) = 0.24418 0.12957
# Poissons Ratio (z) = 0.12914 0.11296
#
# Static dielectric constant tensor:
#      x y z
#    x 1.880820 0.000000 0.047600 
#    y 0.000000 2.010970 0.000000 
#    z 0.047600 0.000000 2.126620 
# 
# From -- ./inp_files/42585.got.cif
#   From: 2010.05.17/outbox.cif.g08.bks.cpg/sg14_22_cif.got.tgz:42585.got - 2010.06.03 17:49:19.
