data_PCOD9250962
_publ_section_title
;
Structure prediction by ZEFSAII (Michael W. Deem and Ramdas Pophale) SiO2 
 PCOD9250962
Probable space group: P 21/C
;
_chemical_formula_sum "Si O2"
_cell_formula_units_Z 28
_cell_length_a 10.315649
_cell_length_b 16.334300
_cell_length_c 10.315545
_cell_angle_alpha 90.000000
_cell_angle_beta 141.416239
_cell_angle_gamma 90.000000
_cell_volume 1084.016290
_symmetry_space_group_name_H-M "P 21/C"
_symmetry_group_IT_number 14
_symmetry_cell_setting 'monoclinic'
loop_
_space_group_symop_operation_xyz
x,y,z
-x,1/2+y,1/2-z
-x,-y,-z
x,1/2-y,1/2+z
loop_
_atom_site_type_symbol
_atom_site_label
_atom_site_fract_x
_atom_site_fract_y
_atom_site_fract_z
Si Si1 0.272709 0.094666 0.532531
Si Si2 0.832785 0.771958 0.130113
Si Si3 0.740288 0.333509 0.044655
Si Si4 0.841649 0.457183 0.656293
Si Si5 0.277023 0.939098 0.216623
Si Si6 0.684261 0.597694 0.366830
Si Si7 0.475932 0.665719 0.532224
O O1 0.171967 0.176251 0.393907
O O2 0.474244 0.068163 0.608904
O O3 0.373159 0.120651 0.747418
O O4 0.077993 0.033868 0.385700
O O5 0.623392 0.797509 0.038433
O O6 0.042601 0.809955 0.352106
O O7 0.801154 0.816563 0.965877
O O8 0.558974 0.384483 0.834144
O O9 0.639342 0.245694 0.000854
O O10 0.784585 0.386341 0.209372
O O11 0.820103 0.413066 0.497321
O O12 0.739802 0.544049 0.538134
O O13 0.700729 0.401364 0.638627
O O14 0.236105 0.036818 0.183664
#
# Coordination Sequence:
#
# PCOD9250962 Si02
#       7
#     4   4   4   4   4   4   4
#     4  11  21  45  67  95 131 183 223 264 340 395
#     4  12  26  40  71 102 129 177 231 271 330 407
#     4  12  23  43  69 103 132 173 226 285 330 384
#     4   9  23  44  67  93 137 182 210 271 342 393
#     4   9  23  42  70  95 142 172 215 280 330 397
#     4  10  25  43  65 104 138 170 227 272 339 397
#     4  11  24  44  67  98 134 174 224 279 327 399
#
# _framework density 25.829868999999999
#
# number of rings (size 3 to 8) (size 9 to 14) (size 15 to 20)
#    0.857    0.571    4.286    0.429    2.000    4.571 
#    0.000    1.429    0.000    0.000    0.000    0.000 
#    0.000    0.000    0.000    0.000    0.000    0.000 
#
# Total GULP energy -156599.215966 kJ/mol
# GULP energy per Si atom -5592.829142 kJ/mol
# Density = 2.577108 g / cm^3
# Si number density = 25.829869 Si / 1000 Ang^3
#
#
#
# Elastic Constant Matrix: (Units=GPa)
#
#
# Indices 1 2 3 4 5 6 
#
# 1 61.1671 -1.1587 26.1539 0.0000 24.9988 0.0000
# 2 -1.1587 98.5482 22.6217 0.0000 11.3936 0.0000
# 3 26.1539 22.6217 91.3699 0.0000 35.1173 0.0000
# 4 0.0000 0.0000 0.0000 50.6277 0.0000 12.6330
# 5 24.9988 11.3936 35.1173 0.0000 45.1816 0.0000
# 6 0.0000 0.0000 0.0000 12.6330 0.0000 27.9149
#
#
#
# Elastic Compliance Matrix: (Units=1/GPa)
#
#
# Indices 1 2 3 4 5 6 
#
# 1 0.021846 0.002099 -0.002743 0.000000 -0.010484 0.000000
# 2 0.002099 0.010987 -0.002581 0.000000 -0.001926 0.000000
# 3 -0.002743 -0.002581 0.016449 0.000000 -0.010616 0.000000
# 4 0.000000 0.000000 0.000000 0.022266 0.000000 -0.010077
# 5 -0.010484 -0.001926 -0.010616 0.000000 0.036671 0.000000
# 6 0.000000 0.000000 0.000000 -0.010077 0.000000 0.040383
#
#
# Mechanical properties :
#
#
# Convention : Reuss Voigt Hill
#
# Bulk Modulus (GPa) = 23.34713 38.47989 30.91351
# Shear Modulus (GPa) = 29.52791 38.30940 33.91865
#
# Velocity S-wave (km/s) = 3.38475 3.85534 3.62768
# Velocity P-wave (km/s) = 4.93293 5.89474 5.43515
#
# Compressibility (1/GPa) = 0.04283181
#
# Stress axis : x y z
#
# Youngs Moduli (GPa) = 45.77418 91.01605 60.79396
#
# Poissons Ratio (x) = -0.19102 0.16678
# Poissons Ratio (y) = -0.09607 0.15689
# Poissons Ratio (z) = 0.12557 0.23489
#
# Static dielectric constant tensor:
#      x y z
#    x 2.053840 0.000000 -0.042700 
#    y 0.000000 2.026370 0.000000 
#    z -0.042700 0.000000 2.054370 
# 
# From -- ./inp_files/30688.got.cif
#   From: 2010.05.17/outbox.cif.g08.bks.cpg/sg14_16_cif.got.tgz:30688.got - 2010.06.03 17:49:19.
