data_PCOD9250175
_publ_section_title
;
Structure prediction by ZEFSAII (Michael W. Deem and Ramdas Pophale) SiO2 
 PCOD9250175
Probable space group: P 21/C
;
_chemical_formula_sum "Si O2"
_cell_formula_units_Z 16
_cell_length_a 9.982505
_cell_length_b 5.115171
_cell_length_c 13.803184
_cell_angle_alpha 90.000000
_cell_angle_beta 62.476861
_cell_angle_gamma 90.000000
_cell_volume 625.052572
_symmetry_space_group_name_H-M "P 21/C"
_symmetry_group_IT_number 14
_symmetry_cell_setting 'monoclinic'
loop_
_space_group_symop_operation_xyz
x,y,z
-x,1/2+y,1/2-z
-x,-y,-z
x,1/2-y,1/2+z
loop_
_atom_site_type_symbol
_atom_site_label
_atom_site_fract_x
_atom_site_fract_y
_atom_site_fract_z
Si Si1 0.598286 0.184286 0.898140
Si Si2 0.288140 0.395461 0.990070
Si Si3 0.839741 0.992386 0.677355
Si Si4 0.028791 0.487637 0.604722
O O1 0.695161 0.390391 0.930278
O O2 0.688111 0.013357 0.790287
O O3 0.459324 0.345847 0.897199
O O4 0.500000 0.000000 0.000000
O O5 0.197534 0.488623 0.925000
O O6 0.197048 0.136169 0.056958
O O7 0.922757 0.257486 0.676562
O O8 0.954256 0.758001 0.664059
O O9 0.000000 0.500000 0.500000
#
# Coordination Sequence:
#
# PCOD9250175 Si02
#       4
#     4   4   4   4
#     4  11  28  45  74 115 153 199 257 312 386 463
#     4  10  25  47  76 111 161 196 254 323 380 469
#     4  11  26  47  81 108 150 205 251 310 392 448
#     4  10  23  47  78 111 144 200 256 309 379 455
#
# _framework density 25.597846000000001
#
# number of rings (size 3 to 8) (size 9 to 14) (size 15 to 20)
#    0.000    1.500    0.000    3.000   21.000    0.000 
#    4.500    0.000    0.000    0.000    0.000    0.000 
#    0.000    0.000    0.000    0.000    0.000    0.000 
#
# Total GULP energy -89497.684163 kJ/mol
# GULP energy per Si atom -5593.605260 kJ/mol
# Density = 2.553958 g / cm^3
# Si number density = 25.597846 Si / 1000 Ang^3
#
#
#
# Elastic Constant Matrix: (Units=GPa)
#
#
# Indices 1 2 3 4 5 6 
#
# 1 172.7321 51.7030 37.4401 0.0000 -4.2070 0.0000
# 2 51.7030 150.9518 41.8039 0.0000 -14.7492 0.0000
# 3 37.4401 41.8039 120.5428 0.0000 -36.2305 0.0000
# 4 0.0000 0.0000 0.0000 4.5716 0.0000 -31.0335
# 5 -4.2070 -14.7492 -36.2305 0.0000 45.9143 0.0000
# 6 0.0000 0.0000 0.0000 -31.0335 0.0000 47.1283
#
#
#
# Elastic Compliance Matrix: (Units=1/GPa)
#
#
# Indices 1 2 3 4 5 6 
#
# 1 0.006737 -0.001935 -0.001865 0.000000 -0.001476 0.000000
# 2 -0.001935 0.007892 -0.001871 0.000000 0.000882 0.000000
# 3 -0.001865 -0.001871 0.012181 0.000000 0.008840 0.000000
# 4 0.000000 0.000000 0.000000 -0.063037 0.000000 -0.041509
# 5 -0.001476 0.000882 0.008840 0.000000 0.028903 0.000000
# 6 0.000000 0.000000 0.000000 -0.041509 0.000000 -0.006115
#
#
# Mechanical properties :
#
#
# Convention : Reuss Voigt Hill
#
# Bulk Modulus (GPa) = 64.65202 78.45787 71.55495
# Shear Modulus (GPa) = 1634.90857 40.40815 837.65836
#
# Velocity S-wave (km/s) = 25.29973 3.97744 18.10934
# Velocity P-wave (km/s) = 29.64367 7.19792 21.57032
#
# Compressibility (1/GPa) = 0.01546742
#
# Stress axis : x y z
#
# Youngs Moduli (GPa) = 148.43734 126.71565 82.09676
#
# Poissons Ratio (x) = 0.24522 0.15311
# Poissons Ratio (y) = 0.28726 0.15359
# Poissons Ratio (z) = 0.27683 0.23706
#
# Static dielectric constant tensor:
#      x y z
#    x 2.102240 0.000000 -0.112640 
#    y 0.000000 2.080120 0.000000 
#    z -0.112640 0.000000 1.933330 
# 
# From -- ./inp_files/56394.got.cif
#   From: 2010.05.17/outbox.cif.g08.bks.cpg/sg14_29_cif.got.tgz:56394.got - 2010.06.03 17:49:19.
