data_PCOD9250134
_publ_section_title
;
Structure prediction by ZEFSAII (Michael W. Deem and Ramdas Pophale) SiO2 
 PCOD9250134
Probable space group: P 21/C
;
_chemical_formula_sum "Si O2"
_cell_formula_units_Z 24
_cell_length_a 11.595258
_cell_length_b 11.712458
_cell_length_c 8.793692
_cell_angle_alpha 90.000000
_cell_angle_beta 78.467351
_cell_angle_gamma 90.000000
_cell_volume 1170.151240
_symmetry_space_group_name_H-M "P 21/C"
_symmetry_group_IT_number 14
_symmetry_cell_setting 'monoclinic'
loop_
_space_group_symop_operation_xyz
x,y,z
-x,1/2+y,1/2-z
-x,-y,-z
x,1/2-y,1/2+z
loop_
_atom_site_type_symbol
_atom_site_label
_atom_site_fract_x
_atom_site_fract_y
_atom_site_fract_z
Si Si1 0.811520 0.009237 0.603540
Si Si2 0.072149 0.615085 0.463199
Si Si3 0.988463 0.339783 0.862178
Si Si4 0.588924 0.902602 0.533641
Si Si5 0.688421 0.059346 0.937961
Si Si6 0.445605 0.162827 0.103950
O O1 0.718877 0.955801 0.511184
O O2 0.888208 0.907199 0.658174
O O3 0.900060 0.093951 0.497668
O O4 0.738864 0.073005 0.754327
O O5 0.010755 0.710277 0.583786
O O6 0.061606 0.654095 0.293165
O O7 0.205278 0.591331 0.479576
O O8 0.000000 0.500000 0.500000
O O9 0.585317 0.792193 0.427546
O O10 0.558165 0.863692 0.714843
O O11 0.500000 0.000000 0.500000
O O12 0.643048 0.927875 0.952560
O O13 0.574816 0.134657 0.005070
#
# Coordination Sequence:
#
# PCOD9250134 Si02
#       6
#     4   4   4   4   4   4
#     4  10  24  47  70  98 143 175 235 280 343 401
#     4  12  26  43  73 100 138 182 230 276 350 400
#     4  11  26  44  69 104 135 185 227 286 335 412
#     4  11  27  44  71 105 135 184 229 283 346 409
#     4  10  23  47  68 100 135 186 225 285 335 407
#     4  10  26  44  72  99 143 176 233 281 345 405
#
# _framework density 20.510168
#
# number of rings (size 3 to 8) (size 9 to 14) (size 15 to 20)
#    0.000    1.333    1.667    1.000   16.333    0.000 
#    0.000    0.000    0.000    0.000    0.000    0.000 
#    0.000    0.000    0.000    0.000    0.000    0.000 
#
# Total GULP energy -134257.807523 kJ/mol
# GULP energy per Si atom -5594.075313 kJ/mol
# Density = 2.046349 g / cm^3
# Si number density = 20.510168 Si / 1000 Ang^3
#
#
#
# Elastic Constant Matrix: (Units=GPa)
#
#
# Indices 1 2 3 4 5 6 
#
# 1 45.4209 -9.6262 0.5002 0.0000 5.4319 0.0000
# 2 -9.6262 90.0601 26.6422 0.0000 16.0765 0.0000
# 3 0.5002 26.6422 64.8401 0.0000 11.1456 0.0000
# 4 0.0000 0.0000 0.0000 35.7729 0.0000 7.9066
# 5 5.4319 16.0765 11.1456 0.0000 40.0746 0.0000
# 6 0.0000 0.0000 0.0000 7.9066 0.0000 15.0302
#
#
#
# Elastic Compliance Matrix: (Units=1/GPa)
#
#
# Indices 1 2 3 4 5 6 
#
# 1 0.023290 0.003523 -0.000884 0.000000 -0.004324 0.000000
# 2 0.003523 0.013752 -0.004881 0.000000 -0.004637 0.000000
# 3 -0.000884 -0.004881 0.017935 0.000000 -0.002910 0.000000
# 4 0.000000 0.000000 0.000000 0.031632 0.000000 -0.016640
# 5 -0.004324 -0.004637 -0.002910 0.000000 0.028209 0.000000
# 6 0.000000 0.000000 0.000000 -0.016640 0.000000 0.075286
#
#
# Mechanical properties :
#
#
# Convention : Reuss Voigt Hill
#
# Bulk Modulus (GPa) = 19.80471 26.15040 22.97756
# Shear Modulus (GPa) = 23.64979 30.36253 27.00616
#
# Velocity S-wave (km/s) = 3.39938 3.85172 3.63260
# Velocity P-wave (km/s) = 5.00847 5.70602 5.36859
#
# Compressibility (1/GPa) = 0.05049305
#
# Stress axis : x y z
#
# Youngs Moduli (GPa) = 42.93740 72.71807 55.75679
#
# Poissons Ratio (x) = -0.25616 0.04928
# Poissons Ratio (y) = -0.15126 0.27213
# Poissons Ratio (z) = 0.03795 0.35491
#
# Static dielectric constant tensor:
#      x y z
#    x 1.729940 0.000000 -0.037800 
#    y 0.000000 1.696160 0.000000 
#    z -0.037800 0.000000 1.800850 
# 
# From -- ./inp_files/12419.got.cif
#   From: 2010.05.17/outbox.cif.g08.bks.cpg/sg14_7_cif.got.tgz:12419.got - 2010.06.03 17:49:19.
