data_PCOD9250326
_publ_section_title
;
Structure prediction by ZEFSAII (Michael W. Deem and Ramdas Pophale) SiO2 
 PCOD9250326
Probable space group: P 21/C
;
_chemical_formula_sum "Si O2"
_cell_formula_units_Z 20
_cell_length_a 28.017988
_cell_length_b 4.775612
_cell_length_c 11.293283
_cell_angle_alpha 90.000000
_cell_angle_beta 31.485738
_cell_angle_gamma 90.000000
_cell_volume 789.214096
_symmetry_space_group_name_H-M "P 21/C"
_symmetry_group_IT_number 14
_symmetry_cell_setting 'monoclinic'
loop_
_space_group_symop_operation_xyz
x,y,z
-x,1/2+y,1/2-z
-x,-y,-z
x,1/2-y,1/2+z
loop_
_atom_site_type_symbol
_atom_site_label
_atom_site_fract_x
_atom_site_fract_y
_atom_site_fract_z
Si Si1 0.006129 0.738891 0.150593
Si Si2 0.571614 0.241784 0.857261
Si Si3 0.142840 0.379073 0.213489
Si Si4 0.286430 0.145695 0.589306
Si Si5 0.288901 0.833553 0.235891
O O1 0.026604 0.453390 0.176415
O O2 0.928927 0.707514 0.212824
O O3 0.088017 0.895056 0.908792
O O4 0.628002 0.275200 0.859130
O O5 0.647573 0.087065 0.610901
O O6 0.500000 0.500000 0.000000
O O7 0.500000 0.000000 0.000000
O O8 0.214091 0.228919 0.150292
O O9 0.210230 0.530610 0.980392
O O10 0.326324 0.413728 0.572822
O O11 0.242133 0.937133 0.777051
#
# Coordination Sequence:
#
# PCOD9250326 Si02
#       5
#     4   4   4   4   4
#     4  11  24  41  64  96 134 177 222 273 328 388
#     4  11  24  43  66  95 128 167 218 273 335 406
#     4  10  24  41  66  96 133 176 224 273 328 397
#     4  11  24  42  66  96 131 173 221 276 336 400
#     4  11  24  42  66  96 131 173 221 276 336 400
#
# _framework density 25.341669
#
# number of rings (size 3 to 8) (size 9 to 14) (size 15 to 20)
#    0.000    1.200    0.000    4.800    0.000   14.400 
#    0.000    0.000    0.000    0.000    0.000    0.000 
#    0.000    0.000    0.000    0.000    0.000    0.000 
#
# Total GULP energy -111710.589999 kJ/mol
# GULP energy per Si atom -5585.529500 kJ/mol
# Density = 2.528399 g / cm^3
# Si number density = 25.341669 Si / 1000 Ang^3
#
#
#
# Elastic Constant Matrix: (Units=GPa)
#
#
# Indices 1 2 3 4 5 6 
#
# 1 151.2427 52.7305 41.5644 0.0000 -20.2284 0.0000
# 2 52.7305 151.2354 34.5531 0.0000 3.8571 0.0000
# 3 41.5644 34.5531 89.5623 0.0000 -16.7033 0.0000
# 4 0.0000 0.0000 0.0000 32.5798 0.0000 -6.4615
# 5 -20.2284 3.8571 -16.7033 0.0000 24.9240 0.0000
# 6 0.0000 0.0000 0.0000 -6.4615 0.0000 25.1487
#
#
#
# Elastic Compliance Matrix: (Units=1/GPa)
#
#
# Indices 1 2 3 4 5 6 
#
# 1 0.008994 -0.002879 -0.001850 0.000000 0.006506 0.000000
# 2 -0.002879 0.008438 -0.002970 0.000000 -0.005633 0.000000
# 3 -0.001850 -0.002970 0.014829 0.000000 0.008896 0.000000
# 4 0.000000 0.000000 0.000000 0.032342 0.000000 0.008310
# 5 0.006506 -0.005633 0.008896 0.000000 0.052235 0.000000
# 6 0.000000 0.000000 0.000000 0.008310 0.000000 0.041898
#
#
# Mechanical properties :
#
#
# Convention : Reuss Voigt Hill
#
# Bulk Modulus (GPa) = 59.30061 72.19293 65.74677
# Shear Modulus (GPa) = 27.81546 34.07666 30.94606
#
# Velocity S-wave (km/s) = 3.31663 3.67098 3.49829
# Velocity P-wave (km/s) = 6.17397 6.82040 6.50522
#
# Compressibility (1/GPa) = 0.01686323
#
# Stress axis : x y z
#
# Youngs Moduli (GPa) = 111.18227 118.50763 67.43632
#
# Poissons Ratio (x) = 0.34121 0.12476
# Poissons Ratio (y) = 0.32012 0.20027
# Poissons Ratio (z) = 0.20569 0.35195
#
# Static dielectric constant tensor:
#      x y z
#    x 1.992130 0.000000 0.050800 
#    y 0.000000 1.911870 0.000000 
#    z 0.050800 0.000000 1.966670 
# 
# From -- ./inp_files/36025.got.cif
#   From: 2010.05.17/outbox.cif.g08.bks.cpg/sg14_19_cif.got.tgz:36025.got - 2010.06.03 17:49:19.
