data_PCOD9250679
_publ_section_title
;
Structure prediction by ZEFSAII (Michael W. Deem and Ramdas Pophale) SiO2 
 PCOD9250679
Probable space group: P 21/C
;
_chemical_formula_sum "Si O2"
_cell_formula_units_Z 16
_cell_length_a 9.267204
_cell_length_b 14.032360
_cell_length_c 12.194156
_cell_angle_alpha 90.000000
_cell_angle_beta 24.114434
_cell_angle_gamma 90.000000
_cell_volume 647.869400
_symmetry_space_group_name_H-M "P 21/C"
_symmetry_group_IT_number 14
_symmetry_cell_setting 'monoclinic'
loop_
_space_group_symop_operation_xyz
x,y,z
-x,1/2+y,1/2-z
-x,-y,-z
x,1/2-y,1/2+z
loop_
_atom_site_type_symbol
_atom_site_label
_atom_site_fract_x
_atom_site_fract_y
_atom_site_fract_z
Si Si1 0.132199 0.551856 0.254229
Si Si2 0.576002 0.345597 0.751918
Si Si3 0.897980 0.779944 0.758925
Si Si4 0.477322 0.925842 0.915743
O O1 0.137847 0.601137 0.369445
O O2 0.079088 0.635907 0.203294
O O3 0.870156 0.468063 0.401172
O O4 0.500000 0.500000 0.000000
O O5 0.335169 0.409199 0.834356
O O6 0.807969 0.272114 0.518607
O O7 0.304186 0.290646 0.018845
O O8 0.594536 0.829359 0.895291
O O9 0.500000 0.000000 0.000000
#
# Coordination Sequence:
#
# PCOD9250679 Si02
#       4
#     4   4   4   4
#     4  11  25  46  73 105 143 186 234 291 352 417
#     4  12  24  46  73 105 139 186 236 290 347 417
#     4  11  26  47  73 103 141 186 236 289 349 417
#     4  10  24  45  69 103 141 182 231 288 349 413
#
# _framework density 24.696334
#
# number of rings (size 3 to 8) (size 9 to 14) (size 15 to 20)
#    0.000    1.000    0.000    5.250    0.000    8.000 
#    0.000   12.500    0.000    0.000    0.000    0.000 
#    0.000    0.000    0.000    0.000    0.000    0.000 
#
# Total GULP energy -89174.724555 kJ/mol
# GULP energy per Si atom -5573.420285 kJ/mol
# Density = 2.464012 g / cm^3
# Si number density = 24.696334 Si / 1000 Ang^3
#
#
#
# Elastic Constant Matrix: (Units=GPa)
#
#
# Indices 1 2 3 4 5 6 
#
# 1 220.2803 65.8620 43.8115 0.0000 14.1322 0.0000
# 2 65.8620 104.9725 37.1798 0.0000 11.5762 0.0000
# 3 43.8115 37.1798 96.8678 0.0000 21.5692 0.0000
# 4 0.0000 0.0000 0.0000 23.8275 0.0000 -5.6086
# 5 14.1322 11.5762 21.5692 0.0000 32.4495 0.0000
# 6 0.0000 0.0000 0.0000 -5.6086 0.0000 77.2585
#
#
#
# Elastic Compliance Matrix: (Units=1/GPa)
#
#
# Indices 1 2 3 4 5 6 
#
# 1 0.005757 -0.003093 -0.001296 0.000000 -0.000542 0.000000
# 2 -0.003093 0.012735 -0.003260 0.000000 -0.001029 0.000000
# 3 -0.001296 -0.003260 0.013822 0.000000 -0.007460 0.000000
# 4 0.000000 0.000000 0.000000 0.042698 0.000000 0.003100
# 5 -0.000542 -0.001029 -0.007460 0.000000 0.036379 0.000000
# 6 0.000000 0.000000 0.000000 0.003100 0.000000 0.013169
#
#
# Mechanical properties :
#
#
# Convention : Reuss Voigt Hill
#
# Bulk Modulus (GPa) = 58.76757 79.53633 69.15195
# Shear Modulus (GPa) = 34.35731 45.05826 39.70779
#
# Velocity S-wave (km/s) = 3.73391 4.27604 4.01414
# Velocity P-wave (km/s) = 6.51438 7.52695 7.03890
#
# Compressibility (1/GPa) = 0.01701619
#
# Stress axis : x y z
#
# Youngs Moduli (GPa) = 173.69951 78.52245 72.35027
#
# Poissons Ratio (x) = 0.24290 0.09375
# Poissons Ratio (y) = 0.53731 0.23585
# Poissons Ratio (z) = 0.22507 0.25597
#
# Static dielectric constant tensor:
#      x y z
#    x 2.128040 0.000000 0.246280 
#    y 0.000000 2.084620 0.000000 
#    z 0.246280 0.000000 2.741270 
# 
# From -- ./inp_files/24409.got.cif
#   From: 2010.05.17/outbox.cif.g08.bks.cpg/sg14_13_cif.got.tgz:24409.got - 2010.06.03 17:49:19.
