data_PCOD9250019
_publ_section_title
;
Structure prediction by ZEFSAII (Michael W. Deem and Ramdas Pophale) SiO2 
 PCOD9250019
Probable space group: P 21/C
;
_chemical_formula_sum "Si O2"
_cell_formula_units_Z 16
_cell_length_a 13.525719
_cell_length_b 7.069614
_cell_length_c 11.373665
_cell_angle_alpha 90.000000
_cell_angle_beta 147.323236
_cell_angle_gamma 90.000000
_cell_volume 587.176983
_symmetry_space_group_name_H-M "P 21/C"
_symmetry_group_IT_number 14
_symmetry_cell_setting 'monoclinic'
loop_
_space_group_symop_operation_xyz
x,y,z
-x,1/2+y,1/2-z
-x,-y,-z
x,1/2-y,1/2+z
loop_
_atom_site_type_symbol
_atom_site_label
_atom_site_fract_x
_atom_site_fract_y
_atom_site_fract_z
Si Si1 0.389289 0.410294 0.520059
Si Si2 0.081655 0.822243 0.653809
Si Si3 0.295271 0.020017 0.345455
Si Si4 0.720180 0.622163 0.913781
O O1 0.256012 0.587043 0.392617
O O2 0.293203 0.249741 0.341932
O O3 0.593783 0.489610 0.704311
O O4 0.395158 0.298827 0.650329
O O5 0.157669 0.639745 0.657830
O O6 0.912669 0.787279 0.571123
O O7 0.000000 0.000000 0.500000
O O8 0.253478 0.996543 0.442480
O O9 0.500000 0.000000 0.500000
#
# Coordination Sequence:
#
# PCOD9250019 Si02
#       4
#     4   4   4   4
#     4  10  24  43  70  97 140 182 230 288 350 404
#     4  12  25  44  70 102 143 182 234 285 350 421
#     4  10  24  44  70 104 138 179 234 284 348 412
#     4  10  23  45  70  98 140 183 233 289 349 410
#
# _framework density 27.249026000000001
#
# number of rings (size 3 to 8) (size 9 to 14) (size 15 to 20)
#    1.500    0.000    0.000    4.500    0.000    7.000 
#    0.000    0.000    0.000    0.000    0.000    0.000 
#    0.000    0.000    0.000    0.000    0.000    0.000 
#
# Total GULP energy -89146.341465 kJ/mol
# GULP energy per Si atom -5571.646342 kJ/mol
# Density = 2.718701 g / cm^3
# Si number density = 27.249026 Si / 1000 Ang^3
#
#
#
# Elastic Constant Matrix: (Units=GPa)
#
#
# Indices 1 2 3 4 5 6 
#
# 1 55.3024 39.8068 43.5595 0.0000 34.4874 0.0000
# 2 39.8068 207.2506 84.0327 0.0000 37.2538 0.0000
# 3 43.5595 84.0327 141.5115 0.0000 43.8389 0.0000
# 4 0.0000 0.0000 0.0000 86.2380 0.0000 19.4346
# 5 34.4874 37.2538 43.8389 0.0000 55.0593 0.0000
# 6 0.0000 0.0000 0.0000 19.4346 0.0000 53.4805
#
#
#
# Elastic Compliance Matrix: (Units=1/GPa)
#
#
# Indices 1 2 3 4 5 6 
#
# 1 0.032439 -0.001737 -0.004013 0.000000 -0.015948 0.000000
# 2 -0.001737 0.006573 -0.003090 0.000000 -0.000899 0.000000
# 3 -0.004013 -0.003090 0.011562 0.000000 -0.004601 0.000000
# 4 0.000000 0.000000 0.000000 0.012630 0.000000 -0.004590
# 5 -0.015948 -0.000899 -0.004601 0.000000 0.032424 0.000000
# 6 0.000000 0.000000 0.000000 -0.004590 0.000000 0.020366
#
#
# Mechanical properties :
#
#
# Convention : Reuss Voigt Hill
#
# Bulk Modulus (GPa) = 30.40021 82.09586 56.24803
# Shear Modulus (GPa) = 34.56844 54.73325 44.65084
#
# Velocity S-wave (km/s) = 3.56562 4.48664 4.05238
# Velocity P-wave (km/s) = 5.30398 7.55204 6.52555
#
# Compressibility (1/GPa) = 0.03289451
#
# Stress axis : x y z
#
# Youngs Moduli (GPa) = 30.82690 152.13196 86.48675
#
# Poissons Ratio (x) = 0.26419 0.34711
# Poissons Ratio (y) = 0.05353 0.26726
# Poissons Ratio (z) = 0.12372 0.47011
#
# Static dielectric constant tensor:
#      x y z
#    x 2.450870 0.000000 -0.029070 
#    y 0.000000 2.241100 0.000000 
#    z -0.029070 0.000000 2.181980 
# 
# From -- ./inp_files/52435.got.cif
#   From: 2010.05.17/outbox.cif.g08.bks.cpg/sg14_27_cif.got.tgz:52435.got - 2010.06.03 17:49:19.
