data_PCOD9250044
_publ_section_title
;
Structure prediction by ZEFSAII (Michael W. Deem and Ramdas Pophale) SiO2 
 PCOD9250044
Probable space group: P 21/C
;
_chemical_formula_sum "Si O2"
_cell_formula_units_Z 16
_cell_length_a 8.243077
_cell_length_b 4.791697
_cell_length_c 20.758451
_cell_angle_alpha 90.000000
_cell_angle_beta 44.367476
_cell_angle_gamma 90.000000
_cell_volume 573.338200
_symmetry_space_group_name_H-M "P 21/C"
_symmetry_group_IT_number 14
_symmetry_cell_setting 'monoclinic'
loop_
_space_group_symop_operation_xyz
x,y,z
-x,1/2+y,1/2-z
-x,-y,-z
x,1/2-y,1/2+z
loop_
_atom_site_type_symbol
_atom_site_label
_atom_site_fract_x
_atom_site_fract_y
_atom_site_fract_z
Si Si1 0.376432 0.129492 0.760867
Si Si2 0.368731 0.000701 0.134383
Si Si3 0.085786 0.570038 0.547137
Si Si4 0.238601 0.497695 0.098266
O O1 0.447589 0.366761 0.793894
O O2 0.363662 0.326090 0.701748
O O3 0.141963 0.975996 0.848524
O O4 0.214230 0.188204 0.129984
O O5 0.751995 0.296354 0.842645
O O6 0.360425 0.012038 0.964697
O O7 0.000000 0.500000 0.500000
O O8 0.101691 0.879646 0.576257
O O9 0.500000 0.500000 0.000000
#
# Coordination Sequence:
#
# PCOD9250044 Si02
#       4
#     4   4   4   4
#     4  12  27  45  70 107 145 188 243 303 362 436
#     4  11  24  47  71 105 145 184 243 305 356 441
#     4  11  24  46  75 103 142 194 237 296 373 430
#     4  10  23  45  74 105 140 187 240 299 365 435
#
# _framework density 27.906742000000001
#
# number of rings (size 3 to 8) (size 9 to 14) (size 15 to 20)
#    0.000    1.000    2.500    4.500    0.000    9.000 
#    0.000    0.000    0.000    0.000    0.000    0.000 
#    0.000    0.000    0.000    0.000    0.000    0.000 
#
# Total GULP energy -89268.007964 kJ/mol
# GULP energy per Si atom -5579.250498 kJ/mol
# Density = 2.784323 g / cm^3
# Si number density = 27.906742 Si / 1000 Ang^3
#
#
#
# Elastic Constant Matrix: (Units=GPa)
#
#
# Indices 1 2 3 4 5 6 
#
# 1 182.5756 49.4687 54.2568 0.0000 2.5635 0.0000
# 2 49.4687 101.5468 16.3143 0.0000 3.8918 0.0000
# 3 54.2568 16.3143 165.8453 0.0000 -16.3419 0.0000
# 4 0.0000 0.0000 0.0000 33.1031 0.0000 9.7083
# 5 2.5635 3.8918 -16.3419 0.0000 47.2439 0.0000
# 6 0.0000 0.0000 0.0000 9.7083 0.0000 58.9971
#
#
#
# Elastic Compliance Matrix: (Units=1/GPa)
#
#
# Indices 1 2 3 4 5 6 
#
# 1 0.006912 -0.003006 -0.002048 0.000000 -0.000836 0.000000
# 2 -0.003006 0.011380 -0.000220 0.000000 -0.000850 0.000000
# 3 -0.002048 -0.000220 0.006972 0.000000 0.002541 0.000000
# 4 0.000000 0.000000 0.000000 0.031740 0.000000 -0.005223
# 5 -0.000836 -0.000850 0.002541 0.000000 0.022161 0.000000
# 6 0.000000 0.000000 0.000000 -0.005223 0.000000 0.017809
#
#
# Mechanical properties :
#
#
# Convention : Reuss Voigt Hill
#
# Bulk Modulus (GPa) = 67.95319 76.67191 72.31255
# Shear Modulus (GPa) = 44.47301 49.86402 47.16852
#
# Velocity S-wave (km/s) = 3.99636 4.23165 4.11569
# Velocity P-wave (km/s) = 6.75999 7.17006 6.96805
#
# Compressibility (1/GPa) = 0.01471601
#
# Stress axis : x y z
#
# Youngs Moduli (GPa) = 144.67536 87.87318 143.43741
#
# Poissons Ratio (x) = 0.26416 0.29375
# Poissons Ratio (y) = 0.43492 0.03152
# Poissons Ratio (z) = 0.29629 0.01931
#
# Static dielectric constant tensor:
#      x y z
#    x 2.398060 0.000000 0.107540 
#    y 0.000000 2.231400 0.000000 
#    z 0.107540 0.000000 2.197360 
# 
# From -- ./inp_files/53915.got.cif
#   From: 2010.05.17/outbox.cif.g08.bks.cpg/sg14_27_cif.got.tgz:53915.got - 2010.06.03 17:49:19.
