data_PCOD9250794
_publ_section_title
;
Structure prediction by ZEFSAII (Michael W. Deem and Ramdas Pophale) SiO2 
 PCOD9250794
Probable space group: P 21/C
;
_chemical_formula_sum "Si O2"
_cell_formula_units_Z 30
_cell_length_a 5.374598
_cell_length_b 17.897579
_cell_length_c 11.899086
_cell_angle_alpha 90.000000
_cell_angle_beta 101.583384
_cell_angle_gamma 90.000000
_cell_volume 1121.288880
_symmetry_space_group_name_H-M "P 21/C"
_symmetry_group_IT_number 14
_symmetry_cell_setting 'monoclinic'
loop_
_space_group_symop_operation_xyz
x,y,z
-x,1/2+y,1/2-z
-x,-y,-z
x,1/2-y,1/2+z
loop_
_atom_site_type_symbol
_atom_site_label
_atom_site_fract_x
_atom_site_fract_y
_atom_site_fract_z
Si Si1 0.728226 0.036997 0.948121
Si Si2 0.633967 0.008274 0.268278
Si Si3 0.071833 0.593477 0.828673
Si Si4 0.734242 0.259526 0.257664
Si Si5 0.044686 0.825362 0.920607
Si Si6 0.882473 0.810138 0.525481
Si Si7 0.628325 0.652081 0.216537
Si Si8 0.500000 0.500000 0.000000
O O1 0.782122 0.121725 0.989577
O O2 0.613411 0.025043 0.814773
O O3 0.500000 0.000000 0.000000
O O4 0.000000 0.000000 0.000000
O O5 0.584709 0.097179 0.253051
O O6 0.677576 0.005356 0.404875
O O7 0.867552 0.958940 0.247509
O O8 0.948660 0.639074 0.924551
O O9 0.176646 0.656954 0.754011
O O10 0.288596 0.543499 0.902945
O O11 0.901647 0.213714 0.364123
O O12 0.451702 0.238199 0.271831
O O13 0.774637 0.227250 0.136363
O O14 0.846953 0.773007 0.971222
O O15 0.873976 0.866742 0.812043
O O16 0.680516 0.854784 0.586998
#
# Coordination Sequence:
#
# PCOD9250794 Si02
#       8
#     4   4   4   4   4   4   4   2
#     4  12  28  51  83 121 167 222 286 356 438 516
#     4  12  27  47  83 116 171 213 285 349 437 508
#     4  11  27  50  76 124 161 221 274 353 419 515
#     4  10  24  47  76 109 154 210 280 341 422 503
#     4  10  24  46  73 113 151 209 271 347 417 507
#     4  10  24  47  76 109 160 207 280 337 424 500
#     4  11  23  47  80 111 156 214 273 345 426 508
#     4  12  28  46  78 112 164 210 280 328 428 498
#
# _framework density 26.754925
#
# number of rings (size 3 to 8) (size 9 to 14) (size 15 to 20)
#    0.000    1.067    1.333    2.800    3.733    9.600 
#    0.000    0.000    0.000    0.000    0.000    0.000 
#    0.000    0.000    0.000    0.000    0.000    0.000 
#
# Total GULP energy -167255.399192 kJ/mol
# GULP energy per Si atom -5575.179973 kJ/mol
# Density = 2.669403 g / cm^3
# Si number density = 26.754925 Si / 1000 Ang^3
#
#
#
# Elastic Constant Matrix: (Units=GPa)
#
#
# Indices 1 2 3 4 5 6 
#
# 1 114.2779 52.2396 33.5763 0.0000 18.0867 0.0000
# 2 52.2396 115.0256 25.8818 0.0000 -8.8359 0.0000
# 3 33.5763 25.8818 152.5578 0.0000 6.3915 0.0000
# 4 0.0000 0.0000 0.0000 32.4643 0.0000 -0.0532
# 5 18.0867 -8.8359 6.3915 0.0000 37.6176 0.0000
# 6 0.0000 0.0000 0.0000 -0.0532 0.0000 45.2095
#
#
#
# Elastic Compliance Matrix: (Units=1/GPa)
#
#
# Indices 1 2 3 4 5 6 
#
# 1 0.013266 -0.006261 -0.001540 0.000000 -0.007587 0.000000
# 2 -0.006261 0.012214 -0.000947 0.000000 0.006040 0.000000
# 3 -0.001540 -0.000947 0.007083 0.000000 -0.000686 0.000000
# 4 0.000000 0.000000 0.000000 0.030803 0.000000 0.000036
# 5 -0.007587 0.006040 -0.000686 0.000000 0.031767 0.000000
# 6 0.000000 0.000000 0.000000 0.000036 0.000000 0.022119
#
#
# Mechanical properties :
#
#
# Convention : Reuss Voigt Hill
#
# Bulk Modulus (GPa) = 66.36823 67.25075 66.80949
# Shear Modulus (GPa) = 35.77269 41.06919 38.42094
#
# Velocity S-wave (km/s) = 3.66054 3.92218 3.79361
# Velocity P-wave (km/s) = 6.53650 6.76030 6.64934
#
# Compressibility (1/GPa) = 0.01506745
#
# Stress axis : x y z
#
# Youngs Moduli (GPa) = 75.38054 81.87018 141.17975
#
# Poissons Ratio (x) = 0.51261 0.21736
# Poissons Ratio (y) = 0.47198 0.13373
# Poissons Ratio (z) = 0.11605 0.07755
#
# Static dielectric constant tensor:
#      x y z
#    x 2.148710 0.000000 -0.090320 
#    y 0.000000 2.180330 0.000000 
#    z -0.090320 0.000000 2.166610 
# 
# From -- ./inp_files/21781.got.cif
#   From: 2010.05.17/outbox.cif.g08.bks.cpg/sg14_11_cif.got.tgz:21781.got - 2010.06.03 17:49:19.
