data_PCOD9250821
_publ_section_title
;
Structure prediction by ZEFSAII (Michael W. Deem and Ramdas Pophale) SiO2 
 PCOD9250821
Probable space group: P 21/C
;
_chemical_formula_sum "Si O2"
_cell_formula_units_Z 28
_cell_length_a 7.793813
_cell_length_b 28.105762
_cell_length_c 8.028534
_cell_angle_alpha 90.000000
_cell_angle_beta 129.970724
_cell_angle_gamma 90.000000
_cell_volume 1347.788262
_symmetry_space_group_name_H-M "P 21/C"
_symmetry_group_IT_number 14
_symmetry_cell_setting 'monoclinic'
loop_
_space_group_symop_operation_xyz
x,y,z
-x,1/2+y,1/2-z
-x,-y,-z
x,1/2-y,1/2+z
loop_
_atom_site_type_symbol
_atom_site_label
_atom_site_fract_x
_atom_site_fract_y
_atom_site_fract_z
Si Si1 0.633715 0.048662 0.564054
Si Si2 0.901461 0.506960 0.752768
Si Si3 0.853818 0.413490 0.506300
Si Si4 0.681571 0.584879 0.412925
Si Si5 0.184638 0.693272 0.395698
Si Si6 0.348486 0.307125 0.492293
Si Si7 0.917715 0.757808 0.451458
O O1 0.528016 0.074362 0.338825
O O2 0.884143 0.030924 0.697406
O O3 0.500000 0.000000 0.500000
O O4 0.656369 0.079189 0.746395
O O5 0.847279 0.456648 0.633656
O O6 0.710233 0.544759 0.575748
O O7 0.000000 0.500000 0.000000
O O8 0.825722 0.362216 0.570176
O O9 0.098698 0.415299 0.570191
O O10 0.661017 0.637157 0.475513
O O11 0.417832 0.704364 0.450883
O O12 0.122240 0.724138 0.519731
O O13 0.991581 0.708669 0.147524
O O14 0.156317 0.291593 0.244064
O O15 0.284916 0.276435 0.615848
#
# Coordination Sequence:
#
# PCOD9250821 Si02
#       7
#     4   4   4   4   4   4   4
#     4  11  21  42  64  85 128 181 213 253 315 390
#     4  11  25  39  63  95 136 167 214 271 318 377
#     4  11  23  42  64  95 130 173 216 266 322 383
#     4  11  23  43  63  93 131 174 218 259 325 388
#     4  11  24  43  69  98 127 171 217 272 328 394
#     4  11  24  43  68  99 124 174 217 265 334 393
#     4  10  24  47  67  91 137 164 215 280 329 382
#
# _framework density 20.774777
#
# number of rings (size 3 to 8) (size 9 to 14) (size 15 to 20)
#    0.000    1.143    4.286    1.714    4.000    4.000 
#    2.571    0.000    0.000    0.000    0.000    0.000 
#    0.000    0.000    0.000    0.000    0.000    0.000 
#
# Total GULP energy -156281.753896 kJ/mol
# GULP energy per Si atom -5581.491211 kJ/mol
# Density = 2.072749 g / cm^3
# Si number density = 20.774777 Si / 1000 Ang^3
#
#
#
# Elastic Constant Matrix: (Units=GPa)
#
#
# Indices 1 2 3 4 5 6 
#
# 1 75.0005 33.5361 4.6677 0.0000 1.8911 0.0000
# 2 33.5361 179.6608 80.8623 0.0000 -18.7299 0.0000
# 3 4.6677 80.8623 115.7796 0.0000 -16.4502 0.0000
# 4 0.0000 0.0000 0.0000 34.2674 0.0000 -12.7880
# 5 1.8911 -18.7299 -16.4502 0.0000 31.6332 0.0000
# 6 0.0000 0.0000 0.0000 -12.7880 0.0000 -28.7094
#
#
#
# Elastic Compliance Matrix: (Units=1/GPa)
#
#
# Indices 1 2 3 4 5 6 
#
# 1 0.014988 -0.003816 0.001741 0.000000 -0.002250 0.000000
# 2 -0.003816 0.009209 -0.005907 0.000000 0.002609 0.000000
# 3 0.001741 -0.005907 0.013153 0.000000 0.003238 0.000000
# 4 0.000000 0.000000 0.000000 0.025023 0.000000 -0.011146
# 5 -0.002250 0.002609 0.003238 0.000000 0.034975 0.000000
# 6 0.000000 0.000000 0.000000 -0.011146 0.000000 -0.029867
#
#
# Mechanical properties :
#
#
# Convention : Reuss Voigt Hill
#
# Bulk Modulus (GPa) = 46.76029 67.61924 57.18976
# Shear Modulus (GPa) = 55.20391 24.19656 39.70024
#
# Velocity S-wave (km/s) = 5.16045 3.41649 4.37622
# Velocity P-wave (km/s) = 7.61998 6.94136 7.28857
#
# Compressibility (1/GPa) = 0.02138567
#
# Stress axis : x y z
#
# Youngs Moduli (GPa) = 66.72050 108.58857 76.03007
#
# Poissons Ratio (x) = 0.41437 -0.13238
# Poissons Ratio (y) = 0.25460 0.44913
# Poissons Ratio (z) = -0.11617 0.64146
#
# Static dielectric constant tensor:
#      x y z
#    x 1.793420 0.000000 -0.037200 
#    y 0.000000 1.707550 0.000000 
#    z -0.037200 0.000000 1.786740 
# 
# From -- ./inp_files/11122.got.cif
#   From: 2010.05.17/outbox.cif.g08.bks.cpg/sg14_6_cif.got.tgz:11122.got - 2010.06.03 17:49:19.
