data_PCOD9250601
_publ_section_title
;
Structure prediction by ZEFSAII (Michael W. Deem and Ramdas Pophale) SiO2 
 PCOD9250601
Probable space group: P 21/C
;
_chemical_formula_sum "Si O2"
_cell_formula_units_Z 20
_cell_length_a 12.584875
_cell_length_b 7.625901
_cell_length_c 8.495029
_cell_angle_alpha 90.000000
_cell_angle_beta 75.658819
_cell_angle_gamma 90.000000
_cell_volume 789.870834
_symmetry_space_group_name_H-M "P 21/C"
_symmetry_group_IT_number 14
_symmetry_cell_setting 'monoclinic'
loop_
_space_group_symop_operation_xyz
x,y,z
-x,1/2+y,1/2-z
-x,-y,-z
x,1/2-y,1/2+z
loop_
_atom_site_type_symbol
_atom_site_label
_atom_site_fract_x
_atom_site_fract_y
_atom_site_fract_z
Si Si1 0.106530 0.485918 0.177418
Si Si2 0.660598 0.145182 0.915992
Si Si3 0.114431 0.677685 0.839702
Si Si4 0.566908 0.858978 0.183026
Si Si5 0.341198 0.052993 0.525574
O O1 0.117446 0.612499 0.323145
O O2 0.219670 0.380857 0.120286
O O3 0.994675 0.379860 0.213586
O O4 0.104189 0.604641 0.019093
O O5 0.774076 0.110661 0.783264
O O6 0.668234 0.343361 0.980493
O O7 0.634380 0.005089 0.061057
O O8 0.554972 0.144245 0.841352
O O9 0.619247 0.668845 0.133473
O O10 0.577386 0.901891 0.361305
#
# Coordination Sequence:
#
# PCOD9250601 Si02
#       5
#     4   4   4   4   4
#     4  10  25  44  70 100 135 185 228 295 343 418
#     4  10  26  46  70 102 143 186 232 290 349 418
#     4  10  24  44  68  99 136 180 230 288 349 411
#     4  11  27  44  73 103 139 192 231 288 355 413
#     4  11  27  44  72 104 141 184 233 295 341 427
#
# _framework density 25.320595999999998
#
# number of rings (size 3 to 8) (size 9 to 14) (size 15 to 20)
#    0.000    1.600    0.000    0.600   22.400    2.400 
#    0.000    0.000    0.000    0.000    0.000    0.000 
#    0.000    0.000    0.000    0.000    0.000    0.000 
#
# Total GULP energy -112216.255105 kJ/mol
# GULP energy per Si atom -5610.812755 kJ/mol
# Density = 2.526297 g / cm^3
# Si number density = 25.320596 Si / 1000 Ang^3
#
#
#
# Elastic Constant Matrix: (Units=GPa)
#
#
# Indices 1 2 3 4 5 6 
#
# 1 158.2086 30.9536 14.0828 0.0000 -26.5307 0.0000
# 2 30.9536 112.9699 37.1574 0.0000 -19.9975 0.0000
# 3 14.0828 37.1574 85.2040 0.0000 -20.1487 0.0000
# 4 0.0000 0.0000 0.0000 45.2742 0.0000 -4.7832
# 5 -26.5307 -19.9975 -20.1487 0.0000 41.8085 0.0000
# 6 0.0000 0.0000 0.0000 -4.7832 0.0000 44.5059
#
#
#
# Elastic Compliance Matrix: (Units=1/GPa)
#
#
# Indices 1 2 3 4 5 6 
#
# 1 0.007248 -0.001381 0.000379 0.000000 0.004122 0.000000
# 2 -0.001381 0.010973 -0.003976 0.000000 0.002456 0.000000
# 3 0.000379 -0.003976 0.014689 0.000000 0.005418 0.000000
# 4 0.000000 0.000000 0.000000 0.022341 0.000000 0.002401
# 5 0.004122 0.002456 0.005418 0.000000 0.030320 0.000000
# 6 0.000000 0.000000 0.000000 0.002401 0.000000 0.022727
#
#
# Mechanical properties :
#
#
# Convention : Reuss Voigt Hill
#
# Bulk Modulus (GPa) = 43.56615 57.86334 50.71475
# Shear Modulus (GPa) = 39.71203 44.59698 42.15451
#
# Velocity S-wave (km/s) = 3.96456 4.20133 4.08466
# Velocity P-wave (km/s) = 6.18063 6.81445 6.50526
#
# Compressibility (1/GPa) = 0.02295360
#
# Stress axis : x y z
#
# Youngs Moduli (GPa) = 137.96074 91.13364 68.07767
#
# Poissons Ratio (x) = 0.12586 -0.02580
# Poissons Ratio (y) = 0.19054 0.27069
# Poissons Ratio (z) = -0.05228 0.36237
#
# Static dielectric constant tensor:
#      x y z
#    x 2.009720 0.000000 -0.023850 
#    y 0.000000 1.985070 0.000000 
#    z -0.023850 0.000000 1.982860 
# 
# From -- ./inp_files/11807.got.cif
#   From: 2010.05.17/outbox.cif.g08.bks.cpg/sg14_6_cif.got.tgz:11807.got - 2010.06.03 17:49:19.
