data_PCOD9250552
_publ_section_title
;
Structure prediction by ZEFSAII (Michael W. Deem and Ramdas Pophale) SiO2 
 PCOD9250552
Probable space group: P 21/C
;
_chemical_formula_sum "Si O2"
_cell_formula_units_Z 28
_cell_length_a 4.883477
_cell_length_b 28.644053
_cell_length_c 9.058812
_cell_angle_alpha 90.000000
_cell_angle_beta 58.971175
_cell_angle_gamma 90.000000
_cell_volume 1085.848162
_symmetry_space_group_name_H-M "P 21/C"
_symmetry_group_IT_number 14
_symmetry_cell_setting 'monoclinic'
loop_
_space_group_symop_operation_xyz
x,y,z
-x,1/2+y,1/2-z
-x,-y,-z
x,1/2-y,1/2+z
loop_
_atom_site_type_symbol
_atom_site_label
_atom_site_fract_x
_atom_site_fract_y
_atom_site_fract_z
Si Si1 0.259202 0.945272 0.102550
Si Si2 0.421339 0.723460 0.911108
Si Si3 0.310793 0.138218 0.473309
Si Si4 0.181051 0.876606 0.895496
Si Si5 0.716102 0.416296 0.083021
Si Si6 0.910999 0.539331 0.273252
Si Si7 0.192294 0.281469 0.486855
O O1 0.386355 0.936860 0.232269
O O2 0.010622 0.987706 0.188104
O O3 0.152699 0.895588 0.068675
O O4 0.530072 0.959095 0.907203
O O5 0.556842 0.711339 0.713718
O O6 0.532164 0.683931 0.996859
O O7 0.619286 0.767244 0.919827
O O8 0.059923 0.741400 0.993839
O O9 0.469059 0.131917 0.268912
O O10 0.437143 0.097719 0.548688
O O11 0.935580 0.129545 0.556999
O O12 0.036928 0.918036 0.836264
O O13 0.994038 0.828873 0.933347
O O14 0.950813 0.450876 0.926821
#
# Coordination Sequence:
#
# PCOD9250552 Si02
#       7
#     4   4   4   4   4   4   4
#     4  11  23  42  70  95 136 181 230 278 345 402
#     4  12  26  47  68 107 131 186 221 291 336 421
#     4  11  24  45  69  99 141 172 229 277 343 398
#     4  11  24  43  69  97 136 180 222 287 336 409
#     4  11  24  43  69 102 137 183 223 286 332 411
#     4  10  24  44  64 101 135 179 228 286 335 407
#     4  12  27  44  74  97 142 175 234 275 355 400
#
# _framework density 25.786294999999999
#
# number of rings (size 3 to 8) (size 9 to 14) (size 15 to 20)
#    0.000    0.857    1.429    5.143    6.000    1.143 
#    0.000    2.143    0.000    0.000    0.000    0.000 
#    0.000    0.000    0.000    0.000    0.000    0.000 
#
# Total GULP energy -156855.653374 kJ/mol
# GULP energy per Si atom -5601.987620 kJ/mol
# Density = 2.572760 g / cm^3
# Si number density = 25.786295 Si / 1000 Ang^3
#
#
#
# Elastic Constant Matrix: (Units=GPa)
#
#
# Indices 1 2 3 4 5 6 
#
# 1 92.9291 4.4849 13.1598 0.0000 5.0860 0.0000
# 2 4.4849 71.2290 24.0883 0.0000 1.2918 0.0000
# 3 13.1598 24.0883 135.1664 0.0000 10.3750 0.0000
# 4 0.0000 0.0000 0.0000 25.4480 0.0000 7.2619
# 5 5.0860 1.2918 10.3750 0.0000 34.1972 0.0000
# 6 0.0000 0.0000 0.0000 7.2619 0.0000 35.6926
#
#
#
# Elastic Compliance Matrix: (Units=1/GPa)
#
#
# Indices 1 2 3 4 5 6 
#
# 1 0.010980 -0.000362 -0.000901 0.000000 -0.001346 0.000000
# 2 -0.000362 0.014954 -0.002652 0.000000 0.000294 0.000000
# 3 -0.000901 -0.002652 0.008130 0.000000 -0.002232 0.000000
# 4 0.000000 0.000000 0.000000 0.041718 0.000000 -0.008488
# 5 -0.001346 0.000294 -0.002232 0.000000 0.030109 0.000000
# 6 0.000000 0.000000 0.000000 -0.008488 0.000000 0.029744
#
#
# Mechanical properties :
#
#
# Convention : Reuss Voigt Hill
#
# Bulk Modulus (GPa) = 38.12091 42.53225 40.32658
# Shear Modulus (GPa) = 32.84961 36.24032 34.54497
#
# Velocity S-wave (km/s) = 3.57307 3.75295 3.66411
# Velocity P-wave (km/s) = 5.64251 5.94217 5.79428
#
# Compressibility (1/GPa) = 0.02623232
#
# Stress axis : x y z
#
# Youngs Moduli (GPa) = 91.07763 66.87338 123.00084
#
# Poissons Ratio (x) = 0.02422 0.11084
# Poissons Ratio (y) = 0.03299 0.32622
# Poissons Ratio (z) = 0.08207 0.17736
#
# Static dielectric constant tensor:
#      x y z
#    x 2.032260 0.000000 -0.032190 
#    y 0.000000 2.133590 0.000000 
#    z -0.032190 0.000000 1.960890 
# 
# From -- ./inp_files/6720.got.cif
#   From: 2010.05.17/outbox.cif.g08.bks.cpg/sg14_4_cif.got.tgz:6720.got - 2010.06.03 17:49:19.
