data_PCOD9250540
_publ_section_title
;
Structure prediction by ZEFSAII (Michael W. Deem and Ramdas Pophale) SiO2 
 PCOD9250540
Probable space group: P 21/C
;
_chemical_formula_sum "Si O2"
_cell_formula_units_Z 32
_cell_length_a 14.752439
_cell_length_b 11.047480
_cell_length_c 11.307397
_cell_angle_alpha 90.000000
_cell_angle_beta 128.597387
_cell_angle_gamma 90.000000
_cell_volume 1440.276456
_symmetry_space_group_name_H-M "P 21/C"
_symmetry_group_IT_number 14
_symmetry_cell_setting 'monoclinic'
loop_
_space_group_symop_operation_xyz
x,y,z
-x,1/2+y,1/2-z
-x,-y,-z
x,1/2-y,1/2+z
loop_
_atom_site_type_symbol
_atom_site_label
_atom_site_fract_x
_atom_site_fract_y
_atom_site_fract_z
Si Si1 0.203221 0.931637 0.101430
Si Si2 0.543080 0.968120 0.668573
Si Si3 0.788917 0.678944 0.025037
Si Si4 0.472142 0.272619 0.202204
Si Si5 0.707680 0.317077 0.858919
Si Si6 0.072197 0.408514 0.324541
Si Si7 0.860597 0.510647 0.867759
Si Si8 0.817150 0.439545 0.151835
O O1 0.236181 0.810429 0.059816
O O2 0.177473 0.890175 0.213351
O O3 0.317960 0.013705 0.206667
O O4 0.100322 0.000646 0.953821
O O5 0.521150 0.826500 0.684401
O O6 0.500000 0.000000 0.500000
O O7 0.495953 0.080217 0.715671
O O8 0.662264 0.734351 0.940705
O O9 0.804549 0.605392 0.915056
O O10 0.887848 0.777369 0.105795
O O11 0.809065 0.583820 0.146354
O O12 0.578208 0.216650 0.211304
O O13 0.787057 0.389370 0.831695
O O14 0.713766 0.394686 0.984763
O O15 0.148003 0.447475 0.273972
O O16 0.937119 0.409016 0.185364
O O17 0.000000 0.500000 0.000000
#
# Coordination Sequence:
#
# PCOD9250540 Si02
#       8
#     4   4   4   4   4   4   4   4
#     4  11  25  41  66 106 132 180 245 291 360 431
#     4  11  23  46  72  99 147 193 240 309 370 440
#     4  11  25  44  71 101 143 186 240 295 366 441
#     4  11  23  47  72 106 144 192 253 300 369 448
#     4  10  24  43  72  98 138 189 237 296 358 439
#     4  12  26  41  70 102 143 181 243 299 355 439
#     4  11  24  47  69 104 143 193 237 295 377 428
#     4  11  25  44  69  99 141 193 226 300 375 422
#
# _framework density 22.217956000000001
#
# number of rings (size 3 to 8) (size 9 to 14) (size 15 to 20)
#    0.000    1.000    3.750    3.375    7.000    1.000 
#    2.250    1.250    0.000    0.000    0.000    0.000 
#    0.000    0.000    0.000    0.000    0.000    0.000 
#
# Total GULP energy -178384.307979 kJ/mol
# GULP energy per Si atom -5574.509624 kJ/mol
# Density = 2.216739 g / cm^3
# Si number density = 22.217956 Si / 1000 Ang^3
#
#
#
# Elastic Constant Matrix: (Units=GPa)
#
#
# Indices 1 2 3 4 5 6 
#
# 1 68.2541 21.0254 26.6077 0.0000 18.1269 0.0000
# 2 21.0254 108.3229 25.3792 0.0000 2.0884 0.0000
# 3 26.6077 25.3792 57.9689 0.0000 12.1879 0.0000
# 4 0.0000 0.0000 0.0000 17.5866 0.0000 -5.7637
# 5 18.1269 2.0884 12.1879 0.0000 49.7327 0.0000
# 6 0.0000 0.0000 0.0000 -5.7637 0.0000 18.9432
#
#
#
# Elastic Compliance Matrix: (Units=1/GPa)
#
#
# Indices 1 2 3 4 5 6 
#
# 1 0.019368 -0.002045 -0.006883 0.000000 -0.005287 0.000000
# 2 -0.002045 0.010526 -0.003937 0.000000 0.001268 0.000000
# 3 -0.006883 -0.003937 0.022743 0.000000 -0.002899 0.000000
# 4 0.000000 0.000000 0.000000 0.063159 0.000000 0.019217
# 5 -0.005287 0.001268 -0.002899 0.000000 0.022692 0.000000
# 6 0.000000 0.000000 0.000000 0.019217 0.000000 0.058636
#
#
# Mechanical properties :
#
#
# Convention : Reuss Voigt Hill
#
# Bulk Modulus (GPa) = 37.16286 42.28563 39.72425
# Shear Modulus (GPa) = 21.56804 28.02141 24.79473
#
# Velocity S-wave (km/s) = 3.11906 3.55520 3.34425
# Velocity P-wave (km/s) = 5.45291 5.99384 5.72976
#
# Compressibility (1/GPa) = 0.02690858
#
# Stress axis : x y z
#
# Youngs Moduli (GPa) = 51.63039 94.99911 43.96929
#
# Poissons Ratio (x) = 0.19425 0.30266
# Poissons Ratio (y) = 0.10557 0.17309
# Poissons Ratio (z) = 0.35539 0.37397
#
# Static dielectric constant tensor:
#      x y z
#    x 1.896930 0.000000 -0.032790 
#    y 0.000000 1.725300 0.000000 
#    z -0.032790 0.000000 1.772470 
# 
# From -- ./inp_files/32394.got.cif
#   From: 2010.05.17/outbox.cif.g08.bks.cpg/sg14_17_cif.got.tgz:32394.got - 2010.06.03 17:49:19.
