data_PCOD9250657
_publ_section_title
;
Structure prediction by ZEFSAII (Michael W. Deem and Ramdas Pophale) SiO2 
 PCOD9250657
Probable space group: P 21/C
;
_chemical_formula_sum "Si O2"
_cell_formula_units_Z 32
_cell_length_a 17.064507
_cell_length_b 5.481171
_cell_length_c 27.423620
_cell_angle_alpha 90.000000
_cell_angle_beta 30.986893
_cell_angle_gamma 90.000000
_cell_volume 1320.583381
_symmetry_space_group_name_H-M "P 21/C"
_symmetry_group_IT_number 14
_symmetry_cell_setting 'monoclinic'
loop_
_space_group_symop_operation_xyz
x,y,z
-x,1/2+y,1/2-z
-x,-y,-z
x,1/2-y,1/2+z
loop_
_atom_site_type_symbol
_atom_site_label
_atom_site_fract_x
_atom_site_fract_y
_atom_site_fract_z
Si Si1 0.424979 0.662376 0.910011
Si Si2 0.380288 0.431912 0.105332
Si Si3 0.086098 0.582348 0.085917
Si Si4 0.012075 0.966282 0.050711
Si Si5 0.792699 0.237779 0.728945
Si Si6 0.953512 0.692499 0.747394
Si Si7 0.315083 0.466870 0.390899
Si Si8 0.393099 0.703583 0.254686
O O1 0.518305 0.712983 0.909168
O O2 0.539623 0.510330 0.814981
O O3 0.371323 0.895668 0.908693
O O4 0.262790 0.518882 0.003261
O O5 0.311305 0.664635 0.171910
O O6 0.228185 0.304072 0.166060
O O7 0.500000 0.500000 0.000000
O O8 0.940463 0.404715 0.168804
O O9 0.044429 0.791680 0.148002
O O10 0.067021 0.708883 0.043175
O O11 0.863342 0.038256 0.159782
O O12 0.152323 0.147798 0.989056
O O13 0.000000 0.000000 0.000000
O O14 0.693290 0.119741 0.737892
O O15 0.995578 0.436617 0.750837
O O16 0.295122 0.634172 0.353745
O O17 0.452280 0.297397 0.303447
#
# Coordination Sequence:
#
# PCOD9250657 Si02
#       8
#     4   4   4   4   4   4   4   4
#     4  10  24  45  65  98 141 186 237 292 369 443
#     4  11  25  50  76 107 144 187 241 313 380 453
#     4  11  25  46  71 104 142 193 249 307 373 455
#     4  11  23  42  67 101 142 189 245 296 361 441
#     4  11  24  44  71 102 142 193 247 307 371 452
#     4  12  27  51  83 112 146 196 253 319 385 459
#     4  11  22  38  62  96 136 185 230 294 355 435
#     4  11  22  37  65  97 142 188 235 294 368 430
#
# _framework density 24.231715000000001
#
# number of rings (size 3 to 8) (size 9 to 14) (size 15 to 20)
#    0.000    1.000    3.750    2.250    1.750    1.500 
#    9.000    3.125    0.000    0.000    0.000    0.000 
#    0.000    0.000    0.000    0.000    0.000    0.000 
#
# Total GULP energy -178610.962569 kJ/mol
# GULP energy per Si atom -5581.592580 kJ/mol
# Density = 2.417656 g / cm^3
# Si number density = 24.231715 Si / 1000 Ang^3
#
#
#
# Elastic Constant Matrix: (Units=GPa)
#
#
# Indices 1 2 3 4 5 6 
#
# 1 161.4109 38.8093 67.7780 0.0000 -10.3231 0.0000
# 2 38.8093 51.0423 22.0629 0.0000 -0.3136 0.0000
# 3 67.7780 22.0629 186.6882 0.0000 -13.2843 0.0000
# 4 0.0000 0.0000 0.0000 23.3961 0.0000 -5.6558
# 5 -10.3231 -0.3136 -13.2843 0.0000 60.6817 0.0000
# 6 0.0000 0.0000 0.0000 -5.6558 0.0000 33.7912
#
#
#
# Elastic Compliance Matrix: (Units=1/GPa)
#
#
# Indices 1 2 3 4 5 6 
#
# 1 0.008580 -0.005479 -0.002403 0.000000 0.000905 0.000000
# 2 -0.005479 0.024157 -0.000938 0.000000 -0.001013 0.000000
# 3 -0.002403 -0.000938 0.006410 0.000000 0.000990 0.000000
# 4 0.000000 0.000000 0.000000 0.044544 0.000000 0.007456
# 5 0.000905 -0.001013 0.000990 0.000000 0.016845 0.000000
# 6 0.000000 0.000000 0.000000 0.007456 0.000000 0.030841
#
#
# Mechanical properties :
#
#
# Convention : Reuss Voigt Hill
#
# Bulk Modulus (GPa) = 46.49665 72.93798 59.71732
# Shear Modulus (GPa) = 32.01314 41.60654 36.80984
#
# Velocity S-wave (km/s) = 3.63867 4.14820 3.90176
# Velocity P-wave (km/s) = 6.07316 7.28759 6.70791
#
# Compressibility (1/GPa) = 0.02150692
#
# Stress axis : x y z
#
# Youngs Moduli (GPa) = 116.55427 41.39638 156.00231
#
# Poissons Ratio (x) = 0.22682 0.37487
# Poissons Ratio (y) = 0.63863 0.14628
# Poissons Ratio (z) = 0.28007 0.03882
#
# Static dielectric constant tensor:
#      x y z
#    x 2.002250 0.000000 -0.063960 
#    y 0.000000 2.227890 0.000000 
#    z -0.063960 0.000000 1.989320 
# 
# From -- ./inp_files/80325.got.cif
#   From: 2010.05.17/outbox.cif.g08.bks.cpg/sg14_41_cif.got.tgz:80325.got - 2010.06.03 17:49:19.
