data_PCOD9250908
_publ_section_title
;
Structure prediction by ZEFSAII (Michael W. Deem and Ramdas Pophale) SiO2 
 PCOD9250908
Probable space group: P 21/C
;
_chemical_formula_sum "Si O2"
_cell_formula_units_Z 18
_cell_length_a 5.221742
_cell_length_b 4.730213
_cell_length_c 24.193854
_cell_angle_alpha 90.000000
_cell_angle_beta 81.519617
_cell_angle_gamma 90.000000
_cell_volume 591.053260
_symmetry_space_group_name_H-M "P 21/C"
_symmetry_group_IT_number 14
_symmetry_cell_setting 'monoclinic'
loop_
_space_group_symop_operation_xyz
x,y,z
-x,1/2+y,1/2-z
-x,-y,-z
x,1/2-y,1/2+z
loop_
_atom_site_type_symbol
_atom_site_label
_atom_site_fract_x
_atom_site_fract_y
_atom_site_fract_z
Si Si1 0.500000 0.000000 0.500000
Si Si2 0.576653 0.805476 0.820286
Si Si3 0.000000 0.000000 0.500000
Si Si4 0.797440 0.221011 0.895813
Si Si5 0.000000 0.500000 0.500000
Si Si6 0.770659 0.809302 0.695564
O O1 0.431294 0.861038 0.563168
O O2 0.767793 0.225192 0.523921
O O3 0.763147 0.853084 0.761384
O O4 0.462023 0.494445 0.822024
O O5 0.704700 0.937239 0.869786
O O6 0.320019 0.992617 0.814867
O O7 0.212340 0.230232 0.517216
O O8 0.964988 0.376953 0.843691
O O9 0.003247 0.200906 0.941058
#
# Coordination Sequence:
#
# PCOD9250908 Si02
#       6
#     2   4   2   4   2   4
#     4  10  26  48  78 118 160 216 276 326 436 506
#     4  10  25  49  83 117 163 217 284 355 430 500
#     4  10  24  50  70 106 164 208 270 332 388 514
#     4  11  26  52  83 116 171 225 268 361 422 527
#     4  10  26  48  72 116 154 208 272 314 424 500
#     4  10  25  50  79 123 159 214 289 354 423 513
#
# _framework density 30.454104999999998
#
# number of rings (size 3 to 8) (size 9 to 14) (size 15 to 20)
#    0.000    1.778    0.000    0.000    6.222   17.778 
#    4.000    0.000    0.000    0.000    0.000    0.000 
#    0.000    0.000    0.000    0.000    0.000    0.000 
#
# Total GULP energy -100306.993531 kJ/mol
# GULP energy per Si atom -5572.610752 kJ/mol
# Density = 3.038479 g / cm^3
# Si number density = 30.454105 Si / 1000 Ang^3
#
#
#
# Elastic Constant Matrix: (Units=GPa)
#
#
# Indices 1 2 3 4 5 6 
#
# 1 219.3230 35.9145 89.0718 0.0000 -24.2608 0.0000
# 2 35.9145 187.3129 38.5632 0.0000 -28.6647 0.0000
# 3 89.0718 38.5632 250.0429 0.0000 -24.4832 0.0000
# 4 0.0000 0.0000 0.0000 55.0606 0.0000 2.1366
# 5 -24.2608 -28.6647 -24.4832 0.0000 76.4048 0.0000
# 6 0.0000 0.0000 0.0000 2.1366 0.0000 48.2709
#
#
#
# Elastic Compliance Matrix: (Units=1/GPa)
#
#
# Indices 1 2 3 4 5 6 
#
# 1 0.005474 -0.000536 -0.001772 0.000000 0.000969 0.000000
# 2 -0.000536 0.005833 -0.000527 0.000000 0.001849 0.000000
# 3 -0.001772 -0.000527 0.004788 0.000000 0.000773 0.000000
# 4 0.000000 0.000000 0.000000 0.018193 0.000000 -0.000805
# 5 0.000969 0.001849 0.000773 0.000000 0.014337 0.000000
# 6 0.000000 0.000000 0.000000 -0.000805 0.000000 0.020752
#
#
# Mechanical properties :
#
#
# Convention : Reuss Voigt Hill
#
# Bulk Modulus (GPa) = 95.94667 109.30865 102.62766
# Shear Modulus (GPa) = 63.67421 68.82255 66.24838
#
# Velocity S-wave (km/s) = 4.57751 4.75897 4.66913
# Velocity P-wave (km/s) = 7.71440 8.13437 7.92716
#
# Compressibility (1/GPa) = 0.01042246
#
# Stress axis : x y z
#
# Youngs Moduli (GPa) = 182.66959 171.43645 208.86373
#
# Poissons Ratio (x) = 0.09196 0.37021
# Poissons Ratio (y) = 0.09799 0.11017
# Poissons Ratio (z) = 0.32378 0.09043
#
# Static dielectric constant tensor:
#      x y z
#    x 3.040360 0.000000 0.019700 
#    y 0.000000 1.985930 0.000000 
#    z 0.019700 0.000000 1.957550 
# 
# From -- ./inp_files/70771.got.cif
#   From: 2010.05.17/outbox.cif.g08.bks.cpg/sg14_36_cif.got.tgz:70771.got - 2010.06.03 17:49:19.
