data_PCOD9250676
_publ_section_title
;
Structure prediction by ZEFSAII (Michael W. Deem and Ramdas Pophale) SiO2 
 PCOD9250676
Probable space group: P 21/C
;
_chemical_formula_sum "Si O2"
_cell_formula_units_Z 24
_cell_length_a 15.384831
_cell_length_b 7.082476
_cell_length_c 13.850048
_cell_angle_alpha 90.000000
_cell_angle_beta 35.666630
_cell_angle_gamma 90.000000
_cell_volume 879.930624
_symmetry_space_group_name_H-M "P 21/C"
_symmetry_group_IT_number 14
_symmetry_cell_setting 'monoclinic'
loop_
_space_group_symop_operation_xyz
x,y,z
-x,1/2+y,1/2-z
-x,-y,-z
x,1/2-y,1/2+z
loop_
_atom_site_type_symbol
_atom_site_label
_atom_site_fract_x
_atom_site_fract_y
_atom_site_fract_z
Si Si1 0.946315 0.925825 0.831317
Si Si2 0.746517 0.733634 0.350553
Si Si3 0.002626 0.220068 0.522635
Si Si4 0.254594 0.663007 0.364696
Si Si5 0.296453 0.928232 0.480995
Si Si6 0.458044 0.339324 0.114810
O O1 0.842925 0.899765 0.831699
O O2 0.943726 0.767569 0.918340
O O3 0.119744 0.942140 0.653514
O O4 0.878659 0.110029 0.942165
O O5 0.624470 0.686463 0.378137
O O6 0.667375 0.869353 0.502183
O O7 0.875932 0.812264 0.160283
O O8 0.834584 0.290930 0.652580
O O9 0.000000 0.000000 0.500000
O O10 0.325945 0.851858 0.346453
O O11 0.350552 0.470823 0.277832
O O12 0.397088 0.786347 0.455054
O O13 0.500000 0.500000 0.000000
#
# Coordination Sequence:
#
# PCOD9250676 Si02
#       6
#     4   4   4   4   4   4
#     4  12  23  42  75 104 140 185 249 298 359 425
#     4  11  23  46  67 103 144 186 229 302 350 424
#     4  12  24  40  71 108 138 183 243 296 359 429
#     4  12  24  45  73 107 136 197 239 302 366 428
#     4  11  23  43  72 101 142 186 238 295 360 435
#     4  10  24  45  68  97 152 189 232 295 368 424
#
# _framework density 27.274878999999999
#
# number of rings (size 3 to 8) (size 9 to 14) (size 15 to 20)
#    0.000    0.667    5.000    3.500    2.333    2.667 
#    3.000    0.833    0.000    0.000    0.000    0.000 
#    0.000    0.000    0.000    0.000    0.000    0.000 
#
# Total GULP energy -133870.140936 kJ/mol
# GULP energy per Si atom -5577.922539 kJ/mol
# Density = 2.721280 g / cm^3
# Si number density = 27.274879 Si / 1000 Ang^3
#
#
#
# Elastic Constant Matrix: (Units=GPa)
#
#
# Indices 1 2 3 4 5 6 
#
# 1 175.0648 23.0895 39.5120 0.0000 -17.4939 0.0000
# 2 23.0895 66.7050 3.5322 0.0000 6.6227 0.0000
# 3 39.5120 3.5322 56.7475 0.0000 -1.8272 0.0000
# 4 0.0000 0.0000 0.0000 25.1552 0.0000 2.9944
# 5 -17.4939 6.6227 -1.8272 0.0000 41.4455 0.0000
# 6 0.0000 0.0000 0.0000 2.9944 0.0000 43.3322
#
#
#
# Elastic Compliance Matrix: (Units=1/GPa)
#
#
# Indices 1 2 3 4 5 6 
#
# 1 0.007524 -0.002678 -0.004963 0.000000 0.003385 0.000000
# 2 -0.002678 0.016246 0.000734 0.000000 -0.003694 0.000000
# 3 -0.004963 0.000734 0.020990 0.000000 -0.001287 0.000000
# 4 0.000000 0.000000 0.000000 0.040083 0.000000 -0.002770
# 5 0.003385 -0.003694 -0.001287 0.000000 0.026090 0.000000
# 6 0.000000 0.000000 0.000000 -0.002770 0.000000 0.023269
#
#
# Mechanical properties :
#
#
# Convention : Reuss Voigt Hill
#
# Bulk Modulus (GPa) = 32.31281 47.86497 40.08889
# Shear Modulus (GPa) = 31.57948 37.47881 34.52915
#
# Velocity S-wave (km/s) = 3.40637 3.71093 3.56191
# Velocity P-wave (km/s) = 5.22915 5.99571 5.62550
#
# Compressibility (1/GPa) = 0.03094748
#
# Stress axis : x y z
#
# Youngs Moduli (GPa) = 132.91378 61.55342 47.64091
#
# Poissons Ratio (x) = 0.16481 0.23644
# Poissons Ratio (y) = 0.35588 -0.03498
# Poissons Ratio (z) = 0.65964 -0.04519
#
# Static dielectric constant tensor:
#      x y z
#    x 2.194950 0.000000 -0.001350 
#    y 0.000000 2.337850 0.000000 
#    z -0.001350 0.000000 2.624620 
# 
# From -- ./inp_files/46341.got.cif
#   From: 2010.05.17/outbox.cif.g08.bks.cpg/sg14_24_cif.got.tgz:46341.got - 2010.06.03 17:49:19.
