data_PCOD9250897
_publ_section_title
;
Structure prediction by ZEFSAII (Michael W. Deem and Ramdas Pophale) SiO2 
 PCOD9250897
Probable space group: P 21/C
;
_chemical_formula_sum "Si O2"
_cell_formula_units_Z 28
_cell_length_a 14.347382
_cell_length_b 5.961113
_cell_length_c 15.529888
_cell_angle_alpha 90.000000
_cell_angle_beta 116.688192
_cell_angle_gamma 90.000000
_cell_volume 1186.712134
_symmetry_space_group_name_H-M "P 21/C"
_symmetry_group_IT_number 14
_symmetry_cell_setting 'monoclinic'
loop_
_space_group_symop_operation_xyz
x,y,z
-x,1/2+y,1/2-z
-x,-y,-z
x,1/2-y,1/2+z
loop_
_atom_site_type_symbol
_atom_site_label
_atom_site_fract_x
_atom_site_fract_y
_atom_site_fract_z
Si Si1 0.378175 0.991319 0.468027
Si Si2 0.389806 0.927113 0.757813
Si Si3 0.036046 0.840896 0.301081
Si Si4 0.726661 0.734403 0.913192
Si Si5 0.769992 0.412251 0.224368
Si Si6 0.926887 0.669284 0.418000
Si Si7 0.594989 0.377928 0.398690
O O1 0.325786 0.125284 0.524722
O O2 0.500000 0.000000 0.500000
O O3 0.316973 0.063864 0.357651
O O4 0.372694 0.735889 0.499458
O O5 0.298655 0.785358 0.764254
O O6 0.429454 0.796060 0.688638
O O7 0.334121 0.142436 0.694690
O O8 0.490496 0.972926 0.858235
O O9 0.156935 0.838310 0.325084
O O10 0.998732 0.595563 0.244496
O O11 0.996041 0.817442 0.382102
O O12 0.849187 0.699809 0.950072
O O13 0.696576 0.991838 0.909376
O O14 0.846292 0.529331 0.323853
O O15 0.000000 0.500000 0.500000
#
# Coordination Sequence:
#
# PCOD9250897 Si02
#       7
#     4   4   4   4   4   4   4
#     4  11  28  45  67 111 149 189 242 293 376 463
#     4  11  22  40  73 104 140 186 239 292 372 447
#     4  10  24  49  75 111 148 194 254 321 385 448
#     4  11  24  44  73 101 141 197 235 305 368 443
#     4  11  25  46  71 104 148 189 240 315 380 444
#     4  11  26  46  76 106 138 191 262 315 374 455
#     4  11  23  42  67 106 144 181 242 294 359 454
#
# _framework density 23.594601999999998
#
# number of rings (size 3 to 8) (size 9 to 14) (size 15 to 20)
#    0.000    1.143    2.857    1.714    6.000    6.857 
#    0.000    4.286    0.000    0.000    0.000    0.000 
#    0.000    0.000    0.000    0.000    0.000    0.000 
#
# Total GULP energy -156248.182666 kJ/mol
# GULP energy per Si atom -5580.292238 kJ/mol
# Density = 2.354090 g / cm^3
# Si number density = 23.594602 Si / 1000 Ang^3
#
#
#
# Elastic Constant Matrix: (Units=GPa)
#
#
# Indices 1 2 3 4 5 6 
#
# 1 173.2127 18.9025 39.1024 0.0000 -0.6390 0.0000
# 2 18.9025 50.8743 19.9036 0.0000 -6.6270 0.0000
# 3 39.1024 19.9036 116.5033 0.0000 14.4191 0.0000
# 4 0.0000 0.0000 0.0000 30.9765 0.0000 -9.0830
# 5 -0.6390 -6.6270 14.4191 0.0000 26.8106 0.0000
# 6 0.0000 0.0000 0.0000 -9.0830 0.0000 46.4927
#
#
#
# Elastic Compliance Matrix: (Units=1/GPa)
#
#
# Indices 1 2 3 4 5 6 
#
# 1 0.006389 -0.001480 -0.001998 0.000000 0.000861 0.000000
# 2 -0.001480 0.022982 -0.004423 0.000000 0.008024 0.000000
# 3 -0.001998 -0.004423 0.010875 0.000000 -0.006989 0.000000
# 4 0.000000 0.000000 0.000000 0.034244 0.000000 0.006690
# 5 0.000861 0.008024 -0.006989 0.000000 0.043061 0.000000
# 6 0.000000 0.000000 0.000000 0.006690 0.000000 0.022816
#
#
# Mechanical properties :
#
#
# Convention : Reuss Voigt Hill
#
# Bulk Modulus (GPa) = 40.90975 55.15637 48.03306
# Shear Modulus (GPa) = 30.42919 38.36810 34.39864
#
# Velocity S-wave (km/s) = 3.59509 4.03692 3.82239
# Velocity P-wave (km/s) = 5.88295 6.71985 6.31528
#
# Compressibility (1/GPa) = 0.02444405
#
# Stress axis : x y z
#
# Youngs Moduli (GPa) = 156.51913 43.51302 91.95683
#
# Poissons Ratio (x) = 0.06440 0.18374
# Poissons Ratio (y) = 0.23164 0.40669
# Poissons Ratio (z) = 0.31274 0.19244
#
# Static dielectric constant tensor:
#      x y z
#    x 1.916560 0.000000 -0.052680 
#    y 0.000000 2.056480 0.000000 
#    z -0.052680 0.000000 1.967380 
# 
# From -- ./inp_files/58667.got.cif
#   From: 2010.05.17/outbox.cif.g08.bks.cpg/sg14_30_cif.got.tgz:58667.got - 2010.06.03 17:49:19.
