data_PCOD9250778
_publ_section_title
;
Structure prediction by ZEFSAII (Michael W. Deem and Ramdas Pophale) SiO2 
 PCOD9250778
Probable space group: P 21/C
;
_chemical_formula_sum "Si O2"
_cell_formula_units_Z 20
_cell_length_a 5.412963
_cell_length_b 10.234286
_cell_length_c 14.836587
_cell_angle_alpha 90.000000
_cell_angle_beta 89.726020
_cell_angle_gamma 90.000000
_cell_volume 821.905052
_symmetry_space_group_name_H-M "P 21/C"
_symmetry_group_IT_number 14
_symmetry_cell_setting 'monoclinic'
loop_
_space_group_symop_operation_xyz
x,y,z
-x,1/2+y,1/2-z
-x,-y,-z
x,1/2-y,1/2+z
loop_
_atom_site_type_symbol
_atom_site_label
_atom_site_fract_x
_atom_site_fract_y
_atom_site_fract_z
Si Si1 0.748991 0.665889 0.016888
Si Si2 0.963119 0.792096 0.847615
Si Si3 0.253515 0.896719 0.590340
Si Si4 0.907445 0.539325 0.736002
Si Si5 0.744317 0.023809 0.055428
O O1 0.776962 0.750054 0.926287
O O2 0.748550 0.515732 0.981642
O O3 0.497532 0.684976 0.070933
O O4 0.998280 0.679043 0.074452
O O5 0.002771 0.670454 0.781843
O O6 0.756116 0.564651 0.645303
O O7 0.898060 0.927105 0.796543
O O8 0.249728 0.963734 0.687844
O O9 0.786864 0.332861 0.599591
O O10 0.500000 0.000000 0.000000
O O11 0.000000 0.000000 0.000000
#
# Coordination Sequence:
#
# PCOD9250778 Si02
#       5
#     4   4   4   4   4
#     4   9  18  35  61  97 139 181 235 301 371 431
#     4   9  21  43  73 107 152 197 257 314 384 459
#     4   9  18  35  62  97 137 184 238 300 361 438
#     4   9  21  43  74 110 147 202 258 319 374 458
#     4  10  24  46  72 103 151 202 248 308 392 464
#
# _framework density 24.33371
#
# number of rings (size 3 to 8) (size 9 to 14) (size 15 to 20)
#    1.200    1.600    0.000    0.000    0.000    4.800 
#    0.000    6.000    0.000    1.200    0.000    0.000 
#    0.000    0.000    0.000    0.000    0.000    0.000 
#
# Total GULP energy -111632.340119 kJ/mol
# GULP energy per Si atom -5581.617006 kJ/mol
# Density = 2.427833 g / cm^3
# Si number density = 24.333710 Si / 1000 Ang^3
#
#
#
# Elastic Constant Matrix: (Units=GPa)
#
#
# Indices 1 2 3 4 5 6 
#
# 1 191.5769 66.8952 104.8211 0.0000 7.1701 0.0000
# 2 66.8952 154.0801 60.5428 0.0000 12.3290 0.0000
# 3 104.8211 60.5428 149.0020 0.0000 23.6103 0.0000
# 4 0.0000 0.0000 0.0000 46.6236 0.0000 6.9069
# 5 7.1701 12.3290 23.6103 0.0000 18.3256 0.0000
# 6 0.0000 0.0000 0.0000 6.9069 0.0000 19.2834
#
#
#
# Elastic Compliance Matrix: (Units=1/GPa)
#
#
# Indices 1 2 3 4 5 6 
#
# 1 0.009394 -0.001899 -0.006856 0.000000 0.006436 0.000000
# 2 -0.001899 0.008138 -0.001534 0.000000 -0.002756 0.000000
# 3 -0.006856 -0.001534 0.014537 0.000000 -0.015015 0.000000
# 4 0.000000 0.000000 0.000000 0.022650 0.000000 -0.008113
# 5 0.006436 -0.002756 -0.015015 0.000000 0.073249 0.000000
# 6 0.000000 0.000000 0.000000 -0.008113 0.000000 0.054764
#
#
# Mechanical properties :
#
#
# Convention : Reuss Voigt Hill
#
# Bulk Modulus (GPa) = 87.03498 106.57523 96.80510
# Shear Modulus (GPa) = 24.13815 34.33984 29.23899
#
# Velocity S-wave (km/s) = 3.15296 3.76068 3.47015
# Velocity P-wave (km/s) = 7.00712 7.92145 7.47827
#
# Compressibility (1/GPa) = 0.01148963
#
# Stress axis : x y z
#
# Youngs Moduli (GPa) = 106.45531 122.88189 68.78907
#
# Poissons Ratio (x) = 0.23338 0.47165
# Poissons Ratio (y) = 0.20218 0.10551
# Poissons Ratio (z) = 0.72990 0.18849
#
# Static dielectric constant tensor:
#      x y z
#    x 1.928720 0.000000 0.009360 
#    y 0.000000 1.991860 0.000000 
#    z 0.009360 0.000000 1.956940 
# 
# From -- ./inp_files/36821.got.cif
#   From: 2010.05.17/outbox.cif.g08.bks.cpg/sg14_19_cif.got.tgz:36821.got - 2010.06.03 17:49:19.
