data_PCOD9250518
_publ_section_title
;
Structure prediction by ZEFSAII (Michael W. Deem and Ramdas Pophale) SiO2 
 PCOD9250518
Probable space group: P 21/C
;
_chemical_formula_sum "Si O2"
_cell_formula_units_Z 18
_cell_length_a 12.550793
_cell_length_b 5.079396
_cell_length_c 18.499024
_cell_angle_alpha 90.000000
_cell_angle_beta 146.792469
_cell_angle_gamma 90.000000
_cell_volume 645.882545
_symmetry_space_group_name_H-M "P 21/C"
_symmetry_group_IT_number 14
_symmetry_cell_setting 'monoclinic'
loop_
_space_group_symop_operation_xyz
x,y,z
-x,1/2+y,1/2-z
-x,-y,-z
x,1/2-y,1/2+z
loop_
_atom_site_type_symbol
_atom_site_label
_atom_site_fract_x
_atom_site_fract_y
_atom_site_fract_z
Si Si1 0.766113 0.074505 0.658444
Si Si2 0.232292 0.426968 0.425673
Si Si3 0.277093 0.679885 0.076387
Si Si4 0.705483 0.975369 0.789369
Si Si5 0.000000 0.000000 0.500000
O O1 0.700540 0.858245 0.562087
O O2 0.706427 0.006251 0.705117
O O3 0.999455 0.067646 0.791162
O O4 0.699586 0.358523 0.594425
O O5 0.289994 0.561876 0.534415
O O6 0.484978 0.547300 0.192222
O O7 0.209241 0.764222 0.120913
O O8 0.087703 0.503706 0.959823
O O9 0.834565 0.732825 0.886374
#
# Coordination Sequence:
#
# PCOD9250518 Si02
#       5
#     4   4   4   4   2
#     4  10  24  43  70 103 145 195 243 300 371 440
#     4  10  24  43  70 103 145 195 243 300 371 440
#     4  12  27  45  76 109 146 193 251 303 375 443
#     4  12  27  45  76 109 146 193 251 303 375 443
#     4  12  26  48  72 104 152 192 236 322 358 436
#
# _framework density 27.868845
#
# number of rings (size 3 to 8) (size 9 to 14) (size 15 to 20)
#    0.000    0.889    4.444    0.667    6.222    1.778 
#    0.000    0.000    0.000    0.000    0.000    0.000 
#    0.000    0.000    0.000    0.000    0.000    0.000 
#
# Total GULP energy -100726.264289 kJ/mol
# GULP energy per Si atom -5595.903572 kJ/mol
# Density = 2.780541 g / cm^3
# Si number density = 27.868845 Si / 1000 Ang^3
#
#
#
# Elastic Constant Matrix: (Units=GPa)
#
#
# Indices 1 2 3 4 5 6 
#
# 1 180.0578 37.0527 63.9548 0.0000 10.1162 0.0000
# 2 37.0527 149.0626 53.3430 0.0000 -1.0881 0.0000
# 3 63.9548 53.3430 97.8717 0.0000 14.9429 0.0000
# 4 0.0000 0.0000 0.0000 50.9954 0.0000 -7.8996
# 5 10.1162 -1.0881 14.9429 0.0000 63.5220 0.0000
# 6 0.0000 0.0000 0.0000 -7.8996 0.0000 40.6916
#
#
#
# Elastic Compliance Matrix: (Units=1/GPa)
#
#
# Indices 1 2 3 4 5 6 
#
# 1 0.007235 -0.000137 -0.004643 0.000000 -0.000062 0.000000
# 2 -0.000137 0.008435 -0.004702 0.000000 0.001272 0.000000
# 3 -0.004643 -0.004702 0.016299 0.000000 -0.003175 0.000000
# 4 0.000000 0.000000 0.000000 0.020218 0.000000 0.003925
# 5 -0.000062 0.001272 -0.003175 0.000000 0.016521 0.000000
# 6 0.000000 0.000000 0.000000 0.003925 0.000000 0.025337
#
#
# Mechanical properties :
#
#
# Convention : Reuss Voigt Hill
#
# Bulk Modulus (GPa) = 76.89992 81.74369 79.32181
# Shear Modulus (GPa) = 42.61005 49.21790 45.91398
#
# Velocity S-wave (km/s) = 3.91442 4.20700 4.06335
# Velocity P-wave (km/s) = 6.93424 7.27968 7.10906
#
# Compressibility (1/GPa) = 0.01300391
#
# Stress axis : x y z
#
# Youngs Moduli (GPa) = 138.22151 118.56066 61.35340
#
# Poissons Ratio (x) = 0.01626 0.28488
# Poissons Ratio (y) = 0.01896 0.28846
# Poissons Ratio (z) = 0.64181 0.55743
#
# Static dielectric constant tensor:
#      x y z
#    x 2.330210 0.000000 0.069060 
#    y 0.000000 2.390050 0.000000 
#    z 0.069060 0.000000 2.208020 
# 
# From -- ./inp_files/42422.got.cif
#   From: 2010.05.17/outbox.cif.g08.bks.cpg/sg14_22_cif.got.tgz:42422.got - 2010.06.03 17:49:19.
