data_PCOD9250199
_publ_section_title
;
Structure prediction by ZEFSAII (Michael W. Deem and Ramdas Pophale) SiO2 
 PCOD9250199
Probable space group: P 21/C
;
_chemical_formula_sum "Si O2"
_cell_formula_units_Z 12
_cell_length_a 5.139842
_cell_length_b 4.962400
_cell_length_c 18.294061
_cell_angle_alpha 90.000000
_cell_angle_beta 68.926292
_cell_angle_gamma 90.000000
_cell_volume 435.400097
_symmetry_space_group_name_H-M "P 21/C"
_symmetry_group_IT_number 14
_symmetry_cell_setting 'monoclinic'
loop_
_space_group_symop_operation_xyz
x,y,z
-x,1/2+y,1/2-z
-x,-y,-z
x,1/2-y,1/2+z
loop_
_atom_site_type_symbol
_atom_site_label
_atom_site_fract_x
_atom_site_fract_y
_atom_site_fract_z
Si Si1 0.632269 0.405768 0.600876
Si Si2 0.143975 0.123982 0.700873
Si Si3 0.160629 0.731354 0.069950
O O1 0.458265 0.232888 0.676644
O O2 0.748351 0.218086 0.523493
O O3 0.403350 0.604412 0.587093
O O4 0.878682 0.596695 0.602435
O O5 0.937808 0.354439 0.748863
O O6 0.120595 0.044577 0.617691
#
# Coordination Sequence:
#
# PCOD9250199 Si02
#       3
#     4   4   4
#     4  10  23  48  78 108 147 200 262 317 373 452
#     4  12  25  50  73 116 160 206 248 322 391 470
#     4  10  23  48  78 108 147 200 262 317 373 452
#
# _framework density 27.560856999999999
#
# number of rings (size 3 to 8) (size 9 to 14) (size 15 to 20)
#    0.000    1.333    3.333    1.000    0.000    2.667 
#   12.000   10.000    0.000    0.000    0.000    0.000 
#    0.000    0.000    0.000    0.000    0.000    0.000 
#
# Total GULP energy -67454.559459 kJ/mol
# GULP energy per Si atom -5621.213288 kJ/mol
# Density = 2.749813 g / cm^3
# Si number density = 27.560857 Si / 1000 Ang^3
#
#
#
# Elastic Constant Matrix: (Units=GPa)
#
#
# Indices 1 2 3 4 5 6 
#
# 1 178.5969 51.2900 38.2386 0.0000 -22.4543 0.0000
# 2 51.2900 163.7368 57.7031 0.0000 -24.0235 0.0000
# 3 38.2386 57.7031 103.4053 0.0000 -33.5059 0.0000
# 4 0.0000 0.0000 0.0000 76.2581 0.0000 -1.9067
# 5 -22.4543 -24.0235 -33.5059 0.0000 44.8240 0.0000
# 6 0.0000 0.0000 0.0000 -1.9067 0.0000 37.8148
#
#
#
# Elastic Compliance Matrix: (Units=1/GPa)
#
#
# Indices 1 2 3 4 5 6 
#
# 1 0.006439 -0.001398 -0.001054 0.000000 0.001688 0.000000
# 2 -0.001398 0.007954 -0.003652 0.000000 0.000833 0.000000
# 3 -0.001054 -0.003652 0.014903 0.000000 0.008654 0.000000
# 4 0.000000 0.000000 0.000000 0.013130 0.000000 0.000662
# 5 0.001688 0.000833 0.008654 0.000000 0.030071 0.000000
# 6 0.000000 0.000000 0.000000 0.000662 0.000000 0.026478
#
#
# Mechanical properties :
#
#
# Convention : Reuss Voigt Hill
#
# Bulk Modulus (GPa) = 58.51910 82.24472 70.38191
# Shear Modulus (GPa) = 42.77976 51.67988 47.22982
#
# Velocity S-wave (km/s) = 3.94406 4.33496 4.14412
# Velocity P-wave (km/s) = 6.48225 7.41362 6.96353
#
# Compressibility (1/GPa) = 0.01708844
#
# Stress axis : x y z
#
# Youngs Moduli (GPa) = 155.31510 125.71595 67.10261
#
# Poissons Ratio (x) = 0.17572 0.07072
# Poissons Ratio (y) = 0.21709 0.24506
# Poissons Ratio (z) = 0.16368 0.45911
#
# Static dielectric constant tensor:
#      x y z
#    x 2.150240 0.000000 0.048760 
#    y 0.000000 2.100390 0.000000 
#    z 0.048760 0.000000 2.157180 
# 
# From -- ./inp_files/52405.got.cif
#   From: 2010.05.17/outbox.cif.g08.bks.cpg/sg14_27_cif.got.tgz:52405.got - 2010.06.03 17:49:19.
