data_PCOD9250297
_publ_section_title
;
Structure prediction by ZEFSAII (Michael W. Deem and Ramdas Pophale) SiO2 
 PCOD9250297
Probable space group: P 21/C
;
_chemical_formula_sum "Si O2"
_cell_formula_units_Z 24
_cell_length_a 19.503309
_cell_length_b 5.351082
_cell_length_c 10.665990
_cell_angle_alpha 90.000000
_cell_angle_beta 52.922986
_cell_angle_gamma 90.000000
_cell_volume 888.094518
_symmetry_space_group_name_H-M "P 21/C"
_symmetry_group_IT_number 14
_symmetry_cell_setting 'monoclinic'
loop_
_space_group_symop_operation_xyz
x,y,z
-x,1/2+y,1/2-z
-x,-y,-z
x,1/2-y,1/2+z
loop_
_atom_site_type_symbol
_atom_site_label
_atom_site_fract_x
_atom_site_fract_y
_atom_site_fract_z
Si Si1 0.693940 0.745051 0.334829
Si Si2 0.661268 0.255837 0.241962
Si Si3 0.951296 0.154746 0.404773
Si Si4 0.900425 0.838355 0.961166
Si Si5 0.484677 0.361972 0.340118
Si Si6 0.790815 0.985384 0.437147
O O1 0.708947 0.457121 0.279002
O O2 0.610003 0.717794 0.515532
O O3 0.772888 0.864036 0.323906
O O4 0.665810 0.966678 0.270763
O O5 0.562050 0.336853 0.353965
O O6 0.709936 0.339440 0.061043
O O7 0.921238 0.405087 0.504194
O O8 0.039559 0.158818 0.231273
O O9 0.935099 0.900690 0.497113
O O10 0.876848 0.136765 0.375872
O O11 0.807945 0.753711 0.011882
O O12 0.486976 0.645183 0.288985
#
# Coordination Sequence:
#
# PCOD9250297 Si02
#       6
#     4   4   4   4   4   4
#     4  12  27  43  66 100 134 171 217 273 326 387
#     4  12  27  43  66 100 134 171 217 273 326 387
#     4   8  16  31  60  92 117 166 214 257 324 380
#     4   8  16  31  60  92 117 166 214 257 324 380
#     4  12  24  46  74  92 130 180 214 266 336 386
#     4  10  24  40  70  90 134 172 220 268 324 390
#
# _framework density 27.024152000000001
#
# number of rings (size 3 to 8) (size 9 to 14) (size 15 to 20)
#    1.000    0.667    1.667    3.000    4.667    0.000 
#    0.000    0.000    0.000    6.000    0.000    0.000 
#    0.000    0.000    0.000    0.000    0.000    0.000 
#
# Total GULP energy -134044.964675 kJ/mol
# GULP energy per Si atom -5585.206861 kJ/mol
# Density = 2.696264 g / cm^3
# Si number density = 27.024152 Si / 1000 Ang^3
#
#
#
# Elastic Constant Matrix: (Units=GPa)
#
#
# Indices 1 2 3 4 5 6 
#
# 1 69.5727 0.9828 0.3488 0.0000 -9.3017 0.0000
# 2 0.9828 153.9571 16.6427 0.0000 -2.5300 0.0000
# 3 0.3488 16.6427 53.8290 0.0000 -21.6552 0.0000
# 4 0.0000 0.0000 0.0000 41.1206 0.0000 -3.2898
# 5 -9.3017 -2.5300 -21.6552 0.0000 44.5522 0.0000
# 6 0.0000 0.0000 0.0000 -3.2898 0.0000 50.3829
#
#
#
# Elastic Compliance Matrix: (Units=1/GPa)
#
#
# Indices 1 2 3 4 5 6 
#
# 1 0.014880 -0.000195 0.001503 0.000000 0.003826 0.000000
# 2 -0.000195 0.006744 -0.002419 0.000000 -0.000834 0.000000
# 3 0.001503 -0.002419 0.024099 0.000000 0.011890 0.000000
# 4 0.000000 0.000000 0.000000 0.024446 0.000000 0.001596
# 5 0.003826 -0.000834 0.011890 0.000000 0.028976 0.000000
# 6 0.000000 0.000000 0.000000 0.001596 0.000000 0.019952
#
#
# Mechanical properties :
#
#
# Convention : Reuss Voigt Hill
#
# Bulk Modulus (GPa) = 22.98757 34.81192 28.89975
# Shear Modulus (GPa) = 36.81324 44.50347 40.65835
#
# Velocity S-wave (km/s) = 3.69485 4.06249 3.88302
# Velocity P-wave (km/s) = 5.16985 5.90887 5.55167
#
# Compressibility (1/GPa) = 0.04350177
#
# Stress axis : x y z
#
# Youngs Moduli (GPa) = 67.20333 148.27155 41.49574
#
# Poissons Ratio (x) = 0.02885 -0.06237
# Poissons Ratio (y) = 0.01308 0.10039
# Poissons Ratio (z) = -0.10101 0.35871
#
# Static dielectric constant tensor:
#      x y z
#    x 2.135610 0.000000 0.081580 
#    y 0.000000 2.157980 0.000000 
#    z 0.081580 0.000000 2.207010 
# 
# From -- ./inp_files/34549.got.cif
#   From: 2010.05.17/outbox.cif.g08.bks.cpg/sg14_18_cif.got.tgz:34549.got - 2010.06.03 17:49:19.
