data_PCOD9250239
_publ_section_title
;
Structure prediction by ZEFSAII (Michael W. Deem and Ramdas Pophale) SiO2 
 PCOD9250239
Probable space group: P 21/C
;
_chemical_formula_sum "Si O2"
_cell_formula_units_Z 24
_cell_length_a 9.799512
_cell_length_b 13.773500
_cell_length_c 15.365249
_cell_angle_alpha 90.000000
_cell_angle_beta 33.738127
_cell_angle_gamma 90.000000
_cell_volume 1151.841217
_symmetry_space_group_name_H-M "P 21/C"
_symmetry_group_IT_number 14
_symmetry_cell_setting 'monoclinic'
loop_
_space_group_symop_operation_xyz
x,y,z
-x,1/2+y,1/2-z
-x,-y,-z
x,1/2-y,1/2+z
loop_
_atom_site_type_symbol
_atom_site_label
_atom_site_fract_x
_atom_site_fract_y
_atom_site_fract_z
Si Si1 0.126490 0.348122 0.674514
Si Si2 0.178525 0.184323 0.337728
Si Si3 0.876983 0.201686 0.132773
Si Si4 0.066185 0.504376 0.099234
Si Si5 0.470387 0.553851 0.247522
Si Si6 0.421181 0.614239 0.682164
O O1 0.383998 0.383093 0.499011
O O2 0.178445 0.288727 0.735946
O O3 0.990561 0.294884 0.668583
O O4 0.961121 0.438766 0.795454
O O5 0.076526 0.263571 0.456857
O O6 0.428471 0.134256 0.237154
O O7 0.987576 0.092766 0.440262
O O8 0.775375 0.095968 0.162968
O O9 0.650969 0.277636 0.250659
O O10 0.833703 0.434265 0.213544
O O11 0.319677 0.456043 0.937992
O O12 0.464482 0.453058 0.302785
#
# Coordination Sequence:
#
# PCOD9250239 Si02
#       6
#     4   4   4   4   4   4
#     4  10  24  38  63  99 122 168 222 268 314 378
#     4   9  20  43  59  91 124 165 217 252 320 381
#     4  12  23  39  66  97 131 165 217 270 319 373
#     4   9  19  42  64  88 121 175 210 260 310 390
#     4  11  21  39  71  87 128 182 205 261 327 390
#     4  11  20  41  67  89 128 174 217 251 321 393
#
# _framework density 20.836203999999999
#
# number of rings (size 3 to 8) (size 9 to 14) (size 15 to 20)
#    1.000    0.667    3.333    2.500    0.000    2.667 
#    0.000    0.000    0.000    0.000    0.000    0.000 
#    0.000    0.000    0.000    0.000    0.000    0.000 
#
# Total GULP energy -133858.650442 kJ/mol
# GULP energy per Si atom -5577.443768 kJ/mol
# Density = 2.078878 g / cm^3
# Si number density = 20.836204 Si / 1000 Ang^3
#
#
#
# Elastic Constant Matrix: (Units=GPa)
#
#
# Indices 1 2 3 4 5 6 
#
# 1 85.2203 30.0049 46.9548 0.0000 28.7398 0.0000
# 2 30.0049 60.8133 26.5611 0.0000 10.9713 0.0000
# 3 46.9548 26.5611 87.7201 0.0000 26.5429 0.0000
# 4 0.0000 0.0000 0.0000 17.9100 0.0000 8.0921
# 5 28.7398 10.9713 26.5429 0.0000 27.2112 0.0000
# 6 0.0000 0.0000 0.0000 8.0921 0.0000 32.2303
#
#
#
# Elastic Compliance Matrix: (Units=1/GPa)
#
#
# Indices 1 2 3 4 5 6 
#
# 1 0.021949 -0.005690 -0.005257 0.000000 -0.015760 0.000000
# 2 -0.005690 0.020588 -0.003539 0.000000 0.001162 0.000000
# 3 -0.005257 -0.003539 0.018690 0.000000 -0.011252 0.000000
# 4 0.000000 0.000000 0.000000 0.062979 0.000000 -0.015812
# 5 -0.015760 0.001162 -0.011252 0.000000 0.063902 0.000000
# 6 0.000000 0.000000 0.000000 -0.015812 0.000000 0.034997
#
#
# Mechanical properties :
#
#
# Convention : Reuss Voigt Hill
#
# Bulk Modulus (GPa) = 31.00456 48.97726 39.99091
# Shear Modulus (GPa) = 19.02373 24.15249 21.58811
#
# Velocity S-wave (km/s) = 3.02489 3.40834 3.22232
# Velocity P-wave (km/s) = 5.20695 6.24867 5.75145
#
# Compressibility (1/GPa) = 0.03225332
#
# Stress axis : x y z
#
# Youngs Moduli (GPa) = 45.55945 48.57285 53.50360
#
# Poissons Ratio (x) = 0.27639 0.28129
# Poissons Ratio (y) = 0.25924 0.18937
# Poissons Ratio (z) = 0.23952 0.17192
#
# Static dielectric constant tensor:
#      x y z
#    x 1.764620 0.000000 0.000870 
#    y 0.000000 1.783940 0.000000 
#    z 0.000870 0.000000 1.733660 
# 
# From -- ./inp_files/41068.got.cif
#   From: 2010.05.17/outbox.cif.g08.bks.cpg/sg14_21_cif.got.tgz:41068.got - 2010.06.03 17:49:19.
