data_PCOD9250680
_publ_section_title
;
Structure prediction by ZEFSAII (Michael W. Deem and Ramdas Pophale) SiO2 
 PCOD9250680
Probable space group: P 21/C
;
_chemical_formula_sum "Si O2"
_cell_formula_units_Z 20
_cell_length_a 20.379824
_cell_length_b 5.180228
_cell_length_c 9.803251
_cell_angle_alpha 90.000000
_cell_angle_beta 44.433694
_cell_angle_gamma 90.000000
_cell_volume 724.551391
_symmetry_space_group_name_H-M "P 21/C"
_symmetry_group_IT_number 14
_symmetry_cell_setting 'monoclinic'
loop_
_space_group_symop_operation_xyz
x,y,z
-x,1/2+y,1/2-z
-x,-y,-z
x,1/2-y,1/2+z
loop_
_atom_site_type_symbol
_atom_site_label
_atom_site_fract_x
_atom_site_fract_y
_atom_site_fract_z
Si Si1 0.091807 0.213508 0.732124
Si Si2 0.747810 0.956260 0.845340
Si Si3 0.398952 0.065342 0.483780
Si Si4 0.391510 0.737775 0.253659
Si Si5 0.885797 0.214041 0.983601
O O1 0.165380 0.275729 0.739829
O O2 0.112039 0.438814 0.591826
O O3 0.981607 0.235948 0.928997
O O4 0.107894 0.935761 0.641509
O O5 0.675934 0.782803 0.865664
O O6 0.796492 0.199764 0.701383
O O7 0.688898 0.061451 0.060753
O O8 0.380196 0.003928 0.352580
O O9 0.391227 0.815088 0.593246
O O10 0.504750 0.156716 0.349810
#
# Coordination Sequence:
#
# PCOD9250680 Si02
#       5
#     4   4   4   4   4
#     4  10  24  45  70 103 149 192 246 314 376 448
#     4  12  25  42  73 105 142 197 256 303 373 454
#     4  11  26  48  69 109 145 205 243 322 367 455
#     4  11  26  46  71 102 153 193 258 307 383 441
#     4  10  24  45  69 105 147 193 246 312 380 442
#
# _framework density 27.603287000000002
#
# number of rings (size 3 to 8) (size 9 to 14) (size 15 to 20)
#    0.000    1.200    2.000    1.800    8.400    2.400 
#    0.000    6.000    0.000    0.000    0.000    0.000 
#    0.000    0.000    0.000    0.000    0.000    0.000 
#
# Total GULP energy -112269.846188 kJ/mol
# GULP energy per Si atom -5613.492309 kJ/mol
# Density = 2.754046 g / cm^3
# Si number density = 27.603287 Si / 1000 Ang^3
#
#
#
# Elastic Constant Matrix: (Units=GPa)
#
#
# Indices 1 2 3 4 5 6 
#
# 1 90.4852 30.0033 69.9298 0.0000 -19.4672 0.0000
# 2 30.0033 107.5567 41.1016 0.0000 9.7461 0.0000
# 3 69.9298 41.1016 153.8498 0.0000 -21.1892 0.0000
# 4 0.0000 0.0000 0.0000 36.8145 0.0000 1.9736
# 5 -19.4672 9.7461 -21.1892 0.0000 47.2282 0.0000
# 6 0.0000 0.0000 0.0000 1.9736 0.0000 48.1446
#
#
#
# Elastic Compliance Matrix: (Units=1/GPa)
#
#
# Indices 1 2 3 4 5 6 
#
# 1 0.018473 -0.002985 -0.006891 0.000000 0.005139 0.000000
# 2 -0.002985 0.011445 -0.002340 0.000000 -0.004642 0.000000
# 3 -0.006891 -0.002340 0.010587 0.000000 0.002392 0.000000
# 4 0.000000 0.000000 0.000000 0.027223 0.000000 -0.001116
# 5 0.005139 -0.004642 0.002392 0.000000 0.025323 0.000000
# 6 0.000000 0.000000 0.000000 -0.001116 0.000000 0.020817
#
#
# Mechanical properties :
#
#
# Convention : Reuss Voigt Hill
#
# Bulk Modulus (GPa) = 62.22208 70.44011 66.33110
# Shear Modulus (GPa) = 34.80507 40.49459 37.64983
#
# Velocity S-wave (km/s) = 3.55477 3.83433 3.69719
# Velocity P-wave (km/s) = 6.28005 6.72137 6.50446
#
# Compressibility (1/GPa) = 0.01607146
#
# Stress axis : x y z
#
# Youngs Moduli (GPa) = 54.13408 87.37411 94.45777
#
# Poissons Ratio (x) = 0.26083 0.65093
# Poissons Ratio (y) = 0.16160 0.22104
# Poissons Ratio (z) = 0.37305 0.20446
#
# Static dielectric constant tensor:
#      x y z
#    x 2.130970 0.000000 0.018680 
#    y 0.000000 2.139610 0.000000 
#    z 0.018680 0.000000 2.079100 
# 
# From -- ./inp_files/34519.got.cif
#   From: 2010.05.17/outbox.cif.g08.bks.cpg/sg14_18_cif.got.tgz:34519.got - 2010.06.03 17:49:19.
