data_PCOD9250606
_publ_section_title
;
Structure prediction by ZEFSAII (Michael W. Deem and Ramdas Pophale) SiO2 
 PCOD9250606
Probable space group: P 21/C
;
_chemical_formula_sum "Si O2"
_cell_formula_units_Z 20
_cell_length_a 4.902297
_cell_length_b 7.707596
_cell_length_c 19.154191
_cell_angle_alpha 90.000000
_cell_angle_beta 66.279309
_cell_angle_gamma 90.000000
_cell_volume 662.596242
_symmetry_space_group_name_H-M "P 21/C"
_symmetry_group_IT_number 14
_symmetry_cell_setting 'monoclinic'
loop_
_space_group_symop_operation_xyz
x,y,z
-x,1/2+y,1/2-z
-x,-y,-z
x,1/2-y,1/2+z
loop_
_atom_site_type_symbol
_atom_site_label
_atom_site_fract_x
_atom_site_fract_y
_atom_site_fract_z
Si Si1 0.877462 0.589823 0.275479
Si Si2 0.135275 0.194227 0.501818
Si Si3 0.735861 0.257851 0.160318
Si Si4 0.275105 0.621679 0.570007
Si Si5 0.633186 0.479113 0.884708
O O1 0.543542 0.639553 0.291774
O O2 0.834464 0.459647 0.345967
O O3 0.054659 0.747242 0.294748
O O4 0.074255 0.570802 0.186634
O O5 0.914669 0.311479 0.575474
O O6 0.991792 0.292937 0.444521
O O7 0.310611 0.116241 0.560546
O O8 0.000000 0.000000 0.500000
O O9 0.586149 0.434569 0.148537
O O10 0.500000 0.500000 0.500000
O O11 0.496810 0.792462 0.569694
#
# Coordination Sequence:
#
# PCOD9250606 Si02
#       5
#     4   4   4   4   4
#     4  12  27  42  70 104 138 177 227 284 345 402
#     4  10  24  45  72  96 137 178 233 275 338 401
#     4  12  27  44  73 101 133 183 232 277 336 413
#     4  10  24  44  69  96 140 176 220 286 342 395
#     4  10  27  44  72  95 144 176 235 272 346 400
#
# _framework density 30.184297999999998
#
# number of rings (size 3 to 8) (size 9 to 14) (size 15 to 20)
#    1.200    0.000    0.000    4.200    8.400    5.600 
#    0.000    0.000    0.000    0.000    0.000    0.000 
#    0.000    0.000    0.000    0.000    0.000    0.000 
#
# Total GULP energy -111871.618949 kJ/mol
# GULP energy per Si atom -5593.580947 kJ/mol
# Density = 3.011560 g / cm^3
# Si number density = 30.184298 Si / 1000 Ang^3
#
#
#
# Elastic Constant Matrix: (Units=GPa)
#
#
# Indices 1 2 3 4 5 6 
#
# 1 195.1898 43.3672 90.0264 0.0000 -14.1414 0.0000
# 2 43.3672 182.4503 90.7575 0.0000 -1.7244 0.0000
# 3 90.0264 90.7575 292.3497 0.0000 -50.9145 0.0000
# 4 0.0000 0.0000 0.0000 33.2588 0.0000 13.7623
# 5 -14.1414 -1.7244 -50.9145 0.0000 71.9010 0.0000
# 6 0.0000 0.0000 0.0000 13.7623 0.0000 67.2670
#
#
#
# Elastic Compliance Matrix: (Units=1/GPa)
#
#
# Indices 1 2 3 4 5 6 
#
# 1 0.006027 -0.000601 -0.001671 0.000000 -0.000013 0.000000
# 2 -0.000601 0.006677 -0.002145 0.000000 -0.001477 0.000000
# 3 -0.001671 -0.002145 0.005173 0.000000 0.003283 0.000000
# 4 0.000000 0.000000 0.000000 0.032848 0.000000 -0.006720
# 5 -0.000013 -0.001477 0.003283 0.000000 0.016195 0.000000
# 6 0.000000 0.000000 0.000000 -0.006720 0.000000 0.016241
#
#
# Mechanical properties :
#
#
# Convention : Reuss Voigt Hill
#
# Bulk Modulus (GPa) = 110.60185 124.25464 117.42825
# Shear Modulus (GPa) = 52.62650 64.20796 58.41723
#
# Velocity S-wave (km/s) = 4.18006 4.61716 4.40404
# Velocity P-wave (km/s) = 7.74719 8.34739 8.05288
#
# Compressibility (1/GPa) = 0.00904144
#
# Stress axis : x y z
#
# Youngs Moduli (GPa) = 165.92565 149.77220 193.31734
#
# Poissons Ratio (x) = 0.09004 0.32312
# Poissons Ratio (y) = 0.09975 0.41463
# Poissons Ratio (z) = 0.27734 0.32124
#
# Static dielectric constant tensor:
#      x y z
#    x 2.516200 0.000000 -0.072690 
#    y 0.000000 2.648800 0.000000 
#    z -0.072690 0.000000 2.550600 
# 
# From -- ./inp_files/63008.got.cif
#   From: 2010.05.17/outbox.cif.g08.bks.cpg/sg14_32_cif.got.tgz:63008.got - 2010.06.03 17:49:19.
