data_PCOD9250850
_publ_section_title
;
Structure prediction by ZEFSAII (Michael W. Deem and Ramdas Pophale) SiO2 
 PCOD9250850
Probable space group: P 21/C
;
_chemical_formula_sum "Si O2"
_cell_formula_units_Z 24
_cell_length_a 23.313990
_cell_length_b 5.188199
_cell_length_c 18.394934
_cell_angle_alpha 90.000000
_cell_angle_beta 154.842994
_cell_angle_gamma 90.000000
_cell_volume 945.851106
_symmetry_space_group_name_H-M "P 21/C"
_symmetry_group_IT_number 14
_symmetry_cell_setting 'monoclinic'
loop_
_space_group_symop_operation_xyz
x,y,z
-x,1/2+y,1/2-z
-x,-y,-z
x,1/2-y,1/2+z
loop_
_atom_site_type_symbol
_atom_site_label
_atom_site_fract_x
_atom_site_fract_y
_atom_site_fract_z
Si Si1 0.644314 0.924604 0.831162
Si Si2 0.485905 0.754503 0.430507
Si Si3 0.059932 0.266835 0.850624
Si Si4 0.620980 0.430376 0.471497
Si Si5 0.157504 0.553109 0.164589
Si Si6 0.098693 0.051177 0.045095
O O1 0.508313 0.754115 0.667990
O O2 0.636990 0.150915 0.763280
O O3 0.646543 0.027373 0.916207
O O4 0.779077 0.758136 0.973626
O O5 0.500000 0.500000 0.500000
O O6 0.584483 0.686646 0.475378
O O7 0.500000 0.000000 0.500000
O O8 0.025220 0.152092 0.889855
O O9 0.006423 0.554844 0.779020
O O10 0.756260 0.347734 0.668734
O O11 0.201577 0.277924 0.183498
O O12 0.000000 0.500000 0.000000
O O13 0.165305 0.774103 0.114184
O O14 0.000000 0.000000 0.000000
#
# Coordination Sequence:
#
# PCOD9250850 Si02
#       6
#     4   4   4   4   4   4
#     4  12  30  52  81 124 169 224 281 337 438 503
#     4  12  28  50  79 117 161 212 270 342 405 490
#     4  12  31  51  78 115 166 213 273 346 412 494
#     4  12  28  51  84 115 171 217 277 340 423 509
#     4  10  25  45  77 113 149 203 269 326 390 478
#     4  10  24  47  76 109 151 203 271 319 407 472
#
# _framework density 25.373972999999999
#
# number of rings (size 3 to 8) (size 9 to 14) (size 15 to 20)
#    0.000    0.667    3.333    1.000   18.667    0.000 
#    0.000    0.000    0.000    0.000    0.000    0.000 
#    0.000    0.000    0.000    0.000    0.000    0.000 
#
# Total GULP energy -134053.709515 kJ/mol
# GULP energy per Si atom -5585.571230 kJ/mol
# Density = 2.531622 g / cm^3
# Si number density = 25.373973 Si / 1000 Ang^3
#
#
#
# Elastic Constant Matrix: (Units=GPa)
#
#
# Indices 1 2 3 4 5 6 
#
# 1 155.8739 8.5758 32.5412 0.0000 -12.5363 0.0000
# 2 8.5758 140.0787 16.2607 0.0000 -2.3824 0.0000
# 3 32.5412 16.2607 139.3686 0.0000 -1.6658 0.0000
# 4 0.0000 0.0000 0.0000 40.5874 0.0000 -15.6280
# 5 -12.5363 -2.3824 -1.6658 0.0000 57.6240 0.0000
# 6 0.0000 0.0000 0.0000 -15.6280 0.0000 25.4669
#
#
#
# Elastic Compliance Matrix: (Units=1/GPa)
#
#
# Indices 1 2 3 4 5 6 
#
# 1 0.006869 -0.000215 -0.001562 0.000000 0.001440 0.000000
# 2 -0.000215 0.007248 -0.000793 0.000000 0.000230 0.000000
# 3 -0.001562 -0.000793 0.007631 0.000000 -0.000152 0.000000
# 4 0.000000 0.000000 0.000000 0.032261 0.000000 0.019797
# 5 0.001440 0.000230 -0.000152 0.000000 0.017672 0.000000
# 6 0.000000 0.000000 0.000000 0.019797 0.000000 0.051416
#
#
# Mechanical properties :
#
#
# Convention : Reuss Voigt Hill
#
# Bulk Modulus (GPa) = 60.20716 61.11964 60.66340
# Shear Modulus (GPa) = 37.37726 49.93189 43.65457
#
# Velocity S-wave (km/s) = 3.84220 4.44085 4.15233
# Velocity P-wave (km/s) = 6.59263 7.10173 6.85191
#
# Compressibility (1/GPa) = 0.01660932
#
# Stress axis : x y z
#
# Youngs Moduli (GPa) = 145.57926 137.97044 131.05277
#
# Poissons Ratio (x) = 0.02963 0.20465
# Poissons Ratio (y) = 0.03127 0.10389
# Poissons Ratio (z) = 0.22734 0.10938
#
# Static dielectric constant tensor:
#      x y z
#    x 2.689160 0.000000 0.735220 
#    y 0.000000 1.993450 0.000000 
#    z 0.735220 0.000000 2.821220 
# 
# From -- ./inp_files/70637.got.cif
#   From: 2010.05.17/outbox.cif.g08.bks.cpg/sg14_36_cif.got.tgz:70637.got - 2010.06.03 17:49:19.
