data_PCOD9250932
_publ_section_title
;
Structure prediction by ZEFSAII (Michael W. Deem and Ramdas Pophale) SiO2 
 PCOD9250932
Probable space group: P 21/C
;
_chemical_formula_sum "Si O2"
_cell_formula_units_Z 28
_cell_length_a 5.872210
_cell_length_b 12.617568
_cell_length_c 17.655595
_cell_angle_alpha 90.000000
_cell_angle_beta 55.316679
_cell_angle_gamma 90.000000
_cell_volume 1075.709532
_symmetry_space_group_name_H-M "P 21/C"
_symmetry_group_IT_number 14
_symmetry_cell_setting 'monoclinic'
loop_
_space_group_symop_operation_xyz
x,y,z
-x,1/2+y,1/2-z
-x,-y,-z
x,1/2-y,1/2+z
loop_
_atom_site_type_symbol
_atom_site_label
_atom_site_fract_x
_atom_site_fract_y
_atom_site_fract_z
Si Si1 0.233980 0.134406 0.084330
Si Si2 0.909962 0.223765 0.550507
Si Si3 0.306986 0.703377 0.061332
Si Si4 0.023685 0.485567 0.103917
Si Si5 0.693173 0.742077 0.780450
Si Si6 0.497499 0.386600 0.821228
Si Si7 0.986321 0.462683 0.289503
O O1 0.178355 0.192067 0.175242
O O2 0.991309 0.164943 0.072256
O O3 0.239628 0.013052 0.111172
O O4 0.488336 0.201007 0.002557
O O5 0.932661 0.230361 0.456329
O O6 0.591756 0.195642 0.631545
O O7 0.083104 0.130739 0.559378
O O8 0.386728 0.689775 0.134798
O O9 0.265028 0.573764 0.055961
O O10 0.760771 0.536208 0.110629
O O11 0.932309 0.469712 0.209325
O O12 0.603158 0.817856 0.730439
O O13 0.915651 0.655921 0.712806
O O14 0.742473 0.465106 0.750737
#
# Coordination Sequence:
#
# PCOD9250932 Si02
#       7
#     4   4   4   4   4   4   4
#     4  11  22  40  61  90 128 162 209 261 317 373
#     4  11  21  37  61  92 127 161 206 263 319 377
#     4  10  25  37  60  92 130 169 201 255 329 377
#     4  11  21  37  61  92 127 161 206 263 319 377
#     4  11  22  38  64  94 121 165 215 260 314 368
#     4  11  22  40  61  90 128 162 209 261 317 373
#     4  11  22  38  64  94 121 165 215 260 314 368
#
# _framework density 26.029332
#
# number of rings (size 3 to 8) (size 9 to 14) (size 15 to 20)
#    0.000    1.143    5.714    1.286    0.000    1.143 
#    0.000    0.714    0.000    1.714    0.000    0.000 
#    0.000    0.000    0.000    0.000    0.000    0.000 
#
# Total GULP energy -156232.110375 kJ/mol
# GULP energy per Si atom -5579.718228 kJ/mol
# Density = 2.597009 g / cm^3
# Si number density = 26.029332 Si / 1000 Ang^3
#
#
#
# Elastic Constant Matrix: (Units=GPa)
#
#
# Indices 1 2 3 4 5 6 
#
# 1 88.4949 22.1737 15.6271 0.0000 35.8886 0.0000
# 2 22.1737 80.8143 15.2685 0.0000 16.9951 0.0000
# 3 15.6271 15.2685 64.5599 0.0000 17.1097 0.0000
# 4 0.0000 0.0000 0.0000 36.9429 0.0000 -0.3549
# 5 35.8886 16.9951 17.1097 0.0000 68.4150 0.0000
# 6 0.0000 0.0000 0.0000 -0.3549 0.0000 45.4960
#
#
#
# Elastic Compliance Matrix: (Units=1/GPa)
#
#
# Indices 1 2 3 4 5 6 
#
# 1 0.014928 -0.002410 -0.001207 0.000000 -0.006930 0.000000
# 2 -0.002410 0.013798 -0.002256 0.000000 -0.001599 0.000000
# 3 -0.001207 -0.002256 0.017134 0.000000 -0.003092 0.000000
# 4 0.000000 0.000000 0.000000 0.027071 0.000000 0.000211
# 5 -0.006930 -0.001599 -0.003092 0.000000 0.019422 0.000000
# 6 0.000000 0.000000 0.000000 0.000211 0.000000 0.021982
#
#
# Mechanical properties :
#
#
# Convention : Reuss Voigt Hill
#
# Bulk Modulus (GPa) = 29.31366 37.77863 33.54615
# Shear Modulus (GPa) = 36.37627 42.22409 39.30018
#
# Velocity S-wave (km/s) = 3.74239 4.03199 3.88988
# Velocity P-wave (km/s) = 5.47359 6.01841 5.75245
#
# Compressibility (1/GPa) = 0.03411379
#
# Stress axis : x y z
#
# Youngs Moduli (GPa) = 66.99007 72.47480 58.36187
#
# Poissons Ratio (x) = 0.17470 0.07042
# Poissons Ratio (y) = 0.16148 0.13166
# Poissons Ratio (z) = 0.08083 0.16350
#
# Static dielectric constant tensor:
#      x y z
#    x 2.046650 0.000000 -0.112740 
#    y 0.000000 2.063640 0.000000 
#    z -0.112740 0.000000 2.193280 
# 
# From -- ./inp_files/53242.got.cif
#   From: 2010.05.17/outbox.cif.g08.bks.cpg/sg14_27_cif.got.tgz:53242.got - 2010.06.03 17:49:19.
