data_PCOD9250145
_publ_section_title
;
Structure prediction by ZEFSAII (Michael W. Deem and Ramdas Pophale) SiO2 
 PCOD9250145
Probable space group: P 21/C
;
_chemical_formula_sum "Si O2"
_cell_formula_units_Z 28
_cell_length_a 9.645165
_cell_length_b 10.126379
_cell_length_c 17.432366
_cell_angle_alpha 90.000000
_cell_angle_beta 46.103171
_cell_angle_gamma 90.000000
_cell_volume 1226.896976
_symmetry_space_group_name_H-M "P 21/C"
_symmetry_group_IT_number 14
_symmetry_cell_setting 'monoclinic'
loop_
_space_group_symop_operation_xyz
x,y,z
-x,1/2+y,1/2-z
-x,-y,-z
x,1/2-y,1/2+z
loop_
_atom_site_type_symbol
_atom_site_label
_atom_site_fract_x
_atom_site_fract_y
_atom_site_fract_z
Si Si1 0.386649 0.718480 0.937682
Si Si2 0.688925 0.540905 0.975486
Si Si3 0.238409 0.815727 0.160604
Si Si4 0.374179 0.304391 0.410027
Si Si5 0.965043 0.576530 0.236849
Si Si6 0.872099 0.055284 0.981243
Si Si7 0.783184 0.723420 0.702241
O O1 0.298525 0.573502 0.965451
O O2 0.606945 0.706562 0.828804
O O3 0.654508 0.230311 0.959388
O O4 0.265321 0.825919 0.937868
O O5 0.686781 0.680725 0.015310
O O6 0.500000 0.500000 0.000000
O O7 0.862600 0.519611 0.851997
O O8 0.395631 0.810292 0.167926
O O9 0.068487 0.704679 0.237072
O O10 0.184774 0.970588 0.172556
O O11 0.270643 0.434923 0.482837
O O12 0.305706 0.283527 0.348753
O O13 0.874922 0.639341 0.194379
O O14 0.038594 0.119769 0.863377
O O15 0.000000 0.000000 0.000000
#
# Coordination Sequence:
#
# PCOD9250145 Si02
#       7
#     4   4   4   4   4   4   4
#     4  11  24  47  76 102 155 188 239 308 372 434
#     4  11  23  46  70 105 142 189 239 309 365 427
#     4  11  25  48  75 111 145 196 249 305 370 446
#     4  11  25  47  76 108 146 191 251 303 369 440
#     4  11  25  46  71 109 141 194 247 299 376 437
#     4  10  23  47  70 108 145 192 247 297 370 441
#     4  11  25  48  74 108 151 192 246 309 374 434
#
# _framework density 22.821802999999999
#
# number of rings (size 3 to 8) (size 9 to 14) (size 15 to 20)
#    0.000    1.143    5.714    0.857    2.000    7.429 
#   10.286    0.000    0.000    0.000    0.000    0.000 
#    0.000    0.000    0.000    0.000    0.000    0.000 
#
# Total GULP energy -156210.972315 kJ/mol
# GULP energy per Si atom -5578.963297 kJ/mol
# Density = 2.276986 g / cm^3
# Si number density = 22.821803 Si / 1000 Ang^3
#
#
#
# Elastic Constant Matrix: (Units=GPa)
#
#
# Indices 1 2 3 4 5 6 
#
# 1 105.0803 26.3363 9.4480 0.0000 -6.5294 0.0000
# 2 26.3363 163.6804 41.3486 0.0000 -10.1602 0.0000
# 3 9.4480 41.3486 104.8358 0.0000 -17.8169 0.0000
# 4 0.0000 0.0000 0.0000 27.6849 0.0000 -15.6647
# 5 -6.5294 -10.1602 -17.8169 0.0000 24.1156 0.0000
# 6 0.0000 0.0000 0.0000 -15.6647 0.0000 30.8653
#
#
#
# Elastic Compliance Matrix: (Units=1/GPa)
#
#
# Indices 1 2 3 4 5 6 
#
# 1 0.010018 -0.001492 0.000045 0.000000 0.002117 0.000000
# 2 -0.001492 0.007029 -0.002520 0.000000 0.000696 0.000000
# 3 0.000045 -0.002520 0.011836 0.000000 0.007695 0.000000
# 4 0.000000 0.000000 0.000000 0.050672 0.000000 0.025717
# 5 0.002117 0.000696 0.007695 0.000000 0.048019 0.000000
# 6 0.000000 0.000000 0.000000 0.025717 0.000000 0.045451
#
#
# Mechanical properties :
#
#
# Convention : Reuss Voigt Hill
#
# Bulk Modulus (GPa) = 47.73013 58.65136 53.19075
# Shear Modulus (GPa) = 26.60410 36.29742 31.45076
#
# Velocity S-wave (km/s) = 3.41799 3.99240 3.71631
# Velocity P-wave (km/s) = 6.04454 6.85622 6.46314
#
# Compressibility (1/GPa) = 0.02095113
#
# Stress axis : x y z
#
# Youngs Moduli (GPa) = 99.82094 142.26292 84.48607
#
# Poissons Ratio (x) = 0.21225 -0.00384
# Poissons Ratio (y) = 0.14893 0.21288
# Poissons Ratio (z) = -0.00454 0.35846
#
# Static dielectric constant tensor:
#      x y z
#    x 2.013940 0.000000 0.011690 
#    y 0.000000 1.909460 0.000000 
#    z 0.011690 0.000000 1.922500 
# 
# From -- ./inp_files/64972.got.cif
#   From: 2010.05.17/outbox.cif.g08.bks.cpg/sg14_33_cif.got.tgz:64972.got - 2010.06.03 17:49:19.
