data_PCOD9250124
_publ_section_title
;
Structure prediction by ZEFSAII (Michael W. Deem and Ramdas Pophale) SiO2 
 PCOD9250124
Probable space group: P 21/C
;
_chemical_formula_sum "Si O2"
_cell_formula_units_Z 14
_cell_length_a 5.385297
_cell_length_b 5.190294
_cell_length_c 19.529810
_cell_angle_alpha 90.000000
_cell_angle_beta 69.022380
_cell_angle_gamma 90.000000
_cell_volume 509.702137
_symmetry_space_group_name_H-M "P 21/C"
_symmetry_group_IT_number 14
_symmetry_cell_setting 'monoclinic'
loop_
_space_group_symop_operation_xyz
x,y,z
-x,1/2+y,1/2-z
-x,-y,-z
x,1/2-y,1/2+z
loop_
_atom_site_type_symbol
_atom_site_label
_atom_site_fract_x
_atom_site_fract_y
_atom_site_fract_z
Si Si1 0.500000 0.000000 0.000000
Si Si2 0.469453 0.564022 0.340328
Si Si3 0.813576 0.579785 0.956108
Si Si4 0.178388 0.068329 0.311215
O O1 0.199952 0.115490 0.040983
O O2 0.542575 0.023322 0.078486
O O3 0.342786 0.837861 0.332111
O O4 0.761535 0.545708 0.275336
O O5 0.301385 0.337057 0.322309
O O6 0.894111 0.466031 0.875145
O O7 0.500000 0.500000 0.000000
O O8 0.000000 0.500000 0.000000
#
# Coordination Sequence:
#
# PCOD9250124 Si02
#       4
#     2   4   4   4
#     4  12  26  44  78 118 158 212 278 342 426 492
#     4  10  23  46  79 113 161 212 275 349 418 511
#     4  12  27  48  79 113 164 210 277 341 419 503
#     4  10  23  48  75 114 160 216 274 341 429 502
#
# _framework density 27.467017999999999
#
# number of rings (size 3 to 8) (size 9 to 14) (size 15 to 20)
#    0.000    1.143    2.857    1.714    4.000    2.286 
#    5.143    0.000    0.000    0.000    0.000    0.000 
#    0.000    0.000    0.000    0.000    0.000    0.000 
#
# Total GULP energy -77998.319028 kJ/mol
# GULP energy per Si atom -5571.308502 kJ/mol
# Density = 2.740450 g / cm^3
# Si number density = 27.467018 Si / 1000 Ang^3
#
#
#
# Elastic Constant Matrix: (Units=GPa)
#
#
# Indices 1 2 3 4 5 6 
#
# 1 101.1523 27.0053 40.6434 0.0000 -17.2426 0.0000
# 2 27.0053 77.1226 5.2661 0.0000 -4.3509 0.0000
# 3 40.6434 5.2661 226.0140 0.0000 -12.7513 0.0000
# 4 0.0000 0.0000 0.0000 7.3406 0.0000 7.2871
# 5 -17.2426 -4.3509 -12.7513 0.0000 64.6901 0.0000
# 6 0.0000 0.0000 0.0000 7.2871 0.0000 41.4149
#
#
#
# Elastic Compliance Matrix: (Units=1/GPa)
#
#
# Indices 1 2 3 4 5 6 
#
# 1 0.012175 -0.003984 -0.001950 0.000000 0.002593 0.000000
# 2 -0.003984 0.014334 0.000381 0.000000 -0.000023 0.000000
# 3 -0.001950 0.000381 0.004792 0.000000 0.000450 0.000000
# 4 0.000000 0.000000 0.000000 0.165060 0.000000 -0.029043
# 5 0.002593 -0.000023 0.000450 0.000000 0.016237 0.000000
# 6 0.000000 0.000000 0.000000 -0.029043 0.000000 0.029256
#
#
# Mechanical properties :
#
#
# Convention : Reuss Voigt Hill
#
# Bulk Modulus (GPa) = 49.51720 61.12427 55.32073
# Shear Modulus (GPa) = 19.25357 44.78071 32.01714
#
# Velocity S-wave (km/s) = 2.65046 4.04213 3.41788
# Velocity P-wave (km/s) = 5.23771 6.63981 5.98000
#
# Compressibility (1/GPa) = 0.02019500
#
# Stress axis : x y z
#
# Youngs Moduli (GPa) = 82.13341 69.76389 208.69182
#
# Poissons Ratio (x) = 0.27793 0.40702
# Poissons Ratio (y) = 0.32721 -0.07954
# Poissons Ratio (z) = 0.16019 -0.02659
#
# Static dielectric constant tensor:
#      x y z
#    x 2.090260 0.000000 -0.148090 
#    y 0.000000 2.494680 0.000000 
#    z -0.148090 0.000000 2.080160 
# 
# From -- ./inp_files/62745.got.cif
#   From: 2010.05.17/outbox.cif.g08.bks.cpg/sg14_32_cif.got.tgz:62745.got - 2010.06.03 17:49:19.
