data_PCOD9250863
_publ_section_title
;
Structure prediction by ZEFSAII (Michael W. Deem and Ramdas Pophale) SiO2 
 PCOD9250863
Probable space group: P 21/C
;
_chemical_formula_sum "Si O2"
_cell_formula_units_Z 30
_cell_length_a 12.943933
_cell_length_b 8.285443
_cell_length_c 13.819733
_cell_angle_alpha 90.000000
_cell_angle_beta 53.066325
_cell_angle_gamma 90.000000
_cell_volume 1184.700689
_symmetry_space_group_name_H-M "P 21/C"
_symmetry_group_IT_number 14
_symmetry_cell_setting 'monoclinic'
loop_
_space_group_symop_operation_xyz
x,y,z
-x,1/2+y,1/2-z
-x,-y,-z
x,1/2-y,1/2+z
loop_
_atom_site_type_symbol
_atom_site_label
_atom_site_fract_x
_atom_site_fract_y
_atom_site_fract_z
Si Si1 0.937135 0.644799 0.477436
Si Si2 0.322739 0.825321 0.616313
Si Si3 0.629922 0.525994 0.366940
Si Si4 0.503746 0.969386 0.357742
Si Si5 0.000000 0.500000 0.000000
Si Si6 0.892960 0.030619 0.384792
Si Si7 0.125317 0.177326 0.190983
Si Si8 0.644485 0.732586 0.163958
O O1 0.939950 0.593034 0.363951
O O2 0.785282 0.684417 0.580610
O O3 0.000000 0.500000 0.500000
O O4 0.012798 0.811249 0.452467
O O5 0.318117 0.655599 0.671426
O O6 0.434782 0.849756 0.472223
O O7 0.364178 0.962943 0.668979
O O8 0.192894 0.848952 0.627893
O O9 0.500000 0.500000 0.500000
O O10 0.730222 0.624854 0.376666
O O11 0.629708 0.625538 0.268816
O O12 0.541991 0.877150 0.238977
O O13 0.406703 0.118916 0.393728
O O14 0.141290 0.510676 0.983690
O O15 0.887018 0.863748 0.329538
O O16 0.038537 0.102540 0.326670
#
# Coordination Sequence:
#
# PCOD9250863 Si02
#       8
#     4   4   4   4   2   4   4   4
#     4  11  28  47  76 106 151 197 255 324 388 475
#     4  11  25  44  73 105 146 192 255 308 388 459
#     4  12  26  46  73 106 146 198 253 321 381 476
#     4  11  25  45  72 106 147 199 249 321 382 474
#     4  10  24  48  70 108 148 192 258 312 398 448
#     4  11  24  46  74 105 146 196 243 319 381 465
#     4  11  26  44  72 107 145 191 251 306 388 460
#     4  12  26  48  74 109 154 198 259 322 397 471
#
# _framework density 25.322851
#
# number of rings (size 3 to 8) (size 9 to 14) (size 15 to 20)
#    0.000    0.800    1.333    4.800   13.067    1.067 
#    2.400    0.000    0.000    0.000    0.000    0.000 
#    0.000    0.000    0.000    0.000    0.000    0.000 
#
# Total GULP energy -167409.319693 kJ/mol
# GULP energy per Si atom -5580.310656 kJ/mol
# Density = 2.526522 g / cm^3
# Si number density = 25.322851 Si / 1000 Ang^3
#
#
#
# Elastic Constant Matrix: (Units=GPa)
#
#
# Indices 1 2 3 4 5 6 
#
# 1 120.3946 33.5687 1.8744 0.0000 -10.0128 0.0000
# 2 33.5687 100.2538 13.9629 0.0000 -12.6875 0.0000
# 3 1.8744 13.9629 61.9614 0.0000 -22.2332 0.0000
# 4 0.0000 0.0000 0.0000 36.6917 0.0000 3.2227
# 5 -10.0128 -12.6875 -22.2332 0.0000 30.8984 0.0000
# 6 0.0000 0.0000 0.0000 3.2227 0.0000 45.3245
#
#
#
# Elastic Compliance Matrix: (Units=1/GPa)
#
#
# Indices 1 2 3 4 5 6 
#
# 1 0.009346 -0.002968 0.001396 0.000000 0.002814 0.000000
# 2 -0.002968 0.011520 -0.001556 0.000000 0.002649 0.000000
# 3 0.001396 -0.001556 0.022082 0.000000 0.015703 0.000000
# 4 0.000000 0.000000 0.000000 0.027425 0.000000 -0.001950
# 5 0.002814 0.002649 0.015703 0.000000 0.045663 0.000000
# 6 0.000000 0.000000 0.000000 -0.001950 0.000000 0.022202
#
#
# Mechanical properties :
#
#
# Convention : Reuss Voigt Hill
#
# Bulk Modulus (GPa) = 27.25279 42.38019 34.81649
# Shear Modulus (GPa) = 31.90320 38.12984 35.01652
#
# Velocity S-wave (km/s) = 3.55330 3.88461 3.72264
# Velocity P-wave (km/s) = 5.25548 6.07392 5.67946
#
# Compressibility (1/GPa) = 0.03669349
#
# Stress axis : x y z
#
# Youngs Moduli (GPa) = 107.00023 86.80334 45.28584
#
# Poissons Ratio (x) = 0.25759 -0.06321
# Poissons Ratio (y) = 0.31753 0.07045
# Poissons Ratio (z) = -0.14936 0.13503
#
# Static dielectric constant tensor:
#      x y z
#    x 2.007920 0.000000 -0.096030 
#    y 0.000000 1.959590 0.000000 
#    z -0.096030 0.000000 1.987560 
# 
# From -- ./inp_files/43649.got.cif
#   From: 2010.05.17/outbox.cif.g08.bks.cpg/sg14_22_cif.got.tgz:43649.got - 2010.06.03 17:49:19.
