data_PCOD9250822
_publ_section_title
;
Structure prediction by ZEFSAII (Michael W. Deem and Ramdas Pophale) SiO2 
 PCOD9250822
Probable space group: P 21/C
;
_chemical_formula_sum "Si O2"
_cell_formula_units_Z 32
_cell_length_a 7.535962
_cell_length_b 15.877443
_cell_length_c 10.577668
_cell_angle_alpha 90.000000
_cell_angle_beta 107.280748
_cell_angle_gamma 90.000000
_cell_volume 1208.507077
_symmetry_space_group_name_H-M "P 21/C"
_symmetry_group_IT_number 14
_symmetry_cell_setting 'monoclinic'
loop_
_space_group_symop_operation_xyz
x,y,z
-x,1/2+y,1/2-z
-x,-y,-z
x,1/2-y,1/2+z
loop_
_atom_site_type_symbol
_atom_site_label
_atom_site_fract_x
_atom_site_fract_y
_atom_site_fract_z
Si Si1 0.565687 0.590658 0.563069
Si Si2 0.308447 0.627288 0.129876
Si Si3 0.807848 0.959265 0.324946
Si Si4 0.470290 0.228098 0.519259
Si Si5 0.067761 0.967578 0.151124
Si Si6 0.187149 0.779084 0.247142
Si Si7 0.321855 0.388371 0.669718
Si Si8 0.108571 0.274005 0.097817
O O1 0.500000 0.500000 0.500000
O O2 0.623090 0.576335 0.718491
O O3 0.471957 0.682270 0.532785
O O4 0.724482 0.606826 0.490549
O O5 0.220231 0.536486 0.088232
O O6 0.169986 0.702604 0.142059
O O7 0.455483 0.612851 0.274975
O O8 0.448939 0.655590 0.051615
O O9 0.899859 0.874717 0.390506
O O10 0.921894 0.992038 0.228253
O O11 0.595947 0.217109 0.670941
O O12 0.250998 0.224861 0.503692
O O13 0.882060 0.131644 0.824669
O O14 0.243987 0.027967 0.215480
O O15 0.000000 0.000000 0.000000
O O16 0.079946 0.757409 0.355839
O O17 0.231324 0.300640 0.693351
#
# Coordination Sequence:
#
# PCOD9250822 Si02
#       8
#     4   4   4   4   4   4   4   4
#     4  11  20  36  70  99 138 182 243 308 360 431
#     4  12  25  43  72 106 146 197 244 304 369 452
#     4  11  23  43  67 100 142 188 247 301 362 439
#     4  11  26  46  69 105 144 197 244 299 390 434
#     4  11  25  43  73 111 141 186 246 311 376 431
#     4  11  25  48  72 107 148 192 243 311 366 448
#     4  11  22  40  67 105 141 186 242 308 373 432
#     4  10  24  47  67  96 149 185 244 300 365 445
#
# _framework density 26.478949
#
# number of rings (size 3 to 8) (size 9 to 14) (size 15 to 20)
#    0.000    1.000    5.000    1.500    3.500    2.500 
#    6.750    1.250    0.000    0.000    0.000    0.000 
#    0.000    0.000    0.000    0.000    0.000    0.000 
#
# Total GULP energy -178159.786993 kJ/mol
# GULP energy per Si atom -5567.493344 kJ/mol
# Density = 2.641868 g / cm^3
# Si number density = 26.478949 Si / 1000 Ang^3
#
#
#
# Elastic Constant Matrix: (Units=GPa)
#
#
# Indices 1 2 3 4 5 6 
#
# 1 100.9706 55.4721 7.4075 0.0000 -27.6754 0.0000
# 2 55.4721 126.0091 17.6867 0.0000 -9.4733 0.0000
# 3 7.4075 17.6867 64.9182 0.0000 -15.8212 0.0000
# 4 0.0000 0.0000 0.0000 27.3077 0.0000 -9.8082
# 5 -27.6754 -9.4733 -15.8212 0.0000 40.1416 0.0000
# 6 0.0000 0.0000 0.0000 -9.8082 0.0000 49.6794
#
#
#
# Elastic Compliance Matrix: (Units=1/GPa)
#
#
# Indices 1 2 3 4 5 6 
#
# 1 0.016363 -0.006761 0.002584 0.000000 0.010704 0.000000
# 2 -0.006761 0.011096 -0.003041 0.000000 -0.003242 0.000000
# 3 0.002584 -0.003041 0.017918 0.000000 0.008126 0.000000
# 4 0.000000 0.000000 0.000000 0.039415 0.000000 0.007782
# 5 0.010704 -0.003242 0.008126 0.000000 0.034729 0.000000
# 6 0.000000 0.000000 0.000000 0.007782 0.000000 0.021665
#
#
# Mechanical properties :
#
#
# Convention : Reuss Voigt Hill
#
# Bulk Modulus (GPa) = 32.32241 50.33670 41.32956
# Shear Modulus (GPa) = 30.13205 37.51452 33.82328
#
# Velocity S-wave (km/s) = 3.37703 3.76808 3.57790
# Velocity P-wave (km/s) = 5.23823 6.16300 5.71934
#
# Compressibility (1/GPa) = 0.03093829
#
# Stress axis : x y z
#
# Youngs Moduli (GPa) = 61.11465 90.12625 55.80946
#
# Poissons Ratio (x) = 0.60936 -0.14419
# Poissons Ratio (y) = 0.41321 0.16974
# Poissons Ratio (z) = -0.15790 0.27412
#
# Static dielectric constant tensor:
#      x y z
#    x 2.269590 0.000000 0.152490 
#    y 0.000000 2.114050 0.000000 
#    z 0.152490 0.000000 2.316350 
# 
# From -- ./inp_files/25270.got.cif
#   From: 2010.05.17/outbox.cif.g08.bks.cpg/sg14_13_cif.got.tgz:25270.got - 2010.06.03 17:49:19.
