data_PCOD9250021
_publ_section_title
;
Structure prediction by ZEFSAII (Michael W. Deem and Ramdas Pophale) SiO2 
 PCOD9250021
Probable space group: P 21/C
;
_chemical_formula_sum "Si O2"
_cell_formula_units_Z 30
_cell_length_a 16.156310
_cell_length_b 4.943348
_cell_length_c 18.982247
_cell_angle_alpha 90.000000
_cell_angle_beta 59.477373
_cell_angle_gamma 90.000000
_cell_volume 1305.961273
_symmetry_space_group_name_H-M "P 21/C"
_symmetry_group_IT_number 14
_symmetry_cell_setting 'monoclinic'
loop_
_space_group_symop_operation_xyz
x,y,z
-x,1/2+y,1/2-z
-x,-y,-z
x,1/2-y,1/2+z
loop_
_atom_site_type_symbol
_atom_site_label
_atom_site_fract_x
_atom_site_fract_y
_atom_site_fract_z
Si Si1 0.497195 0.189817 0.300249
Si Si2 0.052502 0.984367 0.703933
Si Si3 0.899085 0.491508 0.970028
Si Si4 0.176239 0.578241 0.393054
Si Si5 0.000000 0.500000 0.500000
Si Si6 0.294606 0.263036 0.456956
Si Si7 0.256921 0.235552 0.136292
Si Si8 0.692292 0.273241 0.794303
O O1 0.482968 0.398513 0.242188
O O2 0.400771 0.185874 0.387798
O O3 0.588543 0.284450 0.305553
O O4 0.067721 0.881997 0.618276
O O5 0.150647 0.137397 0.681468
O O6 0.973118 0.219688 0.741065
O O7 0.906431 0.259038 0.027333
O O8 0.947901 0.779892 0.961221
O O9 0.784176 0.528388 0.018017
O O10 0.091473 0.380308 0.405244
O O11 0.252037 0.472406 0.417543
O O12 0.235083 0.687285 0.302728
O O13 0.288149 0.329295 0.542415
O O14 0.316849 0.463784 0.152137
O O15 0.267469 0.966237 0.176117
#
# Coordination Sequence:
#
# PCOD9250021 Si02
#       8
#     4   4   4   4   2   4   4   4
#     4  12  26  47  80 114 142 193 248 308 376 445
#     4  11  25  45  72 104 143 202 249 295 367 445
#     4   9  23  43  69 102 144 195 248 301 368 434
#     4  10  23  45  71 104 145 195 246 305 361 435
#     4   8  22  42  66 102 140 184 244 300 358 416
#     4  11  25  46  78 101 151 199 245 303 374 452
#     4  11  29  47  71 108 155 191 243 310 369 442
#     4  12  26  48  74 112 149 189 247 315 372 426
#
# _framework density 22.971585999999999
#
# number of rings (size 3 to 8) (size 9 to 14) (size 15 to 20)
#    0.800    0.533    1.333    2.400   11.200    1.600 
#    4.800    0.000    0.000    0.800    0.000    0.000 
#    0.000    0.000    0.000    0.000    0.000    0.000 
#
# Total GULP energy -167358.322444 kJ/mol
# GULP energy per Si atom -5578.610748 kJ/mol
# Density = 2.291930 g / cm^3
# Si number density = 22.971586 Si / 1000 Ang^3
#
#
#
# Elastic Constant Matrix: (Units=GPa)
#
#
# Indices 1 2 3 4 5 6 
#
# 1 105.2579 9.1304 107.7466 0.0000 -14.9737 0.0000
# 2 9.1304 88.0315 52.6262 0.0000 11.6916 0.0000
# 3 107.7466 52.6262 118.8200 0.0000 -2.3368 0.0000
# 4 0.0000 0.0000 0.0000 -87.0160 0.0000 103.8104
# 5 -14.9737 11.6916 -2.3368 0.0000 35.8951 0.0000
# 6 0.0000 0.0000 0.0000 103.8104 0.0000 -34.9635
#
#
#
# Elastic Compliance Matrix: (Units=1/GPa)
#
#
# Indices 1 2 3 4 5 6 
#
# 1 -0.061390 -0.034698 0.070846 0.000000 -0.009695 0.000000
# 2 -0.034698 -0.003001 0.032570 0.000000 -0.011376 0.000000
# 3 0.070846 0.032570 -0.069970 0.000000 0.014390 0.000000
# 4 0.000000 0.000000 0.000000 0.004521 0.000000 0.013422
# 5 -0.009695 -0.011376 0.014390 0.000000 0.028457 0.000000
# 6 0.000000 0.000000 0.000000 0.013422 0.000000 0.011251
#
#
# Mechanical properties :
#
#
# Convention : Reuss Voigt Hill
#
# Bulk Modulus (GPa) = 325.22941 72.34619 198.78780
# Shear Modulus (GPa) = -22.07076 -7.70982 -14.89029
#
# Velocity S-wave (km/s) = -3.10302 -1.83399 -2.54875
# Velocity P-wave (km/s) = 11.35993 5.20360 8.83531
#
# Compressibility (1/GPa) = 0.00307475
#
# Stress axis : x y z
#
# Youngs Moduli (GPa) = -16.28925 -333.19706 -14.29188
#
# Poissons Ratio (x) = -11.56118 1.01252
# Poissons Ratio (y) = -0.56520 0.46548
# Poissons Ratio (z) = 1.15403 10.85209
#
# Static dielectric constant tensor:
#      x y z
#    x 1.896780 0.000000 0.041000 
#    y 0.000000 2.007610 0.000000 
#    z 0.041000 0.000000 1.896060 
# 
# From -- ./inp_files/58563.got.cif
#   From: 2010.05.17/outbox.cif.g08.bks.cpg/sg14_30_cif.got.tgz:58563.got - 2010.06.03 17:49:19.
