data_PCOD9250765
_publ_section_title
;
Structure prediction by ZEFSAII (Michael W. Deem and Ramdas Pophale) SiO2 
 PCOD9250765
Probable space group: P 21/C
;
_chemical_formula_sum "Si O2"
_cell_formula_units_Z 20
_cell_length_a 9.938359
_cell_length_b 6.021433
_cell_length_c 13.482529
_cell_angle_alpha 90.000000
_cell_angle_beta 92.685442
_cell_angle_gamma 90.000000
_cell_volume 805.951119
_symmetry_space_group_name_H-M "P 21/C"
_symmetry_group_IT_number 14
_symmetry_cell_setting 'monoclinic'
loop_
_space_group_symop_operation_xyz
x,y,z
-x,1/2+y,1/2-z
-x,-y,-z
x,1/2-y,1/2+z
loop_
_atom_site_type_symbol
_atom_site_label
_atom_site_fract_x
_atom_site_fract_y
_atom_site_fract_z
Si Si1 0.279737 0.852289 0.229980
Si Si2 0.398069 0.300328 0.486961
Si Si3 0.871644 0.619333 0.449418
Si Si4 0.020001 0.896088 0.302622
Si Si5 0.454156 0.501887 0.169062
O O1 0.182373 0.891096 0.319721
O O2 0.320339 0.598579 0.213693
O O3 0.201676 0.961066 0.134912
O O4 0.430298 0.943178 0.249606
O O5 0.500000 0.500000 0.500000
O O6 0.240463 0.347593 0.469769
O O7 0.463573 0.155522 0.404096
O O8 0.404392 0.187251 0.594552
O O9 0.000000 0.500000 0.500000
O O10 0.929518 0.836682 0.394576
O O11 0.005517 0.652268 0.239406
#
# Coordination Sequence:
#
# PCOD9250765 Si02
#       5
#     4   4   4   4   4
#     4  11  24  44  70 107 140 193 245 299 371 432
#     4  11  24  46  70 104 140 183 239 296 367 426
#     4  11  25  43  72 105 145 192 237 303 366 440
#     4  10  24  46  70 101 146 189 245 300 367 440
#     4  11  25  42  75 102 143 184 243 303 356 441
#
# _framework density 24.8154
#
# number of rings (size 3 to 8) (size 9 to 14) (size 15 to 20)
#    0.000    1.200    2.000    2.400    2.800    8.000 
#    0.000    6.000    0.000    0.000    0.000    0.000 
#    0.000    0.000    0.000    0.000    0.000    0.000 
#
# Total GULP energy -111575.476906 kJ/mol
# GULP energy per Si atom -5578.773845 kJ/mol
# Density = 2.475892 g / cm^3
# Si number density = 24.815400 Si / 1000 Ang^3
#
#
#
# Elastic Constant Matrix: (Units=GPa)
#
#
# Indices 1 2 3 4 5 6 
#
# 1 160.2737 20.4126 5.9920 0.0000 2.1834 0.0000
# 2 20.4126 82.6721 12.1296 0.0000 -0.0260 0.0000
# 3 5.9920 12.1296 41.2685 0.0000 17.4786 0.0000
# 4 0.0000 0.0000 0.0000-3982.2451 0.0000 2815.4103
# 5 2.1834 -0.0260 17.4786 0.0000 45.3662 0.0000
# 6 0.0000 0.0000 0.0000 2815.4103 0.0000-1928.5356
#
#
#
# Elastic Compliance Matrix: (Units=1/GPa)
#
#
# Indices 1 2 3 4 5 6 
#
# 1 0.006452 -0.001531 -0.000424 0.000000 -0.000148 0.000000
# 2 -0.001531 0.013118 -0.004383 0.000000 0.001770 0.000000
# 3 -0.000424 -0.004383 0.030561 0.000000 -0.011756 0.000000
# 4 0.000000 0.000000 0.000000 0.007819 0.000000 0.011415
# 5 -0.000148 0.001770 -0.011756 0.000000 0.026580 0.000000
# 6 0.000000 0.000000 0.000000 0.011415 0.000000 0.016146
#
#
# Mechanical properties :
#
#
# Convention : Reuss Voigt Hill
#
# Bulk Modulus (GPa) = 26.69901 40.14252 33.42077
# Shear Modulus (GPa) = 39.73382 -1156.70422 -558.48520
#
# Velocity S-wave (km/s) = 4.00581 -21.61332 -15.01814
# Velocity P-wave (km/s) = 5.67254 24.62998 16.94783
#
# Compressibility (1/GPa) = 0.03745458
#
# Stress axis : x y z
#
# Youngs Moduli (GPa) = 154.98630 76.23362 32.72184
#
# Poissons Ratio (x) = 0.11671 0.01388
# Poissons Ratio (y) = 0.23727 0.14341
# Poissons Ratio (z) = 0.06574 0.33412
#
# Static dielectric constant tensor:
#      x y z
#    x 1.105800 0.000000 0.413430 
#    y 0.000000 2.232130 0.000000 
#    z 0.413430 0.000000 1.839090 
# 
# From -- ./inp_files/54026.got.cif
#   From: 2010.05.17/outbox.cif.g08.bks.cpg/sg14_28_cif.got.tgz:54026.got - 2010.06.03 17:49:19.
