data_PCOD9250130
_publ_section_title
;
Structure prediction by ZEFSAII (Michael W. Deem and Ramdas Pophale) SiO2 
 PCOD9250130
Probable space group: P 21/C
;
_chemical_formula_sum "Si O2"
_cell_formula_units_Z 20
_cell_length_a 6.554932
_cell_length_b 8.367560
_cell_length_c 17.480010
_cell_angle_alpha 90.000000
_cell_angle_beta 125.686582
_cell_angle_gamma 90.000000
_cell_volume 778.722045
_symmetry_space_group_name_H-M "P 21/C"
_symmetry_group_IT_number 14
_symmetry_cell_setting 'monoclinic'
loop_
_space_group_symop_operation_xyz
x,y,z
-x,1/2+y,1/2-z
-x,-y,-z
x,1/2-y,1/2+z
loop_
_atom_site_type_symbol
_atom_site_label
_atom_site_fract_x
_atom_site_fract_y
_atom_site_fract_z
Si Si1 0.946009 0.911901 0.408374
Si Si2 0.664062 0.841711 0.035678
Si Si3 0.104717 0.439221 0.627728
Si Si4 0.077557 0.137676 0.297789
Si Si5 0.479483 0.750683 0.343189
O O1 0.036301 0.727175 0.426898
O O2 0.643526 0.883659 0.335698
O O3 0.047864 0.006972 0.358084
O O4 0.000000 0.000000 0.500000
O O5 0.707738 0.757023 0.125805
O O6 0.547142 0.726689 0.946861
O O7 0.941744 0.906493 0.072202
O O8 0.500000 0.000000 0.000000
O O9 0.372817 0.413371 0.647011
O O10 0.126151 0.426934 0.724097
O O11 0.809279 0.226649 0.235094
#
# Coordination Sequence:
#
# PCOD9250130 Si02
#       5
#     4   4   4   4   4
#     4  10  23  47  67 102 138 184 239 290 361 413
#     4  12  24  46  72 103 146 190 235 295 361 434
#     4  10  24  42  70 103 139 187 239 292 360 420
#     4  12  23  47  72 101 146 183 244 298 350 434
#     4  10  25  43  70 101 140 186 240 291 363 417
#
# _framework density 25.683105999999999
#
# number of rings (size 3 to 8) (size 9 to 14) (size 15 to 20)
#    1.200    0.000    4.000    1.800    2.800    0.000 
#    7.200    2.000    0.000    0.000    0.000    0.000 
#    0.000    0.000    0.000    0.000    0.000    0.000 
#
# Total GULP energy -111888.049290 kJ/mol
# GULP energy per Si atom -5594.402464 kJ/mol
# Density = 2.562465 g / cm^3
# Si number density = 25.683106 Si / 1000 Ang^3
#
#
#
# Elastic Constant Matrix: (Units=GPa)
#
#
# Indices 1 2 3 4 5 6 
#
# 1 79.9888 3.8438 36.1507 0.0000 -8.3374 0.0000
# 2 3.8438 73.9592 39.7809 0.0000 -10.4018 0.0000
# 3 36.1507 39.7809 139.4241 0.0000 -18.8940 0.0000
# 4 0.0000 0.0000 0.0000 46.4826 0.0000 2.9208
# 5 -8.3374 -10.4018 -18.8940 0.0000 47.3261 0.0000
# 6 0.0000 0.0000 0.0000 2.9208 0.0000 51.9793
#
#
#
# Elastic Compliance Matrix: (Units=1/GPa)
#
#
# Indices 1 2 3 4 5 6 
#
# 1 0.014369 0.001588 -0.004005 0.000000 0.001281 0.000000
# 2 0.001588 0.016292 -0.004796 0.000000 0.001946 0.000000
# 3 -0.004005 -0.004796 0.009875 0.000000 0.002183 0.000000
# 4 0.000000 0.000000 0.000000 0.021590 0.000000 -0.001213
# 5 0.001281 0.001946 0.002183 0.000000 0.022655 0.000000
# 6 0.000000 0.000000 0.000000 -0.001213 0.000000 0.019307
#
#
# Mechanical properties :
#
#
# Convention : Reuss Voigt Hill
#
# Bulk Modulus (GPa) = 38.30172 50.32477 44.31324
# Shear Modulus (GPa) = 39.30266 43.39737 41.35002
#
# Velocity S-wave (km/s) = 3.91614 4.11509 4.01684
# Velocity P-wave (km/s) = 5.94927 6.49735 6.22934
#
# Compressibility (1/GPa) = 0.02610849
#
# Stress axis : x y z
#
# Youngs Moduli (GPa) = 69.59380 61.37979 101.26433
#
# Poissons Ratio (x) = -0.09745 0.40557
# Poissons Ratio (y) = -0.11049 0.48571
# Poissons Ratio (z) = 0.27873 0.29441
#
# Static dielectric constant tensor:
#      x y z
#    x 2.047430 0.000000 0.022460 
#    y 0.000000 2.075870 0.000000 
#    z 0.022460 0.000000 2.007130 
# 
# From -- ./inp_files/54974.got.cif
#   From: 2010.05.17/outbox.cif.g08.bks.cpg/sg14_28_cif.got.tgz:54974.got - 2010.06.03 17:49:19.
