data_PCOD9250023
_publ_section_title
;
Structure prediction by ZEFSAII (Michael W. Deem and Ramdas Pophale) SiO2 
 PCOD9250023
Probable space group: P 21/C
;
_chemical_formula_sum "Si O2"
_cell_formula_units_Z 28
_cell_length_a 25.627202
_cell_length_b 9.196089
_cell_length_c 9.438179
_cell_angle_alpha 90.000000
_cell_angle_beta 35.815059
_cell_angle_gamma 90.000000
_cell_volume 1301.593088
_symmetry_space_group_name_H-M "P 21/C"
_symmetry_group_IT_number 14
_symmetry_cell_setting 'monoclinic'
loop_
_space_group_symop_operation_xyz
x,y,z
-x,1/2+y,1/2-z
-x,-y,-z
x,1/2-y,1/2+z
loop_
_atom_site_type_symbol
_atom_site_label
_atom_site_fract_x
_atom_site_fract_y
_atom_site_fract_z
Si Si1 0.235411 0.237425 0.537800
Si Si2 0.100746 0.047658 0.259393
Si Si3 0.304916 0.408412 0.631925
Si Si4 0.615350 0.364098 0.918416
Si Si5 0.523535 0.046134 0.113024
Si Si6 0.764993 0.151961 0.865371
Si Si7 0.217460 0.542064 0.254056
O O1 0.134890 0.300111 0.751876
O O2 0.299649 0.345223 0.484127
O O3 0.262613 0.220559 0.315768
O O4 0.246909 0.079868 0.579650
O O5 0.165244 0.937753 0.198176
O O6 0.000000 0.000000 0.500000
O O7 0.137416 0.028110 0.019753
O O8 0.395565 0.448041 0.507988
O O9 0.248867 0.558408 0.747220
O O10 0.556995 0.214219 0.054838
O O11 0.553422 0.498546 0.105762
O O12 0.666492 0.349645 0.655022
O O13 0.699825 0.393546 0.835957
O O14 0.500000 0.000000 0.000000
O O15 0.808006 0.309251 0.764326
#
# Coordination Sequence:
#
# PCOD9250023 Si02
#       7
#     4   4   4   4   4   4   4
#     4  11  23  44  72 101 135 183 234 277 351 428
#     4  10  24  44  69 104 140 175 227 289 348 422
#     4  11  24  43  69  98 137 185 235 282 353 411
#     4  11  25  44  64  98 135 186 237 291 349 407
#     4  12  27  43  67  99 142 180 243 297 346 408
#     4  10  23  45  71  95 139 188 225 289 356 424
#     4  11  22  45  69  96 137 182 233 280 349 425
#
# _framework density 21.5121
#
# number of rings (size 3 to 8) (size 9 to 14) (size 15 to 20)
#    0.000    1.143    2.857    2.571    6.000    1.714 
#    0.000    0.714    0.000    0.000    0.000    0.000 
#    0.000    0.000    0.000    0.000    0.000    0.000 
#
# Total GULP energy -155983.360878 kJ/mol
# GULP energy per Si atom -5570.834317 kJ/mol
# Density = 2.146314 g / cm^3
# Si number density = 21.512100 Si / 1000 Ang^3
#
#
#
# Elastic Constant Matrix: (Units=GPa)
#
#
# Indices 1 2 3 4 5 6 
#
# 1 66.9076 28.8291 30.0532 0.0000 1.2795 0.0000
# 2 28.8291 113.6780 21.1334 0.0000 6.1551 0.0000
# 3 30.0532 21.1334 92.8300 0.0000 -6.5261 0.0000
# 4 0.0000 0.0000 0.0000 27.6343 0.0000 3.3461
# 5 1.2795 6.1551 -6.5261 0.0000 23.7011 0.0000
# 6 0.0000 0.0000 0.0000 3.3461 0.0000 20.4039
#
#
#
# Elastic Compliance Matrix: (Units=1/GPa)
#
#
# Indices 1 2 3 4 5 6 
#
# 1 0.019016 -0.003732 -0.005416 0.000000 -0.001549 0.000000
# 2 -0.003732 0.010135 -0.001295 0.000000 -0.002787 0.000000
# 3 -0.005416 -0.001295 0.013119 0.000000 0.004241 0.000000
# 4 0.000000 0.000000 0.000000 0.036920 0.000000 -0.006055
# 5 -0.001549 -0.002787 0.004241 0.000000 0.044167 0.000000
# 6 0.000000 0.000000 0.000000 -0.006055 0.000000 0.050003
#
#
# Mechanical properties :
#
#
# Convention : Reuss Voigt Hill
#
# Bulk Modulus (GPa) = 46.76287 48.16078 47.46183
# Shear Modulus (GPa) = 24.82945 27.24116 26.03530
#
# Velocity S-wave (km/s) = 3.40105 3.56240 3.48266
# Velocity P-wave (km/s) = 6.09984 6.27354 6.18730
#
# Compressibility (1/GPa) = 0.02138449
#
# Stress axis : x y z
#
# Youngs Moduli (GPa) = 52.58678 98.66930 76.22741
#
# Poissons Ratio (x) = 0.36823 0.41282
# Poissons Ratio (y) = 0.19625 0.09872
# Poissons Ratio (z) = 0.28479 0.12778
#
# Static dielectric constant tensor:
#      x y z
#    x 1.870090 0.000000 0.078370 
#    y 0.000000 1.913820 0.000000 
#    z 0.078370 0.000000 1.804270 
# 
# From -- ./inp_files/36147.got.cif
#   From: 2010.05.17/outbox.cif.g08.bks.cpg/sg14_19_cif.got.tgz:36147.got - 2010.06.03 17:49:19.
