data_PCOD9250157
_publ_section_title
;
Structure prediction by ZEFSAII (Michael W. Deem and Ramdas Pophale) SiO2 
 PCOD9250157
Probable space group: P 21/C
;
_chemical_formula_sum "Si O2"
_cell_formula_units_Z 22
_cell_length_a 8.481883
_cell_length_b 4.606787
_cell_length_c 20.201091
_cell_angle_alpha 90.000000
_cell_angle_beta 107.799298
_cell_angle_gamma 90.000000
_cell_volume 751.558716
_symmetry_space_group_name_H-M "P 21/C"
_symmetry_group_IT_number 14
_symmetry_cell_setting 'monoclinic'
loop_
_space_group_symop_operation_xyz
x,y,z
-x,1/2+y,1/2-z
-x,-y,-z
x,1/2-y,1/2+z
loop_
_atom_site_type_symbol
_atom_site_label
_atom_site_fract_x
_atom_site_fract_y
_atom_site_fract_z
Si Si1 0.864609 0.424517 0.391184
Si Si2 0.789619 0.792467 0.511968
Si Si3 0.466083 0.677762 0.201264
Si Si4 0.365481 0.958492 0.889531
Si Si5 0.500000 0.500000 0.000000
Si Si6 0.018974 0.776533 0.297310
O O1 0.818979 0.624748 0.448075
O O2 0.716377 0.219799 0.349874
O O3 0.031675 0.242888 0.430192
O O4 0.894073 0.645131 0.334097
O O5 0.651597 0.685710 0.550499
O O6 0.698394 0.103161 0.498889
O O7 0.483752 0.856931 0.272271
O O8 0.582864 0.835049 0.163595
O O9 0.195831 0.805700 0.848878
O O10 0.485085 0.707452 0.930097
O O11 0.996131 0.608500 0.224703
#
# Coordination Sequence:
#
# PCOD9250157 Si02
#       6
#     4   4   4   4   2   4
#     4  10  23  47  71 107 148 194 261 318 389 467
#     4  10  24  47  71 105 146 196 251 328 387 458
#     4  12  27  46  74 110 152 203 253 322 387 476
#     4  11  26  43  74 104 148 192 254 313 395 464
#     4  12  24  44  76 108 142 204 244 332 384 472
#     4  11  25  47  72 104 147 200 248 311 384 468
#
# _framework density 29.272497999999999
#
# number of rings (size 3 to 8) (size 9 to 14) (size 15 to 20)
#    0.000    1.091    1.818    2.727    7.636    0.000 
#    6.545    2.727    0.000    0.000    0.000    0.000 
#    0.000    0.000    0.000    0.000    0.000    0.000 
#
# Total GULP energy -123372.024480 kJ/mol
# GULP energy per Si atom -5607.819295 kJ/mol
# Density = 2.920587 g / cm^3
# Si number density = 29.272498 Si / 1000 Ang^3
#
#
#
# Elastic Constant Matrix: (Units=GPa)
#
#
# Indices 1 2 3 4 5 6 
#
# 1 125.1883 13.3662 41.3667 0.0000 9.3061 0.0000
# 2 13.3662 109.3072 33.8017 0.0000 -26.7249 0.0000
# 3 41.3667 33.8017 165.8017 0.0000 -0.5150 0.0000
# 4 0.0000 0.0000 0.0000 56.2506 0.0000 -4.5565
# 5 9.3061 -26.7249 -0.5150 0.0000 54.4259 0.0000
# 6 0.0000 0.0000 0.0000 -4.5565 0.0000 51.1095
#
#
#
# Elastic Compliance Matrix: (Units=1/GPa)
#
#
# Indices 1 2 3 4 5 6 
#
# 1 0.008912 -0.000952 -0.002036 0.000000 -0.002010 0.000000
# 2 -0.000952 0.011288 -0.002046 0.000000 0.005686 0.000000
# 3 -0.002036 -0.002046 0.006954 0.000000 -0.000591 0.000000
# 4 0.000000 0.000000 0.000000 0.017907 0.000000 0.001596
# 5 -0.002010 0.005686 -0.000591 0.000000 0.021504 0.000000
# 6 0.000000 0.000000 0.000000 0.001596 0.000000 0.019708
#
#
# Mechanical properties :
#
#
# Convention : Reuss Voigt Hill
#
# Bulk Modulus (GPa) = 58.52401 64.15180 61.33790
# Shear Modulus (GPa) = 49.00251 53.14136 51.07194
#
# Velocity S-wave (km/s) = 4.09591 4.26538 4.18150
# Velocity P-wave (km/s) = 6.51190 6.79859 6.65679
#
# Compressibility (1/GPa) = 0.01708700
#
# Stress axis : x y z
#
# Youngs Moduli (GPa) = 112.21238 88.59085 143.79224
#
# Poissons Ratio (x) = 0.08432 0.29271
# Poissons Ratio (y) = 0.10680 0.29421
# Poissons Ratio (z) = 0.22842 0.18127
#
# Static dielectric constant tensor:
#      x y z
#    x 2.765330 0.000000 0.489590 
#    y 0.000000 3.676290 0.000000 
#    z 0.489590 0.000000 2.916730 
# 
# From -- ./inp_files/64208.got.cif
#   From: 2010.05.17/outbox.cif.g08.bks.cpg/sg14_33_cif.got.tgz:64208.got - 2010.06.03 17:49:19.
