data_PCOD9250930
_publ_section_title
;
Structure prediction by ZEFSAII (Michael W. Deem and Ramdas Pophale) SiO2 
 PCOD9250930
Probable space group: P 21/C
;
_chemical_formula_sum "Si O2"
_cell_formula_units_Z 20
_cell_length_a 9.191170
_cell_length_b 9.172088
_cell_length_c 16.023680
_cell_angle_alpha 90.000000
_cell_angle_beta 147.143243
_cell_angle_gamma 90.000000
_cell_volume 732.881103
_symmetry_space_group_name_H-M "P 21/C"
_symmetry_group_IT_number 14
_symmetry_cell_setting 'monoclinic'
loop_
_space_group_symop_operation_xyz
x,y,z
-x,1/2+y,1/2-z
-x,-y,-z
x,1/2-y,1/2+z
loop_
_atom_site_type_symbol
_atom_site_label
_atom_site_fract_x
_atom_site_fract_y
_atom_site_fract_z
Si Si1 0.705868 0.414921 0.771455
Si Si2 0.760695 0.791152 0.388851
Si Si3 0.083320 0.034180 0.134832
Si Si4 0.616551 0.145583 0.594163
Si Si5 0.798555 0.597383 0.648029
O O1 0.669965 0.551122 0.815142
O O2 0.743120 0.489787 0.698881
O O3 0.413454 0.274965 0.473892
O O4 0.977908 0.327974 0.928673
O O5 0.545131 0.690085 0.331437
O O6 0.827598 0.700610 0.336115
O O7 0.851749 0.003907 0.091315
O O8 0.306355 0.923401 0.277844
O O9 0.000000 0.000000 0.000000
O O10 0.500000 0.000000 0.500000
O O11 0.911782 0.173184 0.699831
#
# Coordination Sequence:
#
# PCOD9250930 Si02
#       5
#     4   4   4   4   4
#     4  11  28  58  94 134 194 251 323 396 481 577
#     4  11  28  56  89 137 190 252 318 399 483 567
#     4  10  26  54  90 132 190 247 317 398 476 576
#     4  10  24  55  94 137 192 251 320 397 474 580
#     4  10  26  56  98 140 188 256 324 399 482 576
#
# _framework density 27.289556000000001
#
# number of rings (size 3 to 8) (size 9 to 14) (size 15 to 20)
#    1.200    0.400    0.000    1.200    2.800    9.600 
#    3.600    4.000    0.000    2.400    0.000    0.000 
#    0.000    0.000    0.000    0.000    0.000    0.000 
#
# Total GULP energy -111903.118400 kJ/mol
# GULP energy per Si atom -5595.155920 kJ/mol
# Density = 2.722744 g / cm^3
# Si number density = 27.289556 Si / 1000 Ang^3
#
#
#
# Elastic Constant Matrix: (Units=GPa)
#
#
# Indices 1 2 3 4 5 6 
#
# 1 225.3674 142.9594 155.2881 0.0000 -3.9466 0.0000
# 2 142.9594 262.6925 143.2089 0.0000 27.8438 0.0000
# 3 155.2881 143.2089 212.2926 0.0000 4.5816 0.0000
# 4 0.0000 0.0000 0.0000 87.2904 0.0000 8.8705
# 5 -3.9466 27.8438 4.5816 0.0000 60.6619 0.0000
# 6 0.0000 0.0000 0.0000 8.8705 0.0000 65.2429
#
#
#
# Elastic Compliance Matrix: (Units=1/GPa)
#
#
# Indices 1 2 3 4 5 6 
#
# 1 0.009998 -0.002640 -0.005582 0.000000 0.002284 0.000000
# 2 -0.002640 0.007109 -0.002795 0.000000 -0.003224 0.000000
# 3 -0.005582 -0.002795 0.010676 0.000000 0.000113 0.000000
# 4 0.000000 0.000000 0.000000 0.011617 0.000000 -0.001579
# 5 0.002284 -0.003224 0.000113 0.000000 0.018104 0.000000
# 6 0.000000 0.000000 0.000000 -0.001579 0.000000 0.015542
#
#
# Mechanical properties :
#
#
# Convention : Reuss Voigt Hill
#
# Bulk Modulus (GPa) = 173.91374 175.91837 174.91605
# Shear Modulus (GPa) = 51.54901 59.89876 55.72389
#
# Velocity S-wave (km/s) = 4.35094 4.69009 4.52370
# Velocity P-wave (km/s) = 9.43972 9.69190 9.56664
#
# Compressibility (1/GPa) = 0.00574998
#
# Stress axis : x y z
#
# Youngs Moduli (GPa) = 100.02093 140.67209 93.66781
#
# Poissons Ratio (x) = 0.37140 0.52281
# Poissons Ratio (y) = 0.26407 0.26176
# Poissons Ratio (z) = 0.55827 0.39312
#
# Static dielectric constant tensor:
#      x y z
#    x 2.990900 0.000000 0.623080 
#    y 0.000000 2.163070 0.000000 
#    z 0.623080 0.000000 2.809920 
# 
# From -- ./inp_files/44682.got.cif
#   From: 2010.05.17/outbox.cif.g08.bks.cpg/sg14_23_cif.got.tgz:44682.got - 2010.06.03 17:49:19.
