data_PCOD9250088
_publ_section_title
;
Structure prediction by ZEFSAII (Michael W. Deem and Ramdas Pophale) SiO2 
 PCOD9250088
Probable space group: P 21/C
;
_chemical_formula_sum "Si O2"
_cell_formula_units_Z 20
_cell_length_a 12.265843
_cell_length_b 10.967613
_cell_length_c 14.771100
_cell_angle_alpha 90.000000
_cell_angle_beta 25.241675
_cell_angle_gamma 90.000000
_cell_volume 847.378737
_symmetry_space_group_name_H-M "P 21/C"
_symmetry_group_IT_number 14
_symmetry_cell_setting 'monoclinic'
loop_
_space_group_symop_operation_xyz
x,y,z
-x,1/2+y,1/2-z
-x,-y,-z
x,1/2-y,1/2+z
loop_
_atom_site_type_symbol
_atom_site_label
_atom_site_fract_x
_atom_site_fract_y
_atom_site_fract_z
Si Si1 0.242024 0.113748 0.219489
Si Si2 0.672634 0.177437 0.375545
Si Si3 0.319551 0.921001 0.310458
Si Si4 0.389651 0.046636 0.444512
Si Si5 0.820205 0.714112 0.418133
O O1 0.148851 0.114361 0.184645
O O2 0.964544 0.135054 0.474449
O O3 0.338508 0.994725 0.201394
O O4 0.463909 0.216710 0.051954
O O5 0.631368 0.112816 0.309936
O O6 0.963971 0.214993 0.169348
O O7 0.633671 0.076385 0.482052
O O8 0.368052 0.017627 0.354977
O O9 0.537329 0.820424 0.163914
O O10 0.177726 0.150045 0.624489
#
# Coordination Sequence:
#
# PCOD9250088 Si02
#       5
#     4   4   4   4   4
#     4  10  24  45  69  98 139 177 225 283 345 402
#     4  10  23  46  70  95 143 176 218 286 341 400
#     4  11  24  43  72 103 133 179 233 275 338 415
#     4  10  24  44  64 104 131 178 228 270 345 402
#     4  11  24  44  69 100 137 183 223 282 343 399
#
# _framework density 23.602198999999999
#
# number of rings (size 3 to 8) (size 9 to 14) (size 15 to 20)
#    0.000    1.600    2.000    0.600    5.600    7.200 
#    7.200    0.000    0.000    0.000    0.000    0.000 
#    0.000    0.000    0.000    0.000    0.000    0.000 
#
# Total GULP energy -111477.513573 kJ/mol
# GULP energy per Si atom -5573.875679 kJ/mol
# Density = 2.354848 g / cm^3
# Si number density = 23.602199 Si / 1000 Ang^3
#
#
#
# Elastic Constant Matrix: (Units=GPa)
#
#
# Indices 1 2 3 4 5 6 
#
# 1 156.5442 47.6849 40.7571 0.0000 -20.6427 0.0000
# 2 47.6849 99.6397 52.4156 0.0000 -22.2655 0.0000
# 3 40.7571 52.4156 86.2523 0.0000 -33.4389 0.0000
# 4 0.0000 0.0000 0.0000 28.0510 0.0000 6.2814
# 5 -20.6427 -22.2655 -33.4389 0.0000 52.3072 0.0000
# 6 0.0000 0.0000 0.0000 6.2814 0.0000 50.6320
#
#
#
# Elastic Compliance Matrix: (Units=1/GPa)
#
#
# Indices 1 2 3 4 5 6 
#
# 1 0.007746 -0.002595 -0.001764 0.000000 0.000825 0.000000
# 2 -0.002595 0.015643 -0.008104 0.000000 0.000454 0.000000
# 3 -0.001764 -0.008104 0.020933 0.000000 0.009236 0.000000
# 4 0.000000 0.000000 0.000000 0.036668 0.000000 -0.004549
# 5 0.000825 0.000454 0.009236 0.000000 0.025541 0.000000
# 6 0.000000 0.000000 0.000000 -0.004549 0.000000 0.020315
#
#
# Mechanical properties :
#
#
# Convention : Reuss Voigt Hill
#
# Bulk Modulus (GPa) = 51.55494 69.35017 60.45256
# Shear Modulus (GPa) = 31.59838 39.63662 35.61750
#
# Velocity S-wave (km/s) = 3.66292 4.10245 3.88890
# Velocity P-wave (km/s) = 6.30714 7.20325 6.77004
#
# Compressibility (1/GPa) = 0.01939678
#
# Stress axis : x y z
#
# Youngs Moduli (GPa) = 129.09190 63.92832 47.77223
#
# Poissons Ratio (x) = 0.16591 0.08425
# Poissons Ratio (y) = 0.33502 0.38713
# Poissons Ratio (z) = 0.22765 0.51806
#
# Static dielectric constant tensor:
#      x y z
#    x 1.908710 0.000000 0.000970 
#    y 0.000000 1.915560 0.000000 
#    z 0.000970 0.000000 1.969340 
# 
# From -- ./inp_files/44560.got.cif
#   From: 2010.05.17/outbox.cif.g08.bks.cpg/sg14_23_cif.got.tgz:44560.got - 2010.06.03 17:49:19.
