data_PCOD9250037
_publ_section_title
;
Structure prediction by ZEFSAII (Michael W. Deem and Ramdas Pophale) SiO2 
 PCOD9250037
Probable space group: P 21/C
;
_chemical_formula_sum "Si O2"
_cell_formula_units_Z 20
_cell_length_a 13.901539
_cell_length_b 10.045159
_cell_length_c 10.682983
_cell_angle_alpha 90.000000
_cell_angle_beta 148.959762
_cell_angle_gamma 90.000000
_cell_volume 769.234530
_symmetry_space_group_name_H-M "P 21/C"
_symmetry_group_IT_number 14
_symmetry_cell_setting 'monoclinic'
loop_
_space_group_symop_operation_xyz
x,y,z
-x,1/2+y,1/2-z
-x,-y,-z
x,1/2-y,1/2+z
loop_
_atom_site_type_symbol
_atom_site_label
_atom_site_fract_x
_atom_site_fract_y
_atom_site_fract_z
Si Si1 0.474981 0.161841 0.981129
Si Si2 0.677007 0.085646 0.585160
Si Si3 0.904294 0.868302 0.336169
Si Si4 0.803519 0.276932 0.015279
Si Si5 0.289096 0.499448 0.599959
O O1 0.566840 0.273670 0.992349
O O2 0.253535 0.183770 0.745941
O O3 0.593321 0.195385 0.236455
O O4 0.500000 0.000000 0.000000
O O5 0.835878 0.117809 0.661312
O O6 0.740621 0.015025 0.783986
O O7 0.513819 0.995325 0.343956
O O8 0.075084 0.783605 0.474689
O O9 0.000000 0.000000 0.500000
O O10 0.790818 0.887816 0.078917
O O11 0.808230 0.128543 0.068684
#
# Coordination Sequence:
#
# PCOD9250037 Si02
#       5
#     4   4   4   4   4
#     4  11  22  45  71  97 140 184 235 277 342 421
#     4  10  23  45  73  97 139 190 224 293 352 402
#     4  12  25  43  69 105 134 185 231 284 348 419
#     4  11  24  43  71 100 138 182 226 293 347 409
#     4  10  24  46  66 103 140 174 244 278 348 420
#
# _framework density 25.999872
#
# number of rings (size 3 to 8) (size 9 to 14) (size 15 to 20)
#    0.000    1.200    4.000    1.200    2.800    2.400 
#   10.800    0.000    0.000    0.000    0.000    0.000 
#    0.000    0.000    0.000    0.000    0.000    0.000 
#
# Total GULP energy -111591.167109 kJ/mol
# GULP energy per Si atom -5579.558355 kJ/mol
# Density = 2.594070 g / cm^3
# Si number density = 25.999872 Si / 1000 Ang^3
#
#
#
# Elastic Constant Matrix: (Units=GPa)
#
#
# Indices 1 2 3 4 5 6 
#
# 1 89.5651 11.5518 15.5566 0.0000 18.5527 0.0000
# 2 11.5518 87.7340 4.8725 0.0000 9.7015 0.0000
# 3 15.5566 4.8725 101.4173 0.0000 1.9785 0.0000
# 4 0.0000 0.0000 0.0000 24.4228 0.0000 -10.6983
# 5 18.5527 9.7015 1.9785 0.0000 44.9351 0.0000
# 6 0.0000 0.0000 0.0000 -10.6983 0.0000 31.4140
#
#
#
# Elastic Compliance Matrix: (Units=1/GPa)
#
#
# Indices 1 2 3 4 5 6 
#
# 1 0.012626 -0.001020 -0.001792 0.000000 -0.004914 0.000000
# 2 -0.001020 0.011786 -0.000369 0.000000 -0.002107 0.000000
# 3 -0.001792 -0.000369 0.010146 0.000000 0.000373 0.000000
# 4 0.000000 0.000000 0.000000 0.048125 0.000000 0.016389
# 5 -0.004914 -0.002107 0.000373 0.000000 0.024722 0.000000
# 6 0.000000 0.000000 0.000000 0.016389 0.000000 0.037414
#
#
# Mechanical properties :
#
#
# Convention : Reuss Voigt Hill
#
# Bulk Modulus (GPa) = 35.46498 38.07538 36.77018
# Shear Modulus (GPa) = 31.13771 36.60341 33.87056
#
# Velocity S-wave (km/s) = 3.46440 3.75618 3.61324
# Velocity P-wave (km/s) = 5.44728 5.78689 5.61965
#
# Compressibility (1/GPa) = 0.02819683
#
# Stress axis : x y z
#
# Youngs Moduli (GPa) = 79.20391 84.84760 98.56542
#
# Poissons Ratio (x) = 0.08650 0.17661
# Poissons Ratio (y) = 0.08075 0.03635
# Poissons Ratio (z) = 0.14192 0.03129
#
# Static dielectric constant tensor:
#      x y z
#    x 2.125840 0.000000 0.059560 
#    y 0.000000 1.963370 0.000000 
#    z 0.059560 0.000000 2.044520 
# 
# From -- ./inp_files/32406.got.cif
#   From: 2010.05.17/outbox.cif.g08.bks.cpg/sg14_17_cif.got.tgz:32406.got - 2010.06.03 17:49:19.
