data_PCOD9250574
_publ_section_title
;
Structure prediction by ZEFSAII (Michael W. Deem and Ramdas Pophale) SiO2 
 PCOD9250574
Probable space group: P 21/C
;
_chemical_formula_sum "Si O2"
_cell_formula_units_Z 32
_cell_length_a 8.414284
_cell_length_b 14.041865
_cell_length_c 12.285598
_cell_angle_alpha 90.000000
_cell_angle_beta 86.385785
_cell_angle_gamma 90.000000
_cell_volume 1448.683922
_symmetry_space_group_name_H-M "P 21/C"
_symmetry_group_IT_number 14
_symmetry_cell_setting 'monoclinic'
loop_
_space_group_symop_operation_xyz
x,y,z
-x,1/2+y,1/2-z
-x,-y,-z
x,1/2-y,1/2+z
loop_
_atom_site_type_symbol
_atom_site_label
_atom_site_fract_x
_atom_site_fract_y
_atom_site_fract_z
Si Si1 0.401654 0.424723 0.431727
Si Si2 0.916632 0.038446 0.111553
Si Si3 0.955658 0.391173 0.254673
Si Si4 0.524602 0.246665 0.507067
Si Si5 0.591624 0.113152 0.710931
Si Si6 0.579668 0.930056 0.584892
Si Si7 0.073724 0.397248 0.022470
Si Si8 0.110948 0.788523 0.019778
O O1 0.500000 0.500000 0.500000
O O2 0.253296 0.484187 0.389129
O O3 0.389020 0.328488 0.506566
O O4 0.495651 0.379953 0.325966
O O5 0.921676 0.150603 0.088653
O O6 0.014774 0.000455 0.209576
O O7 0.000000 0.000000 0.000000
O O8 0.780171 0.370609 0.216537
O O9 0.964502 0.334061 0.367591
O O10 0.079248 0.376749 0.151770
O O11 0.528392 0.183396 0.618362
O O12 0.513086 0.168459 0.411335
O O13 0.698190 0.292608 0.485397
O O14 0.580677 0.999829 0.685999
O O15 0.754003 0.899702 0.538166
O O16 0.500000 0.000000 0.500000
O O17 0.956907 0.316742 0.982866
O O18 0.000000 0.500000 0.000000
#
# Coordination Sequence:
#
# PCOD9250574 Si02
#       8
#     4   4   4   4   4   4   4   4
#     4  12  24  45  71 100 142 189 233 295 352 420
#     4  10  24  44  68 101 137 182 237 294 351 422
#     4  11  23  43  71  99 141 181 238 288 351 424
#     4  11  23  43  70 101 141 183 235 295 350 429
#     4  11  23  47  67 104 140 187 237 289 362 427
#     4  10  24  44  66  99 139 180 232 292 344 421
#     4  12  24  45  71  98 142 183 231 292 354 413
#     4  11  23  47  68 100 142 188 233 288 354 425
#
# _framework density 22.089012
#
# number of rings (size 3 to 8) (size 9 to 14) (size 15 to 20)
#    0.000    1.000    5.000    1.500    7.000    2.000 
#    2.250    0.000    0.000    0.000    0.000    0.000 
#    0.000    0.000    0.000    0.000    0.000    0.000 
#
# Total GULP energy -178459.125941 kJ/mol
# GULP energy per Si atom -5576.847686 kJ/mol
# Density = 2.203874 g / cm^3
# Si number density = 22.089012 Si / 1000 Ang^3
#
#
#
# Elastic Constant Matrix: (Units=GPa)
#
#
# Indices 1 2 3 4 5 6 
#
# 1 39.9450 1.6682 -0.5095 0.0000 -3.3914 0.0000
# 2 1.6682 138.9523 22.2189 0.0000 10.2489 0.0000
# 3 -0.5095 22.2189 78.0108 0.0000 -5.1197 0.0000
# 4 0.0000 0.0000 0.0000 39.2553 0.0000 11.8002
# 5 -3.3914 10.2489 -5.1197 0.0000 23.1232 0.0000
# 6 0.0000 0.0000 0.0000 11.8002 0.0000 40.6569
#
#
#
# Elastic Compliance Matrix: (Units=1/GPa)
#
#
# Indices 1 2 3 4 5 6 
#
# 1 0.025428 -0.000718 0.000645 0.000000 0.004191 0.000000
# 2 -0.000718 0.007919 -0.002534 0.000000 -0.004176 0.000000
# 3 0.000645 -0.002534 0.013826 0.000000 0.004279 0.000000
# 4 0.000000 0.000000 0.000000 0.027909 0.000000 -0.008100
# 5 0.004191 -0.004176 0.004279 0.000000 0.046660 0.000000
# 6 0.000000 0.000000 0.000000 -0.008100 0.000000 0.026947
#
#
# Mechanical properties :
#
#
# Convention : Reuss Voigt Hill
#
# Bulk Modulus (GPa) = 23.83215 33.74035 28.78625
# Shear Modulus (GPa) = 29.78183 36.17578 32.97880
#
# Velocity S-wave (km/s) = 3.67586 4.05127 3.86812
# Velocity P-wave (km/s) = 5.36921 6.09850 5.74544
#
# Compressibility (1/GPa) = 0.04196012
#
# Stress axis : x y z
#
# Youngs Moduli (GPa) = 39.32606 126.28562 72.32993
#
# Poissons Ratio (x) = 0.09062 -0.04669
# Poissons Ratio (y) = 0.02822 0.18329
# Poissons Ratio (z) = -0.02538 0.32002
#
# Static dielectric constant tensor:
#      x y z
#    x 1.929830 0.000000 0.143760 
#    y 0.000000 1.889830 0.000000 
#    z 0.143760 0.000000 1.918770 
# 
# From -- ./inp_files/25256.got.cif
#   From: 2010.05.17/outbox.cif.g08.bks.cpg/sg14_13_cif.got.tgz:25256.got - 2010.06.03 17:49:19.
