data_PCOD9250869
_publ_section_title
;
Structure prediction by ZEFSAII (Michael W. Deem and Ramdas Pophale) SiO2 
 PCOD9250869
Probable space group: P 21/C
;
_chemical_formula_sum "Si O2"
_cell_formula_units_Z 16
_cell_length_a 11.003080
_cell_length_b 7.573230
_cell_length_c 9.025261
_cell_angle_alpha 90.000000
_cell_angle_beta 75.209930
_cell_angle_gamma 90.000000
_cell_volume 727.146997
_symmetry_space_group_name_H-M "P 21/C"
_symmetry_group_IT_number 14
_symmetry_cell_setting 'monoclinic'
loop_
_space_group_symop_operation_xyz
x,y,z
-x,1/2+y,1/2-z
-x,-y,-z
x,1/2-y,1/2+z
loop_
_atom_site_type_symbol
_atom_site_label
_atom_site_fract_x
_atom_site_fract_y
_atom_site_fract_z
Si Si1 0.591159 0.869849 0.575448
Si Si2 0.743649 0.257492 0.324742
Si Si3 0.404021 0.952984 0.876704
Si Si4 0.854871 0.459904 0.025125
O O1 0.537240 0.912612 0.756836
O O2 0.596345 0.656289 0.575478
O O3 0.500000 0.000000 0.500000
O O4 0.737407 0.919403 0.507285
O O5 0.639643 0.333860 0.470966
O O6 0.689102 0.111406 0.227095
O O7 0.802431 0.401030 0.199783
O O8 0.850070 0.188610 0.400545
O O9 0.000000 0.500000 0.000000
#
# Coordination Sequence:
#
# PCOD9250869 Si02
#       4
#     4   4   4   4
#     4  12  27  44  74 109 147 191 243 305 365 430
#     4  10  24  48  72 110 146 194 242 308 360 437
#     4  11  25  45  78 109 146 187 253 302 367 428
#     4  11  26  46  70 104 146 191 243 295 367 434
#
# _framework density 22.003806000000001
#
# number of rings (size 3 to 8) (size 9 to 14) (size 15 to 20)
#    0.000    1.000    2.500    3.000    3.500    6.000 
#    0.000    5.000    0.000    0.000    0.000    0.000 
#    0.000    0.000    0.000    0.000    0.000    0.000 
#
# Total GULP energy -89086.844200 kJ/mol
# GULP energy per Si atom -5567.927763 kJ/mol
# Density = 2.195372 g / cm^3
# Si number density = 22.003806 Si / 1000 Ang^3
#
#
#
# Elastic Constant Matrix: (Units=GPa)
#
#
# Indices 1 2 3 4 5 6 
#
# 1 190.6855 69.5256 60.3131 0.0000 -6.6222 0.0000
# 2 69.5256 143.6254 50.1854 0.0000 18.7814 0.0000
# 3 60.3131 50.1854 151.4128 0.0000 25.6271 0.0000
# 4 0.0000 0.0000 0.0000 28.5727 0.0000 -1.6159
# 5 -6.6222 18.7814 25.6271 0.0000 18.1590 0.0000
# 6 0.0000 0.0000 0.0000 -1.6159 0.0000 28.7445
#
#
#
# Elastic Compliance Matrix: (Units=1/GPa)
#
#
# Indices 1 2 3 4 5 6 
#
# 1 0.008780 -0.004566 -0.004369 0.000000 0.014091 0.000000
# 2 -0.004566 0.010755 0.000550 0.000000 -0.013565 0.000000
# 3 -0.004369 0.000550 0.011205 0.000000 -0.017975 0.000000
# 4 0.000000 0.000000 0.000000 0.035110 0.000000 0.001974
# 5 0.014091 -0.013565 -0.017975 0.000000 0.099606 0.000000
# 6 0.000000 0.000000 0.000000 0.001974 0.000000 0.034900
#
#
# Mechanical properties :
#
#
# Convention : Reuss Voigt Hill
#
# Bulk Modulus (GPa) = 71.58314 93.97466 82.77890
# Shear Modulus (GPa) = 22.54462 35.47520 29.00991
#
# Velocity S-wave (km/s) = 3.20438 4.01961 3.63492
# Velocity P-wave (km/s) = 6.80393 8.02148 7.43766
#
# Compressibility (1/GPa) = 0.01396977
#
# Stress axis : x y z
#
# Youngs Moduli (GPa) = 113.89016 92.98334 89.24802
#
# Poissons Ratio (x) = 0.42460 0.38992
# Poissons Ratio (y) = 0.52007 -0.04911
# Poissons Ratio (z) = 0.49758 -0.05117
#
# Static dielectric constant tensor:
#      x y z
#    x 1.910430 0.000000 0.051320 
#    y 0.000000 1.984670 0.000000 
#    z 0.051320 0.000000 1.821670 
# 
# From -- ./inp_files/11579.got.cif
#   From: 2010.05.17/outbox.cif.g08.bks.cpg/sg14_6_cif.got.tgz:11579.got - 2010.06.03 17:49:19.
