data_PCOD9250833
_publ_section_title
;
Structure prediction by ZEFSAII (Michael W. Deem and Ramdas Pophale) SiO2 
 PCOD9250833
Probable space group: P 21/C
;
_chemical_formula_sum "Si O2"
_cell_formula_units_Z 16
_cell_length_a 5.766451
_cell_length_b 15.269816
_cell_length_c 7.867457
_cell_angle_alpha 90.000000
_cell_angle_beta 120.395566
_cell_angle_gamma 90.000000
_cell_volume 597.533820
_symmetry_space_group_name_H-M "P 21/C"
_symmetry_group_IT_number 14
_symmetry_cell_setting 'monoclinic'
loop_
_space_group_symop_operation_xyz
x,y,z
-x,1/2+y,1/2-z
-x,-y,-z
x,1/2-y,1/2+z
loop_
_atom_site_type_symbol
_atom_site_label
_atom_site_fract_x
_atom_site_fract_y
_atom_site_fract_z
Si Si1 0.417774 0.350725 0.022738
Si Si2 0.287085 0.041512 0.790785
Si Si3 0.023219 0.702022 0.647781
Si Si4 0.062437 0.424327 0.659945
O O1 0.415895 0.425631 0.164920
O O2 0.689061 0.297075 0.153893
O O3 0.364992 0.395234 0.819862
O O4 0.158666 0.287408 0.941041
O O5 0.156747 0.129989 0.820027
O O6 0.060889 0.965726 0.713938
O O7 0.500000 0.000000 0.000000
O O8 0.066506 0.659995 0.476777
O O9 0.000000 0.500000 0.500000
#
# Coordination Sequence:
#
# PCOD9250833 Si02
#       4
#     4   4   4   4
#     4  12  26  47  77 107 152 200 242 313 374 441
#     4  11  24  46  74 108 149 193 246 307 375 440
#     4  11  27  46  72 110 151 193 253 304 377 449
#     4  10  24  47  71 109 146 188 249 304 365 446
#
# _framework density 26.776727999999999
#
# number of rings (size 3 to 8) (size 9 to 14) (size 15 to 20)
#    0.000    1.000    2.500    2.250    3.500   10.000 
#    4.500    0.000    0.000    0.000    0.000    0.000 
#    0.000    0.000    0.000    0.000    0.000    0.000 
#
# Total GULP energy -89506.067293 kJ/mol
# GULP energy per Si atom -5594.129206 kJ/mol
# Density = 2.671578 g / cm^3
# Si number density = 26.776728 Si / 1000 Ang^3
#
#
#
# Elastic Constant Matrix: (Units=GPa)
#
#
# Indices 1 2 3 4 5 6 
#
# 1 62.6967 45.1373 51.9950 0.0000 16.7377 0.0000
# 2 45.1373 169.6351 74.4175 0.0000 16.2278 0.0000
# 3 51.9950 74.4175 227.0389 0.0000 41.6278 0.0000
# 4 0.0000 0.0000 0.0000 48.3832 0.0000 10.0184
# 5 16.7377 16.2278 41.6278 0.0000 41.5509 0.0000
# 6 0.0000 0.0000 0.0000 10.0184 0.0000 68.4758
#
#
#
# Elastic Compliance Matrix: (Units=1/GPa)
#
#
# Indices 1 2 3 4 5 6 
#
# 1 0.022713 -0.004313 -0.002963 0.000000 -0.004496 0.000000
# 2 -0.004313 0.007714 -0.001601 0.000000 0.000329 0.000000
# 3 -0.002963 -0.001601 0.006461 0.000000 -0.004654 0.000000
# 4 0.000000 0.000000 0.000000 0.021314 0.000000 -0.003118
# 5 -0.004496 0.000329 -0.004654 0.000000 0.030412 0.000000
# 6 0.000000 0.000000 0.000000 -0.003118 0.000000 0.015060
#
#
# Mechanical properties :
#
#
# Convention : Reuss Voigt Hill
#
# Bulk Modulus (GPa) = 52.26696 89.16335 70.71516
# Shear Modulus (GPa) = 39.12149 50.87003 44.99576
#
# Velocity S-wave (km/s) = 3.82648 4.36338 4.10372
# Velocity P-wave (km/s) = 6.25176 7.66528 6.99432
#
# Compressibility (1/GPa) = 0.01913254
#
# Stress axis : x y z
#
# Youngs Moduli (GPa) = 44.02759 129.64231 154.76886
#
# Poissons Ratio (x) = 0.55921 0.45865
# Poissons Ratio (y) = 0.18991 0.24774
# Poissons Ratio (z) = 0.13047 0.20752
#
# Static dielectric constant tensor:
#      x y z
#    x 2.329430 0.000000 -0.028170 
#    y 0.000000 2.110820 0.000000 
#    z -0.028170 0.000000 2.113510 
# 
# From -- ./inp_files/5160.got.cif
#   From: 2010.05.17/outbox.cif.g08.bks.cpg/sg14_3_cif.got.tgz:5160.got - 2010.06.03 17:49:19.
