data_PCOD9250567
_publ_section_title
;
Structure prediction by ZEFSAII (Michael W. Deem and Ramdas Pophale) SiO2 
 PCOD9250567
Probable space group: P 21/C
;
_chemical_formula_sum "Si O2"
_cell_formula_units_Z 32
_cell_length_a 8.707347
_cell_length_b 11.200596
_cell_length_c 16.809616
_cell_angle_alpha 90.000000
_cell_angle_beta 70.723772
_cell_angle_gamma 90.000000
_cell_volume 1547.491411
_symmetry_space_group_name_H-M "P 21/C"
_symmetry_group_IT_number 14
_symmetry_cell_setting 'monoclinic'
loop_
_space_group_symop_operation_xyz
x,y,z
-x,1/2+y,1/2-z
-x,-y,-z
x,1/2-y,1/2+z
loop_
_atom_site_type_symbol
_atom_site_label
_atom_site_fract_x
_atom_site_fract_y
_atom_site_fract_z
Si Si1 0.992070 0.672399 0.571719
Si Si2 0.350045 0.245494 0.413863
Si Si3 0.674659 0.005884 0.514407
Si Si4 0.860571 0.495351 0.324647
Si Si5 0.102510 0.598325 0.152527
Si Si6 0.562467 0.880240 0.946446
Si Si7 0.275365 0.740470 0.408073
Si Si8 0.680406 0.266884 0.282872
O O1 0.040013 0.561676 0.619051
O O2 0.018739 0.792504 0.619714
O O3 0.118229 0.684482 0.477714
O O4 0.807752 0.674868 0.574479
O O5 0.306573 0.106752 0.430897
O O6 0.425801 0.283514 0.485575
O O7 0.486322 0.265822 0.324176
O O8 0.500000 0.000000 0.500000
O O9 0.817407 0.007752 0.423875
O O10 0.693662 0.129184 0.558976
O O11 0.736835 0.595053 0.377620
O O12 0.750621 0.388258 0.308194
O O13 0.979374 0.541037 0.235808
O O14 0.250149 0.659408 0.175589
O O15 0.430417 0.839087 0.905268
O O16 0.500000 0.000000 0.000000
O O17 0.260109 0.751626 0.316767
#
# Coordination Sequence:
#
# PCOD9250567 Si02
#       8
#     4   4   4   4   4   4   4   4
#     4  10  25  44  64  99 135 169 223 276 333 399
#     4  12  25  43  70  99 131 174 229 271 332 398
#     4  11  22  45  71  93 129 177 220 271 329 395
#     4  11  25  45  67  95 138 178 219 276 337 395
#     4  10  24  44  66  93 135 172 220 275 329 394
#     4  12  23  45  68  92 134 180 210 266 339 397
#     4  11  25  43  68  98 133 174 220 273 336 394
#     4  11  25  44  63 100 136 167 222 284 328 394
#
# _framework density 20.678629000000001
#
# number of rings (size 3 to 8) (size 9 to 14) (size 15 to 20)
#    0.000    1.000    5.000    0.750    7.000    4.500 
#    0.000    0.000    0.000    0.000    0.000    0.000 
#    0.000    0.000    0.000    0.000    0.000    0.000 
#
# Total GULP energy -179087.517256 kJ/mol
# GULP energy per Si atom -5596.484914 kJ/mol
# Density = 2.063156 g / cm^3
# Si number density = 20.678629 Si / 1000 Ang^3
#
#
#
# Elastic Constant Matrix: (Units=GPa)
#
#
# Indices 1 2 3 4 5 6 
#
# 1 64.3090 -2.2242 15.7125 0.0000 -14.9617 0.0000
# 2 -2.2242 51.4630 10.4240 0.0000 -13.9805 0.0000
# 3 15.7125 10.4240 106.5701 0.0000 -19.7838 0.0000
# 4 0.0000 0.0000 0.0000 31.7246 0.0000 -4.4205
# 5 -14.9617 -13.9805 -19.7838 0.0000 43.0007 0.0000
# 6 0.0000 0.0000 0.0000 -4.4205 0.0000 16.8128
#
#
#
# Elastic Compliance Matrix: (Units=1/GPa)
#
#
# Indices 1 2 3 4 5 6 
#
# 1 0.017508 0.002790 -0.001700 0.000000 0.006217 0.000000
# 2 0.002790 0.021833 -0.001147 0.000000 0.007541 0.000000
# 3 -0.001700 -0.001147 0.010461 0.000000 0.003848 0.000000
# 4 0.000000 0.000000 0.000000 0.032720 0.000000 0.008603
# 5 0.006217 0.007541 0.003848 0.000000 0.029641 0.000000
# 6 0.000000 0.000000 0.000000 0.008603 0.000000 0.061740
#
#
# Mechanical properties :
#
#
# Convention : Reuss Voigt Hill
#
# Bulk Modulus (GPa) = 20.12578 30.01852 25.07215
# Shear Modulus (GPa) = 26.23570 31.53629 28.88599
#
# Velocity S-wave (km/s) = 3.56579 3.90945 3.74157
# Velocity P-wave (km/s) = 5.16788 5.90987 5.55128
#
# Compressibility (1/GPa) = 0.04968752
#
# Stress axis : x y z
#
# Youngs Moduli (GPa) = 57.11635 45.80211 95.59532
#
# Poissons Ratio (x) = -0.12778 0.16253
# Poissons Ratio (y) = -0.15935 0.10964
# Poissons Ratio (z) = 0.09711 0.05253
#
# Static dielectric constant tensor:
#      x y z
#    x 1.731030 0.000000 -0.001100 
#    y 0.000000 1.741780 0.000000 
#    z -0.001100 0.000000 1.700540 
# 
# From -- ./inp_files/40302.got.cif
#   From: 2010.05.17/outbox.cif.g08.bks.cpg/sg14_21_cif.got.tgz:40302.got - 2010.06.03 17:49:19.
