data_PCOD9250922
_publ_section_title
;
Structure prediction by ZEFSAII (Michael W. Deem and Ramdas Pophale) SiO2 
 PCOD9250922
Probable space group: P 21/C
;
_chemical_formula_sum "Si O2"
_cell_formula_units_Z 16
_cell_length_a 9.185884
_cell_length_b 4.790571
_cell_length_c 20.585309
_cell_angle_alpha 90.000000
_cell_angle_beta 34.921067
_cell_angle_gamma 90.000000
_cell_volume 518.562625
_symmetry_space_group_name_H-M "P 21/C"
_symmetry_group_IT_number 14
_symmetry_cell_setting 'monoclinic'
loop_
_space_group_symop_operation_xyz
x,y,z
-x,1/2+y,1/2-z
-x,-y,-z
x,1/2-y,1/2+z
loop_
_atom_site_type_symbol
_atom_site_label
_atom_site_fract_x
_atom_site_fract_y
_atom_site_fract_z
Si Si1 0.743894 0.325400 0.086444
Si Si2 0.570643 0.699182 0.035070
Si Si3 0.848828 0.668563 0.279485
Si Si4 0.933842 0.485059 0.627583
O O1 0.572545 0.517906 0.101651
O O2 0.711053 0.174823 0.168994
O O3 0.000000 0.500000 0.000000
O O4 0.609710 0.027768 0.888143
O O5 0.500000 0.500000 0.000000
O O6 0.852915 0.084207 0.001446
O O7 0.864601 0.717048 0.411109
O O8 0.079482 0.477853 0.221361
O O9 0.849317 0.749794 0.201790
#
# Coordination Sequence:
#
# PCOD9250922 Si02
#       4
#     4   4   4   4
#     4   9  21  46  87 117 161 228 286 358 459 532
#     4  11  26  51  90 130 176 239 302 374 469 543
#     4  12  31  48  81 136 181 231 310 380 454 554
#     4  10  24  51  86 122 171 230 295 376 450 546
#
# _framework density 30.854520000000001
#
# number of rings (size 3 to 8) (size 9 to 14) (size 15 to 20)
#    0.000    1.500    0.000    1.500   14.000    3.000 
#    0.000    0.000   16.500   27.000    0.000    0.000 
#    0.000    0.000    0.000    0.000    0.000    0.000 
#
# Total GULP energy -89334.264953 kJ/mol
# GULP energy per Si atom -5583.391560 kJ/mol
# Density = 3.078429 g / cm^3
# Si number density = 30.854520 Si / 1000 Ang^3
#
#
#
# Elastic Constant Matrix: (Units=GPa)
#
#
# Indices 1 2 3 4 5 6 
#
# 1 235.8307 106.1282 69.4500 0.0000 -0.1618 0.0000
# 2 106.1282 240.2978 69.1865 0.0000 17.3617 0.0000
# 3 69.4500 69.1865 155.4515 0.0000 17.1000 0.0000
# 4 0.0000 0.0000 0.0000 80.8637 0.0000 8.9138
# 5 -0.1618 17.3617 17.1000 0.0000 53.1220 0.0000
# 6 0.0000 0.0000 0.0000 8.9138 0.0000 99.3462
#
#
#
# Elastic Compliance Matrix: (Units=1/GPa)
#
#
# Indices 1 2 3 4 5 6 
#
# 1 0.005705 -0.002107 -0.001751 0.000000 0.001270 0.000000
# 2 -0.002107 0.005594 -0.001396 0.000000 -0.001385 0.000000
# 3 -0.001751 -0.001396 0.008072 0.000000 -0.002148 0.000000
# 4 0.000000 0.000000 0.000000 0.012490 0.000000 -0.001121
# 5 0.001270 -0.001385 -0.002148 0.000000 0.019973 0.000000
# 6 0.000000 0.000000 0.000000 -0.001121 0.000000 0.010166
#
#
# Mechanical properties :
#
#
# Convention : Reuss Voigt Hill
#
# Bulk Modulus (GPa) = 112.81458 124.56769 118.69114
# Shear Modulus (GPa) = 66.25748 72.45408 69.35578
#
# Velocity S-wave (km/s) = 4.63905 4.85113 4.74627
# Velocity P-wave (km/s) = 8.08314 8.47574 8.28177
#
# Compressibility (1/GPa) = 0.00886410
#
# Stress axis : x y z
#
# Youngs Moduli (GPa) = 175.28222 178.75516 123.87763
#
# Poissons Ratio (x) = 0.37670 0.21685
# Poissons Ratio (y) = 0.36939 0.17292
# Poissons Ratio (z) = 0.30684 0.24953
#
# Static dielectric constant tensor:
#      x y z
#    x 4.685660 0.000000 0.410510 
#    y 0.000000 -1.376840 0.000000 
#    z 0.410510 0.000000 2.703280 
# 
# From -- ./inp_files/53856.got.cif
#   From: 2010.05.17/outbox.cif.g08.bks.cpg/sg14_27_cif.got.tgz:53856.got - 2010.06.03 17:49:19.
