data_PCOD9250278
_publ_section_title
;
Structure prediction by ZEFSAII (Michael W. Deem and Ramdas Pophale) SiO2 
 PCOD9250278
Probable space group: P 21/C
;
_chemical_formula_sum "Si O2"
_cell_formula_units_Z 32
_cell_length_a 17.995516
_cell_length_b 4.806149
_cell_length_c 22.713116
_cell_angle_alpha 90.000000
_cell_angle_beta 144.202589
_cell_angle_gamma 90.000000
_cell_volume 1149.040896
_symmetry_space_group_name_H-M "P 21/C"
_symmetry_group_IT_number 14
_symmetry_cell_setting 'monoclinic'
loop_
_space_group_symop_operation_xyz
x,y,z
-x,1/2+y,1/2-z
-x,-y,-z
x,1/2-y,1/2+z
loop_
_atom_site_type_symbol
_atom_site_label
_atom_site_fract_x
_atom_site_fract_y
_atom_site_fract_z
Si Si1 0.887482 0.602212 0.850812
Si Si2 0.686076 0.380886 0.595878
Si Si3 0.663596 0.922736 0.499931
Si Si4 0.862713 0.245750 0.542286
Si Si5 0.225948 0.389410 0.620813
Si Si6 0.282536 0.910811 0.272662
Si Si7 0.434841 0.250070 0.182722
Si Si8 0.974140 0.351706 0.273201
O O1 0.887347 0.751017 0.914334
O O2 0.822875 0.308458 0.816772
O O3 0.016694 0.564037 0.899444
O O4 0.793541 0.812883 0.753437
O O5 0.638845 0.274642 0.630481
O O6 0.689499 0.677676 0.565003
O O7 0.609235 0.176133 0.503161
O O8 0.833473 0.270084 0.695905
O O9 0.579332 0.784158 0.395340
O O10 0.956390 0.892424 0.717009
O O11 0.766164 0.095211 0.524572
O O12 0.814484 0.376882 0.450476
O O13 0.930501 0.507770 0.619071
O O14 0.325374 0.473323 0.736833
O O15 0.301294 0.176593 0.628062
O O16 0.536383 0.434330 0.281957
#
# Coordination Sequence:
#
# PCOD9250278 Si02
#       8
#     4   4   4   4   4   4   4   4
#     4  10  24  40  66 102 148 201 238 278 350 427
#     4  12  24  45  65 100 154 198 251 281 350 430
#     4  12  28  45  73 107 143 196 242 312 360 444
#     4  12  25  44  69 107 158 195 255 286 358 424
#     4  10  26  47  74 109 144 193 249 312 369 438
#     4  10  24  42  67 101 143 207 240 291 338 427
#     4  12  28  52  81 107 138 177 243 330 408 443
#     4  12  26  36  55  94 144 206 235 279 326 412
#
# _framework density 27.849312999999999
#
# number of rings (size 3 to 8) (size 9 to 14) (size 15 to 20)
#    0.750    0.000    2.500    4.125    7.000    2.500 
#    0.000    0.000    0.000    4.500    0.000    0.000 
#    0.000    0.000    0.000    0.000    0.000    0.000 
#
# Total GULP energy -178827.062039 kJ/mol
# GULP energy per Si atom -5588.345689 kJ/mol
# Density = 2.778593 g / cm^3
# Si number density = 27.849313 Si / 1000 Ang^3
#
#
#
# Elastic Constant Matrix: (Units=GPa)
#
#
# Indices 1 2 3 4 5 6 
#
# 1 71.5632 2.6926 29.4258 0.0000 -31.1605 0.0000
# 2 2.6926 115.3295 -1.2227 0.0000 -5.0808 0.0000
# 3 29.4258 -1.2227 77.8304 0.0000 -43.7878 0.0000
# 4 0.0000 0.0000 0.0000 44.5525 0.0000 -12.0200
# 5 -31.1605 -5.0808 -43.7878 0.0000 52.5697 0.0000
# 6 0.0000 0.0000 0.0000 -12.0200 0.0000 35.4762
#
#
#
# Elastic Compliance Matrix: (Units=1/GPa)
#
#
# Indices 1 2 3 4 5 6 
#
# 1 0.018939 -0.000023 -0.001592 0.000000 0.009897 0.000000
# 2 -0.000023 0.008763 0.001158 0.000000 0.001798 0.000000
# 3 -0.001592 0.001158 0.024466 0.000000 0.019547 0.000000
# 4 0.000000 0.000000 0.000000 0.024704 0.000000 0.008370
# 5 0.009897 0.001798 0.019547 0.000000 0.041344 0.000000
# 6 0.000000 0.000000 0.000000 0.008370 0.000000 0.031024
#
#
# Mechanical properties :
#
#
# Convention : Reuss Voigt Hill
#
# Bulk Modulus (GPa) = 19.51149 36.27940 27.89544
# Shear Modulus (GPa) = 29.89745 42.10817 36.00281
#
# Velocity S-wave (km/s) = 3.28005 3.89266 3.59941
# Velocity P-wave (km/s) = 4.62237 5.76707 5.22615
#
# Compressibility (1/GPa) = 0.05125187
#
# Stress axis : x y z
#
# Youngs Moduli (GPa) = 52.80151 114.11868 40.87349
#
# Poissons Ratio (x) = 0.00263 0.06509
# Poissons Ratio (y) = 0.00122 -0.04732
# Poissons Ratio (z) = 0.08408 -0.13211
#
# Static dielectric constant tensor:
#      x y z
#    x 2.238430 0.000000 0.063340 
#    y 0.000000 2.147760 0.000000 
#    z 0.063340 0.000000 2.349450 
# 
# From -- ./inp_files/74542.got.cif
#   From: 2010.05.17/outbox.cif.g08.bks.cpg/sg14_38_cif.got.tgz:74542.got - 2010.06.03 17:49:19.
