data_PCOD9250422
_publ_section_title
;
Structure prediction by ZEFSAII (Michael W. Deem and Ramdas Pophale) SiO2 
 PCOD9250422
Probable space group: P 21/C
;
_chemical_formula_sum "Si O2"
_cell_formula_units_Z 32
_cell_length_a 8.021742
_cell_length_b 30.318282
_cell_length_c 8.964316
_cell_angle_alpha 90.000000
_cell_angle_beta 128.356330
_cell_angle_gamma 90.000000
_cell_volume 1709.616925
_symmetry_space_group_name_H-M "P 21/C"
_symmetry_group_IT_number 14
_symmetry_cell_setting 'monoclinic'
loop_
_space_group_symop_operation_xyz
x,y,z
-x,1/2+y,1/2-z
-x,-y,-z
x,1/2-y,1/2+z
loop_
_atom_site_type_symbol
_atom_site_label
_atom_site_fract_x
_atom_site_fract_y
_atom_site_fract_z
Si Si1 0.270114 0.245936 0.790698
Si Si2 0.178469 0.008753 0.478721
Si Si3 0.431649 0.478690 0.616172
Si Si4 0.397293 0.402749 0.019207
Si Si5 0.974916 0.696266 0.589766
Si Si6 0.784448 0.897581 0.911638
Si Si7 0.820719 0.457712 0.323502
Si Si8 0.487879 0.805622 0.330474
O O1 0.407002 0.276934 0.977512
O O2 0.430175 0.216848 0.777515
O O3 0.107462 0.217866 0.802258
O O4 0.127230 0.274757 0.599367
O O5 0.384574 0.984344 0.659587
O O6 0.125850 0.986011 0.293426
O O7 0.231803 0.060582 0.489041
O O8 0.000000 0.000000 0.500000
O O9 0.500000 0.500000 0.500000
O O10 0.362081 0.428073 0.564053
O O11 0.249707 0.508569 0.588203
O O12 0.334123 0.394301 0.812362
O O13 0.419127 0.355296 0.108812
O O14 0.621794 0.427273 0.165076
O O15 0.861215 0.648867 0.515256
O O16 0.230996 0.693602 0.710655
O O17 0.997233 0.926292 0.015056
#
# Coordination Sequence:
#
# PCOD9250422 Si02
#       8
#     4   4   4   4   4   4   4   4
#     4  10  24  42  69  97 126 165 207 263 325 392
#     4  11  23  40  61  89 126 172 212 259 315 371
#     4  11  23  38  61  91 125 164 214 262 309 371
#     4  11  22  41  62  90 126 164 210 260 312 369
#     4  11  23  42  69  96 127 167 211 257 329 383
#     4  12  22  39  66  90 124 166 211 258 313 370
#     4  11  22  41  62  83 125 169 206 258 309 366
#     4  11  22  44  67  94 133 161 208 267 319 383
#
# _framework density 18.717644
#
# number of rings (size 3 to 8) (size 9 to 14) (size 15 to 20)
#    0.000    1.000    5.000    2.625    1.750    3.000 
#    0.000    0.000    2.750    0.000    0.000    0.000 
#    0.000    0.000    0.000    0.000    0.000    0.000 
#
# Total GULP energy -178672.239707 kJ/mol
# GULP energy per Si atom -5583.507491 kJ/mol
# Density = 1.867504 g / cm^3
# Si number density = 18.717644 Si / 1000 Ang^3
#
#
#
# Elastic Constant Matrix: (Units=GPa)
#
#
# Indices 1 2 3 4 5 6 
#
# 1 73.5680 44.1255 11.4090 0.0000 -14.1086 0.0000
# 2 44.1255 141.1992 23.3245 0.0000 -4.8284 0.0000
# 3 11.4090 23.3245 73.8803 0.0000 0.9788 0.0000
# 4 0.0000 0.0000 0.0000 31.5440 0.0000 2.0708
# 5 -14.1086 -4.8284 0.9788 0.0000 33.8369 0.0000
# 6 0.0000 0.0000 0.0000 2.0708 0.0000 20.0298
#
#
#
# Elastic Compliance Matrix: (Units=1/GPa)
#
#
# Indices 1 2 3 4 5 6 
#
# 1 0.018269 -0.005267 -0.001250 0.000000 0.006902 0.000000
# 2 -0.005267 0.009034 -0.002028 0.000000 -0.000848 0.000000
# 3 -0.001250 -0.002028 0.014385 0.000000 -0.001227 0.000000
# 4 0.000000 0.000000 0.000000 0.031918 0.000000 -0.003300
# 5 0.006902 -0.000848 -0.001227 0.000000 0.032346 0.000000
# 6 0.000000 0.000000 0.000000 -0.003300 0.000000 0.050267
#
#
# Mechanical properties :
#
#
# Convention : Reuss Voigt Hill
#
# Bulk Modulus (GPa) = 40.65097 49.59618 45.12358
# Shear Modulus (GPa) = 27.54706 31.06803 29.30754
#
# Velocity S-wave (km/s) = 3.84046 4.07852 3.96128
# Velocity P-wave (km/s) = 6.43666 6.98095 6.71432
#
# Compressibility (1/GPa) = 0.02459966
#
# Stress axis : x y z
#
# Youngs Moduli (GPa) = 54.73640 110.69289 69.51789
#
# Poissons Ratio (x) = 0.58299 0.08689
# Poissons Ratio (y) = 0.28828 0.14095
# Poissons Ratio (z) = 0.06842 0.22443
#
# Static dielectric constant tensor:
#      x y z
#    x 1.631840 0.000000 0.012340 
#    y 0.000000 1.638950 0.000000 
#    z 0.012340 0.000000 1.643370 
# 
# From -- ./inp_files/11083.got.cif
#   From: 2010.05.17/outbox.cif.g08.bks.cpg/sg14_6_cif.got.tgz:11083.got - 2010.06.03 17:49:19.
