data_PCOD9250940
_publ_section_title
;
Structure prediction by ZEFSAII (Michael W. Deem and Ramdas Pophale) SiO2 
 PCOD9250940
Probable space group: P 21/C
;
_chemical_formula_sum "Si O2"
_cell_formula_units_Z 28
_cell_length_a 6.104453
_cell_length_b 10.753605
_cell_length_c 20.468489
_cell_angle_alpha 90.000000
_cell_angle_beta 62.785878
_cell_angle_gamma 90.000000
_cell_volume 1194.914164
_symmetry_space_group_name_H-M "P 21/C"
_symmetry_group_IT_number 14
_symmetry_cell_setting 'monoclinic'
loop_
_space_group_symop_operation_xyz
x,y,z
-x,1/2+y,1/2-z
-x,-y,-z
x,1/2-y,1/2+z
loop_
_atom_site_type_symbol
_atom_site_label
_atom_site_fract_x
_atom_site_fract_y
_atom_site_fract_z
Si Si1 0.807663 0.260383 0.948445
Si Si2 0.141861 0.030448 0.727368
Si Si3 0.214337 0.740408 0.255375
Si Si4 0.921320 0.260481 0.576346
Si Si5 0.305335 0.369322 0.339111
Si Si6 0.382132 0.096896 0.967697
Si Si7 0.246042 0.472326 0.069763
O O1 0.559699 0.217434 0.946710
O O2 0.893910 0.397770 0.918748
O O3 0.031993 0.174821 0.895046
O O4 0.761538 0.250819 0.032541
O O5 0.292006 0.062322 0.772096
O O6 0.921813 0.131771 0.749194
O O7 0.088635 0.882734 0.741747
O O8 0.288910 0.050858 0.640353
O O9 0.497467 0.758391 0.195900
O O10 0.197899 0.726712 0.336292
O O11 0.115792 0.368558 0.532070
O O12 0.088228 0.136810 0.560201
O O13 0.380615 0.446882 0.393091
O O14 0.500000 0.000000 0.000000
O O15 0.500000 0.500000 0.000000
#
# Coordination Sequence:
#
# PCOD9250940 Si02
#       7
#     4   4   4   4   4   4   4
#     4  11  24  45  72  99 141 182 229 288 352 420
#     4  11  26  46  72 102 147 185 239 294 355 421
#     4  11  27  46  71 108 143 187 240 294 356 419
#     4  10  25  41  71 106 133 183 232 285 350 415
#     4  11  26  44  69 103 139 185 232 287 359 416
#     4  11  25  43  70  99 136 180 232 289 341 414
#     4  11  22  43  71  99 141 180 229 284 346 421
#
# _framework density 23.432644
#
# number of rings (size 3 to 8) (size 9 to 14) (size 15 to 20)
#    0.000    1.143    1.429    3.000   10.000    4.571 
#    0.000    0.000    0.000    0.000    0.000    0.000 
#    0.000    0.000    0.000    0.000    0.000    0.000 
#
# Total GULP energy -156597.298627 kJ/mol
# GULP energy per Si atom -5592.760665 kJ/mol
# Density = 2.337931 g / cm^3
# Si number density = 23.432644 Si / 1000 Ang^3
#
#
#
# Elastic Constant Matrix: (Units=GPa)
#
#
# Indices 1 2 3 4 5 6 
#
# 1 53.7980 4.6126 51.0456 0.0000 13.9619 0.0000
# 2 4.6126 80.5970 4.1926 0.0000 -2.4342 0.0000
# 3 51.0456 4.1926 145.7008 0.0000 28.3620 0.0000
# 4 0.0000 0.0000 0.0000 28.4869 0.0000 3.1734
# 5 13.9619 -2.4342 28.3620 0.0000 41.3129 0.0000
# 6 0.0000 0.0000 0.0000 3.1734 0.0000 26.3712
#
#
#
# Elastic Compliance Matrix: (Units=1/GPa)
#
#
# Indices 1 2 3 4 5 6 
#
# 1 0.028322 -0.001240 -0.009245 0.000000 -0.003298 0.000000
# 2 -0.001240 0.012526 -0.000175 0.000000 0.001277 0.000000
# 3 -0.009245 -0.000175 0.010967 0.000000 -0.004415 0.000000
# 4 0.000000 0.000000 0.000000 0.035581 0.000000 -0.004282
# 5 -0.003298 0.001277 -0.004415 0.000000 0.028426 0.000000
# 6 0.000000 0.000000 0.000000 -0.004282 0.000000 0.038435
#
#
# Mechanical properties :
#
#
# Convention : Reuss Voigt Hill
#
# Bulk Modulus (GPa) = 32.79074 44.42194 38.60634
# Shear Modulus (GPa) = 26.91920 33.91717 30.41818
#
# Velocity S-wave (km/s) = 3.39306 3.80864 3.60684
# Velocity P-wave (km/s) = 5.41982 6.19189 5.81867
#
# Compressibility (1/GPa) = 0.03049641
#
# Stress axis : x y z
#
# Youngs Moduli (GPa) = 35.30811 79.83385 91.18535
#
# Poissons Ratio (x) = 0.09896 0.84300
# Poissons Ratio (y) = 0.04377 0.01593
# Poissons Ratio (z) = 0.32642 0.01395
#
# Static dielectric constant tensor:
#      x y z
#    x 1.882420 0.000000 0.013530 
#    y 0.000000 1.978780 0.000000 
#    z 0.013530 0.000000 1.858910 
# 
# From -- ./inp_files/63287.got.cif
#   From: 2010.05.17/outbox.cif.g08.bks.cpg/sg14_32_cif.got.tgz:63287.got - 2010.06.03 17:49:19.
