data_PCOD9250489
_publ_section_title
;
Structure prediction by ZEFSAII (Michael W. Deem and Ramdas Pophale) SiO2 
 PCOD9250489
Probable space group: P 21/C
;
_chemical_formula_sum "Si O2"
_cell_formula_units_Z 32
_cell_length_a 5.363454
_cell_length_b 24.196910
_cell_length_c 10.766529
_cell_angle_alpha 90.000000
_cell_angle_beta 99.097972
_cell_angle_gamma 90.000000
_cell_volume 1379.691032
_symmetry_space_group_name_H-M "P 21/C"
_symmetry_group_IT_number 14
_symmetry_cell_setting 'monoclinic'
loop_
_space_group_symop_operation_xyz
x,y,z
-x,1/2+y,1/2-z
-x,-y,-z
x,1/2-y,1/2+z
loop_
_atom_site_type_symbol
_atom_site_label
_atom_site_fract_x
_atom_site_fract_y
_atom_site_fract_z
Si Si1 0.735777 0.001483 0.608627
Si Si2 0.999833 0.013446 0.144080
Si Si3 0.629745 0.828207 0.816889
Si Si4 0.325855 0.609546 0.465153
Si Si5 0.045998 0.404168 0.035132
Si Si6 0.075974 0.810266 0.660249
Si Si7 0.302942 0.093682 0.799104
Si Si8 0.054764 0.308451 0.444560
O O1 0.901524 0.950962 0.565194
O O2 0.500000 0.000000 0.500000
O O3 0.744890 0.987963 0.755116
O O4 0.838801 0.063531 0.599811
O O5 0.828091 0.965370 0.189395
O O6 0.857865 0.071527 0.129160
O O7 0.000000 0.000000 0.000000
O O8 0.568720 0.882011 0.895981
O O9 0.846188 0.829515 0.731509
O O10 0.733922 0.790181 0.937427
O O11 0.357515 0.815803 0.737388
O O12 0.432819 0.589435 0.606282
O O13 0.169374 0.663807 0.492585
O O14 0.277602 0.395475 0.149768
O O15 0.951850 0.348752 0.963327
O O16 0.033720 0.745860 0.631301
O O17 0.159362 0.144621 0.858124
#
# Coordination Sequence:
#
# PCOD9250489 Si02
#       8
#     4   4   4   4   4   4   4   4
#     4  10  24  43  68  97 146 188 242 305 365 441
#     4  11  22  42  70 109 144 193 247 303 374 442
#     4  11  27  49  71 107 140 189 247 301 363 429
#     4  11  23  45  75 102 148 188 247 307 368 433
#     4  10  25  45  63 103 141 194 241 294 370 438
#     4  12  28  46  76 103 145 194 245 296 373 439
#     4  10  24  43  67 104 147 188 242 302 366 437
#     4  11  26  46  71 108 141 187 240 310 356 438
#
# _framework density 23.193597
#
# number of rings (size 3 to 8) (size 9 to 14) (size 15 to 20)
#    0.000    1.250    2.500    1.125    8.750    0.000 
#    2.250    0.000    0.000    0.000    0.000    0.000 
#    0.000    0.000    0.000    0.000    0.000    0.000 
#
# Total GULP energy -178531.376415 kJ/mol
# GULP energy per Si atom -5579.105513 kJ/mol
# Density = 2.314081 g / cm^3
# Si number density = 23.193597 Si / 1000 Ang^3
#
#
#
# Elastic Constant Matrix: (Units=GPa)
#
#
# Indices 1 2 3 4 5 6 
#
# 1 93.7265 27.4027 56.6253 0.0000 16.8054 0.0000
# 2 27.4027 109.1026 35.7446 0.0000 -2.8694 0.0000
# 3 56.6253 35.7446 175.1991 0.0000 27.8979 0.0000
# 4 0.0000 0.0000 0.0000 24.3588 0.0000 5.9960
# 5 16.8054 -2.8694 27.8979 0.0000 38.4869 0.0000
# 6 0.0000 0.0000 0.0000 5.9960 0.0000 19.9627
#
#
#
# Elastic Compliance Matrix: (Units=1/GPa)
#
#
# Indices 1 2 3 4 5 6 
#
# 1 0.014192 -0.002536 -0.003451 0.000000 -0.003885 0.000000
# 2 -0.002536 0.010488 -0.001832 0.000000 0.003218 0.000000
# 3 -0.003451 -0.001832 0.007889 0.000000 -0.004349 0.000000
# 4 0.000000 0.000000 0.000000 0.044331 0.000000 -0.013315
# 5 -0.003885 0.003218 -0.004349 0.000000 0.031071 0.000000
# 6 0.000000 0.000000 0.000000 -0.013315 0.000000 0.054093
#
#
# Mechanical properties :
#
#
# Convention : Reuss Voigt Hill
#
# Bulk Modulus (GPa) = 59.06553 68.61925 63.84239
# Shear Modulus (GPa) = 27.27081 33.77873 30.52477
#
# Velocity S-wave (km/s) = 3.43270 3.82040 3.63173
# Velocity P-wave (km/s) = 6.42128 7.00787 6.72098
#
# Compressibility (1/GPa) = 0.01693035
#
# Stress axis : x y z
#
# Youngs Moduli (GPa) = 70.46066 95.35056 126.75124
#
# Poissons Ratio (x) = 0.24182 0.43742
# Poissons Ratio (y) = 0.17870 0.23225
# Poissons Ratio (z) = 0.24316 0.17472
#
# Static dielectric constant tensor:
#      x y z
#    x 1.939610 0.000000 -0.000900 
#    y 0.000000 1.807820 0.000000 
#    z -0.000900 0.000000 1.917990 
# 
# From -- ./inp_files/22198.got.cif
#   From: 2010.05.17/outbox.cif.g08.bks.cpg/sg14_12_cif.got.tgz:22198.got - 2010.06.03 17:49:19.
