data_PCOD9250862
_publ_section_title
;
Structure prediction by ZEFSAII (Michael W. Deem and Ramdas Pophale) SiO2 
 PCOD9250862
Probable space group: P 21/C
;
_chemical_formula_sum "Si O2"
_cell_formula_units_Z 26
_cell_length_a 11.661078
_cell_length_b 4.929770
_cell_length_c 23.206817
_cell_angle_alpha 90.000000
_cell_angle_beta 48.302131
_cell_angle_gamma 90.000000
_cell_volume 996.105922
_symmetry_space_group_name_H-M "P 21/C"
_symmetry_group_IT_number 14
_symmetry_cell_setting 'monoclinic'
loop_
_space_group_symop_operation_xyz
x,y,z
-x,1/2+y,1/2-z
-x,-y,-z
x,1/2-y,1/2+z
loop_
_atom_site_type_symbol
_atom_site_label
_atom_site_fract_x
_atom_site_fract_y
_atom_site_fract_z
Si Si1 0.633514 0.729822 0.881446
Si Si2 0.108724 0.807760 0.353110
Si Si3 0.269460 0.760422 0.089276
Si Si4 0.406326 0.512614 0.296699
Si Si5 0.000000 0.500000 0.000000
Si Si6 0.068237 0.324606 0.296637
Si Si7 0.689591 0.271985 0.555808
O O1 0.661436 0.535767 0.926233
O O2 0.782801 0.708530 0.791575
O O3 0.480146 0.648090 0.898954
O O4 0.631110 0.034644 0.905881
O O5 0.274281 0.670664 0.305762
O O6 0.041173 0.633355 0.324433
O O7 0.099091 0.125891 0.341512
O O8 0.015616 0.777215 0.442786
O O9 0.096970 0.741544 0.171827
O O10 0.261427 0.849927 0.025484
O O11 0.450290 0.218518 0.258655
O O12 0.348074 0.507017 0.382035
O O13 0.175981 0.586264 0.963285
#
# Coordination Sequence:
#
# PCOD9250862 Si02
#       7
#     4   4   4   4   2   4   4
#     4  12  26  46  74 108 147 196 247 307 365 440
#     4  11  23  43  70 102 141 185 240 293 370 438
#     4  12  26  47  72 109 148 192 247 305 376 436
#     4  11  24  44  69 105 142 187 239 299 366 438
#     4  10  24  48  70 108 142 194 234 310 368 444
#     4  12  24  46  74 105 145 194 245 303 368 439
#     4  11  25  47  75 108 149 194 245 308 372 443
#
# _framework density 26.101642999999999
#
# number of rings (size 3 to 8) (size 9 to 14) (size 15 to 20)
#    0.000    0.615    1.538    6.462    0.000    3.077 
#    2.769    0.000    0.000    0.000    0.000    0.000 
#    0.000    0.000    0.000    0.000    0.000    0.000 
#
# Total GULP energy -145077.548952 kJ/mol
# GULP energy per Si atom -5579.905729 kJ/mol
# Density = 2.604223 g / cm^3
# Si number density = 26.101643 Si / 1000 Ang^3
#
#
#
# Elastic Constant Matrix: (Units=GPa)
#
#
# Indices 1 2 3 4 5 6 
#
# 1 125.5468 4.4699 14.4893 0.0000 -26.4215 0.0000
# 2 4.4699 79.7409 5.9863 0.0000 -5.1267 0.0000
# 3 14.4893 5.9863 105.2068 0.0000 -14.0842 0.0000
# 4 0.0000 0.0000 0.0000 20.1348 0.0000 4.8717
# 5 -26.4215 -5.1267 -14.0842 0.0000 51.6777 0.0000
# 6 0.0000 0.0000 0.0000 4.8717 0.0000 26.3330
#
#
#
# Elastic Compliance Matrix: (Units=1/GPa)
#
#
# Indices 1 2 3 4 5 6 
#
# 1 0.008970 -0.000172 -0.000637 0.000000 0.004395 0.000000
# 2 -0.000172 0.012658 -0.000561 0.000000 0.001015 0.000000
# 3 -0.000637 -0.000561 0.009936 0.000000 0.002327 0.000000
# 4 0.000000 0.000000 0.000000 0.051992 0.000000 -0.009619
# 5 0.004395 0.001015 0.002327 0.000000 0.022333 0.000000
# 6 0.000000 0.000000 0.000000 -0.009619 0.000000 0.039755
#
#
# Mechanical properties :
#
#
# Convention : Reuss Voigt Hill
#
# Bulk Modulus (GPa) = 34.69409 40.04282 37.36846
# Shear Modulus (GPa) = 31.64727 38.66571 35.15649
#
# Velocity S-wave (km/s) = 3.48582 3.85301 3.67400
# Velocity P-wave (km/s) = 5.43342 5.93032 5.68730
#
# Compressibility (1/GPa) = 0.02882336
#
# Stress axis : x y z
#
# Youngs Moduli (GPa) = 111.48488 79.00382 100.64206
#
# Poissons Ratio (x) = 0.01362 0.06412
# Poissons Ratio (y) = 0.01922 0.05642
# Poissons Ratio (z) = 0.07103 0.04429
#
# Static dielectric constant tensor:
#      x y z
#    x 2.041760 0.000000 -0.003800 
#    y 0.000000 1.928010 0.000000 
#    z -0.003800 0.000000 2.080890 
# 
# From -- ./inp_files/72734.got.cif
#   From: 2010.05.17/outbox.cif.g08.bks.cpg/sg14_37_cif.got.tgz:72734.got - 2010.06.03 17:49:19.
