data_PCOD9250880
_publ_section_title
;
Structure prediction by ZEFSAII (Michael W. Deem and Ramdas Pophale) SiO2 
 PCOD9250880
Probable space group: P 21/C
;
_chemical_formula_sum "Si O2"
_cell_formula_units_Z 18
_cell_length_a 5.448396
_cell_length_b 15.524672
_cell_length_c 7.586483
_cell_angle_alpha 90.000000
_cell_angle_beta 86.804069
_cell_angle_gamma 90.000000
_cell_volume 640.701314
_symmetry_space_group_name_H-M "P 21/C"
_symmetry_group_IT_number 14
_symmetry_cell_setting 'monoclinic'
loop_
_space_group_symop_operation_xyz
x,y,z
-x,1/2+y,1/2-z
-x,-y,-z
x,1/2-y,1/2+z
loop_
_atom_site_type_symbol
_atom_site_label
_atom_site_fract_x
_atom_site_fract_y
_atom_site_fract_z
Si Si1 0.254277 0.070694 0.377356
Si Si2 0.566487 0.336532 0.585434
Si Si3 0.933138 0.735540 0.289599
Si Si4 0.500000 0.000000 0.000000
Si Si5 0.123856 0.067210 0.754439
O O1 0.474198 0.085540 0.225981
O O2 0.096254 0.158733 0.353730
O O3 0.683567 0.935720 0.420972
O O4 0.088473 0.992961 0.317924
O O5 0.325318 0.277989 0.593955
O O6 0.604163 0.401990 0.427528
O O7 0.806914 0.286831 0.631406
O O8 0.934431 0.832342 0.224379
O O9 0.768269 0.970982 0.071900
#
# Coordination Sequence:
#
# PCOD9250880 Si02
#       5
#     4   4   4   2   4
#     4   9  24  50  73 114 149 214 253 314 386 482
#     4  10  24  48  74 109 158 189 270 303 395 443
#     4  10  24  49  72 113 149 207 255 324 366 479
#     4  12  24  46  76 116 150 204 248 334 368 464
#     4  11  24  48  80 110 159 203 260 321 396 448
#
# _framework density 28.094213
#
# number of rings (size 3 to 8) (size 9 to 14) (size 15 to 20)
#    1.333    0.444    2.222    0.000    3.111    6.222 
#    8.000    0.000    0.000    0.000    0.000    0.000 
#    0.000    0.000    0.000    0.000    0.000    0.000 
#
# Total GULP energy -100339.671142 kJ/mol
# GULP energy per Si atom -5574.426175 kJ/mol
# Density = 2.803027 g / cm^3
# Si number density = 28.094213 Si / 1000 Ang^3
#
#
#
# Elastic Constant Matrix: (Units=GPa)
#
#
# Indices 1 2 3 4 5 6 
#
# 1 168.4510 114.7303 56.3462 0.0000 35.3456 0.0000
# 2 114.7303 212.5925 38.0035 0.0000 27.4256 0.0000
# 3 56.3462 38.0035 139.0191 0.0000 19.3140 0.0000
# 4 0.0000 0.0000 0.0000 40.3085 0.0000 24.4354
# 5 35.3456 27.4256 19.3140 0.0000 54.3651 0.0000
# 6 0.0000 0.0000 0.0000 24.4354 0.0000 62.1369
#
#
#
# Elastic Compliance Matrix: (Units=1/GPa)
#
#
# Indices 1 2 3 4 5 6 
#
# 1 0.010965 -0.004981 -0.002568 0.000000 -0.003704 0.000000
# 2 -0.004981 0.007451 0.000057 0.000000 -0.000541 0.000000
# 3 -0.002568 0.000057 0.008405 0.000000 -0.001345 0.000000
# 4 0.000000 0.000000 0.000000 0.032574 0.000000 -0.012810
# 5 -0.003704 -0.000541 -0.001345 0.000000 0.021553 0.000000
# 6 0.000000 0.000000 0.000000 -0.012810 0.000000 0.021131
#
#
# Mechanical properties :
#
#
# Convention : Reuss Voigt Hill
#
# Bulk Modulus (GPa) = 84.47231 104.24694 94.35962
# Shear Modulus (GPa) = 41.31915 52.09428 46.70671
#
# Velocity S-wave (km/s) = 3.83918 4.31080 4.08180
# Velocity P-wave (km/s) = 7.05586 7.87172 7.47493
#
# Compressibility (1/GPa) = 0.01183820
#
# Stress axis : x y z
#
# Youngs Moduli (GPa) = 91.20085 134.20460 118.97017
#
# Poissons Ratio (x) = 0.66841 0.30552
# Poissons Ratio (y) = 0.45423 -0.00677
# Poissons Ratio (z) = 0.23421 -0.00763
#
# Static dielectric constant tensor:
#      x y z
#    x 2.252190 0.000000 0.090720 
#    y 0.000000 1.788250 0.000000 
#    z 0.090720 0.000000 1.558660 
# 
# From -- ./inp_files/29448.got.cif
#   From: 2010.05.17/outbox.cif.g08.bks.cpg/sg14_15_cif.got.tgz:29448.got - 2010.06.03 17:49:19.
