data_PCOD9250583
_publ_section_title
;
Structure prediction by ZEFSAII (Michael W. Deem and Ramdas Pophale) SiO2 
 PCOD9250583
Probable space group: P 21/C
;
_chemical_formula_sum "Si O2"
_cell_formula_units_Z 24
_cell_length_a 8.635685
_cell_length_b 5.441865
_cell_length_c 23.127692
_cell_angle_alpha 90.000000
_cell_angle_beta 110.967735
_cell_angle_gamma 90.000000
_cell_volume 1014.897983
_symmetry_space_group_name_H-M "P 21/C"
_symmetry_group_IT_number 14
_symmetry_cell_setting 'monoclinic'
loop_
_space_group_symop_operation_xyz
x,y,z
-x,1/2+y,1/2-z
-x,-y,-z
x,1/2-y,1/2+z
loop_
_atom_site_type_symbol
_atom_site_label
_atom_site_fract_x
_atom_site_fract_y
_atom_site_fract_z
Si Si1 0.677968 0.212589 0.359270
Si Si2 0.924104 0.575135 0.353626
Si Si3 0.258703 0.731608 0.333497
Si Si4 0.137054 0.173650 0.543036
Si Si5 0.320847 0.269940 0.772460
Si Si6 0.565108 0.910700 0.947579
O O1 0.841281 0.305928 0.347053
O O2 0.518566 0.188457 0.297222
O O3 0.619371 0.398559 0.403510
O O4 0.732484 0.973879 0.400321
O O5 0.946611 0.640948 0.423720
O O6 0.774755 0.714224 0.300474
O O7 0.089494 0.651451 0.342815
O O8 0.290962 0.497068 0.296253
O O9 0.413669 0.740006 0.398561
O O10 0.250816 0.997161 0.300874
O O11 0.259615 0.286317 0.513113
O O12 0.000000 0.000000 0.500000
O O13 0.500000 0.000000 0.000000
#
# Coordination Sequence:
#
# PCOD9250583 Si02
#       6
#     4   4   4   4   4   4
#     4  10  25  43  66 101 135 183 236 292 357 425
#     4  11  27  41  73 101 142 186 233 300 367 422
#     4  11  25  46  70 109 139 186 242 294 358 431
#     4  11  26  44  66 102 141 184 244 292 357 436
#     4  11  25  47  72 103 147 182 242 293 361 435
#     4  10  24  44  67  94 138 190 234 293 355 426
#
# _framework density 23.647697999999998
#
# number of rings (size 3 to 8) (size 9 to 14) (size 15 to 20)
#    0.000    1.333    1.667    1.000   11.667    3.333 
#    0.000    0.000    0.000    0.000    0.000    0.000 
#    0.000    0.000    0.000    0.000    0.000    0.000 
#
# Total GULP energy -134074.202019 kJ/mol
# GULP energy per Si atom -5586.425084 kJ/mol
# Density = 2.359387 g / cm^3
# Si number density = 23.647698 Si / 1000 Ang^3
#
#
#
# Elastic Constant Matrix: (Units=GPa)
#
#
# Indices 1 2 3 4 5 6 
#
# 1 159.2899 46.5947 42.6776 0.0000 -0.0371 0.0000
# 2 46.5947 64.2443 10.7369 0.0000 -9.5239 0.0000
# 3 42.6776 10.7369 88.1506 0.0000 0.1123 0.0000
# 4 0.0000 0.0000 0.0000 30.4518 0.0000 9.6421
# 5 -0.0371 -9.5239 0.1123 0.0000 26.3199 0.0000
# 6 0.0000 0.0000 0.0000 9.6421 0.0000 33.5174
#
#
#
# Elastic Compliance Matrix: (Units=1/GPa)
#
#
# Indices 1 2 3 4 5 6 
#
# 1 0.009102 -0.006330 -0.003633 0.000000 -0.002262 0.000000
# 2 -0.006330 0.021214 0.000471 0.000000 0.007665 0.000000
# 3 -0.003633 0.000471 0.013046 0.000000 0.000110 0.000000
# 4 0.000000 0.000000 0.000000 0.036130 0.000000 -0.010394
# 5 -0.002262 0.007665 0.000110 0.000000 0.040764 0.000000
# 6 0.000000 0.000000 0.000000 -0.010394 0.000000 0.032825
#
#
# Mechanical properties :
#
#
# Convention : Reuss Voigt Hill
#
# Bulk Modulus (GPa) = 41.02032 56.85591 48.93812
# Shear Modulus (GPa) = 27.74834 32.16952 29.95893
#
# Velocity S-wave (km/s) = 3.42922 3.69232 3.56320
# Velocity P-wave (km/s) = 5.75008 6.50174 6.13743
#
# Compressibility (1/GPa) = 0.02437816
#
# Stress axis : x y z
#
# Youngs Moduli (GPa) = 109.86295 47.13849 76.65428
#
# Poissons Ratio (x) = 0.29838 0.27848
# Poissons Ratio (y) = 0.69541 -0.03609
# Poissons Ratio (z) = 0.39912 -0.02220
#
# Static dielectric constant tensor:
#      x y z
#    x 1.897960 0.000000 -0.041760 
#    y 0.000000 2.168880 0.000000 
#    z -0.041760 0.000000 1.933410 
# 
# From -- ./inp_files/71673.got.cif
#   From: 2010.05.17/outbox.cif.g08.bks.cpg/sg14_36_cif.got.tgz:71673.got - 2010.06.03 17:49:19.
