data_PCOD9250320
_publ_section_title
;
Structure prediction by ZEFSAII (Michael W. Deem and Ramdas Pophale) SiO2 
 PCOD9250320
Probable space group: P 21/C
;
_chemical_formula_sum "Si O2"
_cell_formula_units_Z 20
_cell_length_a 5.468464
_cell_length_b 7.787881
_cell_length_c 22.493133
_cell_angle_alpha 90.000000
_cell_angle_beta 104.253080
_cell_angle_gamma 90.000000
_cell_volume 928.444486
_symmetry_space_group_name_H-M "P 21/C"
_symmetry_group_IT_number 14
_symmetry_cell_setting 'monoclinic'
loop_
_space_group_symop_operation_xyz
x,y,z
-x,1/2+y,1/2-z
-x,-y,-z
x,1/2-y,1/2+z
loop_
_atom_site_type_symbol
_atom_site_label
_atom_site_fract_x
_atom_site_fract_y
_atom_site_fract_z
Si Si1 0.940336 0.296940 0.414898
Si Si2 0.664717 0.015469 0.568521
Si Si3 0.359497 0.486603 0.801190
Si Si4 0.737244 0.379610 0.529307
Si Si5 0.180411 0.698181 0.221522
O O1 0.794817 0.294583 0.468594
O O2 0.817108 0.294826 0.342491
O O3 0.075066 0.481054 0.431567
O O4 0.117421 0.127500 0.424954
O O5 0.731702 0.217221 0.572542
O O6 0.500000 0.000000 0.500000
O O7 0.542298 0.979050 0.625120
O O8 0.593799 0.438485 0.773101
O O9 0.261149 0.672864 0.777506
O O10 0.103117 0.371469 0.784105
O O11 0.500000 0.500000 0.500000
#
# Coordination Sequence:
#
# PCOD9250320 Si02
#       5
#     4   4   4   4   4
#     4  10  24  41  64  97 137 177 225 286 333 413
#     4  11  22  42  68  97 139 176 228 281 349 408
#     4  11  26  45  72 100 134 186 225 287 352 403
#     4  11  22  39  65 101 129 183 223 275 345 402
#     4  11  25  47  69  99 138 176 234 283 346 414
#
# _framework density 21.541407
#
# number of rings (size 3 to 8) (size 9 to 14) (size 15 to 20)
#    0.000    1.200    2.000    3.000    5.600    3.200 
#    0.000    0.000    0.000    0.000    0.000    0.000 
#    0.000    0.000    0.000    0.000    0.000    0.000 
#
# Total GULP energy -111494.084963 kJ/mol
# GULP energy per Si atom -5574.704248 kJ/mol
# Density = 2.149238 g / cm^3
# Si number density = 21.541407 Si / 1000 Ang^3
#
#
#
# Elastic Constant Matrix: (Units=GPa)
#
#
# Indices 1 2 3 4 5 6 
#
# 1 31.2343 5.3537 7.2372 0.0000 1.9553 0.0000
# 2 5.3537 94.5624 20.3628 0.0000 -3.7144 0.0000
# 3 7.2372 20.3628 69.6111 0.0000 10.3380 0.0000
# 4 0.0000 0.0000 0.0000 39.5124 0.0000 0.1142
# 5 1.9553 -3.7144 10.3380 0.0000 21.4274 0.0000
# 6 0.0000 0.0000 0.0000 0.1142 0.0000 31.3826
#
#
#
# Elastic Compliance Matrix: (Units=1/GPa)
#
#
# Indices 1 2 3 4 5 6 
#
# 1 0.033005 -0.001352 -0.002751 0.000000 -0.001919 0.000000
# 2 -0.001352 0.011640 -0.003859 0.000000 0.004003 0.000000
# 3 -0.002751 -0.003859 0.017065 0.000000 -0.008651 0.000000
# 4 0.000000 0.000000 0.000000 0.025309 0.000000 -0.000092
# 5 -0.001919 0.004003 -0.008651 0.000000 0.051712 0.000000
# 6 0.000000 0.000000 0.000000 -0.000092 0.000000 0.031865
#
#
# Mechanical properties :
#
#
# Convention : Reuss Voigt Hill
#
# Bulk Modulus (GPa) = 21.84020 29.03504 25.43762
# Shear Modulus (GPa) = 24.77928 29.29476 27.03702
#
# Velocity S-wave (km/s) = 3.39530 3.69172 3.54661
# Velocity P-wave (km/s) = 5.05287 5.62847 5.34842
#
# Compressibility (1/GPa) = 0.04578712
#
# Stress axis : x y z
#
# Youngs Moduli (GPa) = 30.29817 85.91269 58.59903
#
# Poissons Ratio (x) = 0.11612 0.16121
# Poissons Ratio (y) = 0.04095 0.22612
# Poissons Ratio (z) = 0.08335 0.33152
#
# Static dielectric constant tensor:
#      x y z
#    x 1.877140 0.000000 0.007730 
#    y 0.000000 1.778960 0.000000 
#    z 0.007730 0.000000 1.798830 
# 
# From -- ./inp_files/62867.got.cif
#   From: 2010.05.17/outbox.cif.g08.bks.cpg/sg14_32_cif.got.tgz:62867.got - 2010.06.03 17:49:19.
