data_PCOD9250769
_publ_section_title
;
Structure prediction by ZEFSAII (Michael W. Deem and Ramdas Pophale) SiO2 
 PCOD9250769
Probable space group: P 21/C
;
_chemical_formula_sum "Si O2"
_cell_formula_units_Z 26
_cell_length_a 28.509744
_cell_length_b 5.519758
_cell_length_c 20.657301
_cell_angle_alpha 90.000000
_cell_angle_beta 159.092716
_cell_angle_gamma 90.000000
_cell_volume 1160.061098
_symmetry_space_group_name_H-M "P 21/C"
_symmetry_group_IT_number 14
_symmetry_cell_setting 'monoclinic'
loop_
_space_group_symop_operation_xyz
x,y,z
-x,1/2+y,1/2-z
-x,-y,-z
x,1/2-y,1/2+z
loop_
_atom_site_type_symbol
_atom_site_label
_atom_site_fract_x
_atom_site_fract_y
_atom_site_fract_z
Si Si1 0.766349 0.400384 0.487780
Si Si2 0.727334 0.995276 0.232281
Si Si3 0.193210 0.511449 0.602015
Si Si4 0.000000 0.000000 0.500000
Si Si5 0.510130 0.096617 0.159176
Si Si6 0.083306 0.627469 0.719060
Si Si7 0.323030 0.289893 0.026364
O O1 0.813361 0.526793 0.483513
O O2 0.629648 0.269684 0.293754
O O3 0.874994 0.218224 0.655990
O O4 0.738549 0.565529 0.514560
O O5 0.742114 0.731118 0.285027
O O6 0.845637 0.006521 0.332024
O O7 0.743486 0.230154 0.298893
O O8 0.581823 0.010265 0.014374
O O9 0.046748 0.531999 0.442614
O O10 0.047930 0.836424 0.623385
O O11 0.408728 0.234094 0.074904
O O12 0.580286 0.902863 0.295649
O O13 0.206570 0.468947 0.855674
#
# Coordination Sequence:
#
# PCOD9250769 Si02
#       7
#     4   4   4   2   4   4   4
#     4  11  26  46  72 103 146 193 244 301 361 442
#     4  11  28  46  73 106 149 194 242 304 365 438
#     4  11  29  47  71 110 146 195 241 294 375 443
#     4  10  24  46  70 110 146 186 242 308 372 426
#     4  11  25  44  72 105 143 188 252 303 364 433
#     4  10  26  44  75 103 147 188 244 306 364 441
#     4  11  24  44  74 107 137 195 247 306 364 429
#
# _framework density 22.412613
#
# number of rings (size 3 to 8) (size 9 to 14) (size 15 to 20)
#    0.000    1.231    1.538    0.923   19.385    2.462 
#    0.000    0.000    0.000    0.000    0.000    0.000 
#    0.000    0.000    0.000    0.000    0.000    0.000 
#
# Total GULP energy -144870.680191 kJ/mol
# GULP energy per Si atom -5571.949238 kJ/mol
# Density = 2.236160 g / cm^3
# Si number density = 22.412613 Si / 1000 Ang^3
#
#
#
# Elastic Constant Matrix: (Units=GPa)
#
#
# Indices 1 2 3 4 5 6 
#
# 1 80.0251 3.1585 20.5552 0.0000 -11.7279 0.0000
# 2 3.1585 69.4256 53.6782 0.0000 -3.9672 0.0000
# 3 20.5552 53.6782 152.3326 0.0000 1.3912 0.0000
# 4 0.0000 0.0000 0.0000 -5.1911 0.0000 12.9408
# 5 -11.7279 -3.9672 1.3912 0.0000 -16.2048 0.0000
# 6 0.0000 0.0000 0.0000 12.9408 0.0000 11.4639
#
#
#
# Elastic Compliance Matrix: (Units=1/GPa)
#
#
# Indices 1 2 3 4 5 6 
#
# 1 0.011629 0.000182 -0.001555 0.000000 -0.008594 0.000000
# 2 0.000182 0.019332 -0.006787 0.000000 -0.005447 0.000000
# 3 -0.001555 -0.006787 0.009133 0.000000 0.003571 0.000000
# 4 0.000000 0.000000 0.000000 -0.050508 0.000000 0.057015
# 5 -0.008594 -0.005447 0.003571 0.000000 -0.053850 0.000000
# 6 0.000000 0.000000 0.000000 0.057015 0.000000 0.022871
#
#
# Mechanical properties :
#
#
# Convention : Reuss Voigt Hill
#
# Bulk Modulus (GPa) = 42.06180 50.72968 46.39574
# Shear Modulus (GPa) = -291.56283 12.97303 -139.29490
#
# Velocity S-wave (km/s) = -11.41802 2.40849 -7.89209
# Velocity P-wave (km/s) = 12.45072 5.51525 7.89311
#
# Compressibility (1/GPa) = 0.02377454
#
# Stress axis : x y z
#
# Youngs Moduli (GPa) = 85.99364 51.72824 109.48955
#
# Poissons Ratio (x) = -0.00941 0.17023
# Poissons Ratio (y) = -0.01565 0.74309
# Poissons Ratio (z) = 0.13370 0.35107
#
# Static dielectric constant tensor:
#      x y z
#    x 1.797610 0.000000 0.015240 
#    y 0.000000 1.950560 0.000000 
#    z 0.015240 0.000000 1.783440 
# 
# From -- ./inp_files/70644.got.cif
#   From: 2010.05.17/outbox.cif.g08.bks.cpg/sg14_36_cif.got.tgz:70644.got - 2010.06.03 17:49:19.
