data_PCOD9250087
_publ_section_title
;
Structure prediction by ZEFSAII (Michael W. Deem and Ramdas Pophale) SiO2 
 PCOD9250087
Probable space group: P 21/C
;
_chemical_formula_sum "Si O2"
_cell_formula_units_Z 20
_cell_length_a 4.998254
_cell_length_b 9.011753
_cell_length_c 18.109172
_cell_angle_alpha 90.000000
_cell_angle_beta 86.213378
_cell_angle_gamma 90.000000
_cell_volume 813.911262
_symmetry_space_group_name_H-M "P 21/C"
_symmetry_group_IT_number 14
_symmetry_cell_setting 'monoclinic'
loop_
_space_group_symop_operation_xyz
x,y,z
-x,1/2+y,1/2-z
-x,-y,-z
x,1/2-y,1/2+z
loop_
_atom_site_type_symbol
_atom_site_label
_atom_site_fract_x
_atom_site_fract_y
_atom_site_fract_z
Si Si1 0.773781 0.858194 0.930648
Si Si2 0.998471 0.168311 0.913883
Si Si3 0.310748 0.320178 0.265173
Si Si4 0.717051 0.288973 0.143317
Si Si5 0.995620 0.440667 0.827729
O O1 0.513134 0.779674 0.903335
O O2 0.022316 0.805778 0.876660
O O3 0.852472 0.810758 0.011697
O O4 0.785427 0.036486 0.927365
O O5 0.225400 0.128260 0.848225
O O6 0.866990 0.317860 0.883586
O O7 0.609512 0.293201 0.229936
O O8 0.191388 0.444095 0.211974
O O9 0.173381 0.157617 0.268551
O O10 0.804464 0.457925 0.127462
#
# Coordination Sequence:
#
# PCOD9250087 Si02
#       5
#     4   4   4   4   4
#     4  11  25  52  71 107 151 190 245 303 379 435
#     4   9  25  47  74 108 143 202 238 308 370 452
#     4  10  23  46  70 108 143 190 247 305 356 448
#     4  12  25  46  75 105 144 193 241 313 357 450
#     4  10  24  44  74 106 146 191 252 300 380 423
#
# _framework density 24.572700999999999
#
# number of rings (size 3 to 8) (size 9 to 14) (size 15 to 20)
#    1.200    0.400    2.000    1.200    2.800    4.800 
#   10.800    0.000    0.000    0.000    0.000    0.000 
#    0.000    0.000    0.000    0.000    0.000    0.000 
#
# Total GULP energy -111789.996359 kJ/mol
# GULP energy per Si atom -5589.499818 kJ/mol
# Density = 2.451677 g / cm^3
# Si number density = 24.572701 Si / 1000 Ang^3
#
#
#
# Elastic Constant Matrix: (Units=GPa)
#
#
# Indices 1 2 3 4 5 6 
#
# 1 83.1626 37.9365 9.7288 0.0000 21.1562 0.0000
# 2 37.9365 142.0613 22.8618 0.0000 23.3760 0.0000
# 3 9.7288 22.8618 102.0903 0.0000 25.2388 0.0000
# 4 0.0000 0.0000 0.0000 38.1868 0.0000 -1.2771
# 5 21.1562 23.3760 25.2388 0.0000 22.7875 0.0000
# 6 0.0000 0.0000 0.0000 -1.2771 0.0000 20.3669
#
#
#
# Elastic Compliance Matrix: (Units=1/GPa)
#
#
# Indices 1 2 3 4 5 6 
#
# 1 0.016976 -0.002256 0.003046 0.000000 -0.016821 0.000000
# 2 -0.002256 0.008777 -0.000058 0.000000 -0.006845 0.000000
# 3 0.003046 -0.000058 0.014049 0.000000 -0.018328 0.000000
# 4 0.000000 0.000000 0.000000 0.026242 0.000000 0.001646
# 5 -0.016821 -0.006845 -0.018328 0.000000 0.086822 0.000000
# 6 0.000000 0.000000 0.000000 0.001646 0.000000 0.049203
#
#
# Mechanical properties :
#
#
# Convention : Reuss Voigt Hill
#
# Bulk Modulus (GPa) = 24.23294 52.04092 38.13693
# Shear Modulus (GPa) = 23.32505 33.38738 28.35621
#
# Velocity S-wave (km/s) = 3.08429 3.69008 3.40070
# Velocity P-wave (km/s) = 4.75047 6.27534 5.56538
#
# Compressibility (1/GPa) = 0.04126615
#
# Stress axis : x y z
#
# Youngs Moduli (GPa) = 58.90521 113.92961 71.17833
#
# Poissons Ratio (x) = 0.25700 -0.21679
# Poissons Ratio (y) = 0.13288 0.00415
# Poissons Ratio (z) = -0.17941 0.00665
#
# Static dielectric constant tensor:
#      x y z
#    x 1.966770 0.000000 -0.009230 
#    y 0.000000 1.980840 0.000000 
#    z -0.009230 0.000000 1.954370 
# 
# From -- ./inp_files/62912.got.cif
#   From: 2010.05.17/outbox.cif.g08.bks.cpg/sg14_32_cif.got.tgz:62912.got - 2010.06.03 17:49:19.
