data_PCOD9250129
_publ_section_title
;
Structure prediction by ZEFSAII (Michael W. Deem and Ramdas Pophale) SiO2 
 PCOD9250129
Probable space group: P 21/C
;
_chemical_formula_sum "Si O2"
_cell_formula_units_Z 28
_cell_length_a 5.651201
_cell_length_b 9.071710
_cell_length_c 26.150716
_cell_angle_alpha 90.000000
_cell_angle_beta 50.665858
_cell_angle_gamma 90.000000
_cell_volume 1036.938124
_symmetry_space_group_name_H-M "P 21/C"
_symmetry_group_IT_number 14
_symmetry_cell_setting 'monoclinic'
loop_
_space_group_symop_operation_xyz
x,y,z
-x,1/2+y,1/2-z
-x,-y,-z
x,1/2-y,1/2+z
loop_
_atom_site_type_symbol
_atom_site_label
_atom_site_fract_x
_atom_site_fract_y
_atom_site_fract_z
Si Si1 0.741898 0.208060 0.803624
Si Si2 0.434665 0.473795 0.755765
Si Si3 0.612152 0.797180 0.304389
Si Si4 0.078294 0.151318 0.057687
Si Si5 0.392989 0.037758 0.407808
Si Si6 0.889159 0.991393 0.412942
Si Si7 0.492482 0.486528 0.418664
O O1 0.608658 0.094471 0.781748
O O2 0.539415 0.342268 0.850126
O O3 0.736977 0.109363 0.854780
O O4 0.051790 0.267719 0.736428
O O5 0.537172 0.324211 0.713401
O O6 0.658065 0.557660 0.763341
O O7 0.119132 0.467254 0.833356
O O8 0.490569 0.875119 0.372469
O O9 0.078890 0.317443 0.079749
O O10 0.294611 0.071300 0.069955
O O11 0.268627 0.125812 0.979414
O O12 0.742963 0.081519 0.086140
O O13 0.036127 0.061170 0.443988
O O14 0.561289 0.045368 0.438827
#
# Coordination Sequence:
#
# PCOD9250129 Si02
#       7
#     4   4   4   4   4   4   4
#     4  12  24  40  62  96 134 174 216 278 323 398
#     4  11  24  37  64  94 131 179 220 264 331 397
#     4  11  23  42  59  93 139 175 219 268 321 404
#     4  10  23  47  67 102 126 175 224 280 325 394
#     4  11  25  41  61  95 136 170 218 262 328 393
#     4  11  22  41  66  89 134 170 219 269 321 395
#     4  10  25  42  71  97 135 166 229 276 332 386
#
# _framework density 27.002576999999999
#
# number of rings (size 3 to 8) (size 9 to 14) (size 15 to 20)
#    0.000    1.143    2.857    2.571    8.000    1.143 
#    0.000    1.429    0.000    0.000    0.000    0.000 
#    0.000    0.000    0.000    0.000    0.000    0.000 
#
# Total GULP energy -156211.273142 kJ/mol
# GULP energy per Si atom -5578.974041 kJ/mol
# Density = 2.694112 g / cm^3
# Si number density = 27.002577 Si / 1000 Ang^3
#
#
#
# Elastic Constant Matrix: (Units=GPa)
#
#
# Indices 1 2 3 4 5 6 
#
# 1 163.2687 35.2568 15.8637 0.0000 -2.3071 0.0000
# 2 35.2568 95.9686 -1.2119 0.0000 15.9031 0.0000
# 3 15.8637 -1.2119 62.6424 0.0000 6.6080 0.0000
# 4 0.0000 0.0000 0.0000 36.2196 0.0000 0.4744
# 5 -2.3071 15.9031 6.6080 0.0000 48.1520 0.0000
# 6 0.0000 0.0000 0.0000 0.4744 0.0000 33.7194
#
#
#
# Elastic Compliance Matrix: (Units=1/GPa)
#
#
# Indices 1 2 3 4 5 6 
#
# 1 0.006951 -0.002834 -0.001978 0.000000 0.001540 0.000000
# 2 -0.002834 0.012201 0.001414 0.000000 -0.004360 0.000000
# 3 -0.001978 0.001414 0.016794 0.000000 -0.002866 0.000000
# 4 0.000000 0.000000 0.000000 0.027614 0.000000 -0.000389
# 5 0.001540 -0.004360 -0.002866 0.000000 0.022675 0.000000
# 6 0.000000 0.000000 0.000000 -0.000389 0.000000 0.029662
#
#
# Mechanical properties :
#
#
# Convention : Reuss Voigt Hill
#
# Bulk Modulus (GPa) = 34.30437 46.85520 40.57979
# Shear Modulus (GPa) = 37.76161 41.74960 39.75561
#
# Velocity S-wave (km/s) = 3.74364 3.93636 3.84121
# Velocity P-wave (km/s) = 5.60518 6.16844 5.89355
#
# Compressibility (1/GPa) = 0.02915080
#
# Stress axis : x y z
#
# Youngs Moduli (GPa) = 143.87016 81.95769 59.54466
#
# Poissons Ratio (x) = 0.23225 0.11775
# Poissons Ratio (y) = 0.40769 -0.08417
# Poissons Ratio (z) = 0.28451 -0.11585
#
# Static dielectric constant tensor:
#      x y z
#    x 2.183900 0.000000 -0.008390 
#    y 0.000000 2.141980 0.000000 
#    z -0.008390 0.000000 2.164090 
# 
# From -- ./inp_files/78761.got.cif
#   From: 2010.05.17/outbox.cif.g08.bks.cpg/sg14_40_cif.got.tgz:78761.got - 2010.06.03 17:49:19.
