data_PCOD9250649
_publ_section_title
;
Structure prediction by ZEFSAII (Michael W. Deem and Ramdas Pophale) SiO2 
 PCOD9250649
Probable space group: P 21/C
;
_chemical_formula_sum "Si O2"
_cell_formula_units_Z 20
_cell_length_a 4.956163
_cell_length_b 17.878354
_cell_length_c 9.615595
_cell_angle_alpha 90.000000
_cell_angle_beta 104.698141
_cell_angle_gamma 90.000000
_cell_volume 824.137512
_symmetry_space_group_name_H-M "P 21/C"
_symmetry_group_IT_number 14
_symmetry_cell_setting 'monoclinic'
loop_
_space_group_symop_operation_xyz
x,y,z
-x,1/2+y,1/2-z
-x,-y,-z
x,1/2-y,1/2+z
loop_
_atom_site_type_symbol
_atom_site_label
_atom_site_fract_x
_atom_site_fract_y
_atom_site_fract_z
Si Si1 0.373055 0.452004 0.317268
Si Si2 0.405793 0.103653 0.259052
Si Si3 0.288248 0.147541 0.542673
Si Si4 0.929878 0.109560 0.966957
Si Si5 0.720154 0.224465 0.436194
O O1 0.405306 0.534056 0.258948
O O2 0.395656 0.394938 0.190596
O O3 0.095730 0.430129 0.363470
O O4 0.642696 0.435220 0.448387
O O5 0.307037 0.096315 0.406609
O O6 0.587775 0.179812 0.288694
O O7 0.140994 0.109866 0.123927
O O8 0.474957 0.218229 0.517929
O O9 0.975438 0.174657 0.523759
O O10 0.835561 0.194007 0.922919
#
# Coordination Sequence:
#
# PCOD9250649 Si02
#       5
#     4   4   4   4   4
#     4  12  26  45  73 112 140 190 234 304 350 433
#     4  10  27  46  76 100 151 186 243 286 367 420
#     4  10  24  44  75  99 145 180 244 286 356 416
#     4  12  27  44  73 104 152 182 245 288 368 414
#     4  10  25  44  73  99 144 191 238 288 353 424
#
# _framework density 24.267797000000002
#
# number of rings (size 3 to 8) (size 9 to 14) (size 15 to 20)
#    1.200    0.000    0.000    4.200    8.400    2.400 
#    0.000    0.000    0.000    0.000    0.000    0.000 
#    0.000    0.000    0.000    0.000    0.000    0.000 
#
# Total GULP energy -111994.318838 kJ/mol
# GULP energy per Si atom -5599.715942 kJ/mol
# Density = 2.421256 g / cm^3
# Si number density = 24.267797 Si / 1000 Ang^3
#
#
#
# Elastic Constant Matrix: (Units=GPa)
#
#
# Indices 1 2 3 4 5 6 
#
# 1 115.4605 20.7891 12.9284 0.0000 15.0419 0.0000
# 2 20.7891 113.2756 22.0442 0.0000 22.3766 0.0000
# 3 12.9284 22.0442 81.9486 0.0000 20.6969 0.0000
# 4 0.0000 0.0000 0.0000 26.8520 0.0000 9.9125
# 5 15.0419 22.3766 20.6969 0.0000 25.5907 0.0000
# 6 0.0000 0.0000 0.0000 9.9125 0.0000 50.3125
#
#
#
# Elastic Compliance Matrix: (Units=1/GPa)
#
#
# Indices 1 2 3 4 5 6 
#
# 1 0.009435 -0.000766 -0.000064 0.000000 -0.004824 0.000000
# 2 -0.000766 0.010761 -0.000642 0.000000 -0.008439 0.000000
# 3 -0.000064 -0.000642 0.015375 0.000000 -0.011835 0.000000
# 4 0.000000 0.000000 0.000000 0.040162 0.000000 -0.007913
# 5 -0.004824 -0.008439 -0.011835 0.000000 0.058863 0.000000
# 6 0.000000 0.000000 0.000000 -0.007913 0.000000 0.021435
#
#
# Mechanical properties :
#
#
# Convention : Reuss Voigt Hill
#
# Bulk Modulus (GPa) = 30.65124 46.91199 38.78162
# Shear Modulus (GPa) = 29.43766 37.54591 33.49178
#
# Velocity S-wave (km/s) = 3.48664 3.93765 3.71899
# Velocity P-wave (km/s) = 5.37278 6.32822 5.86997
#
# Compressibility (1/GPa) = 0.03262511
#
# Stress axis : x y z
#
# Youngs Moduli (GPa) = 105.99375 92.93011 65.04161
#
# Poissons Ratio (x) = 0.07120 0.00416
# Poissons Ratio (y) = 0.08120 0.04178
# Poissons Ratio (z) = 0.00679 0.05969
#
# Static dielectric constant tensor:
#      x y z
#    x 1.880430 0.000000 -0.005990 
#    y 0.000000 1.929440 0.000000 
#    z -0.005990 0.000000 1.918630 
# 
# From -- ./inp_files/5543.got.cif
#   From: 2010.05.17/outbox.cif.g08.bks.cpg/sg14_3_cif.got.tgz:5543.got - 2010.06.03 17:49:19.
