data_PCOD9250647
_publ_section_title
;
Structure prediction by ZEFSAII (Michael W. Deem and Ramdas Pophale) SiO2 
 PCOD9250647
Probable space group: P 21/C
;
_chemical_formula_sum "Si O2"
_cell_formula_units_Z 20
_cell_length_a 5.169364
_cell_length_b 19.949643
_cell_length_c 9.239078
_cell_angle_alpha 90.000000
_cell_angle_beta 54.509183
_cell_angle_gamma 90.000000
_cell_volume 775.776376
_symmetry_space_group_name_H-M "P 21/C"
_symmetry_group_IT_number 14
_symmetry_cell_setting 'monoclinic'
loop_
_space_group_symop_operation_xyz
x,y,z
-x,1/2+y,1/2-z
-x,-y,-z
x,1/2-y,1/2+z
loop_
_atom_site_type_symbol
_atom_site_label
_atom_site_fract_x
_atom_site_fract_y
_atom_site_fract_z
Si Si1 0.582423 0.164409 0.383748
Si Si2 0.229153 0.299359 0.530253
Si Si3 0.956300 0.032394 0.801897
Si Si4 0.429487 0.088126 0.173033
Si Si5 0.443156 0.890805 0.307314
O O1 0.328567 0.222888 0.488379
O O2 0.444453 0.103024 0.336551
O O3 0.697551 0.143327 0.504961
O O4 0.866460 0.193338 0.194271
O O5 0.410182 0.340992 0.596611
O O6 0.333628 0.337860 0.350804
O O7 0.807993 0.078819 0.722866
O O8 0.315874 0.051528 0.716370
O O9 0.863145 0.957479 0.785622
O O10 0.742415 0.050494 0.011968
#
# Coordination Sequence:
#
# PCOD9250647 Si02
#       5
#     4   4   4   4   4
#     4  12  27  45  75 104 146 194 248 301 363 433
#     4  11  27  46  71 104 146 193 245 302 361 434
#     4  10  24  47  75 110 145 192 233 310 361 447
#     4  10  24  44  75 103 148 189 243 296 376 424
#     4  11  26  46  76 107 147 184 251 294 372 428
#
# _framework density 25.780625000000001
#
# number of rings (size 3 to 8) (size 9 to 14) (size 15 to 20)
#    0.000    1.200    2.000    1.200   11.200    7.200 
#    0.000    0.000    0.000    0.000    0.000    0.000 
#    0.000    0.000    0.000    0.000    0.000    0.000 
#
# Total GULP energy -112285.731465 kJ/mol
# GULP energy per Si atom -5614.286573 kJ/mol
# Density = 2.572195 g / cm^3
# Si number density = 25.780625 Si / 1000 Ang^3
#
#
#
# Elastic Constant Matrix: (Units=GPa)
#
#
# Indices 1 2 3 4 5 6 
#
# 1 76.5024 26.4606 30.5473 0.0000 6.0028 0.0000
# 2 26.4606 105.5875 47.1681 0.0000 14.7968 0.0000
# 3 30.5473 47.1681 142.9500 0.0000 17.2372 0.0000
# 4 0.0000 0.0000 0.0000 8.4041 0.0000 -11.8012
# 5 6.0028 14.7968 17.2372 0.0000 47.0634 0.0000
# 6 0.0000 0.0000 0.0000 -11.8012 0.0000 40.0102
#
#
#
# Elastic Compliance Matrix: (Units=1/GPa)
#
#
# Indices 1 2 3 4 5 6 
#
# 1 0.014929 -0.002694 -0.002274 0.000000 -0.000224 0.000000
# 2 -0.002694 0.011827 -0.003055 0.000000 -0.002256 0.000000
# 3 -0.002274 -0.003055 0.008724 0.000000 -0.001945 0.000000
# 4 0.000000 0.000000 0.000000 0.203116 0.000000 0.059910
# 5 -0.000224 -0.002256 -0.001945 0.000000 0.022698 0.000000
# 6 0.000000 0.000000 0.000000 0.059910 0.000000 0.042664
#
#
# Mechanical properties :
#
#
# Convention : Reuss Voigt Hill
#
# Bulk Modulus (GPa) = 51.45666 59.26578 55.36122
# Shear Modulus (GPa) = 15.31479 33.81980 24.56729
#
# Velocity S-wave (km/s) = 2.43994 3.62585 3.09032
# Velocity P-wave (km/s) = 5.28588 6.36926 5.85269
#
# Compressibility (1/GPa) = 0.01943383
#
# Stress axis : x y z
#
# Youngs Moduli (GPa) = 66.98395 84.55497 114.62795
#
# Poissons Ratio (x) = 0.22778 0.26070
# Poissons Ratio (y) = 0.18044 0.35015
# Poissons Ratio (z) = 0.15234 0.25829
#
# Static dielectric constant tensor:
#      x y z
#    x 2.009320 0.000000 -0.017560 
#    y 0.000000 1.996620 0.000000 
#    z -0.017560 0.000000 1.987150 
# 
# From -- ./inp_files/5820.got.cif
#   From: 2010.05.17/outbox.cif.g08.bks.cpg/sg14_3_cif.got.tgz:5820.got - 2010.06.03 17:49:19.
