data_PCOD9250902
_publ_section_title
;
Structure prediction by ZEFSAII (Michael W. Deem and Ramdas Pophale) SiO2 
 PCOD9250902
Probable space group: P 21/C
;
_chemical_formula_sum "Si O2"
_cell_formula_units_Z 32
_cell_length_a 16.971679
_cell_length_b 8.102852
_cell_length_c 8.800417
_cell_angle_alpha 90.000000
_cell_angle_beta 101.129626
_cell_angle_gamma 90.000000
_cell_volume 1187.463862
_symmetry_space_group_name_H-M "P 21/C"
_symmetry_group_IT_number 14
_symmetry_cell_setting 'monoclinic'
loop_
_space_group_symop_operation_xyz
x,y,z
-x,1/2+y,1/2-z
-x,-y,-z
x,1/2-y,1/2+z
loop_
_atom_site_type_symbol
_atom_site_label
_atom_site_fract_x
_atom_site_fract_y
_atom_site_fract_z
Si Si1 0.149692 0.617755 0.205088
Si Si2 0.438086 0.009586 0.702172
Si Si3 0.747348 0.905655 0.593732
Si Si4 0.704197 0.230100 0.392941
Si Si5 0.409005 0.154047 0.349541
Si Si6 0.903964 0.898700 0.830111
Si Si7 0.955022 0.161392 0.627393
Si Si8 0.232071 0.440989 0.471915
O O1 0.222041 0.745015 0.196516
O O2 0.088564 0.599938 0.042308
O O3 0.196993 0.460394 0.286537
O O4 0.102113 0.697169 0.326266
O O5 0.426972 0.095045 0.530539
O O6 0.419167 0.152043 0.817081
O O7 0.380138 0.847175 0.693811
O O8 0.528488 0.942077 0.733914
O O9 0.682211 0.907400 0.703543
O O10 0.838370 0.882723 0.673732
O O11 0.726953 0.736422 0.500649
O O12 0.736144 0.072741 0.499827
O O13 0.709646 0.401392 0.484323
O O14 0.960284 0.743593 0.879305
O O15 0.959964 0.039704 0.774752
O O16 0.846568 0.940502 0.949439
#
# Coordination Sequence:
#
# PCOD9250902 Si02
#       8
#     4   4   4   4   4   4   4   4
#     4  12  24  49  72 105 150 200 255 326 386 467
#     4  10  24  49  80 118 163 207 257 325 386 467
#     4  11  27  50  79 115 155 202 262 327 389 471
#     4  11  24  51  79 114 156 202 263 321 385 471
#     4  10  24  50  74 117 161 202 261 315 387 474
#     4  12  29  50  76 118 148 209 266 332 396 482
#     4  12  28  48  76 107 156 195 266 332 391 468
#     4  12  28  49  81 111 148 213 261 317 406 462
#
# _framework density 26.948187000000001
#
# number of rings (size 3 to 8) (size 9 to 14) (size 15 to 20)
#    0.000    0.750    3.750    0.750    8.750    3.000 
#   11.250    1.250    0.000    0.000    0.000    0.000 
#    0.000    0.000    0.000    0.000    0.000    0.000 
#
# Total GULP energy -179174.339323 kJ/mol
# GULP energy per Si atom -5599.198104 kJ/mol
# Density = 2.688685 g / cm^3
# Si number density = 26.948187 Si / 1000 Ang^3
#
#
#
# Elastic Constant Matrix: (Units=GPa)
#
#
# Indices 1 2 3 4 5 6 
#
# 1 142.3041 71.3430 18.7457 0.0000 -18.1215 0.0000
# 2 71.3430 134.6279 24.6669 0.0000 4.3485 0.0000
# 3 18.7457 24.6669 67.9977 0.0000 -4.1750 0.0000
# 4 0.0000 0.0000 0.0000 49.1217 0.0000 -4.7403
# 5 -18.1215 4.3485 -4.1750 0.0000 22.9083 0.0000
# 6 0.0000 0.0000 0.0000 -4.7403 0.0000 51.3093
#
#
#
# Elastic Compliance Matrix: (Units=1/GPa)
#
#
# Indices 1 2 3 4 5 6 
#
# 1 0.011608 -0.006445 -0.000226 0.000000 0.010364 0.000000
# 2 -0.006445 0.011632 -0.002924 0.000000 -0.007839 0.000000
# 3 -0.000226 -0.002924 0.016032 0.000000 0.003298 0.000000
# 4 0.000000 0.000000 0.000000 0.020541 0.000000 0.001898
# 5 0.010364 -0.007839 0.003298 0.000000 0.053940 0.000000
# 6 0.000000 0.000000 0.000000 0.001898 0.000000 0.019665
#
#
# Mechanical properties :
#
#
# Convention : Reuss Voigt Hill
#
# Bulk Modulus (GPa) = 49.79512 63.82676 56.81094
# Shear Modulus (GPa) = 31.38706 40.01280 35.69993
#
# Velocity S-wave (km/s) = 3.41650 3.85750 3.64368
# Velocity P-wave (km/s) = 5.83794 6.60127 6.23130
#
# Compressibility (1/GPa) = 0.02008229
#
# Stress axis : x y z
#
# Youngs Moduli (GPa) = 86.14908 85.96905 62.37534
#
# Poissons Ratio (x) = 0.55404 0.01408
# Poissons Ratio (y) = 0.55520 0.18240
# Poissons Ratio (z) = 0.01945 0.25140
#
# Static dielectric constant tensor:
#      x y z
#    x 2.131930 0.000000 0.008680 
#    y 0.000000 2.137640 0.000000 
#    z 0.008680 0.000000 2.208490 
# 
# From -- ./inp_files/31578.got.cif
#   From: 2010.05.17/outbox.cif.g08.bks.cpg/sg14_16_cif.got.tgz:31578.got - 2010.06.03 17:49:19.
