data_PCOD9250457
_publ_section_title
;
Structure prediction by ZEFSAII (Michael W. Deem and Ramdas Pophale) SiO2 
 PCOD9250457
Probable space group: P 21/C
;
_chemical_formula_sum "Si O2"
_cell_formula_units_Z 30
_cell_length_a 9.202773
_cell_length_b 21.948549
_cell_length_c 14.511432
_cell_angle_alpha 90.000000
_cell_angle_beta 152.454633
_cell_angle_gamma 90.000000
_cell_volume 1355.502543
_symmetry_space_group_name_H-M "P 21/C"
_symmetry_group_IT_number 14
_symmetry_cell_setting 'monoclinic'
loop_
_space_group_symop_operation_xyz
x,y,z
-x,1/2+y,1/2-z
-x,-y,-z
x,1/2-y,1/2+z
loop_
_atom_site_type_symbol
_atom_site_label
_atom_site_fract_x
_atom_site_fract_y
_atom_site_fract_z
Si Si1 0.922478 0.566231 0.996405
Si Si2 0.000000 0.500000 0.500000
Si Si3 0.896035 0.708433 0.435906
Si Si4 0.528367 0.444326 0.085726
Si Si5 0.719237 0.384703 0.432731
Si Si6 0.530279 0.320886 0.982268
Si Si7 0.905302 0.205157 0.202498
Si Si8 0.305839 0.819259 0.713181
O O1 0.783613 0.564383 0.023587
O O2 0.637158 0.594460 0.777352
O O3 0.000000 0.500000 0.000000
O O4 0.219882 0.610221 0.148412
O O5 0.793201 0.461311 0.309223
O O6 0.932569 0.444553 0.539846
O O7 0.675641 0.686614 0.226851
O O8 0.657562 0.698552 0.384583
O O9 0.188981 0.662712 0.596944
O O10 0.050412 0.774997 0.519471
O O11 0.500000 0.500000 0.000000
O O12 0.608621 0.387008 0.065107
O O13 0.779768 0.344561 0.558293
O O14 0.278797 0.298197 0.915970
O O15 0.808729 0.273865 0.124459
O O16 0.756093 0.190832 0.215307
#
# Coordination Sequence:
#
# PCOD9250457 Si02
#       8
#     4   2   4   4   4   4   4   4
#     4  11  26  46  69  97 141 185 244 302 369 446
#     4  10  24  42  76  96 142 194 252 298 376 442
#     4  11  24  41  74 100 146 187 243 301 378 453
#     4  11  24  47  72 102 141 195 252 308 369 460
#     4  10  24  47  70 101 141 190 249 310 370 459
#     4  11  23  43  69 101 142 189 239 307 376 448
#     4  11  23  43  67 105 146 181 242 311 373 453
#     4  12  24  41  68 107 138 189 233 304 373 442
#
# _framework density 22.132014999999999
#
# number of rings (size 3 to 8) (size 9 to 14) (size 15 to 20)
#    0.000    1.067    1.333    5.600    9.333    0.000 
#    0.000    0.667    0.000    0.000    0.000    0.000 
#    0.000    0.000    0.000    0.000    0.000    0.000 
#
# Total GULP energy -167021.104501 kJ/mol
# GULP energy per Si atom -5567.370150 kJ/mol
# Density = 2.208164 g / cm^3
# Si number density = 22.132015 Si / 1000 Ang^3
#
#
#
# Elastic Constant Matrix: (Units=GPa)
#
#
# Indices 1 2 3 4 5 6 
#
# 1 94.4601 28.5714 8.9627 0.0000 -10.2752 0.0000
# 2 28.5714 166.8611 44.6066 0.0000 -7.2577 0.0000
# 3 8.9627 44.6066 58.8025 0.0000 -13.4344 0.0000
# 4 0.0000 0.0000 0.0000 42.6178 0.0000 -1.8537
# 5 -10.2752 -7.2577 -13.4344 0.0000 32.5667 0.0000
# 6 0.0000 0.0000 0.0000 -1.8537 0.0000 43.1949
#
#
#
# Elastic Compliance Matrix: (Units=1/GPa)
#
#
# Indices 1 2 3 4 5 6 
#
# 1 0.011500 -0.001957 0.000509 0.000000 0.003402 0.000000
# 2 -0.001957 0.007867 -0.005973 0.000000 -0.001328 0.000000
# 3 0.000509 -0.005973 0.023397 0.000000 0.008481 0.000000
# 4 0.000000 0.000000 0.000000 0.023508 0.000000 0.001009
# 5 0.003402 -0.001328 0.008481 0.000000 0.034982 0.000000
# 6 0.000000 0.000000 0.000000 0.001009 0.000000 0.023194
#
#
# Mechanical properties :
#
#
# Convention : Reuss Voigt Hill
#
# Bulk Modulus (GPa) = 35.81348 53.82279 44.81813
# Shear Modulus (GPa) = 33.64757 39.54143 36.59450
#
# Velocity S-wave (km/s) = 3.90335 4.23142 4.07069
# Velocity P-wave (km/s) = 6.04415 6.94586 6.51064
#
# Compressibility (1/GPa) = 0.02792245
#
# Stress axis : x y z
#
# Youngs Moduli (GPa) = 86.95427 127.11106 42.74014
#
# Poissons Ratio (x) = 0.24880 -0.02177
# Poissons Ratio (y) = 0.17020 0.25529
# Poissons Ratio (z) = -0.04428 0.75924
#
# Static dielectric constant tensor:
#      x y z
#    x 1.901850 0.000000 -0.031320 
#    y 0.000000 1.856110 0.000000 
#    z -0.031320 0.000000 1.859700 
# 
# From -- ./inp_files/42139.got.cif
#   From: 2010.05.17/outbox.cif.g08.bks.cpg/sg14_22_cif.got.tgz:42139.got - 2010.06.03 17:49:19.
