data_PCOD9250057
_publ_section_title
;
Structure prediction by ZEFSAII (Michael W. Deem and Ramdas Pophale) SiO2 
 PCOD9250057
Probable space group: P 21/C
;
_chemical_formula_sum "Si O2"
_cell_formula_units_Z 28
_cell_length_a 7.659542
_cell_length_b 13.263319
_cell_length_c 13.363872
_cell_angle_alpha 90.000000
_cell_angle_beta 126.964229
_cell_angle_gamma 90.000000
_cell_volume 1084.776145
_symmetry_space_group_name_H-M "P 21/C"
_symmetry_group_IT_number 14
_symmetry_cell_setting 'monoclinic'
loop_
_space_group_symop_operation_xyz
x,y,z
-x,1/2+y,1/2-z
-x,-y,-z
x,1/2-y,1/2+z
loop_
_atom_site_type_symbol
_atom_site_label
_atom_site_fract_x
_atom_site_fract_y
_atom_site_fract_z
Si Si1 0.285988 0.689355 0.392996
Si Si2 0.870688 0.410192 0.160677
Si Si3 0.431563 0.508085 0.767113
Si Si4 0.218313 0.323291 0.426265
Si Si5 0.143716 0.619287 0.534981
Si Si6 0.287598 0.678795 0.155318
Si Si7 0.167543 0.103835 0.492587
O O1 0.257292 0.807200 0.412193
O O2 0.529472 0.646826 0.490538
O O3 0.121191 0.628144 0.408343
O O4 0.248505 0.682607 0.261535
O O5 0.727273 0.457409 0.200285
O O6 0.878721 0.504883 0.089291
O O7 0.093721 0.366686 0.286183
O O8 0.286459 0.525389 0.619114
O O9 0.515637 0.394540 0.800269
O O10 0.648289 0.575316 0.862957
O O11 0.230381 0.201481 0.447474
O O12 0.065067 0.358856 0.467029
O O13 0.309445 0.709623 0.622938
O O14 0.058628 0.636858 0.035086
#
# Coordination Sequence:
#
# PCOD9250057 Si02
#       7
#     4   4   4   4   4   4   4
#     4  12  23  47  72  93 145 184 223 285 350 408
#     4  11  23  43  67 104 133 178 233 280 347 409
#     4  11  22  42  67  96 139 174 227 289 333 401
#     4  10  23  46  65 101 143 174 231 284 336 415
#     4  10  24  45  66  97 140 183 225 283 350 397
#     4  11  24  44  64 108 134 175 240 279 339 418
#     4  11  21  41  70 100 135 176 233 286 333 406
#
# _framework density 25.811776999999999
#
# number of rings (size 3 to 8) (size 9 to 14) (size 15 to 20)
#    0.000    1.143    5.714    1.714    4.000    1.714 
#    5.143    1.429    0.000    0.000    0.000    0.000 
#    0.000    0.000    0.000    0.000    0.000    0.000 
#
# Total GULP energy -156708.731167 kJ/mol
# GULP energy per Si atom -5596.740399 kJ/mol
# Density = 2.575303 g / cm^3
# Si number density = 25.811777 Si / 1000 Ang^3
#
#
#
# Elastic Constant Matrix: (Units=GPa)
#
#
# Indices 1 2 3 4 5 6 
#
# 1 67.4957 16.0056 22.1640 0.0000 8.0011 0.0000
# 2 16.0056 121.5223 42.1442 0.0000 11.9473 0.0000
# 3 22.1640 42.1442 65.3096 0.0000 -6.9079 0.0000
# 4 0.0000 0.0000 0.0000 29.1601 0.0000 18.7889
# 5 8.0011 11.9473 -6.9079 0.0000 30.4443 0.0000
# 6 0.0000 0.0000 0.0000 18.7889 0.0000 16.7035
#
#
#
# Elastic Compliance Matrix: (Units=1/GPa)
#
#
# Indices 1 2 3 4 5 6 
#
# 1 0.017799 0.000837 -0.007285 0.000000 -0.006659 0.000000
# 2 0.000837 0.011767 -0.008595 0.000000 -0.006788 0.000000
# 3 -0.007285 -0.008595 0.024477 0.000000 0.010841 0.000000
# 4 0.000000 0.000000 0.000000 0.124603 0.000000 -0.140159
# 5 -0.006659 -0.006788 0.010841 0.000000 0.039721 0.000000
# 6 0.000000 0.000000 0.000000 -0.140159 0.000000 0.217525
#
#
# Mechanical properties :
#
#
# Convention : Reuss Voigt Hill
#
# Bulk Modulus (GPa) = 41.74199 46.10615 43.92407
# Shear Modulus (GPa) = 10.54935 26.86250 18.70593
#
# Velocity S-wave (km/s) = 2.02383 3.22950 2.69496
# Velocity P-wave (km/s) = 4.65489 5.63981 5.17085
#
# Compressibility (1/GPa) = 0.02395669
#
# Stress axis : x y z
#
# Youngs Moduli (GPa) = 56.18347 84.98430 40.85474
#
# Poissons Ratio (x) = -0.07111 0.29761
# Poissons Ratio (y) = -0.04701 0.35115
# Poissons Ratio (z) = 0.40928 0.73045
#
# Static dielectric constant tensor:
#      x y z
#    x 2.037430 0.000000 -0.074460 
#    y 0.000000 2.051250 0.000000 
#    z -0.074460 0.000000 2.110340 
# 
# From -- ./inp_files/41277.got.cif
#   From: 2010.05.17/outbox.cif.g08.bks.cpg/sg14_21_cif.got.tgz:41277.got - 2010.06.03 17:49:19.
