data_PCOD9250097
_publ_section_title
;
Structure prediction by ZEFSAII (Michael W. Deem and Ramdas Pophale) SiO2 
 PCOD9250097
Probable space group: P 21/C
;
_chemical_formula_sum "Si O2"
_cell_formula_units_Z 20
_cell_length_a 6.681409
_cell_length_b 15.753297
_cell_length_c 8.737675
_cell_angle_alpha 90.000000
_cell_angle_beta 111.028158
_cell_angle_gamma 90.000000
_cell_volume 858.430527
_symmetry_space_group_name_H-M "P 21/C"
_symmetry_group_IT_number 14
_symmetry_cell_setting 'monoclinic'
loop_
_space_group_symop_operation_xyz
x,y,z
-x,1/2+y,1/2-z
-x,-y,-z
x,1/2-y,1/2+z
loop_
_atom_site_type_symbol
_atom_site_label
_atom_site_fract_x
_atom_site_fract_y
_atom_site_fract_z
Si Si1 0.667464 0.169320 0.884744
Si Si2 0.236022 0.226319 0.295507
Si Si3 0.715373 0.451071 0.102087
Si Si4 0.984349 0.571039 0.366101
Si Si5 0.029167 0.821401 0.502418
O O1 0.452389 0.220380 0.865374
O O2 0.658158 0.108365 0.733919
O O3 0.828315 0.245467 0.894876
O O4 0.785984 0.118617 0.056857
O O5 0.195196 0.146248 0.167807
O O6 0.068717 0.295629 0.187382
O O7 0.169582 0.181601 0.435589
O O8 0.905047 0.515326 0.202640
O O9 0.811019 0.397796 0.987701
O O10 0.500000 0.500000 0.000000
O O11 0.000000 0.500000 0.500000
#
# Coordination Sequence:
#
# PCOD9250097 Si02
#       5
#     4   4   4   4   4
#     4  10  23  46  72 101 143 196 244 300 368 448
#     4  11  24  42  76 102 141 199 250 301 368 449
#     4  11  23  45  76 111 150 192 247 311 382 442
#     4   9  22  45  69 106 151 182 244 314 370 440
#     4  11  24  44  71 106 145 187 254 300 358 449
#
# _framework density 23.298333
#
# number of rings (size 3 to 8) (size 9 to 14) (size 15 to 20)
#    0.000    1.600    2.000    1.200    5.600    0.800 
#    0.000    1.000    0.000    0.000    0.000    0.000 
#    0.000    0.000    0.000    0.000    0.000    0.000 
#
# Total GULP energy -111469.964896 kJ/mol
# GULP energy per Si atom -5573.498245 kJ/mol
# Density = 2.324531 g / cm^3
# Si number density = 23.298333 Si / 1000 Ang^3
#
#
#
# Elastic Constant Matrix: (Units=GPa)
#
#
# Indices 1 2 3 4 5 6 
#
# 1 130.2319 73.5607 80.7817 0.0000 5.6040 0.0000
# 2 73.5607 145.2664 62.7241 0.0000 11.9540 0.0000
# 3 80.7817 62.7241 110.1476 0.0000 10.0193 0.0000
# 4 0.0000 0.0000 0.0000 49.8595 0.0000 14.9351
# 5 5.6040 11.9540 10.0193 0.0000 33.9203 0.0000
# 6 0.0000 0.0000 0.0000 14.9351 0.0000 59.2480
#
#
#
# Elastic Compliance Matrix: (Units=1/GPa)
#
#
# Indices 1 2 3 4 5 6 
#
# 1 0.015694 -0.004039 -0.009355 0.000000 0.001594 0.000000
# 2 -0.004039 0.010268 -0.002688 0.000000 -0.002157 0.000000
# 3 -0.009355 -0.002688 0.017720 0.000000 -0.002741 0.000000
# 4 0.000000 0.000000 0.000000 0.021694 0.000000 -0.005469
# 5 0.001594 -0.002157 -0.002741 0.000000 0.030787 0.000000
# 6 0.000000 0.000000 0.000000 -0.005469 0.000000 0.018257
#
#
# Mechanical properties :
#
#
# Convention : Reuss Voigt Hill
#
# Bulk Modulus (GPa) = 86.83068 91.08652 88.95860
# Shear Modulus (GPa) = 33.23922 39.84416 36.54169
#
# Velocity S-wave (km/s) = 3.78124 4.13991 3.96463
# Velocity P-wave (km/s) = 7.51090 7.87606 7.69565
#
# Compressibility (1/GPa) = 0.01151667
#
# Stress axis : x y z
#
# Youngs Moduli (GPa) = 63.71713 97.39364 56.43364
#
# Poissons Ratio (x) = 0.39339 0.52794
# Poissons Ratio (y) = 0.25736 0.15172
# Poissons Ratio (z) = 0.59608 0.26184
#
# Static dielectric constant tensor:
#      x y z
#    x 1.970370 0.000000 0.034510 
#    y 0.000000 1.917750 0.000000 
#    z 0.034510 0.000000 1.975890 
# 
# From -- ./inp_files/5532.got.cif
#   From: 2010.05.17/outbox.cif.g08.bks.cpg/sg14_3_cif.got.tgz:5532.got - 2010.06.03 17:49:19.
