data_PCOD9250364
_publ_section_title
;
Structure prediction by ZEFSAII (Michael W. Deem and Ramdas Pophale) SiO2 
 PCOD9250364
Probable space group: P 21/C
;
_chemical_formula_sum "Si O2"
_cell_formula_units_Z 28
_cell_length_a 24.042596
_cell_length_b 11.137813
_cell_length_c 23.855740
_cell_angle_alpha 90.000000
_cell_angle_beta 11.989643
_cell_angle_gamma 90.000000
_cell_volume 1327.038687
_symmetry_space_group_name_H-M "P 21/C"
_symmetry_group_IT_number 14
_symmetry_cell_setting 'monoclinic'
loop_
_space_group_symop_operation_xyz
x,y,z
-x,1/2+y,1/2-z
-x,-y,-z
x,1/2-y,1/2+z
loop_
_atom_site_type_symbol
_atom_site_label
_atom_site_fract_x
_atom_site_fract_y
_atom_site_fract_z
Si Si1 0.959666 0.178428 0.892119
Si Si2 0.625518 0.758357 0.266018
Si Si3 0.451391 0.314095 0.436455
Si Si4 0.890328 0.417096 0.745721
Si Si5 0.357495 0.029544 0.322888
Si Si6 0.256939 0.409996 0.743338
Si Si7 0.873831 0.487844 0.378340
O O1 0.864980 0.133305 0.924499
O O2 0.201718 0.270976 0.645001
O O3 0.704501 0.224774 0.178869
O O4 0.093233 0.057852 0.786570
O O5 0.376574 0.848514 0.507724
O O6 0.591102 0.663338 0.249420
O O7 0.689466 0.676630 0.257007
O O8 0.877894 0.842985 0.011269
O O9 0.579704 0.439011 0.289599
O O10 0.299639 0.330367 0.645231
O O11 0.976503 0.421417 0.726674
O O12 0.059118 0.023670 0.641196
O O13 0.569558 0.989680 0.161157
O O14 0.500000 0.500000 0.500000
O O15 0.000000 0.500000 0.000000
#
# Coordination Sequence:
#
# PCOD9250364 Si02
#       7
#     4   4   4   4   4   4   4
#     4  10  24  45  64  94 140 177 218 275 322 404
#     4  12  24  43  70  95 137 170 227 277 338 397
#     4  12  24  43  70  95 137 170 227 277 338 397
#     4  10  24  45  64  94 140 177 218 275 322 404
#     4  12  24  37  68 104 126 181 218 272 344 398
#     4  12  26  46  69 102 135 172 220 289 351 398
#     4  10  24  42  62 100 136 174 222 266 338 390
#
# _framework density 21.099610999999999
#
# number of rings (size 3 to 8) (size 9 to 14) (size 15 to 20)
#    0.857    0.000    1.429    6.000    2.000    6.857 
#    0.000    4.286    0.000    0.000    0.000    0.000 
#    0.000    0.000    0.000    0.000    0.000    0.000 
#
# Total GULP energy -156142.119735 kJ/mol
# GULP energy per Si atom -5576.504276 kJ/mol
# Density = 2.105159 g / cm^3
# Si number density = 21.099611 Si / 1000 Ang^3
#
#
#
# Elastic Constant Matrix: (Units=GPa)
#
#
# Indices 1 2 3 4 5 6 
#
# 1 352.1046 139.2516 361.4507 0.0000 -27.2727 0.0000
# 2 139.2516 145.6202 195.9046 0.0000 -6.8311 0.0000
# 3 361.4507 195.9046 572.1747 0.0000 -41.1954 0.0000
# 4 0.0000 0.0000 0.0000 -52.5564 0.0000 72.5867
# 5 -27.2727 -6.8311 -41.1954 0.0000 34.2613 0.0000
# 6 0.0000 0.0000 0.0000 72.5867 0.0000 -6.4681
#
#
#
# Elastic Compliance Matrix: (Units=1/GPa)
#
#
# Indices 1 2 3 4 5 6 
#
# 1 0.008300 -0.001705 -0.004607 0.000000 0.000728 0.000000
# 2 -0.001705 0.013362 -0.003726 0.000000 -0.003174 0.000000
# 3 -0.004607 -0.003726 0.006149 0.000000 0.002983 0.000000
# 4 0.000000 0.000000 0.000000 0.001312 0.000000 0.014727
# 5 0.000728 -0.003174 0.002983 0.000000 0.032720 0.000000
# 6 0.000000 0.000000 0.000000 0.014727 0.000000 0.010663
#
#
# Mechanical properties :
#
#
# Convention : Reuss Voigt Hill
#
# Bulk Modulus (GPa) = 129.30339 273.67925 201.49132
# Shear Modulus (GPa) = 52.54242 19.93355 36.23798
#
# Velocity S-wave (km/s) = 4.99561 3.07699 4.14873
# Velocity P-wave (km/s) = 9.73089 11.94209 10.89275
#
# Compressibility (1/GPa) = 0.00773375
#
# Stress axis : x y z
#
# Youngs Moduli (GPa) = 120.47879 74.84041 162.63368
#
# Poissons Ratio (x) = 0.12760 0.74929
# Poissons Ratio (y) = 0.20540 0.60603
# Poissons Ratio (z) = 0.55508 0.27888
#
# Static dielectric constant tensor:
#      x y z
#    x 1.917390 0.000000 0.013200 
#    y 0.000000 1.741680 0.000000 
#    z 0.013200 0.000000 1.689610 
# 
# From -- ./inp_files/78295.got.cif
#   From: 2010.05.17/outbox.cif.g08.bks.cpg/sg14_40_cif.got.tgz:78295.got - 2010.06.03 17:49:19.
