data_PCOD9250970
_publ_section_title
;
Structure prediction by ZEFSAII (Michael W. Deem and Ramdas Pophale) SiO2 
 PCOD9250970
Probable space group: P 21/C
;
_chemical_formula_sum "Si O2"
_cell_formula_units_Z 26
_cell_length_a 13.961545
_cell_length_b 11.222351
_cell_length_c 14.386127
_cell_angle_alpha 90.000000
_cell_angle_beta 30.997034
_cell_angle_gamma 90.000000
_cell_volume 1160.815333
_symmetry_space_group_name_H-M "P 21/C"
_symmetry_group_IT_number 14
_symmetry_cell_setting 'monoclinic'
loop_
_space_group_symop_operation_xyz
x,y,z
-x,1/2+y,1/2-z
-x,-y,-z
x,1/2-y,1/2+z
loop_
_atom_site_type_symbol
_atom_site_label
_atom_site_fract_x
_atom_site_fract_y
_atom_site_fract_z
Si Si1 0.581148 0.259094 0.975682
Si Si2 0.288880 0.275156 0.370087
Si Si3 0.558850 0.348166 0.784525
Si Si4 0.500000 0.000000 0.000000
Si Si5 0.762661 0.041025 0.435440
Si Si6 0.074038 0.515463 0.544286
Si Si7 0.171588 0.480770 0.923672
O O1 0.568459 0.298839 0.880194
O O2 0.728946 0.338439 0.906919
O O3 0.386255 0.288960 0.188846
O O4 0.606075 0.118174 0.954994
O O5 0.454465 0.244829 0.304434
O O6 0.172299 0.390932 0.490793
O O7 0.169677 0.154997 0.462712
O O8 0.765371 0.385839 0.583875
O O9 0.429044 0.466615 0.894626
O O10 0.357261 0.000754 0.209183
O O11 0.834471 0.061301 0.479542
O O12 0.905025 0.964336 0.255172
O O13 0.000000 0.500000 0.500000
O O14 0.000000 0.500000 0.000000
#
# Coordination Sequence:
#
# PCOD9250970 Si02
#       7
#     4   4   4   2   4   4   4
#     4  11  22  44  71  99 145 187 242 303 358 446
#     4  10  25  43  68 104 143 192 243 303 376 444
#     4  11  24  46  72 101 149 189 242 310 373 436
#     4  10  26  44  72 100 142 196 232 290 390 426
#     4  11  24  43  74 110 141 192 253 306 363 446
#     4  12  24  45  74 110 143 194 254 308 378 445
#     4  10  25  46  68 100 147 188 243 300 366 442
#
# _framework density 22.398049
#
# number of rings (size 3 to 8) (size 9 to 14) (size 15 to 20)
#    0.000    1.231    3.077    1.385    4.308    7.385 
#    2.769    0.000    0.000    0.000    0.000    0.000 
#    0.000    0.000    0.000    0.000    0.000    0.000 
#
# Total GULP energy -144946.346403 kJ/mol
# GULP energy per Si atom -5574.859477 kJ/mol
# Density = 2.234707 g / cm^3
# Si number density = 22.398049 Si / 1000 Ang^3
#
#
#
# Elastic Constant Matrix: (Units=GPa)
#
#
# Indices 1 2 3 4 5 6 
#
# 1 169.1539 42.4265 39.0789 0.0000 3.8951 0.0000
# 2 42.4265 60.9394 4.9709 0.0000 -6.6558 0.0000
# 3 39.0789 4.9709 85.7116 0.0000 11.9261 0.0000
# 4 0.0000 0.0000 0.0000 29.4714 0.0000 -3.5821
# 5 3.8951 -6.6558 11.9261 0.0000 32.0802 0.0000
# 6 0.0000 0.0000 0.0000 -3.5821 0.0000 31.2940
#
#
#
# Elastic Compliance Matrix: (Units=1/GPa)
#
#
# Indices 1 2 3 4 5 6 
#
# 1 0.008040 -0.005434 -0.003225 0.000000 -0.000905 0.000000
# 2 -0.005434 0.020657 0.000623 0.000000 0.004714 0.000000
# 3 -0.003225 0.000623 0.013739 0.000000 -0.004587 0.000000
# 4 0.000000 0.000000 0.000000 0.034410 0.000000 0.003939
# 5 -0.000905 0.004714 -0.004587 0.000000 0.033965 0.000000
# 6 0.000000 0.000000 0.000000 0.003939 0.000000 0.032406
#
#
# Mechanical properties :
#
#
# Convention : Reuss Voigt Hill
#
# Bulk Modulus (GPa) = 37.92693 54.30640 46.11666
# Shear Modulus (GPa) = 29.74843 33.85768 31.80305
#
# Velocity S-wave (km/s) = 3.64836 3.89219 3.77225
# Velocity P-wave (km/s) = 5.89214 6.67065 6.29344
#
# Compressibility (1/GPa) = 0.02636649
#
# Stress axis : x y z
#
# Youngs Moduli (GPa) = 124.37072 48.41068 72.78310
#
# Poissons Ratio (x) = 0.26304 0.23472
# Poissons Ratio (y) = 0.67578 -0.04538
# Poissons Ratio (z) = 0.40109 -0.03018
#
# Static dielectric constant tensor:
#      x y z
#    x 1.806670 0.000000 -0.017100 
#    y 0.000000 1.897640 0.000000 
#    z -0.017100 0.000000 1.846880 
# 
# From -- ./inp_files/47093.got.cif
#   From: 2010.05.17/outbox.cif.g08.bks.cpg/sg14_24_cif.got.tgz:47093.got - 2010.06.03 17:49:19.
