data_PCOD9250488
_publ_section_title
;
Structure prediction by ZEFSAII (Michael W. Deem and Ramdas Pophale) SiO2 
 PCOD9250488
Probable space group: P 21/C
;
_chemical_formula_sum "Si O2"
_cell_formula_units_Z 20
_cell_length_a 13.039828
_cell_length_b 6.758033
_cell_length_c 16.980326
_cell_angle_alpha 90.000000
_cell_angle_beta 147.125092
_cell_angle_gamma 90.000000
_cell_volume 812.238164
_symmetry_space_group_name_H-M "P 21/C"
_symmetry_group_IT_number 14
_symmetry_cell_setting 'monoclinic'
loop_
_space_group_symop_operation_xyz
x,y,z
-x,1/2+y,1/2-z
-x,-y,-z
x,1/2-y,1/2+z
loop_
_atom_site_type_symbol
_atom_site_label
_atom_site_fract_x
_atom_site_fract_y
_atom_site_fract_z
Si Si1 0.970769 0.234118 0.473070
Si Si2 0.752457 0.931241 0.757286
Si Si3 0.165954 0.587467 0.854620
Si Si4 0.791422 0.711826 0.525711
Si Si5 0.456054 0.915660 0.058926
O O1 0.044482 0.324447 0.601725
O O2 0.127277 0.300489 0.509303
O O3 0.785156 0.356489 0.323921
O O4 0.000000 0.000000 0.500000
O O5 0.606270 0.753471 0.681619
O O6 0.728898 0.986785 0.651665
O O7 0.208139 0.443951 0.953839
O O8 0.953539 0.632227 0.690364
O O9 0.264440 0.793653 0.930686
O O10 0.597663 0.596505 0.417853
O O11 0.500000 0.000000 0.000000
#
# Coordination Sequence:
#
# PCOD9250488 Si02
#       5
#     4   4   4   4   4
#     4  10  25  45  73  95 142 197 239 294 366 443
#     4  10  24  43  67 104 136 184 239 291 367 437
#     4  11  23  41  69 100 136 181 241 292 367 430
#     4  11  24  41  69 103 137 188 240 298 362 446
#     4  12  25  41  70 106 143 181 238 311 364 431
#
# _framework density 24.623321000000001
#
# number of rings (size 3 to 8) (size 9 to 14) (size 15 to 20)
#    0.000    1.200    4.000    0.600    8.400    1.600 
#    3.600    0.000    0.000    0.000    0.000    0.000 
#    0.000    0.000    0.000    0.000    0.000    0.000 
#
# Total GULP energy -111560.321843 kJ/mol
# GULP energy per Si atom -5578.016092 kJ/mol
# Density = 2.456728 g / cm^3
# Si number density = 24.623321 Si / 1000 Ang^3
#
#
#
# Elastic Constant Matrix: (Units=GPa)
#
#
# Indices 1 2 3 4 5 6 
#
# 1 50.1229 34.1574 13.6970 0.0000 12.2680 0.0000
# 2 34.1574 182.1565 37.2155 0.0000 23.4242 0.0000
# 3 13.6970 37.2155 72.3992 0.0000 12.7735 0.0000
# 4 0.0000 0.0000 0.0000 55.2967 0.0000 16.5672
# 5 12.2680 23.4242 12.7735 0.0000 26.2474 0.0000
# 6 0.0000 0.0000 0.0000 16.5672 0.0000 41.5661
#
#
#
# Elastic Compliance Matrix: (Units=1/GPa)
#
#
# Indices 1 2 3 4 5 6 
#
# 1 0.024516 -0.003275 -0.001585 0.000000 -0.007765 0.000000
# 2 -0.003275 0.007052 -0.002368 0.000000 -0.003610 0.000000
# 3 -0.001585 -0.002368 0.016219 0.000000 -0.005038 0.000000
# 4 0.000000 0.000000 0.000000 0.020537 0.000000 -0.008185
# 5 -0.007765 -0.003610 -0.005038 0.000000 0.047402 0.000000
# 6 0.000000 0.000000 0.000000 -0.008185 0.000000 0.027321
#
#
# Mechanical properties :
#
#
# Convention : Reuss Voigt Hill
#
# Bulk Modulus (GPa) = 30.00243 52.75761 41.38002
# Shear Modulus (GPa) = 29.65371 39.26261 34.45816
#
# Velocity S-wave (km/s) = 3.47406 3.99749 3.74493
# Velocity P-wave (km/s) = 5.32007 6.54056 5.96163
#
# Compressibility (1/GPa) = 0.03333064
#
# Stress axis : x y z
#
# Youngs Moduli (GPa) = 40.78907 141.80332 61.65783
#
# Poissons Ratio (x) = 0.46439 0.09771
# Poissons Ratio (y) = 0.13358 0.14603
# Poissons Ratio (z) = 0.06464 0.33585
#
# Static dielectric constant tensor:
#      x y z
#    x 2.031860 0.000000 -0.023970 
#    y 0.000000 2.066950 0.000000 
#    z -0.023970 0.000000 2.031890 
# 
# From -- ./inp_files/67924.got.cif
#   From: 2010.05.17/outbox.cif.g08.bks.cpg/sg14_34_cif.got.tgz:67924.got - 2010.06.03 17:49:19.
