data_PCOD9250663
_publ_section_title
;
Structure prediction by ZEFSAII (Michael W. Deem and Ramdas Pophale) SiO2 
 PCOD9250663
Probable space group: P 21/C
;
_chemical_formula_sum "Si O2"
_cell_formula_units_Z 32
_cell_length_a 9.419013
_cell_length_b 19.431476
_cell_length_c 7.952123
_cell_angle_alpha 90.000000
_cell_angle_beta 74.712156
_cell_angle_gamma 90.000000
_cell_volume 1403.936799
_symmetry_space_group_name_H-M "P 21/C"
_symmetry_group_IT_number 14
_symmetry_cell_setting 'monoclinic'
loop_
_space_group_symop_operation_xyz
x,y,z
-x,1/2+y,1/2-z
-x,-y,-z
x,1/2-y,1/2+z
loop_
_atom_site_type_symbol
_atom_site_label
_atom_site_fract_x
_atom_site_fract_y
_atom_site_fract_z
Si Si1 0.040747 0.524906 0.172535
Si Si2 0.375808 0.946553 0.488255
Si Si3 0.022401 0.881138 0.214515
Si Si4 0.657021 0.341610 0.724224
Si Si5 0.000389 0.332135 0.648800
Si Si6 0.353165 0.884540 0.133718
Si Si7 0.208651 0.296086 0.089623
Si Si8 0.432827 0.223305 0.787487
O O1 0.217320 0.530526 0.110760
O O2 0.978359 0.598023 0.252227
O O3 0.980928 0.463017 0.305742
O O4 0.000000 0.500000 0.000000
O O5 0.400230 0.875743 0.585519
O O6 0.368705 0.936648 0.287581
O O7 0.500000 0.000000 0.500000
O O8 0.185974 0.857175 0.211081
O O9 0.905112 0.858056 0.390264
O O10 0.971254 0.847871 0.056282
O O11 0.824807 0.318769 0.706989
O O12 0.649504 0.395638 0.568733
O O13 0.562641 0.275646 0.698611
O O14 0.102770 0.268897 0.668774
O O15 0.486402 0.832092 0.122717
O O16 0.335723 0.315272 0.181094
O O17 0.307823 0.270989 0.907070
#
# Coordination Sequence:
#
# PCOD9250663 Si02
#       8
#     4   4   4   4   4   4   4   4
#     4  11  24  44  69  99 133 178 231 281 340 409
#     4  11  26  43  68  99 136 181 226 280 339 407
#     4  11  24  45  70  97 138 183 228 282 341 416
#     4  10  24  45  68  95 138 183 223 274 342 414
#     4  10  24  45  67 101 135 181 229 280 341 414
#     4  11  24  46  67  97 135 184 228 270 347 414
#     4  12  25  40  70 104 136 172 227 292 344 399
#     4  12  24  43  65 103 140 173 220 287 349 405
#
# _framework density 22.793049
#
# number of rings (size 3 to 8) (size 9 to 14) (size 15 to 20)
#    0.000    1.000    3.750    1.875    5.250    0.500 
#    2.250    0.000    0.000    0.000    0.000    0.000 
#    0.000    0.000    0.000    0.000    0.000    0.000 
#
# Total GULP energy -178543.860655 kJ/mol
# GULP energy per Si atom -5579.495645 kJ/mol
# Density = 2.274117 g / cm^3
# Si number density = 22.793049 Si / 1000 Ang^3
#
#
#
# Elastic Constant Matrix: (Units=GPa)
#
#
# Indices 1 2 3 4 5 6 
#
# 1 108.2765 30.0023 37.9048 0.0000 21.5991 0.0000
# 2 30.0023 71.5071 6.8023 0.0000 7.2776 0.0000
# 3 37.9048 6.8023 44.6906 0.0000 4.9470 0.0000
# 4 0.0000 0.0000 0.0000 29.0696 0.0000 -1.4590
# 5 21.5991 7.2776 4.9470 0.0000 33.4401 0.0000
# 6 0.0000 0.0000 0.0000 -1.4590 0.0000 38.7093
#
#
#
# Elastic Compliance Matrix: (Units=1/GPa)
#
#
# Indices 1 2 3 4 5 6 
#
# 1 0.016481 -0.004951 -0.012368 0.000000 -0.007738 0.000000
# 2 -0.004951 0.015943 0.001833 0.000000 -0.000543 0.000000
# 3 -0.012368 0.001833 0.032276 0.000000 0.002815 0.000000
# 4 0.000000 0.000000 0.000000 0.034465 0.000000 0.001299
# 5 -0.007738 -0.000543 0.002815 0.000000 0.034604 0.000000
# 6 0.000000 0.000000 0.000000 0.001299 0.000000 0.025883
#
#
# Mechanical properties :
#
#
# Convention : Reuss Voigt Hill
#
# Bulk Modulus (GPa) = 29.65043 41.54367 35.59705
# Shear Modulus (GPa) = 24.76887 30.22812 27.49849
#
# Velocity S-wave (km/s) = 3.30007 3.64565 3.47716
# Velocity P-wave (km/s) = 5.24951 5.99892 5.63669
#
# Compressibility (1/GPa) = 0.03372633
#
# Stress axis : x y z
#
# Youngs Moduli (GPa) = 60.67664 62.72430 30.98297
#
# Poissons Ratio (x) = 0.31054 0.38321
# Poissons Ratio (y) = 0.30040 -0.05678
# Poissons Ratio (z) = 0.75047 -0.11495
#
# Static dielectric constant tensor:
#      x y z
#    x 1.809190 0.000000 -0.010030 
#    y 0.000000 1.833690 0.000000 
#    z -0.010030 0.000000 1.936960 
# 
# From -- ./inp_files/10197.got.cif
#   From: 2010.05.17/outbox.cif.g08.bks.cpg/sg14_6_cif.got.tgz:10197.got - 2010.06.03 17:49:19.
