data_PCOD9250669
_publ_section_title
;
Structure prediction by ZEFSAII (Michael W. Deem and Ramdas Pophale) SiO2 
 PCOD9250669
Probable space group: P 21/C
;
_chemical_formula_sum "Si O2"
_cell_formula_units_Z 32
_cell_length_a 12.289095
_cell_length_b 8.685632
_cell_length_c 14.128378
_cell_angle_alpha 90.000000
_cell_angle_beta 70.235424
_cell_angle_gamma 90.000000
_cell_volume 1419.203912
_symmetry_space_group_name_H-M "P 21/C"
_symmetry_group_IT_number 14
_symmetry_cell_setting 'monoclinic'
loop_
_space_group_symop_operation_xyz
x,y,z
-x,1/2+y,1/2-z
-x,-y,-z
x,1/2-y,1/2+z
loop_
_atom_site_type_symbol
_atom_site_label
_atom_site_fract_x
_atom_site_fract_y
_atom_site_fract_z
Si Si1 0.950222 0.827496 0.027471
Si Si2 0.724085 0.443521 0.240617
Si Si3 0.537944 0.601842 0.399103
Si Si4 0.284099 0.165250 0.430440
Si Si5 0.115146 0.097462 0.757226
Si Si6 0.057765 0.743453 0.821998
Si Si7 0.636940 0.578082 0.888411
Si Si8 0.464950 0.821446 0.715308
O O1 0.819375 0.789779 0.030161
O O2 0.939523 0.804547 0.141563
O O3 0.042124 0.732991 0.939711
O O4 0.000000 0.000000 0.000000
O O5 0.668314 0.549557 0.337025
O O6 0.749944 0.542319 0.140001
O O7 0.836448 0.357742 0.243170
O O8 0.626023 0.315876 0.248064
O O9 0.500000 0.500000 0.500000
O O10 0.545757 0.782577 0.417603
O O11 0.474337 0.594790 0.315192
O O12 0.311615 0.077371 0.520635
O O13 0.406286 0.230907 0.354169
O O14 0.252587 0.109180 0.711432
O O15 0.058572 0.171015 0.682885
O O16 0.080079 0.919254 0.783891
O O17 0.577864 0.432360 0.856467
#
# Coordination Sequence:
#
# PCOD9250669 Si02
#       8
#     4   4   4   4   4   4   4   4
#     4  10  24  45  68 101 137 188 238 293 358 434
#     4  11  25  45  68 106 141 184 238 304 355 434
#     4  11  25  43  70 103 143 187 239 290 357 435
#     4  11  24  43  76 102 144 186 243 297 364 432
#     4  11  24  44  71 100 137 187 238 296 358 436
#     4  11  25  46  67 101 139 182 240 294 368 423
#     4  12  24  46  74 103 142 192 237 298 366 431
#     4  11  24  48  69 105 147 188 238 296 367 432
#
# _framework density 22.547851000000001
#
# number of rings (size 3 to 8) (size 9 to 14) (size 15 to 20)
#    0.000    1.000    2.500    4.125    3.500    4.500 
#    2.250    0.000    0.000    0.000    0.000    0.000 
#    0.000    0.000    0.000    0.000    0.000    0.000 
#
# Total GULP energy -178696.431153 kJ/mol
# GULP energy per Si atom -5584.263474 kJ/mol
# Density = 2.249653 g / cm^3
# Si number density = 22.547851 Si / 1000 Ang^3
#
#
#
# Elastic Constant Matrix: (Units=GPa)
#
#
# Indices 1 2 3 4 5 6 
#
# 1 80.2601 41.6311 7.4671 0.0000 -11.8000 0.0000
# 2 41.6311 92.2614 28.2398 0.0000 -0.9476 0.0000
# 3 7.4671 28.2398 106.8588 0.0000 2.7644 0.0000
# 4 0.0000 0.0000 0.0000 21.1237 0.0000 -11.4903
# 5 -11.8000 -0.9476 2.7644 0.0000 34.0344 0.0000
# 6 0.0000 0.0000 0.0000 -11.4903 0.0000 47.3822
#
#
#
# Elastic Compliance Matrix: (Units=1/GPa)
#
#
# Indices 1 2 3 4 5 6 
#
# 1 0.017395 -0.008021 0.000756 0.000000 0.005746 0.000000
# 2 -0.008021 0.015503 -0.003483 0.000000 -0.002066 0.000000
# 3 0.000756 -0.003483 0.010243 0.000000 -0.000667 0.000000
# 4 0.000000 0.000000 0.000000 0.054534 0.000000 0.013225
# 5 0.005746 -0.002066 -0.000667 0.000000 0.031371 0.000000
# 6 0.000000 0.000000 0.000000 0.013225 0.000000 0.024312
#
#
# Mechanical properties :
#
#
# Convention : Reuss Voigt Hill
#
# Bulk Modulus (GPa) = 46.20336 48.22847 47.21591
# Shear Modulus (GPa) = 27.46207 33.97755 30.71981
#
# Velocity S-wave (km/s) = 3.49369 3.88610 3.69511
# Velocity P-wave (km/s) = 6.06715 6.44760 6.26026
#
# Compressibility (1/GPa) = 0.02164345
#
# Stress axis : x y z
#
# Youngs Moduli (GPa) = 57.48887 64.50317 97.62691
#
# Poissons Ratio (x) = 0.51740 -0.07377
# Poissons Ratio (y) = 0.46113 0.34004
# Poissons Ratio (z) = -0.04344 0.22467
#
# Static dielectric constant tensor:
#      x y z
#    x 1.824820 0.000000 0.012090 
#    y 0.000000 1.883230 0.000000 
#    z 0.012090 0.000000 1.846710 
# 
# From -- ./inp_files/43700.got.cif
#   From: 2010.05.17/outbox.cif.g08.bks.cpg/sg14_22_cif.got.tgz:43700.got - 2010.06.03 17:49:19.
