data_PCOD9250347
_publ_section_title
;
Structure prediction by ZEFSAII (Michael W. Deem and Ramdas Pophale) SiO2 
 PCOD9250347
Probable space group: P 21/C
;
_chemical_formula_sum "Si O2"
_cell_formula_units_Z 24
_cell_length_a 14.178837
_cell_length_b 13.437511
_cell_length_c 9.923646
_cell_angle_alpha 90.000000
_cell_angle_beta 28.078902
_cell_angle_gamma 90.000000
_cell_volume 889.944518
_symmetry_space_group_name_H-M "P 21/C"
_symmetry_group_IT_number 14
_symmetry_cell_setting 'monoclinic'
loop_
_space_group_symop_operation_xyz
x,y,z
-x,1/2+y,1/2-z
-x,-y,-z
x,1/2-y,1/2+z
loop_
_atom_site_type_symbol
_atom_site_label
_atom_site_fract_x
_atom_site_fract_y
_atom_site_fract_z
Si Si1 0.928971 0.627537 0.849125
Si Si2 0.533914 0.370868 0.536531
Si Si3 0.287361 0.512468 0.447899
Si Si4 0.455536 0.331048 0.017280
Si Si5 0.008682 0.308209 0.530216
Si Si6 0.572055 0.153374 0.686202
O O1 0.055778 0.527135 0.706835
O O2 0.969594 0.700244 0.925554
O O3 0.695216 0.608614 0.138382
O O4 0.460240 0.751652 0.479108
O O5 0.676111 0.427310 0.459100
O O6 0.599003 0.078005 0.307059
O O7 0.800911 0.148097 0.347105
O O8 0.423553 0.600565 0.670675
O O9 0.403680 0.409148 0.317330
O O10 0.220229 0.357435 0.309528
O O11 0.488371 0.259795 0.844097
O O12 0.008420 0.315380 0.367907
#
# Coordination Sequence:
#
# PCOD9250347 Si02
#       6
#     4   4   4   4   4   4
#     4  11  24  41  72  97 138 180 229 275 347 396
#     4   9  22  46  63 105 135 180 229 275 336 414
#     4  12  22  42  73  97 145 176 221 293 332 406
#     4   9  22  41  64  97 136 176 229 275 328 409
#     4  11  23  46  66 101 134 183 226 281 339 409
#     4  10  24  41  70 105 131 183 232 269 352 406
#
# _framework density 26.967974000000002
#
# number of rings (size 3 to 8) (size 9 to 14) (size 15 to 20)
#    1.000    0.667    3.333    0.500    4.667    2.000 
#    0.000    0.000    0.000    0.000    0.000    0.000 
#    0.000    0.000    0.000    0.000    0.000    0.000 
#
# Total GULP energy -134363.075131 kJ/mol
# GULP energy per Si atom -5598.461464 kJ/mol
# Density = 2.690659 g / cm^3
# Si number density = 26.967974 Si / 1000 Ang^3
#
#
#
# Elastic Constant Matrix: (Units=GPa)
#
#
# Indices 1 2 3 4 5 6 
#
# 1 65.3932 -3.0592 40.6328 0.0000 -17.3491 0.0000
# 2 -3.0592 84.3194 5.0264 0.0000 -10.0244 0.0000
# 3 40.6328 5.0264 189.9294 0.0000 -6.2523 0.0000
# 4 0.0000 0.0000 0.0000 34.7954 0.0000 -4.3084
# 5 -17.3491 -10.0244 -6.2523 0.0000 39.6550 0.0000
# 6 0.0000 0.0000 0.0000 -4.3084 0.0000 19.8924
#
#
#
# Elastic Compliance Matrix: (Units=1/GPa)
#
#
# Indices 1 2 3 4 5 6 
#
# 1 0.020246 0.002016 -0.004098 0.000000 0.008721 0.000000
# 2 0.002016 0.012437 -0.000631 0.000000 0.003926 0.000000
# 3 -0.004098 -0.000631 0.006126 0.000000 -0.000986 0.000000
# 4 0.000000 0.000000 0.000000 0.029531 0.000000 0.006396
# 5 0.008721 0.003926 -0.000986 0.000000 0.029870 0.000000
# 6 0.000000 0.000000 0.000000 0.006396 0.000000 0.051656
#
#
# Mechanical properties :
#
#
# Convention : Reuss Voigt Hill
#
# Bulk Modulus (GPa) = 29.95514 47.20465 38.57990
# Shear Modulus (GPa) = 30.04435 38.67137 34.35786
#
# Velocity S-wave (km/s) = 3.34140 3.79089 3.57322
# Velocity P-wave (km/s) = 5.10082 6.05831 5.60007
#
# Compressibility (1/GPa) = 0.03338326
#
# Stress axis : x y z
#
# Youngs Moduli (GPa) = 49.39172 80.40389 163.23904
#
# Poissons Ratio (x) = -0.16207 0.66890
# Poissons Ratio (y) = -0.09956 0.10302
# Poissons Ratio (z) = 0.20239 0.05074
#
# Static dielectric constant tensor:
#      x y z
#    x 2.349680 0.000000 0.135060 
#    y 0.000000 2.201620 0.000000 
#    z 0.135060 0.000000 2.065870 
# 
# From -- ./inp_files/32523.got.cif
#   From: 2010.05.17/outbox.cif.g08.bks.cpg/sg14_17_cif.got.tgz:32523.got - 2010.06.03 17:49:19.
