data_PCOD9250423
_publ_section_title
;
Structure prediction by ZEFSAII (Michael W. Deem and Ramdas Pophale) SiO2 
 PCOD9250423
Probable space group: P 21/C
;
_chemical_formula_sum "Si O2"
_cell_formula_units_Z 32
_cell_length_a 12.315162
_cell_length_b 13.734098
_cell_length_c 12.276214
_cell_angle_alpha 90.000000
_cell_angle_beta 46.064251
_cell_angle_gamma 90.000000
_cell_volume 1495.232019
_symmetry_space_group_name_H-M "P 21/C"
_symmetry_group_IT_number 14
_symmetry_cell_setting 'monoclinic'
loop_
_space_group_symop_operation_xyz
x,y,z
-x,1/2+y,1/2-z
-x,-y,-z
x,1/2-y,1/2+z
loop_
_atom_site_type_symbol
_atom_site_label
_atom_site_fract_x
_atom_site_fract_y
_atom_site_fract_z
Si Si1 0.759699 0.612266 0.880754
Si Si2 0.177451 0.980807 0.866331
Si Si3 0.747601 0.569084 0.452780
Si Si4 0.059215 0.092437 0.527886
Si Si5 0.935882 0.695715 0.180142
Si Si6 0.760125 0.216544 0.078572
Si Si7 0.506535 0.761102 0.105183
Si Si8 0.745180 0.129545 0.854260
O O1 0.761767 0.530904 0.785522
O O2 0.830357 0.575964 0.946345
O O3 0.868900 0.700297 0.762264
O O4 0.596662 0.662935 0.012139
O O5 0.204368 0.864896 0.854583
O O6 0.243354 0.029618 0.930770
O O7 0.000000 0.000000 0.000000
O O8 0.901254 0.617541 0.298642
O O9 0.630970 0.656364 0.529982
O O10 0.705261 0.484360 0.396370
O O11 0.137750 0.160973 0.382703
O O12 0.905997 0.137977 0.683578
O O13 0.000000 0.000000 0.500000
O O14 0.110752 0.703678 0.026502
O O15 0.591943 0.251153 0.217509
O O16 0.769258 0.161399 0.959713
O O17 0.382424 0.803637 0.108746
#
# Coordination Sequence:
#
# PCOD9250423 Si02
#       8
#     4   4   4   4   4   4   4   4
#     4  11  26  44  68 105 136 178 233 286 343 416
#     4  11  23  44  72  95 137 178 230 283 348 400
#     4  10  24  42  69  99 136 186 223 282 355 404
#     4  12  24  45  72 107 135 178 237 288 344 411
#     4  11  22  40  72 100 134 176 236 287 327 411
#     4  11  24  42  66  98 138 180 226 287 338 418
#     4  11  26  42  67 100 140 177 224 283 344 412
#     4  11  22  45  67  99 139 179 233 280 349 412
#
# _framework density 21.401361999999999
#
# number of rings (size 3 to 8) (size 9 to 14) (size 15 to 20)
#    0.000    1.000    5.000    1.125    5.250    2.500 
#    4.500    0.000    0.000    0.000    0.000    0.000 
#    0.000    0.000    0.000    0.000    0.000    0.000 
#
# Total GULP energy -178651.683260 kJ/mol
# GULP energy per Si atom -5582.865102 kJ/mol
# Density = 2.135265 g / cm^3
# Si number density = 21.401362 Si / 1000 Ang^3
#
#
#
# Elastic Constant Matrix: (Units=GPa)
#
#
# Indices 1 2 3 4 5 6 
#
# 1 79.7480 30.2050 26.5509 0.0000 6.8555 0.0000
# 2 30.2050 74.0572 31.6787 0.0000 8.4306 0.0000
# 3 26.5509 31.6787 111.5885 0.0000 -0.4448 0.0000
# 4 0.0000 0.0000 0.0000 56.2042 0.0000 13.4560
# 5 6.8555 8.4306 -0.4448 0.0000 42.7159 0.0000
# 6 0.0000 0.0000 0.0000 13.4560 0.0000 32.2670
#
#
#
# Elastic Compliance Matrix: (Units=1/GPa)
#
#
# Indices 1 2 3 4 5 6 
#
# 1 0.015349 -0.005154 -0.002195 0.000000 -0.001469 0.000000
# 2 -0.005154 0.017516 -0.003757 0.000000 -0.002669 0.000000
# 3 -0.002195 -0.003757 0.010555 0.000000 0.001204 0.000000
# 4 0.000000 0.000000 0.000000 0.019766 0.000000 -0.008243
# 5 -0.001469 -0.002669 0.001204 0.000000 0.024186 0.000000
# 6 0.000000 0.000000 0.000000 -0.008243 0.000000 0.034429
#
#
# Mechanical properties :
#
#
# Convention : Reuss Voigt Hill
#
# Bulk Modulus (GPa) = 47.15107 49.14033 48.14570
# Shear Modulus (GPa) = 33.09494 38.03469 35.56482
#
# Velocity S-wave (km/s) = 3.93669 4.22027 4.08094
# Velocity P-wave (km/s) = 6.53781 6.83803 6.68961
#
# Compressibility (1/GPa) = 0.02120843
#
# Stress axis : x y z
#
# Youngs Moduli (GPa) = 65.15261 57.09029 94.74157
#
# Poissons Ratio (x) = 0.29425 0.20792
# Poissons Ratio (y) = 0.33580 0.35594
# Poissons Ratio (z) = 0.14299 0.21448
#
# Static dielectric constant tensor:
#      x y z
#    x 1.772350 0.000000 0.012440 
#    y 0.000000 1.856600 0.000000 
#    z 0.012440 0.000000 1.790380 
# 
# From -- ./inp_files/30019.got.cif
#   From: 2010.05.17/outbox.cif.g08.bks.cpg/sg14_16_cif.got.tgz:30019.got - 2010.06.03 17:49:19.
