data_PCOD9250248
_publ_section_title
;
Structure prediction by ZEFSAII (Michael W. Deem and Ramdas Pophale) SiO2 
 PCOD9250248
Probable space group: P 21/C
;
_chemical_formula_sum "Si O2"
_cell_formula_units_Z 32
_cell_length_a 29.894194
_cell_length_b 4.866952
_cell_length_c 30.184463
_cell_angle_alpha 90.000000
_cell_angle_beta 164.158272
_cell_angle_gamma 90.000000
_cell_volume 1198.835806
_symmetry_space_group_name_H-M "P 21/C"
_symmetry_group_IT_number 14
_symmetry_cell_setting 'monoclinic'
loop_
_space_group_symop_operation_xyz
x,y,z
-x,1/2+y,1/2-z
-x,-y,-z
x,1/2-y,1/2+z
loop_
_atom_site_type_symbol
_atom_site_label
_atom_site_fract_x
_atom_site_fract_y
_atom_site_fract_z
Si Si1 0.895162 0.640742 0.252692
Si Si2 0.113100 0.569452 0.849157
Si Si3 0.332594 0.465292 0.793004
Si Si4 0.547580 0.555008 0.485734
Si Si5 0.836900 0.167723 0.785181
Si Si6 0.084698 0.335501 0.959965
Si Si7 0.377607 0.769507 0.747438
Si Si8 0.588898 0.133523 0.817797
O O1 0.822901 0.543323 0.137329
O O2 0.809888 0.533247 0.216717
O O3 0.024258 0.191901 0.286600
O O4 0.061794 0.455190 0.414562
O O5 0.952520 0.547745 0.812428
O O6 0.252292 0.714095 0.011067
O O7 0.398089 0.158925 0.850918
O O8 0.196367 0.524861 0.699921
O O9 0.489921 0.664303 0.953246
O O10 0.297140 0.587934 0.710142
O O11 0.707382 0.412050 0.655910
O O12 0.541736 0.612902 0.427468
O O13 0.015648 0.291566 0.944411
O O14 0.256845 0.480697 0.121884
O O15 0.411928 0.612346 0.735633
O O16 0.559265 0.838251 0.810522
#
# Coordination Sequence:
#
# PCOD9250248 Si02
#       8
#     4   4   4   4   4   4   4   4
#     4  10  24  38  69  91 132 162 225 266 327 383
#     4  12  25  46  72  98 134 183 233 281 343 411
#     4  10  24  38  68  94 132 173 215 266 329 390
#     4  10  24  39  67  87 131 170 217 261 326 380
#     4  10  24  40  67  98 131 166 226 266 322 388
#     4  10  24  41  68  95 133 172 211 274 326 389
#     4  10  26  44  68  91 139 168 220 264 345 392
#     4  12  29  45  71 103 139 177 231 290 350 412
#
# _framework density 26.692564999999998
#
# number of rings (size 3 to 8) (size 9 to 14) (size 15 to 20)
#    1.500    0.000    0.000    3.750    8.750    1.500 
#    0.000    1.250    0.000    0.000    0.000    0.000 
#    0.000    0.000    0.000    0.000    0.000    0.000 
#
# Total GULP energy -179229.070957 kJ/mol
# GULP energy per Si atom -5600.908467 kJ/mol
# Density = 2.663181 g / cm^3
# Si number density = 26.692565 Si / 1000 Ang^3
#
#
#
# Elastic Constant Matrix: (Units=GPa)
#
#
# Indices 1 2 3 4 5 6 
#
# 1 188.7203 30.1170 3.3098 0.0000 -2.2875 0.0000
# 2 30.1170 118.7746 5.7053 0.0000 9.5179 0.0000
# 3 3.3098 5.7053 64.8369 0.0000 -5.6348 0.0000
# 4 0.0000 0.0000 0.0000 47.9311 0.0000 5.3592
# 5 -2.2875 9.5179 -5.6348 0.0000 31.0939 0.0000
# 6 0.0000 0.0000 0.0000 5.3592 0.0000 40.2243
#
#
#
# Elastic Compliance Matrix: (Units=1/GPa)
#
#
# Indices 1 2 3 4 5 6 
#
# 1 0.005545 -0.001470 -0.000080 0.000000 0.000843 0.000000
# 2 -0.001470 0.009086 -0.000991 0.000000 -0.003069 0.000000
# 3 -0.000080 -0.000991 0.015789 0.000000 0.003159 0.000000
# 4 0.000000 0.000000 0.000000 0.021179 0.000000 -0.002822
# 5 0.000843 -0.003069 0.003159 0.000000 0.033735 0.000000
# 6 0.000000 0.000000 0.000000 -0.002822 0.000000 0.025237
#
#
# Mechanical properties :
#
#
# Convention : Reuss Voigt Hill
#
# Bulk Modulus (GPa) = 39.46791 50.06621 44.76706
# Shear Modulus (GPa) = 40.29077 46.06318 43.17698
#
# Velocity S-wave (km/s) = 3.88936 4.15865 4.02626
# Velocity P-wave (km/s) = 5.91504 6.46966 6.19856
#
# Compressibility (1/GPa) = 0.02533704
#
# Stress axis : x y z
#
# Youngs Moduli (GPa) = 180.34182 110.06538 63.33456
#
# Poissons Ratio (x) = 0.16177 0.00510
# Poissons Ratio (y) = 0.26505 0.06277
# Poissons Ratio (z) = 0.01451 0.10909
#
# Static dielectric constant tensor:
#      x y z
#    x 2.135050 0.000000 -0.022450 
#    y 0.000000 2.017930 0.000000 
#    z -0.022450 0.000000 2.188560 
# 
# From -- ./inp_files/80762.got.cif
#   From: 2010.05.17/outbox.cif.g08.bks.cpg/sg14_41_cif.got.tgz:80762.got - 2010.06.03 17:49:19.
