data_PCOD9250380
_publ_section_title
;
Structure prediction by ZEFSAII (Michael W. Deem and Ramdas Pophale) SiO2 
 PCOD9250380
Probable space group: P 21/C
;
_chemical_formula_sum "Si O2"
_cell_formula_units_Z 24
_cell_length_a 9.743572
_cell_length_b 9.870595
_cell_length_c 10.506301
_cell_angle_alpha 90.000000
_cell_angle_beta 89.443838
_cell_angle_gamma 90.000000
_cell_volume 1010.394352
_symmetry_space_group_name_H-M "P 21/C"
_symmetry_group_IT_number 14
_symmetry_cell_setting 'monoclinic'
loop_
_space_group_symop_operation_xyz
x,y,z
-x,1/2+y,1/2-z
-x,-y,-z
x,1/2-y,1/2+z
loop_
_atom_site_type_symbol
_atom_site_label
_atom_site_fract_x
_atom_site_fract_y
_atom_site_fract_z
Si Si1 0.065903 0.646699 0.993059
Si Si2 0.843016 0.109911 0.873695
Si Si3 0.656984 0.109915 0.626318
Si Si4 0.434095 0.646698 0.506933
Si Si5 0.158522 0.296502 0.624968
Si Si6 0.658516 0.796508 0.624966
O O1 0.226871 0.616231 0.984285
O O2 0.980603 0.710478 0.877542
O O3 0.055006 0.766916 0.097227
O O4 0.000000 0.500000 0.000000
O O5 0.749999 0.131691 0.750008
O O6 0.726874 0.116226 0.984300
O O7 0.889064 0.954290 0.874743
O O8 0.555007 0.233089 0.597239
O O9 0.610932 0.954296 0.625263
O O10 0.500000 0.500000 0.500000
O O11 0.519390 0.710484 0.622448
O O12 0.250004 0.277697 0.750001
O O13 0.250002 0.249995 0.500001
#
# Coordination Sequence:
#
# PCOD9250380 Si02
#       6
#     4   4   4   4   4   4
#     4  11  23  42  63  95 130 166 220 267 320 386
#     4  10  24  42  65  94 127 173 216 268 327 383
#     4  10  24  42  65  94 127 173 216 268 327 383
#     4  11  23  42  63  95 130 166 220 267 320 386
#     4  11  24  44  66  96 132 172 216 267 328 384
#     4  11  24  44  66  96 132 172 216 267 328 384
#
# _framework density 23.753105000000001
#
# number of rings (size 3 to 8) (size 9 to 14) (size 15 to 20)
#    0.000    1.333    3.333    1.000    4.667    1.333 
#    0.000    0.000    0.000    0.000    0.000    0.000 
#    0.000    0.000    0.000    0.000    0.000    0.000 
#
# Total GULP energy -133786.493717 kJ/mol
# GULP energy per Si atom -5574.437238 kJ/mol
# Density = 2.369904 g / cm^3
# Si number density = 23.753105 Si / 1000 Ang^3
#
#
#
# Elastic Constant Matrix: (Units=GPa)
#
#
# Indices 1 2 3 4 5 6 
#
# 1 57.2699 35.4304 -4.3976 0.0000 11.3540 0.0000
# 2 35.4304 240.0254 70.3882 0.0000 43.3304 0.0000
# 3 -4.3976 70.3882 115.4311 0.0000 13.6235 0.0000
# 4 0.0000 0.0000 0.0000 26.9566 0.0000 35.3751
# 5 11.3540 43.3304 13.6235 0.0000 32.0959 0.0000
# 6 0.0000 0.0000 0.0000 35.3751 0.0000 38.1304
#
#
#
# Elastic Compliance Matrix: (Units=1/GPa)
#
#
# Indices 1 2 3 4 5 6 
#
# 1 0.020550 -0.003206 0.003248 0.000000 -0.004320 0.000000
# 2 -0.003206 0.006875 -0.003530 0.000000 -0.006649 0.000000
# 3 0.003248 -0.003530 0.011067 0.000000 -0.001081 0.000000
# 4 0.000000 0.000000 0.000000 -0.170583 0.000000 0.158256
# 5 -0.004320 -0.006649 -0.001081 0.000000 0.042120 0.000000
# 6 0.000000 0.000000 0.000000 0.158256 0.000000 -0.120595
#
#
# Mechanical properties :
#
#
# Convention : Reuss Voigt Hill
#
# Bulk Modulus (GPa) = 31.72947 68.39649 50.06298
# Shear Modulus (GPa) = -25.89541 40.19028 7.14743
#
# Velocity S-wave (km/s) = -3.30539 4.11786 1.73654
# Velocity P-wave (km/s) = 1.08646 7.17400 5.01427
#
# Compressibility (1/GPa) = 0.03151644
#
# Stress axis : x y z
#
# Youngs Moduli (GPa) = 48.66072 145.45858 90.36023
#
# Poissons Ratio (x) = 0.46634 -0.29347
# Poissons Ratio (y) = 0.15601 0.31893
# Poissons Ratio (z) = -0.15804 0.51341
#
# Static dielectric constant tensor:
#      x y z
#    x 2.009650 0.000000 -0.120010 
#    y 0.000000 1.956150 0.000000 
#    z -0.120010 0.000000 2.031430 
# 
# From -- ./inp_files/28193.got.cif
#   From: 2010.05.17/outbox.cif.g08.bks.cpg/sg14_15_cif.got.tgz:28193.got - 2010.06.03 17:49:19.
