data_PCOD9250440
_publ_section_title
;
Structure prediction by ZEFSAII (Michael W. Deem and Ramdas Pophale) SiO2 
 PCOD9250440
Probable space group: P 21/C
;
_chemical_formula_sum "Si O2"
_cell_formula_units_Z 32
_cell_length_a 29.227231
_cell_length_b 5.275609
_cell_length_c 8.985037
_cell_angle_alpha 90.000000
_cell_angle_beta 92.792741
_cell_angle_gamma 90.000000
_cell_volume 1383.770387
_symmetry_space_group_name_H-M "P 21/C"
_symmetry_group_IT_number 14
_symmetry_cell_setting 'monoclinic'
loop_
_space_group_symop_operation_xyz
x,y,z
-x,1/2+y,1/2-z
-x,-y,-z
x,1/2-y,1/2+z
loop_
_atom_site_type_symbol
_atom_site_label
_atom_site_fract_x
_atom_site_fract_y
_atom_site_fract_z
Si Si1 0.856850 0.213008 0.313002
Si Si2 0.295372 0.015132 0.065951
Si Si3 0.887029 0.577521 0.076732
Si Si4 0.808636 0.960954 0.058270
Si Si5 0.671231 0.491484 0.095809
Si Si6 0.985887 0.625278 0.158738
Si Si7 0.517733 0.272951 0.400786
Si Si8 0.433336 0.021609 0.334696
O O1 0.886096 0.347040 0.191921
O O2 0.886517 0.008731 0.406016
O O3 0.838190 0.399220 0.435970
O O4 0.813850 0.097249 0.217941
O O5 0.242750 0.036401 0.005659
O O6 0.300190 0.991699 0.245057
O O7 0.316480 0.278891 0.012049
O O8 0.319615 0.774661 0.988015
O O9 0.933350 0.718305 0.123222
O O10 0.837121 0.704482 0.087976
O O11 0.619279 0.550540 0.139119
O O12 0.009917 0.882978 0.226083
O O13 0.000000 0.500000 0.000000
O O14 0.500000 0.500000 0.500000
O O15 0.559481 0.329744 0.297334
O O16 0.541550 0.073070 0.513593
O O17 0.471365 0.230955 0.296035
#
# Coordination Sequence:
#
# PCOD9250440 Si02
#       8
#     4   4   4   4   4   4   4   4
#     4  10  24  42  71 105 137 181 237 309 350 427
#     4  12  29  50  75 109 147 199 244 307 371 453
#     4  11  25  43  74 104 142 189 242 297 362 425
#     4  11  25  43  75 100 144 180 249 297 364 422
#     4  12  29  49  76 108 155 195 246 300 384 445
#     4  12  29  49  76 109 156 199 245 301 369 451
#     4  11  23  42  67 101 133 177 239 290 346 411
#     4  11  25  41  72  98 140 184 234 298 352 429
#
# _framework density 23.125225
#
# number of rings (size 3 to 8) (size 9 to 14) (size 15 to 20)
#    0.000    0.750    1.250    4.125   17.500    0.000 
#    0.000    0.000    0.000    0.000    0.000    0.000 
#    0.000    0.000    0.000    0.000    0.000    0.000 
#
# Total GULP energy -178572.936750 kJ/mol
# GULP energy per Si atom -5580.404273 kJ/mol
# Density = 2.307259 g / cm^3
# Si number density = 23.125225 Si / 1000 Ang^3
#
#
#
# Elastic Constant Matrix: (Units=GPa)
#
#
# Indices 1 2 3 4 5 6 
#
# 1 78.5831 -7.6340 -16.8704 0.0000 19.0831 0.0000
# 2 -7.6340 71.0861 15.0592 0.0000 6.4053 0.0000
# 3 -16.8704 15.0592 84.4169 0.0000 3.7703 0.0000
# 4 0.0000 0.0000 0.0000 5.6810 0.0000 -1.6727
# 5 19.0831 6.4053 3.7703 0.0000 32.4398 0.0000
# 6 0.0000 0.0000 0.0000 -1.6727 0.0000 26.7125
#
#
#
# Elastic Compliance Matrix: (Units=1/GPa)
#
#
# Indices 1 2 3 4 5 6 
#
# 1 0.016120 0.001949 0.003332 0.000000 -0.010255 0.000000
# 2 0.001949 0.015077 -0.002127 0.000000 -0.003877 0.000000
# 3 0.003332 -0.002127 0.013028 0.000000 -0.003054 0.000000
# 4 0.000000 0.000000 0.000000 0.179331 0.000000 0.011230
# 5 -0.010255 -0.003877 -0.003054 0.000000 0.037980 0.000000
# 6 0.000000 0.000000 0.000000 0.011230 0.000000 0.038139
#
#
# Mechanical properties :
#
#
# Convention : Reuss Voigt Hill
#
# Bulk Modulus (GPa) = 19.78877 23.91061 21.84969
# Shear Modulus (GPa) = 16.11815 29.20208 22.66011
#
# Velocity S-wave (km/s) = 2.64293 3.55742 3.13371
# Velocity P-wave (km/s) = 4.22957 5.21878 4.75000
#
# Compressibility (1/GPa) = 0.05053371
#
# Stress axis : x y z
#
# Youngs Moduli (GPa) = 62.03311 66.32771 76.75980
#
# Poissons Ratio (x) = -0.12930 -0.25575
# Poissons Ratio (y) = -0.12093 0.16325
# Poissons Ratio (z) = -0.20669 0.14107
#
# Static dielectric constant tensor:
#      x y z
#    x 3.317870 0.000000 -0.636280 
#    y 0.000000 2.168950 0.000000 
#    z -0.636280 0.000000 2.164440 
# 
# From -- ./inp_files/19855.got.cif
#   From: 2010.05.17/outbox.cif.g08.bks.cpg/sg14_10_cif.got.tgz:19855.got - 2010.06.03 17:49:19.
