data_PCOD9250005
_publ_section_title
;
Structure prediction by ZEFSAII (Michael W. Deem and Ramdas Pophale) SiO2 
 PCOD9250005
Probable space group: P 21/C
;
_chemical_formula_sum "Si O2"
_cell_formula_units_Z 20
_cell_length_a 17.192028
_cell_length_b 8.754263
_cell_length_c 9.204298
_cell_angle_alpha 90.000000
_cell_angle_beta 141.779688
_cell_angle_gamma 90.000000
_cell_volume 857.054278
_symmetry_space_group_name_H-M "P 21/C"
_symmetry_group_IT_number 14
_symmetry_cell_setting 'monoclinic'
loop_
_space_group_symop_operation_xyz
x,y,z
-x,1/2+y,1/2-z
-x,-y,-z
x,1/2-y,1/2+z
loop_
_atom_site_type_symbol
_atom_site_label
_atom_site_fract_x
_atom_site_fract_y
_atom_site_fract_z
Si Si1 0.509789 0.436581 0.173872
Si Si2 0.913465 0.422009 0.077897
Si Si3 0.268595 0.397356 0.019537
Si Si4 0.962247 0.744409 0.987197
Si Si5 0.437179 0.126892 0.007830
O O1 0.604260 0.536103 0.409855
O O2 0.500000 0.500000 0.000000
O O3 0.374904 0.438520 0.058436
O O4 0.533101 0.256853 0.197889
O O5 0.784397 0.454504 0.973455
O O6 0.942057 0.585552 0.044774
O O7 0.003517 0.370127 0.342026
O O8 0.930756 0.296828 0.976192
O O9 0.157701 0.304329 0.779269
O O10 0.332644 0.304639 0.247287
O O11 0.500000 0.000000 0.000000
#
# Coordination Sequence:
#
# PCOD9250005 Si02
#       5
#     4   4   4   4   4
#     4  11  23  44  71 103 138 178 234 295 346 425
#     4  11  24  45  68 102 141 184 239 293 341 421
#     4  11  23  45  72  99 138 194 228 272 369 415
#     4  11  24  45  71 100 142 184 239 290 345 422
#     4  10  23  45  69  98 138 181 234 286 348 429
#
# _framework density 23.335746
#
# number of rings (size 3 to 8) (size 9 to 14) (size 15 to 20)
#    0.000    1.200    2.000    4.200    0.000    0.000 
#   18.000    0.000    0.000    0.000    0.000    0.000 
#    0.000    0.000    0.000    0.000    0.000    0.000 
#
# Total GULP energy -111605.285288 kJ/mol
# GULP energy per Si atom -5580.264264 kJ/mol
# Density = 2.328263 g / cm^3
# Si number density = 23.335746 Si / 1000 Ang^3
#
#
#
# Elastic Constant Matrix: (Units=GPa)
#
#
# Indices 1 2 3 4 5 6 
#
# 1 146.0772 33.0167 36.4723 0.0000 -27.3178 0.0000
# 2 33.0167 100.4606 52.6794 0.0000 -13.7506 0.0000
# 3 36.4723 52.6794 138.4000 0.0000 -41.2285 0.0000
# 4 0.0000 0.0000 0.0000 35.3956 0.0000 -11.5182
# 5 -27.3178 -13.7506 -41.2285 0.0000 38.9980 0.0000
# 6 0.0000 0.0000 0.0000 -11.5182 0.0000 44.5285
#
#
#
# Elastic Compliance Matrix: (Units=1/GPa)
#
#
# Indices 1 2 3 4 5 6 
#
# 1 0.008252 -0.002090 0.000180 0.000000 0.005234 0.000000
# 2 -0.002090 0.012988 -0.005057 0.000000 -0.002231 0.000000
# 3 0.000180 -0.005057 0.012567 0.000000 0.011629 0.000000
# 4 0.000000 0.000000 0.000000 0.030849 0.000000 0.007980
# 5 0.005234 -0.002231 0.011629 0.000000 0.040816 0.000000
# 6 0.000000 0.000000 0.000000 0.007980 0.000000 0.024522
#
#
# Mechanical properties :
#
#
# Convention : Reuss Voigt Hill
#
# Bulk Modulus (GPa) = 50.32244 69.91939 60.12092
# Shear Modulus (GPa) = 33.21119 41.30237 37.25678
#
# Velocity S-wave (km/s) = 3.77661 4.21160 4.00003
# Velocity P-wave (km/s) = 6.37404 7.32650 6.86680
#
# Compressibility (1/GPa) = 0.01987185
#
# Stress axis : x y z
#
# Youngs Moduli (GPa) = 121.18416 76.99622 79.57252
#
# Poissons Ratio (x) = 0.16093 -0.01433
# Poissons Ratio (y) = 0.25328 0.40243
# Poissons Ratio (z) = -0.02182 0.38940
#
# Static dielectric constant tensor:
#      x y z
#    x 1.932540 0.000000 0.037840 
#    y 0.000000 1.985610 0.000000 
#    z 0.037840 0.000000 1.949140 
# 
# From -- ./inp_files/18538.got.cif
#   From: 2010.05.17/outbox.cif.g08.bks.cpg/sg14_10_cif.got.tgz:18538.got - 2010.06.03 17:49:19.
