data_PCOD9250684
_publ_section_title
;
Structure prediction by ZEFSAII (Michael W. Deem and Ramdas Pophale) SiO2 
 PCOD9250684
Probable space group: P 21/C
;
_chemical_formula_sum "Si O2"
_cell_formula_units_Z 32
_cell_length_a 20.544838
_cell_length_b 13.170862
_cell_length_c 8.028022
_cell_angle_alpha 90.000000
_cell_angle_beta 138.147668
_cell_angle_gamma 90.000000
_cell_volume 1449.405913
_symmetry_space_group_name_H-M "P 21/C"
_symmetry_group_IT_number 14
_symmetry_cell_setting 'monoclinic'
loop_
_space_group_symop_operation_xyz
x,y,z
-x,1/2+y,1/2-z
-x,-y,-z
x,1/2-y,1/2+z
loop_
_atom_site_type_symbol
_atom_site_label
_atom_site_fract_x
_atom_site_fract_y
_atom_site_fract_z
Si Si1 0.707899 0.950240 0.945269
Si Si2 0.472457 0.377263 0.747407
Si Si3 0.069861 0.098888 0.619382
Si Si4 0.916844 0.410233 0.332012
Si Si5 0.454343 0.786638 0.951618
Si Si6 0.408044 0.440548 0.123505
Si Si7 0.703910 0.444692 0.789321
Si Si8 0.985849 0.264143 0.709967
O O1 0.638128 0.868022 0.904660
O O2 0.660728 0.953967 0.669605
O O3 0.820362 0.927898 0.130888
O O4 0.708616 0.031424 0.100296
O O5 0.513082 0.318952 0.667285
O O6 0.540614 0.333683 0.022799
O O7 0.499319 0.491367 0.753035
O O8 0.032278 0.188340 0.665959
O O9 0.064325 0.156158 0.431901
O O10 0.000000 0.000000 0.500000
O O11 0.908784 0.345425 0.488261
O O12 0.945970 0.318377 0.263466
O O13 0.000000 0.500000 0.500000
O O14 0.813519 0.449456 0.070118
O O15 0.541600 0.835029 0.230708
O O16 0.351275 0.837051 0.796241
O O17 0.357254 0.483371 0.196444
#
# Coordination Sequence:
#
# PCOD9250684 Si02
#       8
#     4   4   4   4   4   4   4   4
#     4  12  24  42  73  97 136 186 232 281 361 421
#     4  11  23  42  65  98 134 181 224 290 344 414
#     4  11  25  46  68 105 138 181 236 295 357 433
#     4  11  24  45  72 100 142 185 229 303 358 426
#     4  11  23  43  66  97 143 176 230 293 342 422
#     4  11  24  44  66  96 139 171 234 284 341 421
#     4  11  24  44  68 100 137 185 230 285 360 414
#     4  10  24  45  69  97 144 175 232 294 353 424
#
# _framework density 22.078009999999999
#
# number of rings (size 3 to 8) (size 9 to 14) (size 15 to 20)
#    0.000    1.000    2.500    4.125    5.250    4.000 
#    4.500    0.000    0.000    0.000    0.000    0.000 
#    0.000    0.000    0.000    0.000    0.000    0.000 
#
# Total GULP energy -178160.523864 kJ/mol
# GULP energy per Si atom -5567.516371 kJ/mol
# Density = 2.202776 g / cm^3
# Si number density = 22.078010 Si / 1000 Ang^3
#
#
#
# Elastic Constant Matrix: (Units=GPa)
#
#
# Indices 1 2 3 4 5 6 
#
# 1 48.8396 21.3898 32.0482 0.0000 3.6782 0.0000
# 2 21.3898 60.3281 0.8723 0.0000 11.3297 0.0000
# 3 32.0482 0.8723 115.1435 0.0000 16.4148 0.0000
# 4 0.0000 0.0000 0.0000 35.5410 0.0000 -12.0062
# 5 3.6782 11.3297 16.4148 0.0000 41.4789 0.0000
# 6 0.0000 0.0000 0.0000 -12.0062 0.0000 23.7317
#
#
#
# Elastic Compliance Matrix: (Units=1/GPa)
#
#
# Indices 1 2 3 4 5 6 
#
# 1 0.031368 -0.011754 -0.009223 0.000000 0.004079 0.000000
# 2 -0.011754 0.021914 0.004038 0.000000 -0.006541 0.000000
# 3 -0.009223 0.004038 0.011935 0.000000 -0.005008 0.000000
# 4 0.000000 0.000000 0.000000 0.033936 0.000000 0.017169
# 5 0.004079 -0.006541 -0.005008 0.000000 0.027516 0.000000
# 6 0.000000 0.000000 0.000000 0.017169 0.000000 0.050824
#
#
# Mechanical properties :
#
#
# Convention : Reuss Voigt Hill
#
# Bulk Modulus (GPa) = 31.91000 36.99242 34.45121
# Shear Modulus (GPa) = 22.54098 31.48371 27.01235
#
# Velocity S-wave (km/s) = 3.19873 3.78037 3.50164
# Velocity P-wave (km/s) = 5.30350 5.98720 5.65569
#
# Compressibility (1/GPa) = 0.03133814
#
# Stress axis : x y z
#
# Youngs Moduli (GPa) = 31.87945 45.63346 83.78483
#
# Poissons Ratio (x) = 0.53640 0.77277
# Poissons Ratio (y) = 0.37473 -0.33834
# Poissons Ratio (z) = 0.29403 -0.18428
#
# Static dielectric constant tensor:
#      x y z
#    x 1.830500 0.000000 -0.109920 
#    y 0.000000 1.829440 0.000000 
#    z -0.109920 0.000000 1.919020 
# 
# From -- ./inp_files/19038.got.cif
#   From: 2010.05.17/outbox.cif.g08.bks.cpg/sg14_10_cif.got.tgz:19038.got - 2010.06.03 17:49:19.
