data_PCOD9250048
_publ_section_title
;
Structure prediction by ZEFSAII (Michael W. Deem and Ramdas Pophale) SiO2 
 PCOD9250048
Probable space group: P 21/C
;
_chemical_formula_sum "Si O2"
_cell_formula_units_Z 24
_cell_length_a 16.770051
_cell_length_b 7.519924
_cell_length_c 22.758227
_cell_angle_alpha 90.000000
_cell_angle_beta 18.635260
_cell_angle_gamma 90.000000
_cell_volume 917.096213
_symmetry_space_group_name_H-M "P 21/C"
_symmetry_group_IT_number 14
_symmetry_cell_setting 'monoclinic'
loop_
_space_group_symop_operation_xyz
x,y,z
-x,1/2+y,1/2-z
-x,-y,-z
x,1/2-y,1/2+z
loop_
_atom_site_type_symbol
_atom_site_label
_atom_site_fract_x
_atom_site_fract_y
_atom_site_fract_z
Si Si1 0.227163 0.192021 0.018222
Si Si2 0.435180 0.128731 0.990939
Si Si3 0.239278 0.938586 0.705802
Si Si4 0.054367 0.711339 0.508242
Si Si5 0.658422 0.860827 0.197640
Si Si6 0.115962 0.896956 0.582922
O O1 0.401277 0.101861 0.945067
O O2 0.154957 0.399218 0.074970
O O3 0.961510 0.093046 0.204082
O O4 0.325468 0.167577 0.883318
O O5 0.144298 0.178568 0.210052
O O6 0.675194 0.256277 0.824765
O O7 0.500000 0.000000 0.000000
O O8 0.500000 0.000000 0.500000
O O9 0.127064 0.078031 0.828684
O O10 0.879891 0.747502 0.574410
O O11 0.281340 0.573947 0.336124
O O12 0.105692 0.866184 0.519105
O O13 0.383980 0.811858 0.412353
#
# Coordination Sequence:
#
# PCOD9250048 Si02
#       6
#     4   4   4   4   4   4
#     4  11  27  45  71 105 146 189 247 309 364 446
#     4  12  27  48  72 109 147 195 249 311 378 441
#     4  11  23  44  70 103 144 188 241 306 369 445
#     4  10  23  45  75 102 148 197 239 300 380 437
#     4  10  24  47  71 105 146 196 241 299 368 444
#     4  12  24  45  74 111 140 197 247 309 365 446
#
# _framework density 26.169553000000001
#
# number of rings (size 3 to 8) (size 9 to 14) (size 15 to 20)
#    0.000    1.000    3.333    2.000    4.667    3.333 
#    9.000    0.000    0.000    0.000    0.000    0.000 
#    0.000    0.000    0.000    0.000    0.000    0.000 
#
# Total GULP energy -134093.743864 kJ/mol
# GULP energy per Si atom -5587.239328 kJ/mol
# Density = 2.610999 g / cm^3
# Si number density = 26.169553 Si / 1000 Ang^3
#
#
#
# Elastic Constant Matrix: (Units=GPa)
#
#
# Indices 1 2 3 4 5 6 
#
# 1 184.7455 41.9826 7.0715 0.0000 -22.3797 0.0000
# 2 41.9826 79.2966 18.0288 0.0000 1.7744 0.0000
# 3 7.0715 18.0288 93.6816 0.0000 -28.5851 0.0000
# 4 0.0000 0.0000 0.0000 29.2677 0.0000 4.7023
# 5 -22.3797 1.7744 -28.5851 0.0000 37.4709 0.0000
# 6 0.0000 0.0000 0.0000 4.7023 0.0000 33.3956
#
#
#
# Elastic Compliance Matrix: (Units=1/GPa)
#
#
# Indices 1 2 3 4 5 6 
#
# 1 0.007057 -0.004363 0.002158 0.000000 0.006068 0.000000
# 2 -0.004363 0.016213 -0.004979 0.000000 -0.007172 0.000000
# 3 0.002158 -0.004979 0.015556 0.000000 0.013392 0.000000
# 4 0.000000 0.000000 0.000000 0.034958 0.000000 -0.004922
# 5 0.006068 -0.007172 0.013392 0.000000 0.040867 0.000000
# 6 0.000000 0.000000 0.000000 -0.004922 0.000000 0.030637
#
#
# Mechanical properties :
#
#
# Convention : Reuss Voigt Hill
#
# Bulk Modulus (GPa) = 40.88466 54.65440 47.76953
# Shear Modulus (GPa) = 29.79590 39.40288 34.59939
#
# Velocity S-wave (km/s) = 3.37793 3.88451 3.64005
# Velocity P-wave (km/s) = 5.55615 6.40698 5.99667
#
# Compressibility (1/GPa) = 0.02445905
#
# Stress axis : x y z
#
# Youngs Moduli (GPa) = 141.71053 61.67842 64.28344
#
# Poissons Ratio (x) = 0.26907 -0.13875
# Poissons Ratio (y) = 0.61822 0.32008
# Poissons Ratio (z) = -0.30586 0.30711
#
# Static dielectric constant tensor:
#      x y z
#    x 2.022880 0.000000 0.013200 
#    y 0.000000 1.754190 0.000000 
#    z 0.013200 0.000000 2.077020 
# 
# From -- ./inp_files/74230.got.cif
#   From: 2010.05.17/outbox.cif.g08.bks.cpg/sg14_38_cif.got.tgz:74230.got - 2010.06.03 17:49:19.
