data_PCOD9250288
_publ_section_title
;
Structure prediction by ZEFSAII (Michael W. Deem and Ramdas Pophale) SiO2 
 PCOD9250288
Probable space group: P 21/C
;
_chemical_formula_sum "Si O2"
_cell_formula_units_Z 16
_cell_length_a 5.727311
_cell_length_b 13.689928
_cell_length_c 9.482194
_cell_angle_alpha 90.000000
_cell_angle_beta 127.344193
_cell_angle_gamma 90.000000
_cell_volume 591.059340
_symmetry_space_group_name_H-M "P 21/C"
_symmetry_group_IT_number 14
_symmetry_cell_setting 'monoclinic'
loop_
_space_group_symop_operation_xyz
x,y,z
-x,1/2+y,1/2-z
-x,-y,-z
x,1/2-y,1/2+z
loop_
_atom_site_type_symbol
_atom_site_label
_atom_site_fract_x
_atom_site_fract_y
_atom_site_fract_z
Si Si1 0.075067 0.896260 0.454092
Si Si2 0.661846 0.773824 0.124746
Si Si3 0.050234 0.047191 0.868909
Si Si4 0.821155 0.352992 0.716127
O O1 0.778104 0.834337 0.303969
O O2 0.253202 0.844156 0.645849
O O3 0.000000 0.000000 0.500000
O O4 0.190938 0.925136 0.339635
O O5 0.835188 0.673855 0.174455
O O6 0.331759 0.779789 0.949883
O O7 0.796023 0.848817 0.054629
O O8 0.229272 0.962315 0.854231
O O9 0.000000 0.000000 0.000000
#
# Coordination Sequence:
#
# PCOD9250288 Si02
#       4
#     4   4   4   4
#     4   8  20  40  64  93 128 172 210 267 324 377
#     4  10  24  40  68  94 130 170 217 267 321 381
#     4   9  21  43  65  97 128 168 213 268 319 384
#     4  11  22  45  66  93 133 171 217 265 324 386
#
# _framework density 27.070036999999999
#
# number of rings (size 3 to 8) (size 9 to 14) (size 15 to 20)
#    1.500    1.000    0.000    0.750    3.500    2.000 
#    0.000    2.500    0.000    0.000    0.000    0.000 
#    0.000    0.000    0.000    0.000    0.000    0.000 
#
# Total GULP energy -89068.393844 kJ/mol
# GULP energy per Si atom -5566.774615 kJ/mol
# Density = 2.700842 g / cm^3
# Si number density = 27.070037 Si / 1000 Ang^3
#
#
#
# Elastic Constant Matrix: (Units=GPa)
#
#
# Indices 1 2 3 4 5 6 
#
# 1 60.3494 -7.3344 53.2763 0.0000 -47.8972 0.0000
# 2 -7.3344 101.7993 34.9954 0.0000 -5.2899 0.0000
# 3 53.2763 34.9954 208.1419 0.0000 -37.4779 0.0000
# 4 0.0000 0.0000 0.0000 56.6613 0.0000 -8.3818
# 5 -47.8972 -5.2899 -37.4779 0.0000 58.9830 0.0000
# 6 0.0000 0.0000 0.0000 -8.3818 0.0000 40.1457
#
#
#
# Elastic Compliance Matrix: (Units=1/GPa)
#
#
# Indices 1 2 3 4 5 6 
#
# 1 0.062103 0.010071 -0.009424 0.000000 0.045346 0.000000
# 2 0.010071 0.012061 -0.003318 0.000000 0.007151 0.000000
# 3 -0.009424 -0.003318 0.007162 0.000000 -0.003400 0.000000
# 4 0.000000 0.000000 0.000000 0.018211 0.000000 0.003802
# 5 0.045346 0.007151 -0.003400 0.000000 0.052259 0.000000
# 6 0.000000 0.000000 0.000000 0.003802 0.000000 0.025703
#
#
# Mechanical properties :
#
#
# Convention : Reuss Voigt Hill
#
# Bulk Modulus (GPa) = 13.16072 59.12944 36.14508
# Shear Modulus (GPa) = 24.01876 50.44824 37.23350
#
# Velocity S-wave (km/s) = 2.98196 4.32165 3.71273
# Velocity P-wave (km/s) = 4.09004 6.84052 5.63565
#
# Compressibility (1/GPa) = 0.07598367
#
# Stress axis : x y z
#
# Youngs Moduli (GPa) = 16.10218 82.91183 139.61843
#
# Poissons Ratio (x) = -0.83497 1.31580
# Poissons Ratio (y) = -0.16216 0.46323
# Poissons Ratio (z) = 0.15175 0.27509
#
# Static dielectric constant tensor:
#      x y z
#    x 2.262950 0.000000 0.137400 
#    y 0.000000 2.144370 0.000000 
#    z 0.137400 0.000000 2.361910 
# 
# From -- ./inp_files/21119.got.cif
#   From: 2010.05.17/outbox.cif.g08.bks.cpg/sg14_11_cif.got.tgz:21119.got - 2010.06.03 17:49:19.
