data_PCOD9250646
_publ_section_title
;
Structure prediction by ZEFSAII (Michael W. Deem and Ramdas Pophale) SiO2 
 PCOD9250646
Probable space group: P 21/C
;
_chemical_formula_sum "Si O2"
_cell_formula_units_Z 20
_cell_length_a 8.550521
_cell_length_b 19.378530
_cell_length_c 5.402916
_cell_angle_alpha 90.000000
_cell_angle_beta 119.927873
_cell_angle_gamma 90.000000
_cell_volume 775.867287
_symmetry_space_group_name_H-M "P 21/C"
_symmetry_group_IT_number 14
_symmetry_cell_setting 'monoclinic'
loop_
_space_group_symop_operation_xyz
x,y,z
-x,1/2+y,1/2-z
-x,-y,-z
x,1/2-y,1/2+z
loop_
_atom_site_type_symbol
_atom_site_label
_atom_site_fract_x
_atom_site_fract_y
_atom_site_fract_z
Si Si1 0.468941 0.919193 0.916884
Si Si2 0.888490 0.454641 0.109234
Si Si3 0.057516 0.210950 0.299802
Si Si4 0.377371 0.790463 0.096447
Si Si5 0.796825 0.587493 0.323466
O O1 0.271809 0.913503 0.640928
O O2 0.460444 0.866937 0.138664
O O3 0.621062 0.898203 0.842570
O O4 0.500000 0.000000 0.000000
O O5 0.799433 0.508806 0.229989
O O6 0.029434 0.406997 0.360418
O O7 0.000000 0.500000 0.000000
O O8 0.110781 0.247534 0.595141
O O9 0.155301 0.362323 0.861066
O O10 0.840808 0.204056 0.098861
O O11 0.429278 0.747096 0.891614
#
# Coordination Sequence:
#
# PCOD9250646 Si02
#       5
#     4   4   4   4   4
#     4  12  26  45  74 113 146 192 250 309 372 442
#     4  11  24  45  70  99 146 189 238 298 372 435
#     4  10  24  44  75 103 141 197 248 297 369 450
#     4  10  25  47  74 104 148 199 243 305 376 446
#     4  11  26  43  70 105 140 189 240 307 363 437
#
# _framework density 25.777608000000001
#
# number of rings (size 3 to 8) (size 9 to 14) (size 15 to 20)
#    0.000    1.200    2.000    1.800   14.000    3.200 
#    0.000    0.000    0.000    0.000    0.000    0.000 
#    0.000    0.000    0.000    0.000    0.000    0.000 
#
# Total GULP energy -112313.877893 kJ/mol
# GULP energy per Si atom -5615.693895 kJ/mol
# Density = 2.571894 g / cm^3
# Si number density = 25.777608 Si / 1000 Ang^3
#
#
#
# Elastic Constant Matrix: (Units=GPa)
#
#
# Indices 1 2 3 4 5 6 
#
# 1 109.4535 44.5756 46.9648 0.0000 -16.7997 0.0000
# 2 44.5756 121.5639 26.7200 0.0000 -17.7533 0.0000
# 3 46.9648 26.7200 107.7915 0.0000 -1.9104 0.0000
# 4 0.0000 0.0000 0.0000 27.2764 0.0000 -18.2359
# 5 -16.7997 -17.7533 -1.9104 0.0000 43.5197 0.0000
# 6 0.0000 0.0000 0.0000 -18.2359 0.0000 44.5032
#
#
#
# Elastic Compliance Matrix: (Units=1/GPa)
#
#
# Indices 1 2 3 4 5 6 
#
# 1 0.013057 -0.003212 -0.004830 0.000000 0.003518 0.000000
# 2 -0.003212 0.010043 -0.001040 0.000000 0.002811 0.000000
# 3 -0.004830 -0.001040 0.011608 0.000000 -0.001779 0.000000
# 4 0.000000 0.000000 0.000000 0.050495 0.000000 0.020691
# 5 0.003518 0.002811 -0.001779 0.000000 0.025405 0.000000
# 6 0.000000 0.000000 0.000000 0.020691 0.000000 0.030949
#
#
# Mechanical properties :
#
#
# Convention : Reuss Voigt Hill
#
# Bulk Modulus (GPa) = 60.44949 63.92553 62.18751
# Shear Modulus (GPa) = 30.25958 37.76309 34.01133
#
# Velocity S-wave (km/s) = 3.42990 3.83163 3.63631
# Velocity P-wave (km/s) = 6.25994 6.66542 6.46586
#
# Compressibility (1/GPa) = 0.01654274
#
# Stress axis : x y z
#
# Youngs Moduli (GPa) = 76.58644 99.56944 86.14714
#
# Poissons Ratio (x) = 0.31985 0.41612
# Poissons Ratio (y) = 0.24602 0.08960
# Poissons Ratio (z) = 0.36994 0.10356
#
# Static dielectric constant tensor:
#      x y z
#    x 1.968600 0.000000 -0.006790 
#    y 0.000000 1.761400 0.000000 
#    z -0.006790 0.000000 2.025040 
# 
# From -- ./inp_files/1199.got.cif
#   From: 2010.05.17/outbox.cif.g08.bks.cpg/sg14_1_cif.got.tgz:1199.got - 2010.06.03 17:49:19.
