data_PCOD9250901
_publ_section_title
;
Structure prediction by ZEFSAII (Michael W. Deem and Ramdas Pophale) SiO2 
 PCOD9250901
Probable space group: P 21/C
;
_chemical_formula_sum "Si O2"
_cell_formula_units_Z 24
_cell_length_a 7.198442
_cell_length_b 8.099313
_cell_length_c 17.852328
_cell_angle_alpha 90.000000
_cell_angle_beta 130.126020
_cell_angle_gamma 90.000000
_cell_volume 795.851801
_symmetry_space_group_name_H-M "P 21/C"
_symmetry_group_IT_number 14
_symmetry_cell_setting 'monoclinic'
loop_
_space_group_symop_operation_xyz
x,y,z
-x,1/2+y,1/2-z
-x,-y,-z
x,1/2-y,1/2+z
loop_
_atom_site_type_symbol
_atom_site_label
_atom_site_fract_x
_atom_site_fract_y
_atom_site_fract_z
Si Si1 0.293664 0.141337 0.943290
Si Si2 0.117083 0.880606 0.465837
Si Si3 0.460234 0.066676 0.337783
Si Si4 0.508930 0.791636 0.851828
Si Si5 0.933255 0.517871 0.755490
Si Si6 0.782357 0.367890 0.392807
O O1 0.233008 0.139908 0.838454
O O2 0.822109 0.963094 0.722982
O O3 0.405797 0.246196 0.040524
O O4 0.500000 0.000000 0.000000
O O5 0.109806 0.695661 0.498321
O O6 0.406892 0.906847 0.547694
O O7 0.542769 0.889415 0.326056
O O8 0.010938 0.913022 0.356825
O O9 0.592758 0.215784 0.328008
O O10 0.000000 0.000000 0.500000
O O11 0.233088 0.855026 0.780805
O O12 0.017326 0.128531 0.902069
O O13 0.346556 0.455269 0.636731
#
# Coordination Sequence:
#
# PCOD9250901 Si02
#       6
#     4   4   4   4   4   4
#     4  10  24  50  83 122 172 228 291 367 444 538
#     4  10  24  49  80 117 172 231 291 366 448 526
#     4  10  26  48  82 118 171 232 289 366 438 526
#     4  11  25  49  82 120 172 230 290 363 447 529
#     4  11  26  48  79 125 176 232 297 369 446 536
#     4  10  25  51  81 121 169 227 299 356 450 531
#
# _framework density 30.156369999999999
#
# number of rings (size 3 to 8) (size 9 to 14) (size 15 to 20)
#    1.000    0.667    0.000    2.000    2.333    8.000 
#    6.000    3.333    0.000    1.000    0.000    0.000 
#    0.000    0.000    0.000    0.000    0.000    0.000 
#
# Total GULP energy -134232.957391 kJ/mol
# GULP energy per Si atom -5593.039891 kJ/mol
# Density = 3.008773 g / cm^3
# Si number density = 30.156370 Si / 1000 Ang^3
#
#
#
# Elastic Constant Matrix: (Units=GPa)
#
#
# Indices 1 2 3 4 5 6 
#
# 1 170.5802 55.4706 56.2319 0.0000 29.6782 0.0000
# 2 55.4706 185.6836 61.7892 0.0000 10.9852 0.0000
# 3 56.2319 61.7892 271.0187 0.0000 11.0481 0.0000
# 4 0.0000 0.0000 0.0000 54.7809 0.0000 -1.4133
# 5 29.6782 10.9852 11.0481 0.0000 55.8915 0.0000
# 6 0.0000 0.0000 0.0000 -1.4133 0.0000 35.1259
#
#
#
# Elastic Compliance Matrix: (Units=1/GPa)
#
#
# Indices 1 2 3 4 5 6 
#
# 1 0.007315 -0.001652 -0.001004 0.000000 -0.003361 0.000000
# 2 -0.001652 0.006245 -0.001075 0.000000 -0.000137 0.000000
# 3 -0.001004 -0.001075 0.004146 0.000000 -0.000075 0.000000
# 4 0.000000 0.000000 0.000000 0.018274 0.000000 0.000735
# 5 -0.003361 -0.000137 -0.000075 0.000000 0.019718 0.000000
# 6 0.000000 0.000000 0.000000 0.000735 0.000000 0.028499
#
#
# Mechanical properties :
#
#
# Convention : Reuss Voigt Hill
#
# Bulk Modulus (GPa) = 97.62569 108.25176 102.93873
# Shear Modulus (GPa) = 52.58964 59.41236 56.00100
#
# Velocity S-wave (km/s) = 4.18053 4.44344 4.31399
# Velocity P-wave (km/s) = 7.46632 7.89306 7.68265
#
# Compressibility (1/GPa) = 0.01024321
#
# Stress axis : x y z
#
# Youngs Moduli (GPa) = 136.69607 160.12498 241.17618
#
# Poissons Ratio (x) = 0.26460 0.24216
# Poissons Ratio (y) = 0.22588 0.25935
# Poissons Ratio (z) = 0.13726 0.17219
#
# Static dielectric constant tensor:
#      x y z
#    x 2.330960 0.000000 -0.046870 
#    y 0.000000 2.443160 0.000000 
#    z -0.046870 0.000000 2.475080 
# 
# From -- ./inp_files/66714.got.cif
#   From: 2010.05.17/outbox.cif.g08.bks.cpg/sg14_34_cif.got.tgz:66714.got - 2010.06.03 17:49:19.
