data_PCOD9250260
_publ_section_title
;
Structure prediction by ZEFSAII (Michael W. Deem and Ramdas Pophale) SiO2 
 PCOD9250260
Probable space group: P 21/C
;
_chemical_formula_sum "Si O2"
_cell_formula_units_Z 20
_cell_length_a 8.374887
_cell_length_b 16.574162
_cell_length_c 9.463218
_cell_angle_alpha 90.000000
_cell_angle_beta 37.780396
_cell_angle_gamma 90.000000
_cell_volume 804.734024
_symmetry_space_group_name_H-M "P 21/C"
_symmetry_group_IT_number 14
_symmetry_cell_setting 'monoclinic'
loop_
_space_group_symop_operation_xyz
x,y,z
-x,1/2+y,1/2-z
-x,-y,-z
x,1/2-y,1/2+z
loop_
_atom_site_type_symbol
_atom_site_label
_atom_site_fract_x
_atom_site_fract_y
_atom_site_fract_z
Si Si1 0.083399 0.196051 0.998333
Si Si2 0.983925 0.439412 0.381701
Si Si3 0.450496 0.083398 0.120454
Si Si4 0.590213 0.303699 0.274559
Si Si5 0.914857 0.081129 0.381444
O O1 0.344754 0.238348 0.871558
O O2 0.133142 0.140310 0.826268
O O3 0.846203 0.251894 0.119133
O O4 0.998022 0.138734 0.190869
O O5 0.677790 0.418707 0.576403
O O6 0.000000 0.500000 0.500000
O O7 0.095205 0.490773 0.173070
O O8 0.514824 0.159407 0.976882
O O9 0.138214 0.085080 0.345949
O O10 0.500000 0.000000 0.000000
O O11 0.659436 0.380939 0.127865
#
# Coordination Sequence:
#
# PCOD9250260 Si02
#       5
#     4   4   4   4   4
#     4  10  24  40  61  93 133 163 216 267 323 382
#     4   9  19  40  63  90 126 171 203 266 311 377
#     4   9  20  40  65  91 129 159 213 268 314 377
#     4  11  24  40  65  96 125 174 211 267 328 384
#     4   9  21  41  64  90 127 168 222 258 324 385
#
# _framework density 24.852929
#
# number of rings (size 3 to 8) (size 9 to 14) (size 15 to 20)
#    0.000    2.400    0.000    1.200    5.600    5.600 
#    0.000    0.000    0.000    0.000    0.000    0.000 
#    0.000    0.000    0.000    0.000    0.000    0.000 
#
# Total GULP energy -111786.677231 kJ/mol
# GULP energy per Si atom -5589.333862 kJ/mol
# Density = 2.479636 g / cm^3
# Si number density = 24.852929 Si / 1000 Ang^3
#
#
#
# Elastic Constant Matrix: (Units=GPa)
#
#
# Indices 1 2 3 4 5 6 
#
# 1 174.7367 55.5612 48.5221 0.0000 -45.3599 0.0000
# 2 55.5612 84.6234 25.4064 0.0000 -17.3201 0.0000
# 3 48.5221 25.4064 47.9206 0.0000 -16.5393 0.0000
# 4 0.0000 0.0000 0.0000 37.1647 0.0000 -1.8732
# 5 -45.3599 -17.3201 -16.5393 0.0000 58.1007 0.0000
# 6 0.0000 0.0000 0.0000 -1.8732 0.0000 43.2296
#
#
#
# Elastic Compliance Matrix: (Units=1/GPa)
#
#
# Indices 1 2 3 4 5 6 
#
# 1 0.009911 -0.003575 -0.006473 0.000000 0.004829 0.000000
# 2 -0.003575 0.015625 -0.004458 0.000000 0.000598 0.000000
# 3 -0.006473 -0.004458 0.030588 0.000000 0.002325 0.000000
# 4 0.000000 0.000000 0.000000 0.026966 0.000000 0.001168
# 5 0.004829 0.000598 0.002325 0.000000 0.021822 0.000000
# 6 0.000000 0.000000 0.000000 0.001168 0.000000 0.023183
#
#
# Mechanical properties :
#
#
# Convention : Reuss Voigt Hill
#
# Bulk Modulus (GPa) = 36.88407 62.91779 49.90093
# Shear Modulus (GPa) = 30.09450 39.55174 34.82312
#
# Velocity S-wave (km/s) = 3.48358 3.99360 3.74728
# Velocity P-wave (km/s) = 5.57257 6.82907 6.23257
#
# Compressibility (1/GPa) = 0.02711198
#
# Stress axis : x y z
#
# Youngs Moduli (GPa) = 100.90045 63.99925 32.69287
#
# Poissons Ratio (x) = 0.22882 0.21162
# Poissons Ratio (y) = 0.36076 0.14573
# Poissons Ratio (z) = 0.65312 0.28528
#
# Static dielectric constant tensor:
#      x y z
#    x 1.971980 0.000000 0.008540 
#    y 0.000000 1.999860 0.000000 
#    z 0.008540 0.000000 1.988650 
# 
# From -- ./inp_files/21018.got.cif
#   From: 2010.05.17/outbox.cif.g08.bks.cpg/sg14_11_cif.got.tgz:21018.got - 2010.06.03 17:49:19.
