data_PCOD9251793
_publ_section_title
;
Structure prediction by ZEFSAII (Michael W. Deem and Ramdas Pophale) SiO2 
 PCOD9251793
Probable space group: P 21/C
;
_chemical_formula_sum "Si O2"
_cell_formula_units_Z 24
_cell_length_a 7.608201
_cell_length_b 8.679263
_cell_length_c 25.885290
_cell_angle_alpha 90.000000
_cell_angle_beta 149.386427
_cell_angle_gamma 90.000000
_cell_volume 870.452136
_symmetry_space_group_name_H-M "P 21/C"
_symmetry_group_IT_number 14
_symmetry_cell_setting 'monoclinic'
loop_
_space_group_symop_operation_xyz
x,y,z
-x,1/2+y,1/2-z
-x,-y,-z
x,1/2-y,1/2+z
loop_
_atom_site_type_symbol
_atom_site_label
_atom_site_fract_x
_atom_site_fract_y
_atom_site_fract_z
Si Si1 0.329889 0.150737 0.758411
Si Si2 0.870934 0.594376 0.363812
Si Si3 0.819016 0.633327 0.103888
Si Si4 0.619909 0.466069 0.429446
Si Si5 0.648914 0.245253 0.690853
Si Si6 0.292081 0.029843 0.531718
O O1 0.204486 0.315302 0.707542
O O2 0.449483 0.158292 0.848079
O O3 0.655177 0.064171 0.813301
O O4 0.038510 0.023134 0.671743
O O5 0.675767 0.714256 0.353999
O O6 0.258256 0.569749 0.482003
O O7 0.446397 0.604101 0.034841
O O8 0.024559 0.755961 0.189494
O O9 0.818387 0.649278 0.041809
O O10 0.382514 0.614203 0.358121
O O11 0.000000 0.500000 0.500000
O O12 0.593513 0.095398 0.643766
O O13 0.000000 0.000000 0.500000
#
# Coordination Sequence:
#
# PCOD9251793 Si02
#       6
#     4   4   4   4   4   4
#     4   9  17  33  55  82 123 161 204 264 318 375
#     4   9  17  31  54  85 117 161 208 253 318 384
#     4   9  22  42  62  95 130 162 215 278 322 382
#     4   7  15  30  51  78 115 157 199 252 318 375
#     4   9  19  38  60  87 128 168 209 269 327 387
#     4  11  22  42  69  95 128 174 223 269 332 395
#
# _framework density 27.571877000000001
#
# number of rings (size 3 to 8) (size 9 to 14) (size 15 to 20)
#    0.000    3.667    0.000    1.000    0.000    8.000 
#    0.000   27.500    0.000    2.000    0.000    0.000 
#    0.000    0.000    0.000    0.000    0.000    0.000 
#
# Total GULP energy -134153.865440 kJ/mol
# GULP energy per Si atom -5589.744393 kJ/mol
# Density = 2.750912 g / cm^3
# Si number density = 27.571877 Si / 1000 Ang^3
#
#
#
# Elastic Constant Matrix: (Units=GPa)
#
#
# Indices 1 2 3 4 5 6 
#
# 1 161.4379 46.1670 67.9364 0.0000 -21.3941 0.0000
# 2 46.1670 40.4266 23.6282 0.0000 -12.9353 0.0000
# 3 67.9364 23.6282 188.9400 0.0000 -33.6719 0.0000
# 4 0.0000 0.0000 0.0000 55.4021 0.0000 -13.1115
# 5 -21.3941 -12.9353 -33.6719 0.0000 21.4303 0.0000
# 6 0.0000 0.0000 0.0000 -13.1115 0.0000 21.7538
#
#
#
# Elastic Compliance Matrix: (Units=1/GPa)
#
#
# Indices 1 2 3 4 5 6 
#
# 1 0.010089 -0.010052 -0.002301 0.000000 0.000389 0.000000
# 2 -0.010052 0.040748 0.001546 0.000000 0.016990 0.000000
# 3 -0.002301 0.001546 0.007894 0.000000 0.011040 0.000000
# 4 0.000000 0.000000 0.000000 0.021053 0.000000 0.012689
# 5 0.000389 0.016990 0.011040 0.000000 0.074652 0.000000
# 6 0.000000 0.000000 0.000000 0.012689 0.000000 0.053617
#
#
# Mechanical properties :
#
#
# Convention : Reuss Voigt Hill
#
# Bulk Modulus (GPa) = 26.94163 74.02975 50.48569
# Shear Modulus (GPa) = 20.65783 36.58876 28.62330
#
# Velocity S-wave (km/s) = 2.74019 3.64680 3.22550
# Velocity P-wave (km/s) = 4.45018 6.68133 5.67646
#
# Compressibility (1/GPa) = 0.03711728
#
# Stress axis : x y z
#
# Youngs Moduli (GPa) = 99.11881 24.54105 126.67566
#
# Poissons Ratio (x) = 0.24669 0.29152
# Poissons Ratio (y) = 0.99635 -0.19590
# Poissons Ratio (z) = 0.22810 -0.03795
#
# Static dielectric constant tensor:
#      x y z
#    x 2.385340 0.000000 0.020740 
#    y 0.000000 2.222670 0.000000 
#    z 0.020740 0.000000 2.167430 
# 
# From -- ./inp_files/76628.got.cif
#   From: 2010.05.17/outbox.cif.g08.bks.cpg/sg14_39_cif.got.tgz:76628.got - 2010.06.03 17:49:19.
