data_PCOD9251317
_publ_section_title
;
Structure prediction by ZEFSAII (Michael W. Deem and Ramdas Pophale) SiO2 
 PCOD9251317
Probable space group: P 21/C
;
_chemical_formula_sum "Si O2"
_cell_formula_units_Z 32
_cell_length_a 22.936749
_cell_length_b 10.001717
_cell_length_c 8.550409
_cell_angle_alpha 90.000000
_cell_angle_beta 139.253040
_cell_angle_gamma 90.000000
_cell_volume 1280.324153
_symmetry_space_group_name_H-M "P 21/C"
_symmetry_group_IT_number 14
_symmetry_cell_setting 'monoclinic'
loop_
_space_group_symop_operation_xyz
x,y,z
-x,1/2+y,1/2-z
-x,-y,-z
x,1/2-y,1/2+z
loop_
_atom_site_type_symbol
_atom_site_label
_atom_site_fract_x
_atom_site_fract_y
_atom_site_fract_z
Si Si1 0.691111 0.326845 0.155981
Si Si2 0.307756 0.328991 0.152055
Si Si3 0.121178 0.110133 0.145819
Si Si4 0.938338 0.160954 0.857592
Si Si5 0.833956 0.121258 0.336030
Si Si6 0.210169 0.430628 0.523376
Si Si7 0.563329 0.204856 0.665022
Si Si8 0.572340 0.706748 0.875749
O O1 0.744763 0.187772 0.233615
O O2 0.761822 0.444716 0.309043
O O3 0.644497 0.351030 0.229068
O O4 0.612710 0.319294 0.868242
O O5 0.287994 0.170212 0.128739
O O6 0.379489 0.334077 0.439394
O O7 0.353424 0.363085 0.080117
O O8 0.208952 0.390276 0.936466
O O9 0.149227 0.146582 0.026487
O O10 0.075137 0.964998 0.056356
O O11 0.041252 0.202167 0.048010
O O12 0.903537 0.114440 0.617806
O O13 0.873725 0.273828 0.792277
O O14 0.823353 0.989385 0.209578
O O15 0.493358 0.130428 0.637091
O O16 0.497249 0.254064 0.398359
#
# Coordination Sequence:
#
# PCOD9251317 Si02
#       8
#     4   4   4   4   4   4   4   4
#     4  11  19  40  68  98 132 175 218 280 339 392
#     4  11  23  44  67  92 140 184 221 272 338 415
#     4  11  26  46  68  97 138 184 224 283 336 418
#     4  11  25  44  69 103 136 172 234 284 345 393
#     4  12  23  43  71 101 138 173 224 294 336 405
#     4  12  25  42  69 102 130 186 231 270 342 418
#     4   9  19  37  69  93 134 174 218 284 329 389
#     4   9  20  40  65  94 132 178 224 274 326 408
#
# _framework density 24.993670999999999
#
# number of rings (size 3 to 8) (size 9 to 14) (size 15 to 20)
#    0.000    1.250    5.000    0.000    3.500    0.500 
#    2.250    6.250    0.000    0.000    0.000    0.000 
#    0.000    0.000    0.000    0.000    0.000    0.000 
#
# Total GULP energy -178359.363017 kJ/mol
# GULP energy per Si atom -5573.730094 kJ/mol
# Density = 2.493678 g / cm^3
# Si number density = 24.993671 Si / 1000 Ang^3
#
#
#
# Elastic Constant Matrix: (Units=GPa)
#
#
# Indices 1 2 3 4 5 6 
#
# 1 144.9774 8.0596 38.0286 0.0000 15.7376 0.0000
# 2 8.0596 29.8786 5.7592 0.0000 -2.7796 0.0000
# 3 38.0286 5.7592 138.9810 0.0000 -4.7629 0.0000
# 4 0.0000 0.0000 0.0000 31.6437 0.0000 -4.8545
# 5 15.7376 -2.7796 -4.7629 0.0000 45.1499 0.0000
# 6 0.0000 0.0000 0.0000 -4.8545 0.0000 15.6571
#
#
#
# Elastic Compliance Matrix: (Units=1/GPa)
#
#
# Indices 1 2 3 4 5 6 
#
# 1 0.007922 -0.002004 -0.002191 0.000000 -0.003116 0.000000
# 2 -0.002004 0.034415 -0.000784 0.000000 0.002735 0.000000
# 3 -0.002191 -0.000784 0.007880 0.000000 0.001547 0.000000
# 4 0.000000 0.000000 0.000000 0.033180 0.000000 0.010287
# 5 -0.003116 0.002735 0.001547 0.000000 0.023566 0.000000
# 6 0.000000 0.000000 0.000000 0.010287 0.000000 0.067058
#
#
# Mechanical properties :
#
#
# Convention : Reuss Voigt Hill
#
# Bulk Modulus (GPa) = 24.83984 46.39242 35.61613
# Shear Modulus (GPa) = 25.32917 35.95611 30.64264
#
# Velocity S-wave (km/s) = 3.18688 3.79701 3.50525
# Velocity P-wave (km/s) = 4.84785 6.15021 5.53745
#
# Compressibility (1/GPa) = 0.04025791
#
# Stress axis : x y z
#
# Youngs Moduli (GPa) = 126.22877 29.05711 126.89789
#
# Poissons Ratio (x) = 0.05824 0.27809
# Poissons Ratio (y) = 0.25302 0.09948
# Poissons Ratio (z) = 0.27662 0.02278
#
# Static dielectric constant tensor:
#      x y z
#    x 2.154540 0.000000 0.072230 
#    y 0.000000 2.007330 0.000000 
#    z 0.072230 0.000000 2.060740 
# 
# From -- ./inp_files/19497.got.cif
#   From: 2010.05.17/outbox.cif.g08.bks.cpg/sg14_10_cif.got.tgz:19497.got - 2010.06.03 17:49:19.
