data_PCOD9251764
_publ_section_title
;
Structure prediction by ZEFSAII (Michael W. Deem and Ramdas Pophale) SiO2 
 PCOD9251764
Probable space group: P 21/C
;
_chemical_formula_sum "Si O2"
_cell_formula_units_Z 20
_cell_length_a 15.614083
_cell_length_b 12.079337
_cell_length_c 8.413517
_cell_angle_alpha 90.000000
_cell_angle_beta 147.104461
_cell_angle_gamma 90.000000
_cell_volume 861.835181
_symmetry_space_group_name_H-M "P 21/C"
_symmetry_group_IT_number 14
_symmetry_cell_setting 'monoclinic'
loop_
_space_group_symop_operation_xyz
x,y,z
-x,1/2+y,1/2-z
-x,-y,-z
x,1/2-y,1/2+z
loop_
_atom_site_type_symbol
_atom_site_label
_atom_site_fract_x
_atom_site_fract_y
_atom_site_fract_z
Si Si1 0.416594 0.366670 0.756701
Si Si2 0.070330 0.627194 0.603096
Si Si3 0.270970 0.764532 0.688769
Si Si4 0.482298 0.940489 0.141128
Si Si5 0.257187 0.200949 0.311019
O O1 0.470090 0.484017 0.777263
O O2 0.347829 0.314562 0.485540
O O3 0.280406 0.350298 0.673633
O O4 0.565142 0.303265 0.066558
O O5 0.143839 0.675533 0.554599
O O6 0.000000 0.500000 0.500000
O O7 0.922000 0.702097 0.419225
O O8 0.205937 0.662693 0.940875
O O9 0.330799 0.859510 0.904437
O O10 0.645810 0.876245 0.417579
O O11 0.500000 0.000000 0.000000
#
# Coordination Sequence:
#
# PCOD9251764 Si02
#       5
#     4   4   4   4   4
#     4  11  22  42  66  94 127 172 232 287 342 412
#     4  12  26  45  66  98 143 183 224 290 356 416
#     4  11  24  43  69 100 135 182 234 282 347 425
#     4  11  22  41  69  99 131 178 234 296 350 410
#     4  11  23  39  62  91 126 171 221 277 340 415
#
# _framework density 23.206295000000001
#
# number of rings (size 3 to 8) (size 9 to 14) (size 15 to 20)
#    0.000    0.800    0.000   10.200    0.000    3.200 
#    0.000    3.000    0.000    0.000    0.000    0.000 
#    0.000    0.000    0.000    0.000    0.000    0.000 
#
# Total GULP energy -111620.325631 kJ/mol
# GULP energy per Si atom -5581.016282 kJ/mol
# Density = 2.315348 g / cm^3
# Si number density = 23.206295 Si / 1000 Ang^3
#
#
#
# Elastic Constant Matrix: (Units=GPa)
#
#
# Indices 1 2 3 4 5 6 
#
# 1 80.4044 4.2957 -2.5734 0.0000 4.1557 0.0000
# 2 4.2957 79.7024 28.4637 0.0000 -5.9585 0.0000
# 3 -2.5734 28.4637 85.0539 0.0000 -4.4947 0.0000
# 4 0.0000 0.0000 0.0000 38.3308 0.0000 -6.1662
# 5 4.1557 -5.9585 -4.4947 0.0000 46.4738 0.0000
# 6 0.0000 0.0000 0.0000 -6.1662 0.0000 34.3335
#
#
#
# Elastic Compliance Matrix: (Units=1/GPa)
#
#
# Indices 1 2 3 4 5 6 
#
# 1 0.012573 -0.000999 0.000652 0.000000 -0.001189 0.000000
# 2 -0.000999 0.014417 -0.004777 0.000000 0.001476 0.000000
# 3 0.000652 -0.004777 0.013409 0.000000 0.000626 0.000000
# 4 0.000000 0.000000 0.000000 0.026865 0.000000 0.004825
# 5 -0.001189 0.001476 0.000626 0.000000 0.021874 0.000000
# 6 0.000000 0.000000 0.000000 0.004825 0.000000 0.029993
#
#
# Mechanical properties :
#
#
# Convention : Reuss Voigt Hill
#
# Bulk Modulus (GPa) = 33.16776 33.94808 33.55792
# Shear Modulus (GPa) = 35.86081 38.15926 37.01003
#
# Velocity S-wave (km/s) = 3.93530 4.05946 3.99786
# Velocity P-wave (km/s) = 5.91375 6.05251 5.98353
#
# Compressibility (1/GPa) = 0.03014976
#
# Stress axis : x y z
#
# Youngs Moduli (GPa) = 79.53636 69.36348 74.57857
#
# Poissons Ratio (x) = 0.06932 -0.04863
# Poissons Ratio (y) = 0.07949 0.35625
# Poissons Ratio (z) = -0.05186 0.33134
#
# Static dielectric constant tensor:
#      x y z
#    x 1.877250 0.000000 -0.044170 
#    y 0.000000 1.776650 0.000000 
#    z -0.044170 0.000000 1.871660 
# 
# From -- ./inp_files/17830.got.cif
#   From: 2010.05.17/outbox.cif.g08.bks.cpg/sg14_9_cif.got.tgz:17830.got - 2010.06.03 17:49:19.
