data_PCOD9251530
_publ_section_title
;
Structure prediction by ZEFSAII (Michael W. Deem and Ramdas Pophale) SiO2 
 PCOD9251530
Probable space group: P 21/C
;
_chemical_formula_sum "Si O2"
_cell_formula_units_Z 24
_cell_length_a 5.492101
_cell_length_b 11.408419
_cell_length_c 16.519533
_cell_angle_alpha 90.000000
_cell_angle_beta 82.321213
_cell_angle_gamma 90.000000
_cell_volume 1025.769415
_symmetry_space_group_name_H-M "P 21/C"
_symmetry_group_IT_number 14
_symmetry_cell_setting 'monoclinic'
loop_
_space_group_symop_operation_xyz
x,y,z
-x,1/2+y,1/2-z
-x,-y,-z
x,1/2-y,1/2+z
loop_
_atom_site_type_symbol
_atom_site_label
_atom_site_fract_x
_atom_site_fract_y
_atom_site_fract_z
Si Si1 0.006888 0.089630 0.426596
Si Si2 0.409681 0.314213 0.282973
Si Si3 0.498822 0.778445 0.553663
Si Si4 0.995016 0.546215 0.631417
Si Si5 0.681795 0.407823 0.532361
Si Si6 0.686265 0.546557 0.243751
O O1 0.227881 0.174600 0.446876
O O2 0.109001 0.046466 0.335977
O O3 0.729140 0.134214 0.427708
O O4 0.000000 0.000000 0.500000
O O5 0.524995 0.308997 0.368484
O O6 0.125974 0.351285 0.309904
O O7 0.525281 0.428565 0.235018
O O8 0.427089 0.178995 0.253085
O O9 0.456535 0.714670 0.470032
O O10 0.784103 0.455241 0.611496
O O11 0.094824 0.598090 0.542524
O O12 0.186854 0.474381 0.675577
O O13 0.500000 0.500000 0.500000
#
# Coordination Sequence:
#
# PCOD9251530 Si02
#       6
#     4   4   4   4   4   4
#     4  11  27  51  74 104 149 210 249 307 377 459
#     4  11  25  47  72 110 148 204 243 318 385 444
#     4  11  23  47  76 101 152 191 247 317 385 431
#     4  11  23  42  68 107 151 188 251 308 382 445
#     4  11  21  40  69 105 140 188 240 309 376 448
#     4  11  26  46  78 104 158 194 255 315 378 456
#
# _framework density 23.397068999999998
#
# number of rings (size 3 to 8) (size 9 to 14) (size 15 to 20)
#    0.000    1.000    3.333    2.500    7.000    0.000 
#    9.000    0.000    0.000    0.000    0.000    0.000 
#    0.000    0.000    0.000    0.000    0.000    0.000 
#
# Total GULP energy -133957.936576 kJ/mol
# GULP energy per Si atom -5581.580691 kJ/mol
# Density = 2.334382 g / cm^3
# Si number density = 23.397069 Si / 1000 Ang^3
#
#
#
# Elastic Constant Matrix: (Units=GPa)
#
#
# Indices 1 2 3 4 5 6 
#
# 1 82.9500 45.1541 7.3476 0.0000 7.6724 0.0000
# 2 45.1541 143.8641 42.4831 0.0000 -2.8206 0.0000
# 3 7.3476 42.4831 57.5827 0.0000 8.4797 0.0000
# 4 0.0000 0.0000 0.0000 51.6369 0.0000 5.0773
# 5 7.6724 -2.8206 8.4797 0.0000 35.0659 0.0000
# 6 0.0000 0.0000 0.0000 5.0773 0.0000 46.9183
#
#
#
# Elastic Compliance Matrix: (Units=1/GPa)
#
#
# Indices 1 2 3 4 5 6 
#
# 1 0.015365 -0.005793 0.002983 0.000000 -0.004549 0.000000
# 2 -0.005793 0.011268 -0.008186 0.000000 0.004153 0.000000
# 3 0.002983 -0.008186 0.024075 0.000000 -0.007133 0.000000
# 4 0.000000 0.000000 0.000000 0.019574 0.000000 -0.002118
# 5 -0.004549 0.004153 -0.007133 0.000000 0.031572 0.000000
# 6 0.000000 0.000000 0.000000 -0.002118 0.000000 0.021543
#
#
# Mechanical properties :
#
#
# Convention : Reuss Voigt Hill
#
# Bulk Modulus (GPa) = 34.82163 52.70736 43.76450
# Shear Modulus (GPa) = 32.26630 39.35170 35.80900
#
# Velocity S-wave (km/s) = 3.71762 4.10556 3.91639
# Velocity P-wave (km/s) = 5.77432 6.71196 6.26072
#
# Compressibility (1/GPa) = 0.02871778
#
# Stress axis : x y z
#
# Youngs Moduli (GPa) = 65.08179 88.74881 41.53657
#
# Poissons Ratio (x) = 0.51410 -0.12390
# Poissons Ratio (y) = 0.37700 0.34000
# Poissons Ratio (z) = -0.19414 0.72646
#
# Static dielectric constant tensor:
#      x y z
#    x 2.001550 0.000000 -0.062230 
#    y 0.000000 2.034610 0.000000 
#    z -0.062230 0.000000 1.895380 
# 
# From -- ./inp_files/52985.got.cif
#   From: 2010.05.17/outbox.cif.g08.bks.cpg/sg14_27_cif.got.tgz:52985.got - 2010.06.03 17:49:19.
