data_PCOD9251304
_publ_section_title
;
Structure prediction by ZEFSAII (Michael W. Deem and Ramdas Pophale) SiO2 
 PCOD9251304
Probable space group: P 21/C
;
_chemical_formula_sum "Si O2"
_cell_formula_units_Z 32
_cell_length_a 12.280815
_cell_length_b 14.325440
_cell_length_c 14.398296
_cell_angle_alpha 90.000000
_cell_angle_beta 32.580686
_cell_angle_gamma 90.000000
_cell_volume 1364.021746
_symmetry_space_group_name_H-M "P 21/C"
_symmetry_group_IT_number 14
_symmetry_cell_setting 'monoclinic'
loop_
_space_group_symop_operation_xyz
x,y,z
-x,1/2+y,1/2-z
-x,-y,-z
x,1/2-y,1/2+z
loop_
_atom_site_type_symbol
_atom_site_label
_atom_site_fract_x
_atom_site_fract_y
_atom_site_fract_z
Si Si1 0.815799 0.244552 0.210522
Si Si2 0.512852 0.395776 0.031587
Si Si3 0.363782 0.330763 0.791167
Si Si4 0.563676 0.672970 0.609122
Si Si5 0.165682 0.823972 0.109343
Si Si6 0.481929 0.992281 0.289106
Si Si7 0.821203 0.738004 0.253169
Si Si8 0.109131 0.583060 0.472355
O O1 0.679512 0.169048 0.364841
O O2 0.666354 0.302829 0.252515
O O3 0.890055 0.309948 0.242547
O O4 0.938680 0.176294 0.052597
O O5 0.572622 0.416525 0.094733
O O6 0.303291 0.337083 0.172810
O O7 0.500000 0.500000 0.000000
O O8 0.361122 0.249152 0.869689
O O9 0.591518 0.324795 0.581387
O O10 0.327875 0.431558 0.862664
O O11 0.205895 0.316296 0.822833
O O12 0.574818 0.569555 0.640694
O O13 0.690009 0.686130 0.425599
O O14 0.041095 0.745676 0.141957
O O15 0.085911 0.909024 0.100843
O O16 0.653947 0.059916 0.207485
O O17 0.000000 0.500000 0.500000
#
# Coordination Sequence:
#
# PCOD9251304 Si02
#       8
#     4   4   4   4   4   4   4   4
#     4  11  22  40  64  91 131 171 207 271 333 377
#     4  11  19  38  64  92 117 163 219 263 312 375
#     4  11  22  44  62  94 128 167 215 265 325 387
#     4  11  21  41  65  91 126 170 213 259 333 376
#     4  11  23  41  62  92 130 166 211 267 324 381
#     4  11  21  36  66  88 122 168 211 268 314 390
#     4  11  24  39  65  92 125 169 211 263 323 389
#     4  11  24  40  61  97 128 168 226 269 314 390
#
# _framework density 23.460037
#
# number of rings (size 3 to 8) (size 9 to 14) (size 15 to 20)
#    0.000    1.000    7.500    1.500    1.750    0.500 
#    0.000    0.000    0.000    1.500    0.000    0.000 
#    0.000    0.000    0.000    0.000    0.000    0.000 
#
# Total GULP energy -178605.588381 kJ/mol
# GULP energy per Si atom -5581.424637 kJ/mol
# Density = 2.340664 g / cm^3
# Si number density = 23.460037 Si / 1000 Ang^3
#
#
#
# Elastic Constant Matrix: (Units=GPa)
#
#
# Indices 1 2 3 4 5 6 
#
# 1 111.7743 24.3602 17.5440 0.0000 34.2551 0.0000
# 2 24.3602 91.7165 17.7571 0.0000 19.5341 0.0000
# 3 17.5440 17.7571 28.0216 0.0000 4.5335 0.0000
# 4 0.0000 0.0000 0.0000 27.3589 0.0000 9.7027
# 5 34.2551 19.5341 4.5335 0.0000 38.2556 0.0000
# 6 0.0000 0.0000 0.0000 9.7027 0.0000 61.0848
#
#
#
# Elastic Compliance Matrix: (Units=1/GPa)
#
#
# Indices 1 2 3 4 5 6 
#
# 1 0.013427 0.000130 -0.006661 0.000000 -0.011300 0.000000
# 2 0.000130 0.013688 -0.007754 0.000000 -0.006187 0.000000
# 3 -0.006661 -0.007754 0.044009 0.000000 0.004708 0.000000
# 4 0.000000 0.000000 0.000000 0.038733 0.000000 -0.006152
# 5 -0.011300 -0.006187 0.004708 0.000000 0.038859 0.000000
# 6 0.000000 0.000000 0.000000 -0.006152 0.000000 0.017348
#
#
# Mechanical properties :
#
#
# Convention : Reuss Voigt Hill
#
# Bulk Modulus (GPa) = 23.49973 38.98166 31.24070
# Shear Modulus (GPa) = 23.94439 36.79662 30.37050
#
# Velocity S-wave (km/s) = 3.19822 3.96470 3.60191
# Velocity P-wave (km/s) = 4.86588 6.13276 5.53568
#
# Compressibility (1/GPa) = 0.04255367
#
# Stress axis : x y z
#
# Youngs Moduli (GPa) = 74.47873 73.05898 22.72265
#
# Poissons Ratio (x) = -0.00950 0.15135
# Poissons Ratio (y) = -0.00968 0.17620
# Poissons Ratio (z) = 0.49607 0.56652
#
# Static dielectric constant tensor:
#      x y z
#    x 1.855980 0.000000 0.113860 
#    y 0.000000 1.930140 0.000000 
#    z 0.113860 0.000000 1.881930 
# 
# From -- ./inp_files/45071.got.cif
#   From: 2010.05.17/outbox.cif.g08.bks.cpg/sg14_23_cif.got.tgz:45071.got - 2010.06.03 17:49:19.
