data_PCOD9251833
_publ_section_title
;
Structure prediction by ZEFSAII (Michael W. Deem and Ramdas Pophale) SiO2 
 PCOD9251833
Probable space group: P 21/C
;
_chemical_formula_sum "Si O2"
_cell_formula_units_Z 28
_cell_length_a 9.280648
_cell_length_b 13.862990
_cell_length_c 8.411709
_cell_angle_alpha 90.000000
_cell_angle_beta 77.786571
_cell_angle_gamma 90.000000
_cell_volume 1057.734884
_symmetry_space_group_name_H-M "P 21/C"
_symmetry_group_IT_number 14
_symmetry_cell_setting 'monoclinic'
loop_
_space_group_symop_operation_xyz
x,y,z
-x,1/2+y,1/2-z
-x,-y,-z
x,1/2-y,1/2+z
loop_
_atom_site_type_symbol
_atom_site_label
_atom_site_fract_x
_atom_site_fract_y
_atom_site_fract_z
Si Si1 0.210104 0.496622 0.309317
Si Si2 0.260846 0.670613 0.655863
Si Si3 0.087970 0.698954 0.398235
Si Si4 0.243124 0.082231 0.471244
Si Si5 0.451031 0.237662 0.544880
Si Si6 0.807910 0.877993 0.865590
Si Si7 0.464908 0.555764 0.779282
O O1 0.146299 0.602639 0.297568
O O2 0.165652 0.447834 0.488258
O O3 0.387884 0.503403 0.282916
O O4 0.171052 0.434215 0.160940
O O5 0.124451 0.672307 0.569364
O O6 0.188683 0.710618 0.832056
O O7 0.388906 0.739507 0.560062
O O8 0.351013 0.572621 0.661985
O O9 0.920778 0.708537 0.383909
O O10 0.346586 0.176126 0.453967
O O11 0.158304 0.086817 0.322710
O O12 0.360121 0.994177 0.431530
O O13 0.357581 0.334715 0.597375
O O14 0.477350 0.161807 0.682393
#
# Coordination Sequence:
#
# PCOD9251833 Si02
#       7
#     4   4   4   4   4   4   4
#     4  11  25  48  73 109 149 193 248 310 366 445
#     4  12  24  44  74 105 148 193 251 310 370 434
#     4  12  29  46  72 111 155 193 249 307 375 453
#     4  11  26  44  77 108 148 190 251 308 375 434
#     4  11  23  45  73 111 144 192 254 309 365 448
#     4  12  28  48  74 111 150 203 246 302 382 449
#     4  11  22  43  77 111 141 194 252 313 368 434
#
# _framework density 26.471661000000001
#
# number of rings (size 3 to 8) (size 9 to 14) (size 15 to 20)
#    0.000    0.571    2.857    5.571    6.000    1.714 
#    0.000    0.000    0.000    0.000    0.000    0.000 
#    0.000    0.000    0.000    0.000    0.000    0.000 
#
# Total GULP energy -156599.638956 kJ/mol
# GULP energy per Si atom -5592.844248 kJ/mol
# Density = 2.641141 g / cm^3
# Si number density = 26.471661 Si / 1000 Ang^3
#
#
#
# Elastic Constant Matrix: (Units=GPa)
#
#
# Indices 1 2 3 4 5 6 
#
# 1 119.7557 5.3153 35.5232 0.0000 18.0713 0.0000
# 2 5.3153 59.1262 8.4214 0.0000 -0.2113 0.0000
# 3 35.5232 8.4214 133.7258 0.0000 35.3271 0.0000
# 4 0.0000 0.0000 0.0000 37.7448 0.0000 -1.9411
# 5 18.0713 -0.2113 35.3271 0.0000 34.0797 0.0000
# 6 0.0000 0.0000 0.0000 -1.9411 0.0000 42.4298
#
#
#
# Elastic Compliance Matrix: (Units=1/GPa)
#
#
# Indices 1 2 3 4 5 6 
#
# 1 0.009345 -0.000630 -0.001560 0.000000 -0.003343 0.000000
# 2 -0.000630 0.017179 -0.001420 0.000000 0.001912 0.000000
# 3 -0.001560 -0.001420 0.010694 0.000000 -0.010267 0.000000
# 4 0.000000 0.000000 0.000000 0.026556 0.000000 0.001215
# 5 -0.003343 0.001912 -0.010267 0.000000 0.041770 0.000000
# 6 0.000000 0.000000 0.000000 0.001215 0.000000 0.023624
#
#
# Mechanical properties :
#
#
# Convention : Reuss Voigt Hill
#
# Bulk Modulus (GPa) = 33.33407 45.68085 39.50746
# Shear Modulus (GPa) = 34.15601 40.40738 37.28169
#
# Velocity S-wave (km/s) = 3.59595 3.91121 3.75689
# Velocity P-wave (km/s) = 5.46451 6.13927 5.81169
#
# Compressibility (1/GPa) = 0.02999933
#
# Stress axis : x y z
#
# Youngs Moduli (GPa) = 107.00477 58.21186 93.50949
#
# Poissons Ratio (x) = 0.03667 0.14586
# Poissons Ratio (y) = 0.06740 0.13275
# Poissons Ratio (z) = 0.16691 0.08264
#
# Static dielectric constant tensor:
#      x y z
#    x 2.047310 0.000000 0.048020 
#    y 0.000000 2.126630 0.000000 
#    z 0.048020 0.000000 2.140780 
# 
# From -- ./inp_files/9398.got.cif
#   From: 2010.05.17/outbox.cif.g08.bks.cpg/sg14_5_cif.got.tgz:9398.got - 2010.06.03 17:49:19.
