data_PCOD9251156
_publ_section_title
;
Structure prediction by ZEFSAII (Michael W. Deem and Ramdas Pophale) SiO2 
 PCOD9251156
Probable space group: P 21/C
;
_chemical_formula_sum "Si O2"
_cell_formula_units_Z 24
_cell_length_a 17.854609
_cell_length_b 11.687923
_cell_length_c 11.259766
_cell_angle_alpha 90.000000
_cell_angle_beta 149.398951
_cell_angle_gamma 90.000000
_cell_volume 1196.144406
_symmetry_space_group_name_H-M "P 21/C"
_symmetry_group_IT_number 14
_symmetry_cell_setting 'monoclinic'
loop_
_space_group_symop_operation_xyz
x,y,z
-x,1/2+y,1/2-z
-x,-y,-z
x,1/2-y,1/2+z
loop_
_atom_site_type_symbol
_atom_site_label
_atom_site_fract_x
_atom_site_fract_y
_atom_site_fract_z
Si Si1 0.127357 0.467928 0.772197
Si Si2 0.120468 0.593822 0.189865
Si Si3 0.829923 0.338321 0.995584
Si Si4 0.326159 0.902389 0.181813
Si Si5 0.089092 0.281517 0.922743
Si Si6 0.327984 0.123527 0.349509
O O1 0.198451 0.580092 0.930903
O O2 0.082464 0.390259 0.825153
O O3 0.247250 0.396096 0.863830
O O4 0.000000 0.500000 0.500000
O O5 0.245400 0.558657 0.452403
O O6 0.019565 0.693367 0.113234
O O7 0.201445 0.615397 0.176881
O O8 0.000000 0.500000 0.000000
O O9 0.006223 0.319953 0.240824
O O10 0.754875 0.215194 0.896774
O O11 0.496922 0.870327 0.400917
O O12 0.304108 0.005203 0.244126
O O13 0.246188 0.231947 0.176985
#
# Coordination Sequence:
#
# PCOD9251156 Si02
#       6
#     4   4   4   4   4   4
#     4  12  23  43  68 102 133 167 224 275 331 391
#     4  11  21  42  64  98 129 164 224 274 326 391
#     4  11  23  40  68  95 128 170 217 271 330 391
#     4  10  26  43  66  92 132 181 217 271 334 397
#     4  11  23  39  69  97 126 172 215 272 330 396
#     4  11  24  47  63  95 135 176 218 269 338 395
#
# _framework density 20.064465999999999
#
# number of rings (size 3 to 8) (size 9 to 14) (size 15 to 20)
#    0.000    1.000    3.333    4.000    7.000    1.333 
#    6.000    1.667    0.000    0.000    0.000    0.000 
#    0.000    0.000    0.000    0.000    0.000    0.000 
#
# Total GULP energy -133810.852843 kJ/mol
# GULP energy per Si atom -5575.452202 kJ/mol
# Density = 2.001880 g / cm^3
# Si number density = 20.064466 Si / 1000 Ang^3
#
#
#
# Elastic Constant Matrix: (Units=GPa)
#
#
# Indices 1 2 3 4 5 6 
#
# 1 71.6517 15.3084 32.7579 0.0000 -15.8414 0.0000
# 2 15.3084 65.9615 33.0342 0.0000 -8.3034 0.0000
# 3 32.7579 33.0342 118.0819 0.0000 -2.8399 0.0000
# 4 0.0000 0.0000 0.0000 38.0967 0.0000 -3.9759
# 5 -15.8414 -8.3034 -2.8399 0.0000 29.9335 0.0000
# 6 0.0000 0.0000 0.0000 -3.9759 0.0000 29.5350
#
#
#
# Elastic Compliance Matrix: (Units=1/GPa)
#
#
# Indices 1 2 3 4 5 6 
#
# 1 0.018223 -0.000784 -0.004620 0.000000 0.008988 0.000000
# 2 -0.000784 0.018271 -0.004793 0.000000 0.004199 0.000000
# 3 -0.004620 -0.004793 0.011026 0.000000 -0.002728 0.000000
# 4 0.000000 0.000000 0.000000 0.026623 0.000000 0.003584
# 5 0.008988 0.004199 -0.002728 0.000000 0.039070 0.000000
# 6 0.000000 0.000000 0.000000 0.003584 0.000000 0.034341
#
#
# Mechanical properties :
#
#
# Convention : Reuss Voigt Hill
#
# Bulk Modulus (GPa) = 36.86489 46.43290 41.64889
# Shear Modulus (GPa) = 28.25023 31.15269 29.70146
#
# Velocity S-wave (km/s) = 3.75637 3.94462 3.85164
# Velocity P-wave (km/s) = 6.10138 6.62863 6.37046
#
# Compressibility (1/GPa) = 0.02712608
#
# Stress axis : x y z
#
# Youngs Moduli (GPa) = 54.87488 54.73085 90.69812
#
# Poissons Ratio (x) = 0.04291 0.41902
# Poissons Ratio (y) = 0.04303 0.43472
# Poissons Ratio (z) = 0.25352 0.26232
#
# Static dielectric constant tensor:
#      x y z
#    x 1.927790 0.000000 -0.058690 
#    y 0.000000 1.785170 0.000000 
#    z -0.058690 0.000000 1.739970 
# 
# From -- ./inp_files/24072.got.cif
#   From: 2010.05.17/outbox.cif.g08.bks.cpg/sg14_13_cif.got.tgz:24072.got - 2010.06.03 17:49:19.
