data_PCOD9251097
_publ_section_title
;
Structure prediction by ZEFSAII (Michael W. Deem and Ramdas Pophale) SiO2 
 PCOD9251097
Probable space group: P 21/C
;
_chemical_formula_sum "Si O2"
_cell_formula_units_Z 20
_cell_length_a 5.048220
_cell_length_b 17.281335
_cell_length_c 10.679620
_cell_angle_alpha 90.000000
_cell_angle_beta 110.058342
_cell_angle_gamma 90.000000
_cell_volume 875.177144
_symmetry_space_group_name_H-M "P 21/C"
_symmetry_group_IT_number 14
_symmetry_cell_setting 'monoclinic'
loop_
_space_group_symop_operation_xyz
x,y,z
-x,1/2+y,1/2-z
-x,-y,-z
x,1/2-y,1/2+z
loop_
_atom_site_type_symbol
_atom_site_label
_atom_site_fract_x
_atom_site_fract_y
_atom_site_fract_z
Si Si1 0.299912 0.886682 0.707252
Si Si2 0.498903 0.649874 0.514767
Si Si3 0.293485 0.176062 0.442990
Si Si4 0.062452 0.568724 0.608106
Si Si5 0.436525 0.037179 0.624144
O O1 0.422228 0.882269 0.865619
O O2 0.526273 0.858120 0.642846
O O3 0.029071 0.832640 0.649980
O O4 0.234052 0.975818 0.660589
O O5 0.595052 0.738036 0.517864
O O6 0.230559 0.635363 0.559162
O O7 0.766015 0.601312 0.608278
O O8 0.328825 0.122631 0.572327
O O9 0.279207 0.541708 0.748823
O O10 0.000000 0.500000 0.500000
O O11 0.500000 0.000000 0.500000
#
# Coordination Sequence:
#
# PCOD9251097 Si02
#       5
#     4   4   4   4   4
#     4  11  24  47  70 102 144 187 246 293 356 433
#     4  12  27  44  73 105 146 190 240 303 362 423
#     4  11  26  43  71 103 145 188 237 301 360 423
#     4  12  26  48  73 104 143 189 242 294 361 430
#     4  10  25  47  74 106 139 192 240 294 354 432
#
# _framework density 22.852513999999999
#
# number of rings (size 3 to 8) (size 9 to 14) (size 15 to 20)
#    0.000    0.800    2.000    3.600    8.400    3.200 
#    0.000    0.000    0.000    0.000    0.000    0.000 
#    0.000    0.000    0.000    0.000    0.000    0.000 
#
# Total GULP energy -112034.422859 kJ/mol
# GULP energy per Si atom -5601.721143 kJ/mol
# Density = 2.280050 g / cm^3
# Si number density = 22.852514 Si / 1000 Ang^3
#
#
#
# Elastic Constant Matrix: (Units=GPa)
#
#
# Indices 1 2 3 4 5 6 
#
# 1 -105.3667 -145.8044 90.5223 0.0000 -80.7370 0.0000
# 2 -145.8044 8.2534 87.4063 0.0000 -67.1866 0.0000
# 3 90.5223 87.4063 87.3707 0.0000 37.5809 0.0000
# 4 0.0000 0.0000 0.0000 13.4199 0.0000 10.9924
# 5 -80.7370 -67.1866 37.5809 0.0000 -7.0540 0.0000
# 6 0.0000 0.0000 0.0000 10.9924 0.0000 33.7057
#
#
#
# Elastic Compliance Matrix: (Units=1/GPa)
#
#
# Indices 1 2 3 4 5 6 
#
# 1 0.005453 -0.004207 0.002482 0.000000 -0.009122 0.000000
# 2 -0.004207 0.005786 0.000475 0.000000 -0.004426 0.000000
# 3 0.002482 0.000475 0.006855 0.000000 0.003589 0.000000
# 4 0.000000 0.000000 0.000000 0.101678 0.000000 -0.033160
# 5 -0.009122 -0.004426 0.003589 0.000000 0.023922 0.000000
# 6 0.000000 0.000000 0.000000 -0.033160 0.000000 0.040483
#
#
# Mechanical properties :
#
#
# Convention : Reuss Voigt Hill
#
# Bulk Modulus (GPa) = 64.12831 6.05620 35.09225
# Shear Modulus (GPa) = 26.05851 5.22319 15.64085
#
# Velocity S-wave (km/s) = 3.38048 1.51346 2.61899
# Velocity P-wave (km/s) = 6.58480 2.38955 4.95326
#
# Compressibility (1/GPa) = 0.01559374
#
# Stress axis : x y z
#
# Youngs Moduli (GPa) = 183.37029 172.84072 145.87848
#
# Poissons Ratio (x) = 0.72715 -0.36212
# Poissons Ratio (y) = 0.77145 -0.06922
# Poissons Ratio (z) = -0.45519 -0.08202
#
# Static dielectric constant tensor:
#      x y z
#    x 1.807060 0.000000 -0.010260 
#    y 0.000000 1.895010 0.000000 
#    z -0.010260 0.000000 1.849800 
# 
# From -- ./inp_files/21036.got.cif
#   From: 2010.05.17/outbox.cif.g08.bks.cpg/sg14_11_cif.got.tgz:21036.got - 2010.06.03 17:49:19.
