data_PCOD9251275
_publ_section_title
;
Structure prediction by ZEFSAII (Michael W. Deem and Ramdas Pophale) SiO2 
 PCOD9251275
Probable space group: P 21/C
;
_chemical_formula_sum "Si O2"
_cell_formula_units_Z 32
_cell_length_a 32.199821
_cell_length_b 12.173858
_cell_length_c 31.805583
_cell_angle_alpha 90.000000
_cell_angle_beta 8.975326
_cell_angle_gamma 90.000000
_cell_volume 1945.068985
_symmetry_space_group_name_H-M "P 21/C"
_symmetry_group_IT_number 14
_symmetry_cell_setting 'monoclinic'
loop_
_space_group_symop_operation_xyz
x,y,z
-x,1/2+y,1/2-z
-x,-y,-z
x,1/2-y,1/2+z
loop_
_atom_site_type_symbol
_atom_site_label
_atom_site_fract_x
_atom_site_fract_y
_atom_site_fract_z
Si Si1 0.249471 0.076838 0.984451
Si Si2 0.249164 0.919161 0.205503
Si Si3 0.372177 0.875945 0.990762
Si Si4 0.249542 0.076840 0.516534
Si Si5 0.841632 0.706760 0.341167
Si Si6 0.158360 0.293242 0.024438
Si Si7 0.372165 0.875940 0.264896
Si Si8 0.750836 0.080843 0.703832
O O1 0.999948 0.000010 0.239896
O O2 0.286063 0.136677 0.992717
O O3 0.160547 0.170109 0.040240
O O4 0.499950 0.999990 0.722910
O O5 0.238403 0.859262 0.261596
O O6 0.269351 0.858267 0.141041
O O7 0.000001 0.000002 0.452168
O O8 0.500001 0.000002 0.955725
O O9 0.625989 0.800835 0.727888
O O10 0.500011 0.000002 0.858749
O O11 0.124433 0.844774 0.207695
O O12 0.160585 0.170107 0.638625
O O13 0.286085 0.136680 0.435134
O O14 0.625979 0.699166 0.520145
O O15 0.124426 0.655234 0.043445
O O16 0.269352 0.858261 0.320255
#
# Coordination Sequence:
#
# PCOD9251275 Si02
#       8
#     4   4   4   4   4   4   4   4
#     4  11  22  36  50  67  97 129 160 204 247 279
#     4   9  17  28  43  66  97 130 155 181 228 284
#     4  11  19  31  49  72 101 129 159 196 233 281
#     4  11  22  36  50  67  97 129 160 204 247 279
#     4  11  22  33  50  73  94 126 169 199 234 291
#     4  11  22  33  50  73  94 126 169 199 234 291
#     4  11  19  31  49  72 101 129 159 196 233 281
#     4   9  17  28  43  66  97 130 155 181 228 284
#
# _framework density 16.451858999999999
#
# number of rings (size 3 to 8) (size 9 to 14) (size 15 to 20)
#    0.000    1.500    0.000    9.000    0.000    4.000 
#    0.000    0.000    0.000    0.000    0.000    0.000 
#    0.000   20.000    0.000    0.000    0.000    0.000 
#
# Total GULP energy -178195.060373 kJ/mol
# GULP energy per Si atom -5568.595637 kJ/mol
# Density = 1.641441 g / cm^3
# Si number density = 16.451859 Si / 1000 Ang^3
#
#
#
# Elastic Constant Matrix: (Units=GPa)
#
#
# Indices 1 2 3 4 5 6 
#
# 1 85.9815 27.3682 18.4425 0.0000 1.6540 0.0000
# 2 27.3682 52.9422 9.7191 0.0000 2.3225 0.0000
# 3 18.4425 9.7191 104.3857 0.0000 -4.0764 0.0000
# 4 0.0000 0.0000 0.0000 13.7117 0.0000 0.4125
# 5 1.6540 2.3225 -4.0764 0.0000 28.2486 0.0000
# 6 0.0000 0.0000 0.0000 0.4125 0.0000 16.8084
#
#
#
# Elastic Compliance Matrix: (Units=1/GPa)
#
#
# Indices 1 2 3 4 5 6 
#
# 1 0.014278 -0.007010 -0.001891 0.000000 -0.000532 0.000000
# 2 -0.007010 0.022755 -0.000942 0.000000 -0.001596 0.000000
# 3 -0.001891 -0.000942 0.010066 0.000000 0.001641 0.000000
# 4 0.000000 0.000000 0.000000 0.072985 0.000000 -0.001791
# 5 -0.000532 -0.001596 0.001641 0.000000 0.035799 0.000000
# 6 0.000000 0.000000 0.000000 -0.001791 0.000000 0.059538
#
#
# Mechanical properties :
#
#
# Convention : Reuss Voigt Hill
#
# Bulk Modulus (GPa) = 36.48032 39.37432 37.92732
# Shear Modulus (GPa) = 20.47128 24.27237 22.37183
#
# Velocity S-wave (km/s) = 3.53131 3.84520 3.69160
# Velocity P-wave (km/s) = 6.23290 6.61053 6.42449
#
# Compressibility (1/GPa) = 0.02741204
#
# Stress axis : x y z
#
# Youngs Moduli (GPa) = 70.03995 43.94543 99.34720
#
# Poissons Ratio (x) = 0.30807 0.18783
# Poissons Ratio (y) = 0.49100 0.09363
# Poissons Ratio (z) = 0.13242 0.04142
#
# Static dielectric constant tensor:
#      x y z
#    x 1.628240 0.000000 0.009770 
#    y 0.000000 1.546050 0.000000 
#    z 0.009770 0.000000 1.554070 
# 
# From -- ./inp_files/81015.got.cif
#   From: 2010.05.17/outbox.cif.g08.bks.cpg/sg14_41_cif.got.tgz:81015.got - 2010.06.03 17:49:19.
