data_PCOD9251005
_publ_section_title
;
Structure prediction by ZEFSAII (Michael W. Deem and Ramdas Pophale) SiO2 
 PCOD9251005
Probable space group: P 21/C
;
_chemical_formula_sum "Si O2"
_cell_formula_units_Z 16
_cell_length_a 7.446816
_cell_length_b 5.327253
_cell_length_c 15.942749
_cell_angle_alpha 90.000000
_cell_angle_beta 111.054781
_cell_angle_gamma 90.000000
_cell_volume 590.240861
_symmetry_space_group_name_H-M "P 21/C"
_symmetry_group_IT_number 14
_symmetry_cell_setting 'monoclinic'
loop_
_space_group_symop_operation_xyz
x,y,z
-x,1/2+y,1/2-z
-x,-y,-z
x,1/2-y,1/2+z
loop_
_atom_site_type_symbol
_atom_site_label
_atom_site_fract_x
_atom_site_fract_y
_atom_site_fract_z
Si Si1 0.951323 0.998633 0.791879
Si Si2 0.376104 0.023123 0.144132
Si Si3 0.773238 0.478227 0.971139
Si Si4 0.324007 0.881978 0.916746
O O1 0.112721 0.002721 0.893394
O O2 0.013861 0.750263 0.753131
O O3 0.733437 0.966422 0.786361
O O4 0.307345 0.271194 0.083013
O O5 0.603021 0.050799 0.164905
O O6 0.500000 0.000000 0.000000
O O7 0.300738 0.761485 0.093791
O O8 0.706623 0.402073 0.054604
O O9 0.000000 0.500000 0.000000
#
# Coordination Sequence:
#
# PCOD9251005 Si02
#       4
#     4   4   4   4
#     4  12  28  46  69  98 144 192 231 282 356 423
#     4  11  24  43  68 100 142 181 231 289 350 416
#     4  11  21  39  72 103 137 173 227 294 356 405
#     4  10  25  44  74 107 136 178 241 292 352 418
#
# _framework density 27.107582000000001
#
# number of rings (size 3 to 8) (size 9 to 14) (size 15 to 20)
#    0.000    1.000    2.500    3.000    3.500    6.000 
#    0.000    0.000    0.000    0.000    0.000    0.000 
#    0.000    0.000    0.000    0.000    0.000    0.000 
#
# Total GULP energy -89504.715948 kJ/mol
# GULP energy per Si atom -5594.044747 kJ/mol
# Density = 2.704588 g / cm^3
# Si number density = 27.107582 Si / 1000 Ang^3
#
#
#
# Elastic Constant Matrix: (Units=GPa)
#
#
# Indices 1 2 3 4 5 6 
#
# 1 129.3401 34.3527 28.2252 0.0000 -41.5852 0.0000
# 2 34.3527 210.9486 49.2610 0.0000 -18.3509 0.0000
# 3 28.2252 49.2610 58.2738 0.0000 -21.7332 0.0000
# 4 0.0000 0.0000 0.0000 61.5974 0.0000 -0.1434
# 5 -41.5852 -18.3509 -21.7332 0.0000 68.4935 0.0000
# 6 0.0000 0.0000 0.0000 -0.1434 0.0000 50.4549
#
#
#
# Elastic Compliance Matrix: (Units=1/GPa)
#
#
# Indices 1 2 3 4 5 6 
#
# 1 0.010097 -0.000626 -0.002424 0.000000 0.005193 0.000000
# 2 -0.000626 0.005945 -0.004843 0.000000 -0.000324 0.000000
# 3 -0.002424 -0.004843 0.024268 0.000000 0.004931 0.000000
# 4 0.000000 0.000000 0.000000 0.016235 0.000000 0.000046
# 5 0.005193 -0.000324 0.004931 0.000000 0.019231 0.000000
# 6 0.000000 0.000000 0.000000 0.000046 0.000000 0.019820
#
#
# Mechanical properties :
#
#
# Convention : Reuss Voigt Hill
#
# Bulk Modulus (GPa) = 40.77968 69.13783 54.95875
# Shear Modulus (GPa) = 41.82138 55.22406 48.52272
#
# Velocity S-wave (km/s) = 3.93210 4.51845 4.23544
# Velocity P-wave (km/s) = 5.97424 7.26514 6.65108
#
# Compressibility (1/GPa) = 0.02452202
#
# Stress axis : x y z
#
# Youngs Moduli (GPa) = 99.04352 168.19977 41.20705
#
# Poissons Ratio (x) = 0.10536 0.09989
# Poissons Ratio (y) = 0.06204 0.19958
# Poissons Ratio (z) = 0.24009 0.81465
#
# Static dielectric constant tensor:
#      x y z
#    x 2.236160 0.000000 -0.106380 
#    y 0.000000 2.075580 0.000000 
#    z -0.106380 0.000000 2.455690 
# 
# From -- ./inp_files/53790.got.cif
#   From: 2010.05.17/outbox.cif.g08.bks.cpg/sg14_27_cif.got.tgz:53790.got - 2010.06.03 17:49:19.
