data_PCOD9251177
_publ_section_title
;
Structure prediction by ZEFSAII (Michael W. Deem and Ramdas Pophale) SiO2 
 PCOD9251177
Probable space group: P 21/C
;
_chemical_formula_sum "Si O2"
_cell_formula_units_Z 18
_cell_length_a 9.574857
_cell_length_b 9.018790
_cell_length_c 8.356599
_cell_angle_alpha 90.000000
_cell_angle_beta 120.646910
_cell_angle_gamma 90.000000
_cell_volume 620.829952
_symmetry_space_group_name_H-M "P 21/C"
_symmetry_group_IT_number 14
_symmetry_cell_setting 'monoclinic'
loop_
_space_group_symop_operation_xyz
x,y,z
-x,1/2+y,1/2-z
-x,-y,-z
x,1/2-y,1/2+z
loop_
_atom_site_type_symbol
_atom_site_label
_atom_site_fract_x
_atom_site_fract_y
_atom_site_fract_z
Si Si1 0.271861 0.187791 0.118681
Si Si2 0.388092 0.738030 0.180394
Si Si3 0.223204 0.546331 0.353601
Si Si4 0.143814 0.451788 0.849721
Si Si5 0.500000 0.500000 0.000000
O O1 0.447071 0.170795 0.313506
O O2 0.150073 0.114842 0.173810
O O3 0.180254 0.331381 0.006467
O O4 0.308255 0.097387 0.977211
O O5 0.306272 0.621109 0.251350
O O6 0.484904 0.867719 0.337774
O O7 0.252637 0.830334 0.007132
O O8 0.037695 0.496642 0.227396
O O9 0.307454 0.545422 0.938263
#
# Coordination Sequence:
#
# PCOD9251177 Si02
#       5
#     4   4   4   4   2
#     4  11  26  46  70 106 147 188 243 291 368 436
#     4  11  26  45  75 104 148 189 245 293 369 416
#     4  12  27  46  76 108 144 188 250 300 352 438
#     4  11  26  46  74 104 148 187 245 299 366 417
#     4  10  26  44  72  96 146 192 232 294 358 424
#
# _framework density 28.993445000000001
#
# number of rings (size 3 to 8) (size 9 to 14) (size 15 to 20)
#    0.000    0.889    0.000    5.333   18.667    0.889 
#    0.000    0.000    0.000    0.000    0.000    0.000 
#    0.000    0.000    0.000    0.000    0.000    0.000 
#
# Total GULP energy -100552.101899 kJ/mol
# GULP energy per Si atom -5586.227883 kJ/mol
# Density = 2.892745 g / cm^3
# Si number density = 28.993445 Si / 1000 Ang^3
#
#
#
# Elastic Constant Matrix: (Units=GPa)
#
#
# Indices 1 2 3 4 5 6 
#
# 1 171.7707 26.0914 60.1098 0.0000 25.8179 0.0000
# 2 26.0914 73.3755 -2.4294 0.0000 18.0938 0.0000
# 3 60.1098 -2.4294 107.5534 0.0000 16.2969 0.0000
# 4 0.0000 0.0000 0.0000 40.1869 0.0000 -5.1738
# 5 25.8179 18.0938 16.2969 0.0000 51.8516 0.0000
# 6 0.0000 0.0000 0.0000 -5.1738 0.0000 43.9693
#
#
#
# Elastic Compliance Matrix: (Units=1/GPa)
#
#
# Indices 1 2 3 4 5 6 
#
# 1 0.007952 -0.002538 -0.004238 0.000000 -0.001742 0.000000
# 2 -0.002538 0.015866 0.002546 0.000000 -0.005073 0.000000
# 3 -0.004238 0.002546 0.012115 0.000000 -0.002586 0.000000
# 4 0.000000 0.000000 0.000000 0.025266 0.000000 0.002973
# 5 -0.001742 -0.005073 -0.002586 0.000000 0.022736 0.000000
# 6 0.000000 0.000000 0.000000 0.002973 0.000000 0.023093
#
#
# Mechanical properties :
#
#
# Convention : Reuss Voigt Hill
#
# Bulk Modulus (GPa) = 36.39923 57.80479 47.10201
# Shear Modulus (GPa) = 40.11299 45.13008 42.62153
#
# Velocity S-wave (km/s) = 3.72360 3.94961 3.83827
# Velocity P-wave (km/s) = 5.57391 6.38590 5.99367
#
# Compressibility (1/GPa) = 0.02747311
#
# Stress axis : x y z
#
# Youngs Moduli (GPa) = 125.75405 63.02633 82.53928
#
# Poissons Ratio (x) = 0.15999 0.34977
# Poissons Ratio (y) = 0.31922 -0.21012
# Poissons Ratio (z) = 0.53290 -0.16045
#
# Static dielectric constant tensor:
#      x y z
#    x 1.996120 0.000000 0.225850 
#    y 0.000000 1.930090 0.000000 
#    z 0.225850 0.000000 1.500050 
# 
# From -- ./inp_files/7595.got.cif
#   From: 2010.05.17/outbox.cif.g08.bks.cpg/sg14_4_cif.got.tgz:7595.got - 2010.06.03 17:49:19.
