data_PCOD9251287
_publ_section_title
;
Structure prediction by ZEFSAII (Michael W. Deem and Ramdas Pophale) SiO2 
 PCOD9251287
Probable space group: P 21/C
;
_chemical_formula_sum "Si O2"
_cell_formula_units_Z 28
_cell_length_a 31.231431
_cell_length_b 8.637511
_cell_length_c 16.409727
_cell_angle_alpha 90.000000
_cell_angle_beta 12.947759
_cell_angle_gamma 90.000000
_cell_volume 991.861726
_symmetry_space_group_name_H-M "P 21/C"
_symmetry_group_IT_number 14
_symmetry_cell_setting 'monoclinic'
loop_
_space_group_symop_operation_xyz
x,y,z
-x,1/2+y,1/2-z
-x,-y,-z
x,1/2-y,1/2+z
loop_
_atom_site_type_symbol
_atom_site_label
_atom_site_fract_x
_atom_site_fract_y
_atom_site_fract_z
Si Si1 0.346716 0.556233 0.989903
Si Si2 0.502808 0.793544 0.337792
Si Si3 0.927896 0.199482 0.686347
Si Si4 0.921692 0.502863 0.774515
Si Si5 0.714289 0.786372 0.102950
Si Si6 0.695168 0.382015 0.475680
Si Si7 0.953762 0.967047 0.771992
O O1 0.135495 0.535999 0.344894
O O2 0.423562 0.720523 0.809932
O O3 0.444255 0.383693 0.792522
O O4 0.317941 0.628321 0.136758
O O5 0.532817 0.790678 0.379305
O O6 0.623472 0.946920 0.084270
O O7 0.847814 0.362397 0.859038
O O8 0.114336 0.209147 0.283408
O O9 0.771359 0.105540 0.926295
O O10 0.981827 0.126811 0.672519
O O11 0.759247 0.628204 0.065896
O O12 0.975008 0.464536 0.768448
O O13 0.754226 0.905324 0.102983
O O14 0.887202 0.358760 0.067230
#
# Coordination Sequence:
#
# PCOD9251287 Si02
#       7
#     4   4   4   4   4   4   4
#     4  12  24  39  65  96 131 170 219 266 321 387
#     4  12  23  40  65  95 129 175 219 266 314 388
#     4  11  19  35  63  90 123 162 213 267 321 375
#     4  12  23  37  62 100 128 162 214 279 330 384
#     4  11  20  38  62  90 124 165 216 268 316 382
#     4  11  21  41  65  93 124 168 219 270 321 381
#     4  11  21  36  63  93 130 159 205 276 334 377
#
# _framework density 28.229741000000001
#
# number of rings (size 3 to 8) (size 9 to 14) (size 15 to 20)
#    0.000    0.571    8.571    3.000    0.000    0.000 
#    0.000    0.714    0.000    0.857    0.000    0.000 
#    0.000    0.000    0.000    0.000    0.000    0.000 
#
# Total GULP energy -156004.982410 kJ/mol
# GULP energy per Si atom -5571.606515 kJ/mol
# Density = 2.816549 g / cm^3
# Si number density = 28.229741 Si / 1000 Ang^3
#
#
#
# Elastic Constant Matrix: (Units=GPa)
#
#
# Indices 1 2 3 4 5 6 
#
# 1 204.2331 67.1457 14.2036 0.0000 -22.2041 0.0000
# 2 67.1457 179.9825 30.4403 0.0000 -9.4076 0.0000
# 3 14.2036 30.4403 38.1917 0.0000 -1.1570 0.0000
# 4 0.0000 0.0000 0.0000 32.1827 0.0000 -21.1539
# 5 -22.2041 -9.4076 -1.1570 0.0000 38.3350 0.0000
# 6 0.0000 0.0000 0.0000 -21.1539 0.0000 40.0460
#
#
#
# Elastic Compliance Matrix: (Units=1/GPa)
#
#
# Indices 1 2 3 4 5 6 
#
# 1 0.005894 -0.001954 -0.000546 0.000000 0.002918 0.000000
# 2 -0.001954 0.007148 -0.004956 0.000000 0.000473 0.000000
# 3 -0.000546 -0.004956 0.030318 0.000000 -0.000618 0.000000
# 4 0.000000 0.000000 0.000000 0.047600 0.000000 0.025144
# 5 0.002918 0.000473 -0.000618 0.000000 0.027873 0.000000
# 6 0.000000 0.000000 0.000000 0.025144 0.000000 0.038254
#
#
# Mechanical properties :
#
#
# Convention : Reuss Voigt Hill
#
# Bulk Modulus (GPa) = 35.15234 71.77626 53.46430
# Shear Modulus (GPa) = 27.55084 42.82060 35.18572
#
# Velocity S-wave (km/s) = 3.12741 3.89892 3.53428
# Velocity P-wave (km/s) = 5.05175 6.76385 5.96950
#
# Compressibility (1/GPa) = 0.02844761
#
# Stress axis : x y z
#
# Youngs Moduli (GPa) = 169.66453 139.89902 32.98323
#
# Poissons Ratio (x) = 0.27336 0.01802
# Poissons Ratio (y) = 0.33152 0.16347
# Poissons Ratio (z) = 0.09267 0.69337
#
# Static dielectric constant tensor:
#      x y z
#    x 2.360890 0.000000 -0.035470 
#    y 0.000000 2.339050 0.000000 
#    z -0.035470 0.000000 2.339970 
# 
# From -- ./inp_files/62584.got.cif
#   From: 2010.05.17/outbox.cif.g08.bks.cpg/sg14_32_cif.got.tgz:62584.got - 2010.06.03 17:49:19.
