data_PCOD9251971
_publ_section_title
;
Structure prediction by ZEFSAII (Michael W. Deem and Ramdas Pophale) SiO2 
 PCOD9251971
Probable space group: P 21/C
;
_chemical_formula_sum "Si O2"
_cell_formula_units_Z 16
_cell_length_a 5.238758
_cell_length_b 21.716150
_cell_length_c 6.628658
_cell_angle_alpha 90.000000
_cell_angle_beta 48.934006
_cell_angle_gamma 90.000000
_cell_volume 568.566542
_symmetry_space_group_name_H-M "P 21/C"
_symmetry_group_IT_number 14
_symmetry_cell_setting 'monoclinic'
loop_
_space_group_symop_operation_xyz
x,y,z
-x,1/2+y,1/2-z
-x,-y,-z
x,1/2-y,1/2+z
loop_
_atom_site_type_symbol
_atom_site_label
_atom_site_fract_x
_atom_site_fract_y
_atom_site_fract_z
Si Si1 0.565564 0.304183 0.864180
Si Si2 0.252070 0.425713 0.914119
Si Si3 0.528789 0.546983 0.743846
Si Si4 0.677886 0.672249 0.582050
O O1 0.458217 0.233612 0.952374
O O2 0.933444 0.311140 0.578313
O O3 0.327937 0.352411 0.869699
O O4 0.551848 0.328413 0.098829
O O5 0.283906 0.442561 0.139548
O O6 0.874940 0.440592 0.038210
O O7 0.535879 0.474472 0.687612
O O8 0.669927 0.600663 0.523528
#
# Coordination Sequence:
#
# PCOD9251971 Si02
#       4
#     4   4   4   4
#     4  11  23  40  64  94 129 168 213 263 318 379
#     4   9  19  38  63  92 126 165 210 260 315 375
#     4   9  19  38  63  92 126 165 210 260 315 375
#     4  11  23  40  64  94 129 168 213 263 318 379
#
# _framework density 28.140944999999999
#
# number of rings (size 3 to 8) (size 9 to 14) (size 15 to 20)
#    0.000    2.000    0.000    3.000    0.000    5.000 
#    0.000    0.000    0.000   28.500    0.000    0.000 
#    0.000    0.000    0.000    0.000    0.000    0.000 
#
# Total GULP energy -89474.719006 kJ/mol
# GULP energy per Si atom -5592.169938 kJ/mol
# Density = 2.807690 g / cm^3
# Si number density = 28.140945 Si / 1000 Ang^3
#
#
#
# Elastic Constant Matrix: (Units=GPa)
#
#
# Indices 1 2 3 4 5 6 
#
# 1 93.5790 43.3622 40.3253 0.0000 -21.9762 0.0000
# 2 43.3622 219.0985 39.4097 0.0000 -10.5530 0.0000
# 3 40.3253 39.4097 53.4235 0.0000 -20.8639 0.0000
# 4 0.0000 0.0000 0.0000 52.0073 0.0000 2.2164
# 5 -21.9762 -10.5530 -20.8639 0.0000 39.3415 0.0000
# 6 0.0000 0.0000 0.0000 2.2164 0.0000 61.8906
#
#
#
# Elastic Compliance Matrix: (Units=1/GPa)
#
#
# Indices 1 2 3 4 5 6 
#
# 1 0.016454 -0.001268 -0.010125 0.000000 0.003482 0.000000
# 2 -0.001268 0.005381 -0.003437 0.000000 -0.001088 0.000000
# 3 -0.010125 -0.003437 0.033205 0.000000 0.011032 0.000000
# 4 0.000000 0.000000 0.000000 0.019257 0.000000 -0.000690
# 5 0.003482 -0.001088 0.011032 0.000000 0.032922 0.000000
# 6 0.000000 0.000000 0.000000 -0.000690 0.000000 0.016182
#
#
# Mechanical properties :
#
#
# Convention : Reuss Voigt Hill
#
# Bulk Modulus (GPa) = 39.40139 68.03280 53.71709
# Shear Modulus (GPa) = 30.95538 46.84814 38.90176
#
# Velocity S-wave (km/s) = 3.32024 4.08458 3.72208
# Velocity P-wave (km/s) = 5.36008 6.81713 6.13204
#
# Compressibility (1/GPa) = 0.02537982
#
# Stress axis : x y z
#
# Youngs Moduli (GPa) = 60.77400 185.84152 30.11576
#
# Poissons Ratio (x) = 0.23556 0.30493
# Poissons Ratio (y) = 0.07703 0.10352
# Poissons Ratio (z) = 0.61536 0.63881
#
# Static dielectric constant tensor:
#      x y z
#    x 2.251360 0.000000 0.210480 
#    y 0.000000 2.448140 0.000000 
#    z 0.210480 0.000000 2.138730 
# 
# From -- ./inp_files/5645.got.cif
#   From: 2010.05.17/outbox.cif.g08.bks.cpg/sg14_3_cif.got.tgz:5645.got - 2010.06.03 17:49:19.
