data_PCOD9251163
_publ_section_title
;
Structure prediction by ZEFSAII (Michael W. Deem and Ramdas Pophale) SiO2 
 PCOD9251163
Probable space group: P 21/C
;
_chemical_formula_sum "Si O2"
_cell_formula_units_Z 18
_cell_length_a 9.967738
_cell_length_b 13.654044
_cell_length_c 5.226065
_cell_angle_alpha 90.000000
_cell_angle_beta 100.081617
_cell_angle_gamma 90.000000
_cell_volume 700.284703
_symmetry_space_group_name_H-M "P 21/C"
_symmetry_group_IT_number 14
_symmetry_cell_setting 'monoclinic'
loop_
_space_group_symop_operation_xyz
x,y,z
-x,1/2+y,1/2-z
-x,-y,-z
x,1/2-y,1/2+z
loop_
_atom_site_type_symbol
_atom_site_label
_atom_site_fract_x
_atom_site_fract_y
_atom_site_fract_z
Si Si1 0.358515 0.364786 0.314097
Si Si2 0.292160 0.474204 0.785096
Si Si3 0.345341 0.801906 0.169111
Si Si4 0.000000 0.500000 0.500000
Si Si5 0.947675 0.694032 0.775954
O O1 0.375825 0.417383 0.593110
O O2 0.490321 0.302820 0.288859
O O3 0.217560 0.305898 0.272000
O O4 0.338723 0.444591 0.081767
O O5 0.305549 0.588713 0.730868
O O6 0.134934 0.448995 0.677832
O O7 0.297205 0.728974 0.373493
O O8 0.994725 0.584608 0.725444
O O9 0.995703 0.763624 0.561448
#
# Coordination Sequence:
#
# PCOD9251163 Si02
#       5
#     4   4   4   2   4
#     4  11  22  42  66  93 126 168 220 270 325 391
#     4  11  24  42  65  92 129 175 217 263 327 392
#     4  12  24  40  65  97 131 163 209 273 335 395
#     4  10  26  44  66  96 136 178 222 272 322 390
#     4  11  23  40  65  94 126 170 220 269 322 384
#
# _framework density 25.703831000000001
#
# number of rings (size 3 to 8) (size 9 to 14) (size 15 to 20)
#    0.000    0.889    0.000    8.000    0.000    9.778 
#    0.000    0.000    0.000    0.000    0.000    0.000 
#    0.000    0.000    0.000    0.000    0.000    0.000 
#
# Total GULP energy -100509.302596 kJ/mol
# GULP energy per Si atom -5583.850144 kJ/mol
# Density = 2.564533 g / cm^3
# Si number density = 25.703831 Si / 1000 Ang^3
#
#
#
# Elastic Constant Matrix: (Units=GPa)
#
#
# Indices 1 2 3 4 5 6 
#
# 1 89.9246 6.0366 38.2354 0.0000 -0.4150 0.0000
# 2 6.0366 89.5273 52.8803 0.0000 -26.8625 0.0000
# 3 38.2354 52.8803 114.2259 0.0000 -33.3224 0.0000
# 4 0.0000 0.0000 0.0000 51.2078 0.0000 -17.5869
# 5 -0.4150 -26.8625 -33.3224 0.0000 33.4959 0.0000
# 6 0.0000 0.0000 0.0000 -17.5869 0.0000 44.5622
#
#
#
# Elastic Compliance Matrix: (Units=1/GPa)
#
#
# Indices 1 2 3 4 5 6 
#
# 1 0.013973 0.001525 -0.007011 0.000000 -0.005578 0.000000
# 2 0.001525 0.016960 -0.006183 0.000000 0.007469 0.000000
# 3 -0.007011 -0.006183 0.017599 0.000000 0.012463 0.000000
# 4 0.000000 0.000000 0.000000 0.022590 0.000000 0.008915
# 5 -0.005578 0.007469 0.012463 0.000000 0.048173 0.000000
# 6 0.000000 0.000000 0.000000 0.008915 0.000000 0.025959
#
#
# Mechanical properties :
#
#
# Convention : Reuss Voigt Hill
#
# Bulk Modulus (GPa) = 39.68995 54.22025 46.95510
# Shear Modulus (GPa) = 28.24994 38.95489 33.60241
#
# Velocity S-wave (km/s) = 3.31880 3.89720 3.61957
# Velocity P-wave (km/s) = 5.49187 6.43358 5.98129
#
# Compressibility (1/GPa) = 0.02519530
#
# Stress axis : x y z
#
# Youngs Moduli (GPa) = 71.56579 58.96140 56.82015
#
# Poissons Ratio (x) = -0.08992 0.39834
# Poissons Ratio (y) = -0.10914 0.35133
# Poissons Ratio (z) = 0.50172 0.36457
#
# Static dielectric constant tensor:
#      x y z
#    x 1.945320 0.000000 -0.000070 
#    y 0.000000 1.988640 0.000000 
#    z -0.000070 0.000000 1.972180 
# 
# From -- ./inp_files/2361.got.cif
#   From: 2010.05.17/outbox.cif.g08.bks.cpg/sg14_2_cif.got.tgz:2361.got - 2010.06.03 17:49:19.
