data_PCOD9251370
_publ_section_title
;
Structure prediction by ZEFSAII (Michael W. Deem and Ramdas Pophale) SiO2 
 PCOD9251370
Probable space group: P 21/C
;
_chemical_formula_sum "Si O2"
_cell_formula_units_Z 22
_cell_length_a 7.473987
_cell_length_b 5.459413
_cell_length_c 22.980766
_cell_angle_alpha 90.000000
_cell_angle_beta 54.032948
_cell_angle_gamma 90.000000
_cell_volume 758.930088
_symmetry_space_group_name_H-M "P 21/C"
_symmetry_group_IT_number 14
_symmetry_cell_setting 'monoclinic'
loop_
_space_group_symop_operation_xyz
x,y,z
-x,1/2+y,1/2-z
-x,-y,-z
x,1/2-y,1/2+z
loop_
_atom_site_type_symbol
_atom_site_label
_atom_site_fract_x
_atom_site_fract_y
_atom_site_fract_z
Si Si1 0.000000 0.500000 0.000000
Si Si2 0.770152 0.572536 0.841527
Si Si3 0.629377 0.493924 0.736020
Si Si4 0.678090 0.187408 0.505411
Si Si5 0.771320 0.429887 0.370871
Si Si6 0.715002 0.548399 0.595817
O O1 0.861362 0.517494 0.962936
O O2 0.808708 0.687096 0.064519
O O3 0.688290 0.558100 0.791004
O O4 0.557624 0.591355 0.927458
O O5 0.890540 0.319216 0.830741
O O6 0.893559 0.823117 0.831127
O O7 0.526340 0.222915 0.753412
O O8 0.779458 0.493549 0.649367
O O9 0.695816 0.382466 0.451207
O O10 0.796066 0.310928 0.541329
O O11 0.542566 0.446730 0.376248
#
# Coordination Sequence:
#
# PCOD9251370 Si02
#       6
#     2   4   4   4   4   4
#     4  12  24  40  60  88 134 166 206 242 324 384
#     4  11  20  38  61  98 116 157 207 264 315 361
#     4  12  20  37  63  93 127 158 208 269 314 372
#     4  11  23  39  61  92 126 163 207 264 313 371
#     4  11  22  37  66  92 123 156 213 265 315 356
#     4  11  23  39  61  97 124 167 207 263 320 373
#
# _framework density 28.988178000000001
#
# number of rings (size 3 to 8) (size 9 to 14) (size 15 to 20)
#    0.000    0.727    7.273    3.273    2.545    0.000 
#    0.000    0.000    0.000    2.182    0.000    0.000 
#    0.000    0.000    0.000    0.000    0.000    0.000 
#
# Total GULP energy -122736.091167 kJ/mol
# GULP energy per Si atom -5578.913235 kJ/mol
# Density = 2.892220 g / cm^3
# Si number density = 28.988178 Si / 1000 Ang^3
#
#
#
# Elastic Constant Matrix: (Units=GPa)
#
#
# Indices 1 2 3 4 5 6 
#
# 1 86.7760 10.6383 17.8924 0.0000 15.6310 0.0000
# 2 10.6383 151.4005 37.0399 0.0000 17.7364 0.0000
# 3 17.8924 37.0399 106.8755 0.0000 33.7100 0.0000
# 4 0.0000 0.0000 0.0000 48.7911 0.0000 16.1979
# 5 15.6310 17.7364 33.7100 0.0000 59.4768 0.0000
# 6 0.0000 0.0000 0.0000 16.1979 0.0000 28.3873
#
#
#
# Elastic Compliance Matrix: (Units=1/GPa)
#
#
# Indices 1 2 3 4 5 6 
#
# 1 0.012245 -0.000284 -0.001173 0.000000 -0.002469 0.000000
# 2 -0.000284 0.007263 -0.002204 0.000000 -0.000842 0.000000
# 3 -0.001173 -0.002204 0.012192 0.000000 -0.005945 0.000000
# 4 0.000000 0.000000 0.000000 0.025285 0.000000 -0.014428
# 5 -0.002469 -0.000842 -0.005945 0.000000 0.021082 0.000000
# 6 0.000000 0.000000 0.000000 -0.014428 0.000000 0.043460
#
#
# Mechanical properties :
#
#
# Convention : Reuss Voigt Hill
#
# Bulk Modulus (GPa) = 41.02089 52.91036 46.96562
# Shear Modulus (GPa) = 36.50289 45.96314 41.23301
#
# Velocity S-wave (km/s) = 3.55242 3.98626 3.77557
# Velocity P-wave (km/s) = 5.56847 6.28323 5.93662
#
# Compressibility (1/GPa) = 0.02437782
#
# Stress axis : x y z
#
# Youngs Moduli (GPa) = 81.66408 137.68806 82.02205
#
# Poissons Ratio (x) = 0.03914 0.09620
# Poissons Ratio (y) = 0.02322 0.18077
# Poissons Ratio (z) = 0.09578 0.30345
#
# Static dielectric constant tensor:
#      x y z
#    x 1.852310 0.000000 0.166760 
#    y 0.000000 1.055050 0.000000 
#    z 0.166760 0.000000 2.344750 
# 
# From -- ./inp_files/64144.got.cif
#   From: 2010.05.17/outbox.cif.g08.bks.cpg/sg14_33_cif.got.tgz:64144.got - 2010.06.03 17:49:19.
