data_PCOD9251606
_publ_section_title
;
Structure prediction by ZEFSAII (Michael W. Deem and Ramdas Pophale) SiO2 
 PCOD9251606
Probable space group: P 21/C
;
_chemical_formula_sum "Si O2"
_cell_formula_units_Z 24
_cell_length_a 15.568365
_cell_length_b 16.447778
_cell_length_c 10.007370
_cell_angle_alpha 90.000000
_cell_angle_beta 28.310294
_cell_angle_gamma 90.000000
_cell_volume 1215.274074
_symmetry_space_group_name_H-M "P 21/C"
_symmetry_group_IT_number 14
_symmetry_cell_setting 'monoclinic'
loop_
_space_group_symop_operation_xyz
x,y,z
-x,1/2+y,1/2-z
-x,-y,-z
x,1/2-y,1/2+z
loop_
_atom_site_type_symbol
_atom_site_label
_atom_site_fract_x
_atom_site_fract_y
_atom_site_fract_z
Si Si1 0.993828 0.935557 0.628287
Si Si2 0.497788 0.428216 0.780687
Si Si3 0.843562 0.008634 0.109227
Si Si4 0.366056 0.666958 0.161867
Si Si5 0.625348 0.889057 0.079073
Si Si6 0.614355 0.144083 0.855927
O O1 0.194836 0.904017 0.390516
O O2 0.840287 0.871573 0.787019
O O3 0.000000 0.000000 0.500000
O O4 0.911897 0.975134 0.874631
O O5 0.594847 0.362645 0.741474
O O6 0.603938 0.513126 0.619486
O O7 0.485601 0.389082 0.651378
O O8 0.321948 0.456436 0.103757
O O9 0.783465 0.102564 0.182128
O O10 0.000000 0.000000 0.000000
O O11 0.331337 0.761942 0.203152
O O12 0.535987 0.649725 0.832411
O O13 0.501117 0.865625 0.122180
#
# Coordination Sequence:
#
# PCOD9251606 Si02
#       6
#     4   4   4   4   4   4
#     4  12  23  42  69 101 130 171 231 276 320 405
#     4  11  21  44  68  89 132 180 217 269 333 405
#     4  11  23  42  70  95 130 181 231 266 329 414
#     4  11  22  46  64  93 139 175 215 285 338 385
#     4  11  22  43  70  92 131 179 222 264 334 405
#     4  12  26  41  68 102 135 168 227 285 336 386
#
# _framework density 19.748631
#
# number of rings (size 3 to 8) (size 9 to 14) (size 15 to 20)
#    0.000    0.667    5.000    4.500    2.333    0.000 
#    6.000    0.000    0.000    0.000    0.000    0.000 
#    0.000    0.000    0.000    0.000    0.000    0.000 
#
# Total GULP energy -133932.146379 kJ/mol
# GULP energy per Si atom -5580.506099 kJ/mol
# Density = 1.970368 g / cm^3
# Si number density = 19.748631 Si / 1000 Ang^3
#
#
#
# Elastic Constant Matrix: (Units=GPa)
#
#
# Indices 1 2 3 4 5 6 
#
# 1 116.2868 19.4962 43.4223 0.0000 -9.2258 0.0000
# 2 19.4962 93.4477 39.1478 0.0000 6.1053 0.0000
# 3 43.4223 39.1478 98.1936 0.0000 2.8436 0.0000
# 4 0.0000 0.0000 0.0000 15.1282 0.0000 2.4921
# 5 -9.2258 6.1053 2.8436 0.0000 25.0325 0.0000
# 6 0.0000 0.0000 0.0000 2.4921 0.0000 25.8877
#
#
#
# Elastic Compliance Matrix: (Units=1/GPa)
#
#
# Indices 1 2 3 4 5 6 
#
# 1 0.010818 -0.000602 -0.004679 0.000000 0.004665 0.000000
# 2 -0.000602 0.013046 -0.004853 0.000000 -0.002852 0.000000
# 3 -0.004679 -0.004853 0.014250 0.000000 -0.002160 0.000000
# 4 0.000000 0.000000 0.000000 0.067167 0.000000 -0.006466
# 5 0.004665 -0.002852 -0.002160 0.000000 0.042608 0.000000
# 6 0.000000 0.000000 0.000000 -0.006466 0.000000 0.039251
#
#
# Mechanical properties :
#
#
# Convention : Reuss Voigt Hill
#
# Bulk Modulus (GPa) = 56.02979 56.89561 56.46270
# Shear Modulus (GPa) = 23.43512 26.93379 25.18446
#
# Velocity S-wave (km/s) = 3.44855 3.69701 3.57494
# Velocity P-wave (km/s) = 6.65505 6.86268 6.75966
#
# Compressibility (1/GPa) = 0.01784765
#
# Stress axis : x y z
#
# Youngs Moduli (GPa) = 92.44262 76.65255 70.17463
#
# Poissons Ratio (x) = 0.04611 0.32834
# Poissons Ratio (y) = 0.05561 0.34052
# Poissons Ratio (z) = 0.43253 0.37196
#
# Static dielectric constant tensor:
#      x y z
#    x 1.719970 0.000000 -0.034710 
#    y 0.000000 1.692820 0.000000 
#    z -0.034710 0.000000 2.274400 
# 
# From -- ./inp_files/16617.got.cif
#   From: 2010.05.17/outbox.cif.g08.bks.cpg/sg14_9_cif.got.tgz:16617.got - 2010.06.03 17:49:19.
