data_PCOD9251635
_publ_section_title
;
Structure prediction by ZEFSAII (Michael W. Deem and Ramdas Pophale) SiO2 
 PCOD9251635
Probable space group: P 21/C
;
_chemical_formula_sum "Si O2"
_cell_formula_units_Z 26
_cell_length_a 14.979651
_cell_length_b 12.795289
_cell_length_c 11.181066
_cell_angle_alpha 90.000000
_cell_angle_beta 150.680891
_cell_angle_gamma 90.000000
_cell_volume 1049.400836
_symmetry_space_group_name_H-M "P 21/C"
_symmetry_group_IT_number 14
_symmetry_cell_setting 'monoclinic'
loop_
_space_group_symop_operation_xyz
x,y,z
-x,1/2+y,1/2-z
-x,-y,-z
x,1/2-y,1/2+z
loop_
_atom_site_type_symbol
_atom_site_label
_atom_site_fract_x
_atom_site_fract_y
_atom_site_fract_z
Si Si1 0.373314 0.899971 0.336800
Si Si2 0.867384 0.041673 0.742739
Si Si3 0.500000 0.000000 0.000000
Si Si4 0.077996 0.343195 0.277123
Si Si5 0.768733 0.637385 0.956642
Si Si6 0.303980 0.682670 0.276648
Si Si7 0.164936 0.569631 0.345453
O O1 0.273113 0.889434 0.347637
O O2 0.429529 0.780129 0.387964
O O3 0.500000 0.000000 0.500000
O O4 0.253425 0.922996 0.079338
O O5 0.985027 0.106532 0.786042
O O6 0.772636 0.940553 0.574319
O O7 0.000000 0.000000 0.000000
O O8 0.359494 0.920542 0.767920
O O9 0.390089 0.102182 0.817133
O O10 0.222085 0.255866 0.484632
O O11 0.157439 0.446072 0.302909
O O12 0.907317 0.292014 0.007794
O O13 0.962474 0.615122 0.118156
O O14 0.278187 0.632963 0.379610
#
# Coordination Sequence:
#
# PCOD9251635 Si02
#       7
#     4   4   2   4   4   4   4
#     4  12  28  47  71 109 149 201 255 317 385 454
#     4  11  21  46  74 102 143 192 260 306 366 464
#     4  12  28  44  66 116 156 186 246 324 396 434
#     4  11  22  45  79 108 140 200 260 306 385 461
#     4  11  24  45  73 109 146 199 248 314 388 458
#     4  12  26  48  73 105 153 194 253 325 370 468
#     4  11  24  48  72 107 142 205 261 297 388 469
#
# _framework density 24.776042
#
# number of rings (size 3 to 8) (size 9 to 14) (size 15 to 20)
#    0.000    0.615    7.692    1.385    4.308    0.000 
#    2.769    0.000    0.000    0.000    0.000    0.000 
#    0.000    0.000    0.000    0.000    0.000    0.000 
#
# Total GULP energy -144893.490805 kJ/mol
# GULP energy per Si atom -5572.826569 kJ/mol
# Density = 2.471965 g / cm^3
# Si number density = 24.776042 Si / 1000 Ang^3
#
#
#
# Elastic Constant Matrix: (Units=GPa)
#
#
# Indices 1 2 3 4 5 6 
#
# 1 58.9919 20.7513 27.2390 0.0000 -15.1648 0.0000
# 2 20.7513 132.5513 27.6169 0.0000 -12.5327 0.0000
# 3 27.2390 27.6169 105.6229 0.0000 -9.9403 0.0000
# 4 0.0000 0.0000 0.0000 30.5529 0.0000 7.5194
# 5 -15.1648 -12.5327 -9.9403 0.0000 25.8657 0.0000
# 6 0.0000 0.0000 0.0000 7.5194 0.0000 31.3567
#
#
#
# Elastic Compliance Matrix: (Units=1/GPa)
#
#
# Indices 1 2 3 4 5 6 
#
# 1 0.022229 -0.001577 -0.004322 0.000000 0.010608 0.000000
# 2 -0.001577 0.008351 -0.001539 0.000000 0.002531 0.000000
# 3 -0.004322 -0.001539 0.011077 0.000000 0.000977 0.000000
# 4 0.000000 0.000000 0.000000 0.034783 0.000000 -0.008341
# 5 0.010608 0.002531 0.000977 0.000000 0.046482 0.000000
# 6 0.000000 0.000000 0.000000 -0.008341 0.000000 0.033891
#
#
# Mechanical properties :
#
#
# Convention : Reuss Voigt Hill
#
# Bulk Modulus (GPa) = 37.33929 49.82005 43.57967
# Shear Modulus (GPa) = 27.68333 32.32564 30.00448
#
# Velocity S-wave (km/s) = 3.34629 3.61600 3.48376
# Velocity P-wave (km/s) = 5.48030 6.13072 5.81461
#
# Compressibility (1/GPa) = 0.02678144
#
# Stress axis : x y z
#
# Youngs Moduli (GPa) = 44.98720 119.74719 90.28082
#
# Poissons Ratio (x) = 0.18878 0.39020
# Poissons Ratio (y) = 0.07092 0.13892
# Poissons Ratio (z) = 0.19444 0.18426
#
# Static dielectric constant tensor:
#      x y z
#    x 2.165640 0.000000 0.094720 
#    y 0.000000 2.188210 0.000000 
#    z 0.094720 0.000000 1.933180 
# 
# From -- ./inp_files/34006.got.cif
#   From: 2010.05.17/outbox.cif.g08.bks.cpg/sg14_18_cif.got.tgz:34006.got - 2010.06.03 17:49:19.
