data_PCOD9251562
_publ_section_title
;
Structure prediction by ZEFSAII (Michael W. Deem and Ramdas Pophale) SiO2 
 PCOD9251562
Probable space group: P 21/C
;
_chemical_formula_sum "Si O2"
_cell_formula_units_Z 24
_cell_length_a 11.320952
_cell_length_b 14.070048
_cell_length_c 10.507492
_cell_angle_alpha 90.000000
_cell_angle_beta 38.506169
_cell_angle_gamma 90.000000
_cell_volume 1042.043724
_symmetry_space_group_name_H-M "P 21/C"
_symmetry_group_IT_number 14
_symmetry_cell_setting 'monoclinic'
loop_
_space_group_symop_operation_xyz
x,y,z
-x,1/2+y,1/2-z
-x,-y,-z
x,1/2-y,1/2+z
loop_
_atom_site_type_symbol
_atom_site_label
_atom_site_fract_x
_atom_site_fract_y
_atom_site_fract_z
Si Si1 0.790793 0.543730 0.674245
Si Si2 0.571332 0.458034 0.619186
Si Si3 0.030275 0.242337 0.970040
Si Si4 0.766237 0.238375 0.943151
Si Si5 0.876604 0.558781 0.203618
Si Si6 0.746098 0.453418 0.974821
O O1 0.671833 0.495714 0.663588
O O2 0.827110 0.655529 0.629250
O O3 0.000000 0.500000 0.500000
O O4 0.710366 0.513648 0.878886
O O5 0.615867 0.347057 0.563715
O O6 0.684497 0.513467 0.414623
O O7 0.357383 0.491125 0.824040
O O8 0.142201 0.335927 0.833861
O O9 0.890304 0.222282 0.967403
O O10 0.903049 0.262374 0.203107
O O11 0.677546 0.344140 0.024306
O O12 0.000000 0.500000 0.000000
O O13 0.028427 0.558766 0.192828
#
# Coordination Sequence:
#
# PCOD9251562 Si02
#       6
#     4   4   4   4   4   4
#     4  12  20  42  70  97 125 178 220 263 327 403
#     4  12  24  43  69  96 136 171 220 276 331 394
#     4  11  22  39  73  94 132 176 224 264 335 398
#     4  11  21  42  64  97 133 178 211 279 336 382
#     4  11  23  43  65  94 132 174 213 270 334 388
#     4  11  25  41  66 100 132 168 225 271 327 398
#
# _framework density 23.031663999999999
#
# number of rings (size 3 to 8) (size 9 to 14) (size 15 to 20)
#    0.000    0.667    6.667    1.500    0.000    2.000 
#    3.000    0.000    0.000    0.000    0.000    0.000 
#    0.000    0.000    0.000    0.000    0.000    0.000 
#
# Total GULP energy -134316.746065 kJ/mol
# GULP energy per Si atom -5596.531086 kJ/mol
# Density = 2.297924 g / cm^3
# Si number density = 23.031664 Si / 1000 Ang^3
#
#
#
# Elastic Constant Matrix: (Units=GPa)
#
#
# Indices 1 2 3 4 5 6 
#
# 1 81.2192 7.1857 42.3501 0.0000 10.7336 0.0000
# 2 7.1857 163.4657 54.1815 0.0000 -3.6053 0.0000
# 3 42.3501 54.1815 147.3701 0.0000 16.2214 0.0000
# 4 0.0000 0.0000 0.0000 37.7275 0.0000 11.9519
# 5 10.7336 -3.6053 16.2214 0.0000 50.3370 0.0000
# 6 0.0000 0.0000 0.0000 11.9519 0.0000 15.1993
#
#
#
# Elastic Compliance Matrix: (Units=1/GPa)
#
#
# Indices 1 2 3 4 5 6 
#
# 1 0.014722 0.000747 -0.004319 0.000000 -0.001694 0.000000
# 2 0.000747 0.007097 -0.002968 0.000000 0.001305 0.000000
# 3 -0.004319 -0.002968 0.009372 0.000000 -0.002312 0.000000
# 4 0.000000 0.000000 0.000000 0.035299 0.000000 -0.027757
# 5 -0.001694 0.001305 -0.002312 0.000000 0.021066 0.000000
# 6 0.000000 0.000000 0.000000 -0.027757 0.000000 0.087619
#
#
# Mechanical properties :
#
#
# Convention : Reuss Voigt Hill
#
# Bulk Modulus (GPa) = 55.21066 66.60997 60.91031
# Shear Modulus (GPa) = 25.73438 39.87528 32.80483
#
# Velocity S-wave (km/s) = 3.34630 4.16543 3.77813
# Velocity P-wave (km/s) = 6.24131 7.21930 6.74805
#
# Compressibility (1/GPa) = 0.01811245
#
# Stress axis : x y z
#
# Youngs Moduli (GPa) = 67.92484 140.90296 106.69705
#
# Poissons Ratio (x) = -0.10526 0.46082
# Poissons Ratio (y) = -0.05074 0.31664
# Poissons Ratio (z) = 0.29336 0.41815
#
# Static dielectric constant tensor:
#      x y z
#    x 2.058090 0.000000 -0.015450 
#    y 0.000000 1.699050 0.000000 
#    z -0.015450 0.000000 1.854600 
# 
# From -- ./inp_files/32507.got.cif
#   From: 2010.05.17/outbox.cif.g08.bks.cpg/sg14_17_cif.got.tgz:32507.got - 2010.06.03 17:49:19.
