data_PCOD9251210
_publ_section_title
;
Structure prediction by ZEFSAII (Michael W. Deem and Ramdas Pophale) SiO2 
 PCOD9251210
Probable space group: P 21/C
;
_chemical_formula_sum "Si O2"
_cell_formula_units_Z 18
_cell_length_a 13.637344
_cell_length_b 7.536291
_cell_length_c 8.683993
_cell_angle_alpha 90.000000
_cell_angle_beta 44.130206
_cell_angle_gamma 90.000000
_cell_volume 621.438111
_symmetry_space_group_name_H-M "P 21/C"
_symmetry_group_IT_number 14
_symmetry_cell_setting 'monoclinic'
loop_
_space_group_symop_operation_xyz
x,y,z
-x,1/2+y,1/2-z
-x,-y,-z
x,1/2-y,1/2+z
loop_
_atom_site_type_symbol
_atom_site_label
_atom_site_fract_x
_atom_site_fract_y
_atom_site_fract_z
Si Si1 0.805053 0.307855 0.409234
Si Si2 0.589733 0.471144 0.054747
Si Si3 0.852045 0.585888 0.613383
Si Si4 0.838310 0.983374 0.581973
Si Si5 0.500000 0.500000 0.500000
O O1 0.787291 0.445313 0.567185
O O2 0.668277 0.525072 0.287644
O O3 0.668960 0.218846 0.480111
O O4 0.880704 0.426139 0.195734
O O5 0.871730 0.365734 0.917552
O O6 0.493777 0.473957 0.314076
O O7 0.500000 0.500000 0.000000
O O8 0.725854 0.600996 0.882511
O O9 0.875297 0.778909 0.518126
O O10 0.000000 0.500000 0.500000
#
# Coordination Sequence:
#
# PCOD9251210 Si02
#       5
#     4   4   4   4   2
#     4  11  26  53  83 132 181 248 319 395 492 587
#     4  11  26  55  87 133 190 246 331 406 490 585
#     4  12  30  54  89 134 192 260 321 407 498 606
#     4  11  27  50  84 132 184 240 317 403 484 593
#     4  10  26  46  88 134 182 250 308 402 492 578
#
# _framework density 28.965071999999999
#
# number of rings (size 3 to 8) (size 9 to 14) (size 15 to 20)
#    0.000    0.889    2.222    1.333    9.333    4.444 
#    0.000    0.000    0.000    4.000    0.000    0.000 
#    0.000    0.000    0.000    0.000    0.000    0.000 
#
# Total GULP energy -100323.143954 kJ/mol
# GULP energy per Si atom -5573.507997 kJ/mol
# Density = 2.889915 g / cm^3
# Si number density = 28.965072 Si / 1000 Ang^3
#
#
#
# Elastic Constant Matrix: (Units=GPa)
#
#
# Indices 1 2 3 4 5 6 
#
# 1 168.4871 83.1979 76.1749 0.0000 14.4415 0.0000
# 2 83.1979 265.9926 69.0797 0.0000 7.5709 0.0000
# 3 76.1749 69.0797 233.8858 0.0000 21.0821 0.0000
# 4 0.0000 0.0000 0.0000 64.9503 0.0000 11.0379
# 5 14.4415 7.5709 21.0821 0.0000 64.3134 0.0000
# 6 0.0000 0.0000 0.0000 11.0379 0.0000 44.2367
#
#
#
# Elastic Compliance Matrix: (Units=1/GPa)
#
#
# Indices 1 2 3 4 5 6 
#
# 1 0.007823 -0.001928 -0.001896 0.000000 -0.000908 0.000000
# 2 -0.001928 0.004548 -0.000727 0.000000 0.000136 0.000000
# 3 -0.001896 -0.000727 0.005216 0.000000 -0.001198 0.000000
# 4 0.000000 0.000000 0.000000 0.016078 0.000000 -0.004012
# 5 -0.000908 0.000136 -0.001198 0.000000 0.016130 0.000000
# 6 0.000000 0.000000 0.000000 -0.004012 0.000000 0.023607
#
#
# Mechanical properties :
#
#
# Convention : Reuss Voigt Hill
#
# Bulk Modulus (GPa) = 117.89612 125.03005 121.46309
# Shear Modulus (GPa) = 58.59433 64.02762 61.31098
#
# Velocity S-wave (km/s) = 4.50258 4.70671 4.60577
# Velocity P-wave (km/s) = 8.23542 8.53211 8.38508
#
# Compressibility (1/GPa) = 0.00848204
#
# Stress axis : x y z
#
# Youngs Moduli (GPa) = 127.83465 219.89043 191.71486
#
# Poissons Ratio (x) = 0.42405 0.36356
# Poissons Ratio (y) = 0.24652 0.13945
# Poissons Ratio (z) = 0.24242 0.15995
#
# Static dielectric constant tensor:
#      x y z
#    x 2.423170 0.000000 -0.054420 
#    y 0.000000 2.283830 0.000000 
#    z -0.054420 0.000000 2.075600 
# 
# From -- ./inp_files/7715.got.cif
#   From: 2010.05.17/outbox.cif.g08.bks.cpg/sg14_4_cif.got.tgz:7715.got - 2010.06.03 17:49:19.
