data_PCOD9251422
_publ_section_title
;
Structure prediction by ZEFSAII (Michael W. Deem and Ramdas Pophale) SiO2 
 PCOD9251422
Probable space group: P 21/C
;
_chemical_formula_sum "Si O2"
_cell_formula_units_Z 32
_cell_length_a 11.660062
_cell_length_b 9.278016
_cell_length_c 27.316334
_cell_angle_alpha 90.000000
_cell_angle_beta 148.632074
_cell_angle_gamma 90.000000
_cell_volume 1538.245323
_symmetry_space_group_name_H-M "P 21/C"
_symmetry_group_IT_number 14
_symmetry_cell_setting 'monoclinic'
loop_
_space_group_symop_operation_xyz
x,y,z
-x,1/2+y,1/2-z
-x,-y,-z
x,1/2-y,1/2+z
loop_
_atom_site_type_symbol
_atom_site_label
_atom_site_fract_x
_atom_site_fract_y
_atom_site_fract_z
Si Si1 0.017092 0.823742 0.804853
Si Si2 0.246080 0.476845 0.309424
Si Si3 0.672731 0.304048 0.487723
Si Si4 0.450240 0.253832 0.247420
Si Si5 0.959294 0.850714 0.959931
Si Si6 0.448116 0.083446 0.346323
Si Si7 0.754783 0.059090 0.302686
Si Si8 0.865468 0.909169 0.491368
O O1 0.139294 0.903855 0.805340
O O2 0.904688 0.669011 0.750666
O O3 0.813233 0.928199 0.745725
O O4 0.183393 0.805363 0.910900
O O5 0.485900 0.427189 0.416438
O O6 0.269401 0.541426 0.263634
O O7 0.536422 0.158175 0.428016
O O8 0.839126 0.313309 0.502332
O O9 0.250291 0.163905 0.151412
O O10 0.486079 0.194744 0.315127
O O11 0.655151 0.205171 0.289157
O O12 0.374516 0.420041 0.221631
O O13 0.907815 0.748249 0.986909
O O14 0.000000 0.000000 0.000000
O O15 0.609662 0.949924 0.397157
O O16 0.008433 0.054335 0.412583
O O17 0.000000 0.000000 0.500000
#
# Coordination Sequence:
#
# PCOD9251422 Si02
#       8
#     4   4   4   4   4   4   4   4
#     4  11  24  46  70  94 132 184 233 279 335 396
#     4  11  25  47  68  98 135 180 231 287 334 397
#     4  11  20  43  73  93 130 183 223 277 347 394
#     4  12  21  39  67  99 138 174 212 274 346 406
#     4  12  24  38  62 104 141 173 220 278 341 414
#     4  11  21  40  72  96 131 181 222 272 342 406
#     4  12  24  43  69  99 139 180 219 280 344 409
#     4  12  22  41  65  98 137 179 223 265 345 424
#
# _framework density 20.802923
#
# number of rings (size 3 to 8) (size 9 to 14) (size 15 to 20)
#    0.000    0.500    7.500    1.875    1.750    0.000 
#    9.000    5.625    0.000    0.000    0.000    0.000 
#    0.000    0.000    0.000    0.000    0.000    0.000 
#
# Total GULP energy -178793.632404 kJ/mol
# GULP energy per Si atom -5587.301013 kJ/mol
# Density = 2.075557 g / cm^3
# Si number density = 20.802923 Si / 1000 Ang^3
#
#
#
# Elastic Constant Matrix: (Units=GPa)
#
#
# Indices 1 2 3 4 5 6 
#
# 1 80.9027 19.3283 43.0618 0.0000 -11.4611 0.0000
# 2 19.3283 64.8341 29.6212 0.0000 -18.4941 0.0000
# 3 43.0618 29.6212 164.2785 0.0000 -18.4121 0.0000
# 4 0.0000 0.0000 0.0000 14.1098 0.0000 7.2153
# 5 -11.4611 -18.4941 -18.4121 0.0000 22.8616 0.0000
# 6 0.0000 0.0000 0.0000 7.2153 0.0000 24.3210
#
#
#
# Elastic Compliance Matrix: (Units=1/GPa)
#
#
# Indices 1 2 3 4 5 6 
#
# 1 0.015023 -0.002086 -0.003195 0.000000 0.003271 0.000000
# 2 -0.002086 0.020941 -0.001591 0.000000 0.014613 0.000000
# 3 -0.003195 -0.001591 0.007571 0.000000 0.003209 0.000000
# 4 0.000000 0.000000 0.000000 0.083548 0.000000 -0.024786
# 5 0.003271 0.014613 0.003209 0.000000 0.059787 0.000000
# 6 0.000000 0.000000 0.000000 -0.024786 0.000000 0.048470
#
#
# Mechanical properties :
#
#
# Convention : Reuss Voigt Hill
#
# Bulk Modulus (GPa) = 33.56748 54.89310 44.23029
# Shear Modulus (GPa) = 19.30388 26.79206 23.04797
#
# Velocity S-wave (km/s) = 3.04952 3.59262 3.33215
# Velocity P-wave (km/s) = 5.34513 6.60710 6.00933
#
# Compressibility (1/GPa) = 0.02979074
#
# Stress axis : x y z
#
# Youngs Moduli (GPa) = 66.56501 47.75240 132.07716
#
# Poissons Ratio (x) = 0.09960 0.42202
# Poissons Ratio (y) = 0.13884 0.21018
# Poissons Ratio (z) = 0.21269 0.07599
#
# Static dielectric constant tensor:
#      x y z
#    x 1.685260 0.000000 0.055840 
#    y 0.000000 1.758900 0.000000 
#    z 0.055840 0.000000 1.769810 
# 
# From -- ./inp_files/80045.got.cif
#   From: 2010.05.17/outbox.cif.g08.bks.cpg/sg14_41_cif.got.tgz:80045.got - 2010.06.03 17:49:19.
