data_PCOD9251705
_publ_section_title
;
Structure prediction by ZEFSAII (Michael W. Deem and Ramdas Pophale) SiO2 
 PCOD9251705
Probable space group: P 21/C
;
_chemical_formula_sum "Si O2"
_cell_formula_units_Z 32
_cell_length_a 10.410885
_cell_length_b 19.860890
_cell_length_c 8.116543
_cell_angle_alpha 90.000000
_cell_angle_beta 48.186961
_cell_angle_gamma 90.000000
_cell_volume 1250.842783
_symmetry_space_group_name_H-M "P 21/C"
_symmetry_group_IT_number 14
_symmetry_cell_setting 'monoclinic'
loop_
_space_group_symop_operation_xyz
x,y,z
-x,1/2+y,1/2-z
-x,-y,-z
x,1/2-y,1/2+z
loop_
_atom_site_type_symbol
_atom_site_label
_atom_site_fract_x
_atom_site_fract_y
_atom_site_fract_z
Si Si1 0.309801 0.654074 0.354642
Si Si2 0.858787 0.532133 0.825578
Si Si3 0.186397 0.900916 0.475525
Si Si4 0.091674 0.343151 0.392611
Si Si5 0.218124 0.399101 0.771375
Si Si6 0.605977 0.281263 0.052085
Si Si7 0.734183 0.029208 0.930332
Si Si8 0.254986 0.275083 0.552422
O O1 0.325113 0.705281 0.495259
O O2 0.360823 0.578610 0.362259
O O3 0.109539 0.655062 0.475974
O O4 0.408262 0.687287 0.117071
O O5 0.837642 0.580566 0.687178
O O6 0.064133 0.528712 0.687764
O O7 0.795276 0.455594 0.891666
O O8 0.775924 0.571585 0.050906
O O9 0.266523 0.830683 0.458248
O O10 0.271856 0.933403 0.240923
O O11 0.985501 0.897639 0.598540
O O12 0.118210 0.310235 0.547017
O O13 0.184052 0.294946 0.180301
O O14 0.310866 0.452201 0.570001
O O15 0.282045 0.324395 0.685351
O O16 0.425563 0.279478 0.298952
#
# Coordination Sequence:
#
# PCOD9251705 Si02
#       8
#     4   4   4   4   4   4   4   4
#     4  11  22  39  61  84 110 151 198 239 282 339
#     4   8  17  34  61  89 111 140 191 245 282 324
#     4   9  17  36  62  87 113 147 189 236 284 338
#     4  11  22  39  61  84 110 151 198 239 282 339
#     4   9  17  36  62  87 113 147 189 236 284 338
#     4  12  25  39  55  84 120 152 186 236 292 343
#     4   8  17  34  61  89 111 140 191 245 282 324
#     4  12  25  39  55  84 120 152 186 236 292 343
#
# _framework density 25.582749
#
# number of rings (size 3 to 8) (size 9 to 14) (size 15 to 20)
#    0.000    2.000    0.000    6.000    0.000    3.000 
#    0.000   11.250    0.000    0.000    0.000    0.000 
#    0.000    0.000    0.000    0.000    0.000    0.000 
#
# Total GULP energy -179224.855801 kJ/mol
# GULP energy per Si atom -5600.776744 kJ/mol
# Density = 2.552452 g / cm^3
# Si number density = 25.582749 Si / 1000 Ang^3
#
#
#
# Elastic Constant Matrix: (Units=GPa)
#
#
# Indices 1 2 3 4 5 6 
#
# 1 54.0438 18.9444 21.3359 0.0000 -6.2421 0.0000
# 2 18.9444 88.4393 19.8304 0.0000 -7.1752 0.0000
# 3 21.3359 19.8304 107.2412 0.0000 -0.9819 0.0000
# 4 0.0000 0.0000 0.0000 31.8451 0.0000 30.1763
# 5 -6.2421 -7.1752 -0.9819 0.0000 31.8527 0.0000
# 6 0.0000 0.0000 0.0000 30.1763 0.0000 -71.9300
#
#
#
# Elastic Compliance Matrix: (Units=1/GPa)
#
#
# Indices 1 2 3 4 5 6 
#
# 1 0.021549 -0.003539 -0.003602 0.000000 0.003315 0.000000
# 2 -0.003539 0.012595 -0.001606 0.000000 0.002094 0.000000
# 3 -0.003602 -0.001606 0.010332 0.000000 -0.000749 0.000000
# 4 0.000000 0.000000 0.000000 0.022469 0.000000 0.009426
# 5 0.003315 0.002094 -0.000749 0.000000 0.032493 0.000000
# 6 0.000000 0.000000 0.000000 0.009426 0.000000 -0.009948
#
#
# Mechanical properties :
#
#
# Convention : Reuss Voigt Hill
#
# Bulk Modulus (GPa) = 37.06300 41.10507 39.08404
# Shear Modulus (GPa) = 43.11120 10.99448 27.05284
#
# Velocity S-wave (km/s) = 4.10953 2.07532 3.25540
# Velocity P-wave (km/s) = 6.08577 4.67386 5.42594
#
# Compressibility (1/GPa) = 0.02698108
#
# Stress axis : x y z
#
# Youngs Moduli (GPa) = 46.40537 79.39477 96.79086
#
# Poissons Ratio (x) = 0.28100 0.34868
# Poissons Ratio (y) = 0.16424 0.15542
# Poissons Ratio (z) = 0.16717 0.12749
#
# Static dielectric constant tensor:
#      x y z
#    x 2.048670 0.000000 0.041010 
#    y 0.000000 2.002950 0.000000 
#    z 0.041010 0.000000 2.024320 
# 
# From -- ./inp_files/14301.got.cif
#   From: 2010.05.17/outbox.cif.g08.bks.cpg/sg14_8_cif.got.tgz:14301.got - 2010.06.03 17:49:19.
