data_PCOD9251763
_publ_section_title
;
Structure prediction by ZEFSAII (Michael W. Deem and Ramdas Pophale) SiO2 
 PCOD9251763
Probable space group: P 21/C
;
_chemical_formula_sum "Si O2"
_cell_formula_units_Z 32
_cell_length_a 10.861355
_cell_length_b 8.961517
_cell_length_c 15.456046
_cell_angle_alpha 90.000000
_cell_angle_beta 86.444454
_cell_angle_gamma 90.000000
_cell_volume 1501.506387
_symmetry_space_group_name_H-M "P 21/C"
_symmetry_group_IT_number 14
_symmetry_cell_setting 'monoclinic'
loop_
_space_group_symop_operation_xyz
x,y,z
-x,1/2+y,1/2-z
-x,-y,-z
x,1/2-y,1/2+z
loop_
_atom_site_type_symbol
_atom_site_label
_atom_site_fract_x
_atom_site_fract_y
_atom_site_fract_z
Si Si1 0.375990 0.078707 0.077883
Si Si2 0.459120 0.317558 0.398542
Si Si3 0.610375 0.036471 0.427597
Si Si4 0.679479 0.806529 0.276025
Si Si5 0.893703 0.413359 0.949656
Si Si6 0.843214 0.426841 0.491349
Si Si7 0.046632 0.407212 0.215916
Si Si8 0.987796 0.101510 0.132879
O O1 0.322983 0.159041 0.164194
O O2 0.496813 0.989736 0.102003
O O3 0.289543 0.951689 0.041574
O O4 0.393954 0.191744 0.996244
O O5 0.570550 0.199208 0.394413
O O6 0.382227 0.290296 0.314837
O O7 0.748488 0.037565 0.464531
O O8 0.500000 0.000000 0.500000
O O9 0.616389 0.927361 0.343792
O O10 0.820827 0.851767 0.258262
O O11 0.894777 0.236384 0.965054
O O12 0.928677 0.458125 0.851051
O O13 0.000000 0.500000 0.000000
O O14 0.856772 0.433016 0.594065
O O15 0.916822 0.568228 0.448303
O O16 0.975704 0.479765 0.297977
O O17 0.988304 0.266773 0.169928
#
# Coordination Sequence:
#
# PCOD9251763 Si02
#       8
#     4   4   4   4   4   4   4   4
#     4  11  22  41  69  94 133 176 225 285 341 409
#     4  11  23  41  66  97 131 179 227 277 340 412
#     4  11  23  43  66  96 134 175 223 281 337 412
#     4  11  23  42  65  95 136 173 225 277 351 400
#     4  11  23  44  69  93 133 173 227 279 342 405
#     4  11  22  42  67  94 127 177 221 282 339 413
#     4  11  23  42  61  94 131 174 220 289 330 415
#     4  11  23  39  65  92 129 168 225 265 349 394
#
# _framework density 21.311931000000001
#
# number of rings (size 3 to 8) (size 9 to 14) (size 15 to 20)
#    0.000    1.000    5.000    2.250    0.000    0.000 
#    4.500    1.250    0.000    0.000    0.000    0.000 
#    0.000    0.000    0.000    0.000    0.000    0.000 
#
# Total GULP energy -178418.413995 kJ/mol
# GULP energy per Si atom -5575.575437 kJ/mol
# Density = 2.126342 g / cm^3
# Si number density = 21.311931 Si / 1000 Ang^3
#
#
#
# Elastic Constant Matrix: (Units=GPa)
#
#
# Indices 1 2 3 4 5 6 
#
# 1 70.9489 10.2577 38.8914 0.0000 23.3360 0.0000
# 2 10.2577 94.0741 36.9514 0.0000 10.3485 0.0000
# 3 38.8914 36.9514 95.9368 0.0000 22.9678 0.0000
# 4 0.0000 0.0000 0.0000 26.7173 0.0000 5.8290
# 5 23.3360 10.3485 22.9678 0.0000 33.6267 0.0000
# 6 0.0000 0.0000 0.0000 5.8290 0.0000 36.5027
#
#
#
# Elastic Compliance Matrix: (Units=1/GPa)
#
#
# Indices 1 2 3 4 5 6 
#
# 1 0.020914 0.001435 -0.006516 0.000000 -0.010505 0.000000
# 2 0.001435 0.012636 -0.005116 0.000000 -0.001390 0.000000
# 3 -0.006516 -0.005116 0.016230 0.000000 -0.004989 0.000000
# 4 0.000000 0.000000 0.000000 0.038780 0.000000 -0.006193
# 5 -0.010505 -0.001390 -0.004989 0.000000 0.040864 0.000000
# 6 0.000000 0.000000 0.000000 -0.006193 0.000000 0.028384
#
#
# Mechanical properties :
#
#
# Convention : Reuss Voigt Hill
#
# Bulk Modulus (GPa) = 34.03016 48.12898 41.07957
# Shear Modulus (GPa) = 26.59621 31.02664 28.81142
#
# Velocity S-wave (km/s) = 3.53647 3.81968 3.68080
# Velocity P-wave (km/s) = 5.71645 6.48733 6.11405
#
# Compressibility (1/GPa) = 0.02938570
#
# Stress axis : x y z
#
# Youngs Moduli (GPa) = 47.81451 79.14039 61.61527
#
# Poissons Ratio (x) = -0.11353 0.40148
# Poissons Ratio (y) = -0.06859 0.31520
# Poissons Ratio (z) = 0.31156 0.40485
#
# Static dielectric constant tensor:
#      x y z
#    x 1.859390 0.000000 0.024590 
#    y 0.000000 1.807730 0.000000 
#    z 0.024590 0.000000 1.804210 
# 
# From -- ./inp_files/43434.got.cif
#   From: 2010.05.17/outbox.cif.g08.bks.cpg/sg14_22_cif.got.tgz:43434.got - 2010.06.03 17:49:19.
