data_PCOD9251379
_publ_section_title
;
Structure prediction by ZEFSAII (Michael W. Deem and Ramdas Pophale) SiO2 
 PCOD9251379
Probable space group: P 21/C
;
_chemical_formula_sum "Si O2"
_cell_formula_units_Z 28
_cell_length_a 18.061240
_cell_length_b 5.341324
_cell_length_c 21.857857
_cell_angle_alpha 90.000000
_cell_angle_beta 34.785599
_cell_angle_gamma 90.000000
_cell_volume 1202.998718
_symmetry_space_group_name_H-M "P 21/C"
_symmetry_group_IT_number 14
_symmetry_cell_setting 'monoclinic'
loop_
_space_group_symop_operation_xyz
x,y,z
-x,1/2+y,1/2-z
-x,-y,-z
x,1/2-y,1/2+z
loop_
_atom_site_type_symbol
_atom_site_label
_atom_site_fract_x
_atom_site_fract_y
_atom_site_fract_z
Si Si1 0.696527 0.931692 0.141754
Si Si2 0.546841 0.273731 0.643051
Si Si3 0.762760 0.600811 0.001176
Si Si4 0.600419 0.862995 0.012135
Si Si5 0.754629 0.709197 0.289237
Si Si6 0.997148 0.190076 0.292384
Si Si7 0.306377 0.783389 0.740391
O O1 0.605112 0.760555 0.246375
O O2 0.801220 0.778002 0.031781
O O3 0.600731 0.018684 0.152473
O O4 0.730935 0.156160 0.163846
O O5 0.585271 0.355682 0.548599
O O6 0.627547 0.033651 0.608290
O O7 0.722117 0.747719 0.967280
O O8 0.866383 0.388652 0.916486
O O9 0.463285 0.739546 0.124957
O O10 0.636275 0.835423 0.917480
O O11 0.752850 0.471924 0.245353
O O12 0.885686 0.706097 0.239668
O O13 0.739236 0.976893 0.267664
O O14 0.017819 0.952671 0.232808
#
# Coordination Sequence:
#
# PCOD9251379 Si02
#       7
#     4   4   4   4   4   4   4
#     4  11  22  39  63 104 138 182 222 285 345 412
#     4  11  20  38  69 101 140 171 235 290 344 394
#     4  11  24  40  74 101 132 181 236 296 338 393
#     4  11  23  41  66 107 134 180 231 293 350 399
#     4  12  27  45  68 101 140 188 229 276 352 418
#     4  12  26  50  74  99 137 176 240 296 334 403
#     4  12  26  43  68  98 152 184 219 279 352 432
#
# _framework density 23.275169000000002
#
# number of rings (size 3 to 8) (size 9 to 14) (size 15 to 20)
#    0.000    0.571    4.286    4.286    6.000    0.000 
#    0.000    1.429    0.000    0.000    0.000    0.000 
#    0.000    0.000    0.000    0.000    0.000    0.000 
#
# Total GULP energy -156617.946800 kJ/mol
# GULP energy per Si atom -5593.498100 kJ/mol
# Density = 2.322219 g / cm^3
# Si number density = 23.275169 Si / 1000 Ang^3
#
#
#
# Elastic Constant Matrix: (Units=GPa)
#
#
# Indices 1 2 3 4 5 6 
#
# 1 126.2589 52.6721 21.0390 0.0000 -4.6745 0.0000
# 2 52.6721 126.6807 11.1517 0.0000 4.5879 0.0000
# 3 21.0390 11.1517 36.7555 0.0000 7.3584 0.0000
# 4 0.0000 0.0000 0.0000 38.6822 0.0000 5.1512
# 5 -4.6745 4.5879 7.3584 0.0000 33.3152 0.0000
# 6 0.0000 0.0000 0.0000 5.1512 0.0000 42.1745
#
#
#
# Elastic Compliance Matrix: (Units=1/GPa)
#
#
# Indices 1 2 3 4 5 6 
#
# 1 0.010657 -0.004063 -0.005523 0.000000 0.003275 0.000000
# 2 -0.004063 0.009671 -0.000238 0.000000 -0.001849 0.000000
# 3 -0.005523 -0.000238 0.032004 0.000000 -0.007811 0.000000
# 4 0.000000 0.000000 0.000000 0.026279 0.000000 -0.003210
# 5 0.003275 -0.001849 -0.007811 0.000000 0.032456 0.000000
# 6 0.000000 0.000000 0.000000 -0.003210 0.000000 0.024103
#
#
# Mechanical properties :
#
#
# Convention : Reuss Voigt Hill
#
# Bulk Modulus (GPa) = 30.59637 51.04672 40.82155
# Shear Modulus (GPa) = 30.17256 36.48987 33.33122
#
# Velocity S-wave (km/s) = 3.60438 3.96379 3.78835
# Velocity P-wave (km/s) = 5.52233 6.55197 6.05906
#
# Compressibility (1/GPa) = 0.03268361
#
# Stress axis : x y z
#
# Youngs Moduli (GPa) = 93.83571 103.39850 31.24600
#
# Poissons Ratio (x) = 0.42015 0.17257
# Poissons Ratio (y) = 0.38129 0.00744
# Poissons Ratio (z) = 0.51824 0.02462
#
# Static dielectric constant tensor:
#      x y z
#    x 1.866570 0.000000 0.031900 
#    y 0.000000 1.917050 0.000000 
#    z 0.031900 0.000000 1.903430 
# 
# From -- ./inp_files/68944.got.cif
#   From: 2010.05.17/outbox.cif.g08.bks.cpg/sg14_35_cif.got.tgz:68944.got - 2010.06.03 17:49:19.
