data_PCOD9251552
_publ_section_title
;
Structure prediction by ZEFSAII (Michael W. Deem and Ramdas Pophale) SiO2 
 PCOD9251552
Probable space group: P 21/C
;
_chemical_formula_sum "Si O2"
_cell_formula_units_Z 24
_cell_length_a 7.817151
_cell_length_b 12.818125
_cell_length_c 13.531228
_cell_angle_alpha 90.000000
_cell_angle_beta 46.123073
_cell_angle_gamma 90.000000
_cell_volume 977.334525
_symmetry_space_group_name_H-M "P 21/C"
_symmetry_group_IT_number 14
_symmetry_cell_setting 'monoclinic'
loop_
_space_group_symop_operation_xyz
x,y,z
-x,1/2+y,1/2-z
-x,-y,-z
x,1/2-y,1/2+z
loop_
_atom_site_type_symbol
_atom_site_label
_atom_site_fract_x
_atom_site_fract_y
_atom_site_fract_z
Si Si1 0.468857 0.631640 0.127572
Si Si2 0.025715 0.877732 0.184846
Si Si3 0.449468 0.364942 0.427797
Si Si4 0.197098 0.966275 0.573243
Si Si5 0.766683 0.657881 0.278998
Si Si6 0.295565 0.928446 0.888757
O O1 0.578101 0.745982 0.096611
O O2 0.361726 0.620492 0.060042
O O3 0.264908 0.606541 0.288767
O O4 0.658556 0.537677 0.059748
O O5 0.279779 0.871079 0.139842
O O6 0.885348 0.769770 0.239162
O O7 0.081917 0.910639 0.049944
O O8 0.869588 0.955679 0.311277
O O9 0.280605 0.383131 0.590461
O O10 0.395443 0.455689 0.371338
O O11 0.952142 0.912389 0.643812
O O12 0.508547 0.649748 0.335555
#
# Coordination Sequence:
#
# PCOD9251552 Si02
#       6
#     4   4   4   4   4   4
#     4  11  26  40  64  98 135 161 209 272 315 369
#     4  11  21  41  69  91 122 173 215 249 319 388
#     4  11  21  42  66  91 130 170 209 264 321 374
#     4  11  22  43  64  90 126 177 206 247 322 386
#     4  11  21  41  69  91 122 173 215 249 319 388
#     4  11  25  42  64 100 128 158 216 278 304 367
#
# _framework density 24.556584999999998
#
# number of rings (size 3 to 8) (size 9 to 14) (size 15 to 20)
#    0.000    1.000    6.667    1.000    0.000    4.000 
#    6.000    0.000    0.000    0.000    0.000    0.000 
#    0.000    0.000    0.000    0.000    0.000    0.000 
#
# Total GULP energy -134313.535015 kJ/mol
# GULP energy per Si atom -5596.397292 kJ/mol
# Density = 2.450069 g / cm^3
# Si number density = 24.556585 Si / 1000 Ang^3
#
#
#
# Elastic Constant Matrix: (Units=GPa)
#
#
# Indices 1 2 3 4 5 6 
#
# 1 65.2178 9.9169 5.9993 0.0000 -7.3919 0.0000
# 2 9.9169 104.7866 -2.2947 0.0000 -6.3893 0.0000
# 3 5.9993 -2.2947 72.6586 0.0000 -9.2423 0.0000
# 4 0.0000 0.0000 0.0000 46.1757 0.0000 -12.6485
# 5 -7.3919 -6.3893 -9.2423 0.0000 33.5281 0.0000
# 6 0.0000 0.0000 0.0000 -12.6485 0.0000 14.6944
#
#
#
# Elastic Compliance Matrix: (Units=1/GPa)
#
#
# Indices 1 2 3 4 5 6 
#
# 1 0.015968 -0.001350 -0.000980 0.000000 0.002993 0.000000
# 2 -0.001350 0.009791 0.000643 0.000000 0.001745 0.000000
# 3 -0.000980 0.000643 0.014356 0.000000 0.003864 0.000000
# 4 0.000000 0.000000 0.000000 0.028338 0.000000 0.024393
# 5 0.002993 0.001745 0.003864 0.000000 0.031883 0.000000
# 6 0.000000 0.000000 0.000000 0.024393 0.000000 0.089050
#
#
# Mechanical properties :
#
#
# Convention : Reuss Voigt Hill
#
# Bulk Modulus (GPa) = 27.21866 29.98957 28.60411
# Shear Modulus (GPa) = 24.38922 34.14906 29.26914
#
# Velocity S-wave (km/s) = 3.15490 3.73316 3.45614
# Velocity P-wave (km/s) = 4.93754 5.55166 5.25358
#
# Compressibility (1/GPa) = 0.03673950
#
# Stress axis : x y z
#
# Youngs Moduli (GPa) = 62.62545 102.12958 69.65876
#
# Poissons Ratio (x) = 0.13789 0.06829
# Poissons Ratio (y) = 0.08456 -0.04477
# Poissons Ratio (z) = 0.06140 -0.06564
#
# Static dielectric constant tensor:
#      x y z
#    x 2.001780 0.000000 0.016910 
#    y 0.000000 1.952500 0.000000 
#    z 0.016910 0.000000 1.934000 
# 
# From -- ./inp_files/41074.got.cif
#   From: 2010.05.17/outbox.cif.g08.bks.cpg/sg14_21_cif.got.tgz:41074.got - 2010.06.03 17:49:19.
