data_PCOD9251352
_publ_section_title
;
Structure prediction by ZEFSAII (Michael W. Deem and Ramdas Pophale) SiO2 
 PCOD9251352
Probable space group: P 21/C
;
_chemical_formula_sum "Si O2"
_cell_formula_units_Z 32
_cell_length_a 9.161727
_cell_length_b 18.851389
_cell_length_c 7.940259
_cell_angle_alpha 90.000000
_cell_angle_beta 60.542613
_cell_angle_gamma 90.000000
_cell_volume 1194.083598
_symmetry_space_group_name_H-M "P 21/C"
_symmetry_group_IT_number 14
_symmetry_cell_setting 'monoclinic'
loop_
_space_group_symop_operation_xyz
x,y,z
-x,1/2+y,1/2-z
-x,-y,-z
x,1/2-y,1/2+z
loop_
_atom_site_type_symbol
_atom_site_label
_atom_site_fract_x
_atom_site_fract_y
_atom_site_fract_z
Si Si1 0.481842 0.620156 0.248101
Si Si2 0.190162 0.678910 0.858376
Si Si3 0.345375 0.446884 0.559040
Si Si4 0.982390 0.428210 0.846048
Si Si5 0.801927 0.003574 0.171053
Si Si6 0.731088 0.814955 0.393140
Si Si7 0.401717 0.746112 0.454757
Si Si8 0.061445 0.196775 0.030774
O O1 0.578936 0.616598 0.373480
O O2 0.324080 0.568868 0.310819
O O3 0.635587 0.618368 0.029933
O O4 0.416897 0.700266 0.273389
O O5 0.074860 0.610459 0.950000
O O6 0.086929 0.751038 0.933317
O O7 0.306900 0.681911 0.956830
O O8 0.297486 0.691531 0.630758
O O9 0.500000 0.500000 0.500000
O O10 0.165797 0.464373 0.746058
O O11 0.298212 0.444921 0.387495
O O12 0.016831 0.361839 0.695564
O O13 0.841153 0.478754 0.844478
O O14 0.000000 0.000000 0.000000
O O15 0.587009 0.771346 0.383703
O O16 0.811114 0.755777 0.469002
O O17 0.873801 0.836142 0.180116
#
# Coordination Sequence:
#
# PCOD9251352 Si02
#       8
#     4   4   4   4   4   4   4   4
#     4  11  20  36  62  82 120 156 190 237 298 336
#     4  12  22  36  56  88 127 160 189 228 283 360
#     4   9  20  38  62  84 104 152 208 247 290 338
#     4  11  20  36  62  82 120 156 190 237 298 336
#     4   9  20  38  62  84 104 152 208 247 290 338
#     4  12  22  36  56  88 127 160 189 228 283 360
#     4  12  22  36  56  88 127 160 189 228 283 360
#     4  12  22  36  56  88 127 160 189 228 283 360
#
# _framework density 26.798794000000001
#
# number of rings (size 3 to 8) (size 9 to 14) (size 15 to 20)
#    0.000    1.000    5.000    3.000    0.000    0.000 
#    0.000    0.000    0.000   30.000    0.000    0.000 
#    0.000    0.000    0.000    0.000    0.000    0.000 
#
# Total GULP energy -178413.425309 kJ/mol
# GULP energy per Si atom -5575.419541 kJ/mol
# Density = 2.673780 g / cm^3
# Si number density = 26.798794 Si / 1000 Ang^3
#
#
#
# Elastic Constant Matrix: (Units=GPa)
#
#
# Indices 1 2 3 4 5 6 
#
# 1 157.8499 20.1747 6.5505 0.0000 -27.1186 0.0000
# 2 20.1747 66.5036 23.0381 0.0000 -5.3055 0.0000
# 3 6.5505 23.0381 117.0923 0.0000 -5.8290 0.0000
# 4 0.0000 0.0000 0.0000 38.5746 0.0000 -13.1382
# 5 -27.1186 -5.3055 -5.8290 0.0000 26.7420 0.0000
# 6 0.0000 0.0000 0.0000 -13.1382 0.0000 35.0924
#
#
#
# Elastic Compliance Matrix: (Units=1/GPa)
#
#
# Indices 1 2 3 4 5 6 
#
# 1 0.007884 -0.001887 0.000313 0.000000 0.007689 0.000000
# 2 -0.001887 0.016760 -0.003156 0.000000 0.000724 0.000000
# 3 0.000313 -0.003156 0.009228 0.000000 0.001703 0.000000
# 4 0.000000 0.000000 0.000000 0.029713 0.000000 0.011124
# 5 0.007689 0.000724 0.001703 0.000000 0.045707 0.000000
# 6 0.000000 0.000000 0.000000 0.011124 0.000000 0.032661
#
#
# Mechanical properties :
#
#
# Convention : Reuss Voigt Hill
#
# Bulk Modulus (GPa) = 40.96135 48.99695 44.97915
# Shear Modulus (GPa) = 31.33802 39.52728 35.43265
#
# Velocity S-wave (km/s) = 3.42333 3.84469 3.64011
# Velocity P-wave (km/s) = 5.56269 6.16700 5.87262
#
# Compressibility (1/GPa) = 0.02441326
#
# Stress axis : x y z
#
# Youngs Moduli (GPa) = 126.83432 59.66507 108.36023
#
# Poissons Ratio (x) = 0.11258 -0.03391
# Poissons Ratio (y) = 0.23931 0.34199
# Poissons Ratio (z) = -0.03969 0.18830
#
# Static dielectric constant tensor:
#      x y z
#    x 2.175450 0.000000 0.075520 
#    y 0.000000 -0.420920 0.000000 
#    z 0.075520 0.000000 2.195150 
# 
# From -- ./inp_files/11038.got.cif
#   From: 2010.05.17/outbox.cif.g08.bks.cpg/sg14_6_cif.got.tgz:11038.got - 2010.06.03 17:49:19.
