data_PCOD9251644
_publ_section_title
;
Structure prediction by ZEFSAII (Michael W. Deem and Ramdas Pophale) SiO2 
 PCOD9251644
Probable space group: P 21/C
;
_chemical_formula_sum "Si O2"
_cell_formula_units_Z 32
_cell_length_a 9.291520
_cell_length_b 12.985527
_cell_length_c 22.452365
_cell_angle_alpha 90.000000
_cell_angle_beta 34.130071
_cell_angle_gamma 90.000000
_cell_volume 1519.946172
_symmetry_space_group_name_H-M "P 21/C"
_symmetry_group_IT_number 14
_symmetry_cell_setting 'monoclinic'
loop_
_space_group_symop_operation_xyz
x,y,z
-x,1/2+y,1/2-z
-x,-y,-z
x,1/2-y,1/2+z
loop_
_atom_site_type_symbol
_atom_site_label
_atom_site_fract_x
_atom_site_fract_y
_atom_site_fract_z
Si Si1 0.145107 0.621178 0.343698
Si Si2 0.462626 0.328040 0.103990
Si Si3 0.452959 0.897993 0.188174
Si Si4 0.519699 0.378815 0.656414
Si Si5 0.121736 0.171966 0.603848
Si Si6 0.794652 0.602020 0.688035
Si Si7 0.968364 0.673882 0.098142
Si Si8 0.638649 0.673889 0.098268
O O1 0.254356 0.642640 0.372821
O O2 0.052935 0.504042 0.371404
O O3 0.394191 0.625260 0.214993
O O4 0.960965 0.711212 0.385208
O O5 0.501487 0.211214 0.114950
O O6 0.281822 0.330758 0.109096
O O7 0.332228 0.386148 0.203987
O O8 0.747027 0.367065 0.991329
O O9 0.571169 0.900297 0.214429
O O10 0.566844 0.795253 0.119814
O O11 0.147888 0.886172 0.296216
O O12 0.538242 0.004049 0.128746
O O13 0.254033 0.374721 0.785125
O O14 0.288275 0.132966 0.491139
O O15 0.954154 0.704756 0.619643
O O16 0.876999 0.661632 0.061451
#
# Coordination Sequence:
#
# PCOD9251644 Si02
#       8
#     4   4   4   4   4   4   4   4
#     4   9  19  37  59  79 100 133 179 224 260 299
#     4  11  22  34  51  77 111 143 169 207 260 318
#     4   9  19  37  59  79 100 133 179 224 260 299
#     4   9  19  37  59  79 100 133 179 224 260 299
#     4  11  22  34  51  77 111 143 169 207 260 318
#     4   9  19  37  59  79 100 133 179 224 260 299
#     4   9  18  34  55  77 103 135 173 217 260 306
#     4   9  18  34  55  77 103 135 173 217 260 306
#
# _framework density 21.053377999999999
#
# number of rings (size 3 to 8) (size 9 to 14) (size 15 to 20)
#    0.000    2.500    0.000    3.750    0.000    7.000 
#    0.000   10.000    0.000    0.000    0.000    0.000 
#    0.000    0.000    0.000    0.000    0.000    0.000 
#
# Total GULP energy -178812.588079 kJ/mol
# GULP energy per Si atom -5587.893377 kJ/mol
# Density = 2.100546 g / cm^3
# Si number density = 21.053378 Si / 1000 Ang^3
#
#
#
# Elastic Constant Matrix: (Units=GPa)
#
#
# Indices 1 2 3 4 5 6 
#
# 1 48.9644 8.8534 37.5573 0.0000 5.0026 0.0000
# 2 8.8534 79.2920 -6.5940 0.0000 1.1959 0.0000
# 3 37.5573 -6.5940 76.3078 0.0000 -6.5910 0.0000
# 4 0.0000 0.0000 0.0000 -12.4809 0.0000 1.6229
# 5 5.0026 1.1959 -6.5910 0.0000 -25.1366 0.0000
# 6 0.0000 0.0000 0.0000 1.6229 0.0000 9.3659
#
#
#
# Elastic Compliance Matrix: (Units=1/GPa)
#
#
# Indices 1 2 3 4 5 6 
#
# 1 0.032048 -0.005006 -0.015328 0.000000 0.010159 0.000000
# 2 -0.005006 0.013482 0.003519 0.000000 -0.001278 0.000000
# 3 -0.015328 0.003519 0.020246 0.000000 -0.008192 0.000000
# 4 0.000000 0.000000 0.000000 -0.078357 0.000000 0.013578
# 5 0.010159 -0.001278 -0.008192 0.000000 -0.035674 0.000000
# 6 0.000000 0.000000 0.000000 0.013578 0.000000 0.104417
#
#
# Mechanical properties :
#
#
# Convention : Reuss Voigt Hill
#
# Bulk Modulus (GPa) = 31.11008 31.57751 31.34380
# Shear Modulus (GPa) = 49.74705 5.33286 27.53996
#
# Velocity S-wave (km/s) = 4.86624 1.59327 3.62069
# Velocity P-wave (km/s) = 6.81048 4.29139 5.69204
#
# Compressibility (1/GPa) = 0.03214393
#
# Stress axis : x y z
#
# Youngs Moduli (GPa) = 31.20361 74.17036 49.39330
#
# Poissons Ratio (x) = 0.37131 0.75712
# Poissons Ratio (y) = 0.15621 -0.17380
# Poissons Ratio (z) = 0.47830 -0.26098
#
# Static dielectric constant tensor:
#      x y z
#    x 1.691620 0.000000 -0.006310 
#    y 0.000000 1.793380 0.000000 
#    z -0.006310 0.000000 1.775830 
# 
# From -- ./inp_files/32767.got.cif
#   From: 2010.05.17/outbox.cif.g08.bks.cpg/sg14_17_cif.got.tgz:32767.got - 2010.06.03 17:49:19.
