data_PCOD9251090
_publ_section_title
;
Structure prediction by ZEFSAII (Michael W. Deem and Ramdas Pophale) SiO2 
 PCOD9251090
Probable space group: P 21/C
;
_chemical_formula_sum "Si O2"
_cell_formula_units_Z 24
_cell_length_a 14.999520
_cell_length_b 12.924449
_cell_length_c 9.986230
_cell_angle_alpha 90.000000
_cell_angle_beta 26.011880
_cell_angle_gamma 90.000000
_cell_volume 849.019184
_symmetry_space_group_name_H-M "P 21/C"
_symmetry_group_IT_number 14
_symmetry_cell_setting 'monoclinic'
loop_
_space_group_symop_operation_xyz
x,y,z
-x,1/2+y,1/2-z
-x,-y,-z
x,1/2-y,1/2+z
loop_
_atom_site_type_symbol
_atom_site_label
_atom_site_fract_x
_atom_site_fract_y
_atom_site_fract_z
Si Si1 0.228939 0.178879 0.887946
Si Si2 0.322735 0.641544 0.188951
Si Si3 0.730270 0.300323 0.459120
Si Si4 0.491474 0.005775 0.853132
Si Si5 0.904363 0.892930 0.670647
Si Si6 0.146501 0.118383 0.690696
O O1 0.440284 0.110344 0.616512
O O2 0.188247 0.162105 0.784556
O O3 0.072069 0.126141 0.203466
O O4 0.227726 0.293686 0.970108
O O5 0.332021 0.703758 0.041078
O O6 0.305288 0.718972 0.338651
O O7 0.094233 0.594103 0.505349
O O8 0.612598 0.404120 0.574178
O O9 0.960398 0.319946 0.104050
O O10 0.722386 0.986748 0.495881
O O11 0.500000 0.000000 0.000000
O O12 0.333949 0.098291 0.037612
O O13 0.000000 0.000000 0.500000
#
# Coordination Sequence:
#
# PCOD9251090 Si02
#       6
#     4   4   4   4   4   4
#     4  12  25  46  77 107 152 192 254 318 370 448
#     4  12  23  43  74 111 144 182 260 314 367 439
#     4  11  23  44  72 107 148 195 246 313 376 446
#     4  11  24  44  70 104 154 198 248 295 385 456
#     4  10  25  47  71  99 150 203 239 302 382 449
#     4  12  26  44  76 116 146 198 255 313 380 446
#
# _framework density 28.267911999999999
#
# number of rings (size 3 to 8) (size 9 to 14) (size 15 to 20)
#    0.000    0.667    5.000    2.000    2.333    2.000 
#    3.000    0.833    0.000    0.000    0.000    0.000 
#    0.000    0.000    0.000    0.000    0.000    0.000 
#
# Total GULP energy -133958.564249 kJ/mol
# GULP energy per Si atom -5581.606844 kJ/mol
# Density = 2.820357 g / cm^3
# Si number density = 28.267912 Si / 1000 Ang^3
#
#
#
# Elastic Constant Matrix: (Units=GPa)
#
#
# Indices 1 2 3 4 5 6 
#
# 1 124.1721 -3.0310 45.0726 0.0000 24.1473 0.0000
# 2 -3.0310 54.3445 21.0694 0.0000 3.8428 0.0000
# 3 45.0726 21.0694 177.9521 0.0000 19.4363 0.0000
# 4 0.0000 0.0000 0.0000 58.4774 0.0000 -15.2529
# 5 24.1473 3.8428 19.4363 0.0000 74.2539 0.0000
# 6 0.0000 0.0000 0.0000 -15.2529 0.0000 2.6505
#
#
#
# Elastic Compliance Matrix: (Units=1/GPa)
#
#
# Indices 1 2 3 4 5 6 
#
# 1 0.009421 0.001596 -0.002297 0.000000 -0.002545 0.000000
# 2 0.001596 0.019569 -0.002629 0.000000 -0.000844 0.000000
# 3 -0.002297 -0.002629 0.006605 0.000000 -0.000846 0.000000
# 4 0.000000 0.000000 0.000000 -0.034129 0.000000 -0.196406
# 5 -0.002545 -0.000844 -0.000846 0.000000 0.014560 0.000000
# 6 0.000000 0.000000 0.000000 -0.196406 0.000000 -0.752991
#
#
# Mechanical properties :
#
#
# Convention : Reuss Voigt Hill
#
# Bulk Modulus (GPa) = 34.56063 53.63229 44.09646
# Shear Modulus (GPa) = -6.93809 46.63354 19.84773
#
# Velocity S-wave (km/s) = -1.56835 4.06605 2.65265
# Velocity P-wave (km/s) = 2.99550 6.40763 5.00154
#
# Compressibility (1/GPa) = 0.02893466
#
# Stress axis : x y z
#
# Youngs Moduli (GPa) = 106.14509 51.10098 151.40057
#
# Poissons Ratio (x) = -0.08156 0.34780
# Poissons Ratio (y) = -0.16941 0.39804
# Poissons Ratio (z) = 0.24384 0.13435
#
# Static dielectric constant tensor:
#      x y z
#    x 2.369520 0.000000 -0.114990 
#    y 0.000000 2.233750 0.000000 
#    z -0.114990 0.000000 2.251290 
# 
# From -- ./inp_files/16615.got.cif
#   From: 2010.05.17/outbox.cif.g08.bks.cpg/sg14_9_cif.got.tgz:16615.got - 2010.06.03 17:49:19.
