data_PCOD9251958
_publ_section_title
;
Structure prediction by ZEFSAII (Michael W. Deem and Ramdas Pophale) SiO2 
 PCOD9251958
Probable space group: P 21/C
;
_chemical_formula_sum "Si O2"
_cell_formula_units_Z 28
_cell_length_a 9.416556
_cell_length_b 9.996801
_cell_length_c 14.181797
_cell_angle_alpha 90.000000
_cell_angle_beta 107.495671
_cell_angle_gamma 90.000000
_cell_volume 1273.251660
_symmetry_space_group_name_H-M "P 21/C"
_symmetry_group_IT_number 14
_symmetry_cell_setting 'monoclinic'
loop_
_space_group_symop_operation_xyz
x,y,z
-x,1/2+y,1/2-z
-x,-y,-z
x,1/2-y,1/2+z
loop_
_atom_site_type_symbol
_atom_site_label
_atom_site_fract_x
_atom_site_fract_y
_atom_site_fract_z
Si Si1 0.608717 0.677596 0.221830
Si Si2 0.419016 0.621562 0.792382
Si Si3 0.133566 0.668536 0.641669
Si Si4 0.920408 0.638304 0.331076
Si Si5 0.501848 0.707557 0.995892
Si Si6 0.766541 0.107631 0.053167
Si Si7 0.175744 0.300854 0.473048
O O1 0.587858 0.525725 0.254597
O O2 0.555295 0.791559 0.281806
O O3 0.786302 0.692858 0.239968
O O4 0.508222 0.687537 0.108660
O O5 0.274993 0.705906 0.731769
O O6 0.428557 0.605110 0.907103
O O7 0.088803 0.522469 0.672273
O O8 0.192839 0.648504 0.546629
O O9 0.978811 0.748037 0.605043
O O10 0.868902 0.678104 0.426559
O O11 0.095540 0.669175 0.358763
O O12 0.396836 0.837147 0.956887
O O13 0.675358 0.716707 0.004793
O O14 0.778087 0.947274 0.057789
#
# Coordination Sequence:
#
# PCOD9251958 Si02
#       7
#     4   4   4   4   4   4   4
#     4  11  23  40  60  85 119 158 192 236 291 346
#     4  11  23  40  60  85 119 158 192 236 291 346
#     4   8  16  34  56  78 113 158 195 230 279 341
#     4   8  16  34  56  78 113 158 195 230 279 341
#     4  12  22  32  58  92 119 144 187 248 297 338
#     4   9  17  31  56  87 114 150 198 237 276 342
#     4   9  17  31  56  87 114 150 198 237 276 342
#
# _framework density 21.990939999999998
#
# number of rings (size 3 to 8) (size 9 to 14) (size 15 to 20)
#    0.000    2.286    2.857    2.571    0.000    2.286 
#    0.000    0.000    0.000    5.143    0.000    0.000 
#    0.000    0.000    0.000    0.000    0.000    0.000 
#
# Total GULP energy -155974.804365 kJ/mol
# GULP energy per Si atom -5570.528727 kJ/mol
# Density = 2.194089 g / cm^3
# Si number density = 21.990940 Si / 1000 Ang^3
#
#
#
# Elastic Constant Matrix: (Units=GPa)
#
#
# Indices 1 2 3 4 5 6 
#
# 1 66.0560 -5.9651 18.7510 0.0000 31.3869 0.0000
# 2 -5.9651 18.7773 1.0154 0.0000 1.7188 0.0000
# 3 18.7510 1.0154 89.1163 0.0000 33.4267 0.0000
# 4 0.0000 0.0000 0.0000 17.0246 0.0000 4.5777
# 5 31.3869 1.7188 33.4267 0.0000 46.8497 0.0000
# 6 0.0000 0.0000 0.0000 4.5777 0.0000 25.2185
#
#
#
# Elastic Compliance Matrix: (Units=1/GPa)
#
#
# Indices 1 2 3 4 5 6 
#
# 1 0.023748 0.009046 0.001355 0.000000 -0.017208 0.000000
# 2 0.009046 0.056883 0.000689 0.000000 -0.008639 0.000000
# 3 0.001355 0.000689 0.015400 0.000000 -0.011920 0.000000
# 4 0.000000 0.000000 0.000000 0.061753 0.000000 -0.011209
# 5 -0.017208 -0.008639 -0.011920 0.000000 0.041695 0.000000
# 6 0.000000 0.000000 0.000000 -0.011209 0.000000 0.041688
#
#
# Mechanical properties :
#
#
# Convention : Reuss Voigt Hill
#
# Bulk Modulus (GPa) = 8.45956 22.39469 15.42712
# Shear Modulus (GPa) = 19.35056 28.49510 23.92283
#
# Velocity S-wave (km/s) = 2.96958 3.60358 3.30183
# Velocity P-wave (km/s) = 3.95134 5.24596 4.64398
#
# Compressibility (1/GPa) = 0.11820941
#
# Stress axis : x y z
#
# Youngs Moduli (GPa) = 42.10958 17.57992 64.93680
#
# Poissons Ratio (x) = -0.15903 -0.08798
# Poissons Ratio (y) = -0.38092 -0.04473
# Poissons Ratio (z) = -0.05705 -0.01211
#
# Static dielectric constant tensor:
#      x y z
#    x 1.840940 0.000000 0.027620 
#    y 0.000000 1.794800 0.000000 
#    z 0.027620 0.000000 1.892980 
# 
# From -- ./inp_files/40113.got.cif
#   From: 2010.05.17/outbox.cif.g08.bks.cpg/sg14_21_cif.got.tgz:40113.got - 2010.06.03 17:49:19.
