data_PCOD9251436
_publ_section_title
;
Structure prediction by ZEFSAII (Michael W. Deem and Ramdas Pophale) SiO2 
 PCOD9251436
Probable space group: P 21/C
;
_chemical_formula_sum "Si O2"
_cell_formula_units_Z 20
_cell_length_a 5.253129
_cell_length_b 24.726558
_cell_length_c 7.899458
_cell_angle_alpha 90.000000
_cell_angle_beta 122.732713
_cell_angle_gamma 90.000000
_cell_volume 863.136382
_symmetry_space_group_name_H-M "P 21/C"
_symmetry_group_IT_number 14
_symmetry_cell_setting 'monoclinic'
loop_
_space_group_symop_operation_xyz
x,y,z
-x,1/2+y,1/2-z
-x,-y,-z
x,1/2-y,1/2+z
loop_
_atom_site_type_symbol
_atom_site_label
_atom_site_fract_x
_atom_site_fract_y
_atom_site_fract_z
Si Si1 0.483256 0.908517 0.708928
Si Si2 0.505149 0.200981 0.151549
Si Si3 0.001618 0.966559 0.738672
Si Si4 0.215391 0.810267 0.116242
Si Si5 0.074335 0.574643 0.623376
O O1 0.396698 0.845503 0.678640
O O2 0.213254 0.947555 0.665003
O O3 0.695767 0.930980 0.636608
O O4 0.725643 0.911514 0.952810
O O5 0.621631 0.260361 0.237925
O O6 0.651219 0.184886 0.024720
O O7 0.141909 0.202608 0.019239
O O8 0.920286 0.028917 0.734242
O O9 0.172872 0.951799 0.978848
O O10 0.240060 0.869005 0.212437
#
# Coordination Sequence:
#
# PCOD9251436 Si02
#       5
#     4   4   4   4   4
#     4   9  15  27  42  69  97 125 158 201 258 302
#     4  11  21  36  53  76 107 141 174 215 252 313
#     4   9  15  24  46  69 103 119 157 215 272 280
#     4  11  22  36  53  79 108 139 176 212 259 310
#     4   8  17  25  46  71 102 120 162 215 263 286
#
# _framework density 23.171312
#
# number of rings (size 3 to 8) (size 9 to 14) (size 15 to 20)
#    1.200    1.200    2.000    1.800    0.000    0.000 
#    0.000    0.000    0.000    0.000    0.000    8.400 
#    0.000    0.000    0.000    0.000    0.000    0.000 
#
# Total GULP energy -111620.875330 kJ/mol
# GULP energy per Si atom -5581.043766 kJ/mol
# Density = 2.311857 g / cm^3
# Si number density = 23.171312 Si / 1000 Ang^3
#
#
#
# Elastic Constant Matrix: (Units=GPa)
#
#
# Indices 1 2 3 4 5 6 
#
# 1 139.4574 25.1011 15.0695 0.0000 -4.2847 0.0000
# 2 25.1011 177.3571 16.2679 0.0000 -1.0475 0.0000
# 3 15.0695 16.2679 59.7977 0.0000 -9.1153 0.0000
# 4 0.0000 0.0000 0.0000 10.8951 0.0000 13.1668
# 5 -4.2847 -1.0475 -9.1153 0.0000 10.2563 0.0000
# 6 0.0000 0.0000 0.0000 13.1668 0.0000 37.6703
#
#
#
# Elastic Compliance Matrix: (Units=1/GPa)
#
#
# Indices 1 2 3 4 5 6 
#
# 1 0.007543 -0.000931 -0.001367 0.000000 0.001841 0.000000
# 2 -0.000931 0.005905 -0.001549 0.000000 -0.001163 0.000000
# 3 -0.001367 -0.001549 0.020101 0.000000 0.017135 0.000000
# 4 0.000000 0.000000 0.000000 0.158907 0.000000 -0.055542
# 5 0.001841 -0.001163 0.017135 0.000000 0.113381 0.000000
# 6 0.000000 0.000000 0.000000 -0.055542 0.000000 0.045960
#
#
# Mechanical properties :
#
#
# Convention : Reuss Voigt Hill
#
# Bulk Modulus (GPa) = 38.67781 54.38768 46.53275
# Shear Modulus (GPa) = 13.58294 33.10925 23.34610
#
# Velocity S-wave (km/s) = 2.42378 3.78417 3.17763
# Velocity P-wave (km/s) = 4.95593 6.52811 5.79558
#
# Compressibility (1/GPa) = 0.02585462
#
# Stress axis : x y z
#
# Youngs Moduli (GPa) = 132.58169 169.33760 49.74881
#
# Poissons Ratio (x) = 0.15769 0.06800
# Poissons Ratio (y) = 0.12347 0.07707
# Poissons Ratio (z) = 0.18121 0.26232
#
# Static dielectric constant tensor:
#      x y z
#    x 1.819280 0.000000 0.008370 
#    y 0.000000 1.905690 0.000000 
#    z 0.008370 0.000000 1.955130 
# 
# From -- ./inp_files/6004.got.cif
#   From: 2010.05.17/outbox.cif.g08.bks.cpg/sg14_4_cif.got.tgz:6004.got - 2010.06.03 17:49:19.
