data_PCOD9251633
_publ_section_title
;
Structure prediction by ZEFSAII (Michael W. Deem and Ramdas Pophale) SiO2 
 PCOD9251633
Probable space group: P 21/C
;
_chemical_formula_sum "Si O2"
_cell_formula_units_Z 32
_cell_length_a 11.670864
_cell_length_b 9.347976
_cell_length_c 16.475690
_cell_angle_alpha 90.000000
_cell_angle_beta 120.973803
_cell_angle_gamma 90.000000
_cell_volume 1541.164707
_symmetry_space_group_name_H-M "P 21/C"
_symmetry_group_IT_number 14
_symmetry_cell_setting 'monoclinic'
loop_
_space_group_symop_operation_xyz
x,y,z
-x,1/2+y,1/2-z
-x,-y,-z
x,1/2-y,1/2+z
loop_
_atom_site_type_symbol
_atom_site_label
_atom_site_fract_x
_atom_site_fract_y
_atom_site_fract_z
Si Si1 0.636582 0.785152 0.342757
Si Si2 0.132927 0.818761 0.157648
Si Si3 0.559672 0.875112 0.131086
Si Si4 0.056514 0.341266 0.030248
Si Si5 0.497230 0.337462 0.029288
Si Si6 0.258118 0.853716 0.846236
Si Si7 0.709392 0.032487 0.906377
Si Si8 0.039929 0.915165 0.899240
O O1 0.583063 0.829758 0.234040
O O2 0.784406 0.849043 0.408740
O O3 0.557214 0.822493 0.397496
O O4 0.657370 0.613957 0.349741
O O5 0.182440 0.715721 0.244058
O O6 0.261773 0.843546 0.147394
O O7 0.080298 0.976455 0.162491
O O8 0.008952 0.744346 0.068028
O O9 0.403796 0.922175 0.071653
O O10 0.651353 0.011362 0.145601
O O11 0.580214 0.757053 0.067795
O O12 0.009819 0.240150 0.088465
O O13 0.000000 0.500000 0.000000
O O14 0.644832 0.269855 0.084952
O O15 0.500000 0.500000 0.000000
O O16 0.140788 0.899234 0.862758
O O17 0.858862 0.017046 0.996706
#
# Coordination Sequence:
#
# PCOD9251633 Si02
#       8
#     4   4   4   4   4   4   4   4
#     4  12  25  45  76 103 142 188 238 291 360 421
#     4  11  24  43  70  98 133 185 235 282 353 427
#     4  12  27  45  77 103 144 189 235 297 362 427
#     4  11  24  43  68 104 136 179 237 290 352 425
#     4  12  29  46  71 111 145 184 239 303 356 427
#     4  12  26  46  68 104 143 184 237 297 361 422
#     4  11  21  46  72  95 136 183 239 284 351 424
#     4  11  23  46  70  94 140 191 230 292 354 422
#
# _framework density 20.763517
#
# number of rings (size 3 to 8) (size 9 to 14) (size 15 to 20)
#    0.000    0.500    5.000    3.375    5.250    2.000 
#    0.000    0.000    0.000    0.000    0.000    0.000 
#    0.000    0.000    0.000    0.000    0.000    0.000 
#
# Total GULP energy -178670.841037 kJ/mol
# GULP energy per Si atom -5583.463782 kJ/mol
# Density = 2.071626 g / cm^3
# Si number density = 20.763517 Si / 1000 Ang^3
#
#
#
# Elastic Constant Matrix: (Units=GPa)
#
#
# Indices 1 2 3 4 5 6 
#
# 1 97.7362 25.4000 23.8779 0.0000 -2.8737 0.0000
# 2 25.4000 112.4852 28.0778 0.0000 -4.7727 0.0000
# 3 23.8779 28.0778 83.9023 0.0000 -14.9121 0.0000
# 4 0.0000 0.0000 0.0000 30.5302 0.0000 3.9993
# 5 -2.8737 -4.7727 -14.9121 0.0000 25.8555 0.0000
# 6 0.0000 0.0000 0.0000 3.9993 0.0000 18.9110
#
#
#
# Elastic Compliance Matrix: (Units=1/GPa)
#
#
# Indices 1 2 3 4 5 6 
#
# 1 0.011373 -0.001919 -0.002711 0.000000 -0.000654 0.000000
# 2 -0.001919 0.010024 -0.002805 0.000000 0.000019 0.000000
# 3 -0.002711 -0.002805 0.015023 0.000000 0.007846 0.000000
# 4 0.000000 0.000000 0.000000 0.033688 0.000000 -0.007124
# 5 -0.000654 0.000019 0.007846 0.000000 0.043132 0.000000
# 6 0.000000 0.000000 0.000000 -0.007124 0.000000 0.054386
#
#
# Mechanical properties :
#
#
# Convention : Reuss Voigt Hill
#
# Bulk Modulus (GPa) = 46.40139 49.87056 48.13597
# Shear Modulus (GPa) = 26.36011 29.51055 27.93533
#
# Velocity S-wave (km/s) = 3.56693 3.77406 3.67195
# Velocity P-wave (km/s) = 6.27376 6.56216 6.41958
#
# Compressibility (1/GPa) = 0.02155108
#
# Stress axis : x y z
#
# Youngs Moduli (GPa) = 87.92417 99.75618 66.56394
#
# Poissons Ratio (x) = 0.19146 0.18043
# Poissons Ratio (y) = 0.16876 0.18671
# Poissons Ratio (z) = 0.23833 0.27982
#
# Static dielectric constant tensor:
#      x y z
#    x 1.757450 0.000000 -0.056650 
#    y 0.000000 1.751100 0.000000 
#    z -0.056650 0.000000 1.825280 
# 
# From -- ./inp_files/57305.got.cif
#   From: 2010.05.17/outbox.cif.g08.bks.cpg/sg14_29_cif.got.tgz:57305.got - 2010.06.03 17:49:19.
