data_PCOD9251146
_publ_section_title
;
Structure prediction by ZEFSAII (Michael W. Deem and Ramdas Pophale) SiO2 
 PCOD9251146
Probable space group: P 21/C
;
_chemical_formula_sum "Si O2"
_cell_formula_units_Z 22
_cell_length_a 15.169943
_cell_length_b 8.630270
_cell_length_c 8.198402
_cell_angle_alpha 90.000000
_cell_angle_beta 52.104549
_cell_angle_gamma 90.000000
_cell_volume 847.008300
_symmetry_space_group_name_H-M "P 21/C"
_symmetry_group_IT_number 14
_symmetry_cell_setting 'monoclinic'
loop_
_space_group_symop_operation_xyz
x,y,z
-x,1/2+y,1/2-z
-x,-y,-z
x,1/2-y,1/2+z
loop_
_atom_site_type_symbol
_atom_site_label
_atom_site_fract_x
_atom_site_fract_y
_atom_site_fract_z
Si Si1 0.031453 0.863197 0.834000
Si Si2 0.500069 0.856687 0.125224
Si Si3 0.826968 0.861960 0.573200
Si Si4 0.000000 0.500000 0.000000
Si Si5 0.639628 0.892649 0.284253
Si Si6 0.726303 0.396326 0.939977
O O1 0.158072 0.810695 0.718494
O O2 0.018980 0.921520 0.663803
O O3 0.955263 0.708875 0.936758
O O4 0.000000 0.000000 0.000000
O O5 0.588199 0.901740 0.165137
O O6 0.376905 0.835600 0.338477
O O7 0.547413 0.700461 0.993580
O O8 0.500000 0.000000 0.000000
O O9 0.748158 0.716169 0.677079
O O10 0.774152 0.951151 0.481116
O O11 0.856263 0.979295 0.682502
O O12 0.674567 0.049511 0.329577
#
# Coordination Sequence:
#
# PCOD9251146 Si02
#       6
#     4   4   4   2   4   4
#     4  11  24  43  73 109 142 189 250 299 377 440
#     4  12  25  45  71 107 139 195 247 302 366 445
#     4  11  22  46  74 103 143 193 238 302 366 437
#     4  10  26  40  70 110 148 184 246 294 372 436
#     4  12  23  43  75  99 146 190 243 302 367 433
#     4  11  24  46  70 107 144 189 245 299 373 433
#
# _framework density 25.973768
#
# number of rings (size 3 to 8) (size 9 to 14) (size 15 to 20)
#    0.000    0.727    5.455    1.636    2.545    0.000 
#    6.545    0.000    0.000    0.000    0.000    0.000 
#    0.000    0.000    0.000    0.000    0.000    0.000 
#
# Total GULP energy -122756.626461 kJ/mol
# GULP energy per Si atom -5579.846657 kJ/mol
# Density = 2.591465 g / cm^3
# Si number density = 25.973768 Si / 1000 Ang^3
#
#
#
# Elastic Constant Matrix: (Units=GPa)
#
#
# Indices 1 2 3 4 5 6 
#
# 1 239.9971 44.6288 66.1804 0.0000 -0.1283 0.0000
# 2 44.6288 85.7403 20.8885 0.0000 -6.1419 0.0000
# 3 66.1804 20.8885 77.0903 0.0000 -26.8295 0.0000
# 4 0.0000 0.0000 0.0000 41.9737 0.0000 -10.3503
# 5 -0.1283 -6.1419 -26.8295 0.0000 64.3573 0.0000
# 6 0.0000 0.0000 0.0000 -10.3503 0.0000 51.8947
#
#
#
# Elastic Compliance Matrix: (Units=1/GPa)
#
#
# Indices 1 2 3 4 5 6 
#
# 1 0.006059 -0.001985 -0.005527 0.000000 -0.002481 0.000000
# 2 -0.001985 0.013141 -0.001663 0.000000 0.000557 0.000000
# 3 -0.005527 -0.001663 0.021181 0.000000 0.008660 0.000000
# 4 0.000000 0.000000 0.000000 0.025057 0.000000 0.004998
# 5 -0.002481 0.000557 0.008660 0.000000 0.019197 0.000000
# 6 0.000000 0.000000 0.000000 0.004998 0.000000 0.020267
#
#
# Mechanical properties :
#
#
# Convention : Reuss Voigt Hill
#
# Bulk Modulus (GPa) = 45.38964 74.02480 59.70722
# Shear Modulus (GPa) = 38.28641 49.72049 44.00345
#
# Velocity S-wave (km/s) = 3.84349 4.37997 4.12047
# Velocity P-wave (km/s) = 6.09997 7.35803 6.75834
#
# Compressibility (1/GPa) = 0.02203146
#
# Stress axis : x y z
#
# Youngs Moduli (GPa) = 165.05584 76.09598 47.21162
#
# Poissons Ratio (x) = 0.15104 0.26094
# Poissons Ratio (y) = 0.32760 0.07852
# Poissons Ratio (z) = 0.91225 0.12655
#
# Static dielectric constant tensor:
#      x y z
#    x 1.866940 0.000000 -0.212100 
#    y 0.000000 1.217000 0.000000 
#    z -0.212100 0.000000 2.021890 
# 
# From -- ./inp_files/15288.got.cif
#   From: 2010.05.17/outbox.cif.g08.bks.cpg/sg14_8_cif.got.tgz:15288.got - 2010.06.03 17:49:19.
