data_PCOD9251768
_publ_section_title
;
Structure prediction by ZEFSAII (Michael W. Deem and Ramdas Pophale) SiO2 
 PCOD9251768
Probable space group: P 21/C
;
_chemical_formula_sum "Si O2"
_cell_formula_units_Z 30
_cell_length_a 9.286166
_cell_length_b 7.564257
_cell_length_c 26.899780
_cell_angle_alpha 90.000000
_cell_angle_beta 37.004646
_cell_angle_gamma 90.000000
_cell_volume 1137.263762
_symmetry_space_group_name_H-M "P 21/C"
_symmetry_group_IT_number 14
_symmetry_cell_setting 'monoclinic'
loop_
_space_group_symop_operation_xyz
x,y,z
-x,1/2+y,1/2-z
-x,-y,-z
x,1/2-y,1/2+z
loop_
_atom_site_type_symbol
_atom_site_label
_atom_site_fract_x
_atom_site_fract_y
_atom_site_fract_z
Si Si1 0.195717 0.089275 0.596151
Si Si2 0.144121 0.424689 0.553267
Si Si3 0.000000 0.000000 0.500000
Si Si4 0.647737 0.199186 0.519766
Si Si5 0.404994 0.107742 0.321829
Si Si6 0.881581 0.974694 0.227499
Si Si7 0.195333 0.435029 0.735336
Si Si8 0.667121 0.485958 0.647049
O O1 0.367722 0.146519 0.594305
O O2 0.243564 0.232327 0.539225
O O3 0.927767 0.068743 0.690902
O O4 0.262057 0.899553 0.555485
O O5 0.005545 0.472912 0.641943
O O6 0.933041 0.408754 0.570708
O O7 0.310163 0.591715 0.497473
O O8 0.200658 0.887354 0.477871
O O9 0.818178 0.007589 0.599212
O O10 0.306956 0.305101 0.353512
O O11 0.624868 0.070548 0.298488
O O12 0.519772 0.081684 0.235962
O O13 0.844893 0.765598 0.237531
O O14 0.054700 0.029660 0.223859
O O15 0.478948 0.460399 0.655129
#
# Coordination Sequence:
#
# PCOD9251768 Si02
#       8
#     4   4   2   4   4   4   4   4
#     4  11  24  43  72  95 143 194 237 293 373 441
#     4  11  22  46  68 104 134 192 245 294 362 450
#     4  12  24  42  72 100 152 182 242 308 370 422
#     4  11  24  45  68 101 143 194 236 300 367 448
#     4  11  23  42  69 101 137 194 230 306 362 442
#     4  11  24  39  67  98 140 178 244 303 361 434
#     4  12  22  41  64 103 132 179 243 305 363 431
#     4  11  22  41  70  97 138 182 246 293 363 439
#
# _framework density 26.379104999999999
#
# number of rings (size 3 to 8) (size 9 to 14) (size 15 to 20)
#    0.000    0.800    2.667    6.800    0.000    1.067 
#    0.000    0.667    2.933    0.000    0.000    0.000 
#    0.000    0.000    0.000    0.000    0.000    0.000 
#
# Total GULP energy -167705.453753 kJ/mol
# GULP energy per Si atom -5590.181792 kJ/mol
# Density = 2.631906 g / cm^3
# Si number density = 26.379105 Si / 1000 Ang^3
#
#
#
# Elastic Constant Matrix: (Units=GPa)
#
#
# Indices 1 2 3 4 5 6 
#
# 1 130.2588 25.9920 14.6480 0.0000 -27.3891 0.0000
# 2 25.9920 127.0529 3.2989 0.0000 -6.4583 0.0000
# 3 14.6480 3.2989 70.0127 0.0000 7.6599 0.0000
# 4 0.0000 0.0000 0.0000 23.5680 0.0000 -8.7572
# 5 -27.3891 -6.4583 7.6599 0.0000 34.6318 0.0000
# 6 0.0000 0.0000 0.0000 -8.7572 0.0000 43.3562
#
#
#
# Elastic Compliance Matrix: (Units=1/GPa)
#
#
# Indices 1 2 3 4 5 6 
#
# 1 0.010070 -0.001560 -0.002944 0.000000 0.008324 0.000000
# 2 -0.001560 0.008209 -0.000095 0.000000 0.000318 0.000000
# 3 -0.002944 -0.000095 0.015536 0.000000 -0.005782 0.000000
# 4 0.000000 0.000000 0.000000 0.045873 0.000000 0.009266
# 5 0.008324 0.000318 -0.005782 0.000000 0.036796 0.000000
# 6 0.000000 0.000000 0.000000 0.009266 0.000000 0.024936
#
#
# Mechanical properties :
#
#
# Convention : Reuss Voigt Hill
#
# Bulk Modulus (GPa) = 40.62479 46.13357 43.37918
# Shear Modulus (GPa) = 31.48129 39.20358 35.34244
#
# Velocity S-wave (km/s) = 3.45834 3.85926 3.66428
# Velocity P-wave (km/s) = 5.60184 6.11434 5.86369
#
# Compressibility (1/GPa) = 0.02461551
#
# Stress axis : x y z
#
# Youngs Moduli (GPa) = 99.30780 121.82365 64.36601
#
# Poissons Ratio (x) = 0.19010 0.18949
# Poissons Ratio (y) = 0.15497 0.00612
# Poissons Ratio (z) = 0.29236 0.01158
#
# Static dielectric constant tensor:
#      x y z
#    x 2.111500 0.000000 -0.132070 
#    y 0.000000 2.110230 0.000000 
#    z -0.132070 0.000000 0.929590 
# 
# From -- ./inp_files/79482.got.cif
#   From: 2010.05.17/outbox.cif.g08.bks.cpg/sg14_40_cif.got.tgz:79482.got - 2010.06.03 17:49:19.
