data_PCOD9251952
_publ_section_title
;
Structure prediction by ZEFSAII (Michael W. Deem and Ramdas Pophale) SiO2 
 PCOD9251952
Probable space group: P 21/C
;
_chemical_formula_sum "Si O2"
_cell_formula_units_Z 32
_cell_length_a 14.031585
_cell_length_b 12.258969
_cell_length_c 25.654280
_cell_angle_alpha 90.000000
_cell_angle_beta 19.478362
_cell_angle_gamma 90.000000
_cell_volume 1471.473103
_symmetry_space_group_name_H-M "P 21/C"
_symmetry_group_IT_number 14
_symmetry_cell_setting 'monoclinic'
loop_
_space_group_symop_operation_xyz
x,y,z
-x,1/2+y,1/2-z
-x,-y,-z
x,1/2-y,1/2+z
loop_
_atom_site_type_symbol
_atom_site_label
_atom_site_fract_x
_atom_site_fract_y
_atom_site_fract_z
Si Si1 0.323976 0.387187 0.084930
Si Si2 0.788919 0.492986 0.320896
Si Si3 0.388062 0.964666 0.847592
Si Si4 0.263784 0.030530 0.793217
Si Si5 0.157263 0.288626 0.752540
Si Si6 0.227982 0.619379 0.782093
Si Si7 0.582877 0.259626 0.611646
Si Si8 0.409872 0.332783 0.922001
O O1 0.314345 0.305614 0.138542
O O2 0.997387 0.421819 0.247721
O O3 0.500000 0.500000 0.000000
O O4 0.385548 0.328422 0.997689
O O5 0.500000 0.500000 0.500000
O O6 0.927943 0.611933 0.240579
O O7 0.742624 0.436675 0.289373
O O8 0.425429 0.833684 0.832633
O O9 0.341444 0.000817 0.812576
O O10 0.643948 0.035353 0.741199
O O11 0.079404 0.978605 0.035449
O O12 0.406613 0.147990 0.708925
O O13 0.412678 0.942174 0.680127
O O14 0.406101 0.331591 0.661749
O O15 0.890763 0.259679 0.926961
O O16 0.419671 0.727756 0.685507
O O17 0.891805 0.652829 0.953166
#
# Coordination Sequence:
#
# PCOD9251952 Si02
#       8
#     4   4   4   4   4   4   4   4
#     4  11  25  41  65  98 138 188 233 287 348 423
#     4  11  23  39  64  97 137 181 235 285 349 415
#     4  11  26  47  72 102 140 183 235 302 360 423
#     4  11  26  47  73 105 140 184 240 295 364 426
#     4  12  23  43  68 101 138 185 235 290 349 420
#     4  11  24  45  67 100 139 183 231 286 355 422
#     4  12  24  45  71 103 138 184 236 292 355 422
#     4  11  25  45  70 101 143 186 231 291 355 425
#
# _framework density 21.746915000000001
#
# number of rings (size 3 to 8) (size 9 to 14) (size 15 to 20)
#    0.000    0.750    2.500    5.250    1.750    4.500 
#    0.000    0.000    0.000    0.000    0.000    0.000 
#    0.000    0.000    0.000    0.000    0.000    0.000 
#
# Total GULP energy -178736.415573 kJ/mol
# GULP energy per Si atom -5585.512987 kJ/mol
# Density = 2.169742 g / cm^3
# Si number density = 21.746915 Si / 1000 Ang^3
#
#
#
# Elastic Constant Matrix: (Units=GPa)
#
#
# Indices 1 2 3 4 5 6 
#
# 1 49.1063 1.5664 9.2426 0.0000 -10.3384 0.0000
# 2 1.5664 110.0649 13.2340 0.0000 6.9925 0.0000
# 3 9.2426 13.2340 66.3618 0.0000 0.9317 0.0000
# 4 0.0000 0.0000 0.0000 28.3447 0.0000 -2.0069
# 5 -10.3384 6.9925 0.9317 0.0000 21.9899 0.0000
# 6 0.0000 0.0000 0.0000 -2.0069 0.0000 30.7396
#
#
#
# Elastic Compliance Matrix: (Units=1/GPa)
#
#
# Indices 1 2 3 4 5 6 
#
# 1 0.023392 -0.000659 -0.003286 0.000000 0.011346 0.000000
# 2 -0.000659 0.009514 -0.001760 0.000000 -0.003260 0.000000
# 3 -0.003286 -0.001760 0.015901 0.000000 -0.001659 0.000000
# 4 0.000000 0.000000 0.000000 0.035444 0.000000 0.002314
# 5 0.011346 -0.003260 -0.001659 0.000000 0.051917 0.000000
# 6 0.000000 0.000000 0.000000 0.002314 0.000000 0.032682
#
#
# Mechanical properties :
#
#
# Convention : Reuss Voigt Hill
#
# Bulk Modulus (GPa) = 26.73940 30.40212 28.57076
# Shear Modulus (GPa) = 25.94379 29.64750 27.79565
#
# Velocity S-wave (km/s) = 3.45771 3.69629 3.57899
# Velocity P-wave (km/s) = 5.31634 5.67689 5.49957
#
# Compressibility (1/GPa) = 0.03739799
#
# Stress axis : x y z
#
# Youngs Moduli (GPa) = 42.74928 105.11219 62.89004
#
# Poissons Ratio (x) = 0.06923 0.20665
# Poissons Ratio (y) = 0.02816 0.11067
# Poissons Ratio (z) = 0.14047 0.18497
#
# Static dielectric constant tensor:
#      x y z
#    x 1.762720 0.000000 0.003820 
#    y 0.000000 1.779590 0.000000 
#    z 0.003820 0.000000 1.760460 
# 
# From -- ./inp_files/77588.got.cif
#   From: 2010.05.17/outbox.cif.g08.bks.cpg/sg14_39_cif.got.tgz:77588.got - 2010.06.03 17:49:19.
