data_PCOD9251298
_publ_section_title
;
Structure prediction by ZEFSAII (Michael W. Deem and Ramdas Pophale) SiO2 
 PCOD9251298
Probable space group: P 21/C
;
_chemical_formula_sum "Si O2"
_cell_formula_units_Z 32
_cell_length_a 9.138532
_cell_length_b 10.741924
_cell_length_c 20.721025
_cell_angle_alpha 90.000000
_cell_angle_beta 129.431092
_cell_angle_gamma 90.000000
_cell_volume 1571.107267
_symmetry_space_group_name_H-M "P 21/C"
_symmetry_group_IT_number 14
_symmetry_cell_setting 'monoclinic'
loop_
_space_group_symop_operation_xyz
x,y,z
-x,1/2+y,1/2-z
-x,-y,-z
x,1/2-y,1/2+z
loop_
_atom_site_type_symbol
_atom_site_label
_atom_site_fract_x
_atom_site_fract_y
_atom_site_fract_z
Si Si1 0.806670 0.627818 0.483172
Si Si2 0.774312 0.501841 0.786972
Si Si3 0.364095 0.974151 0.521250
Si Si4 0.098578 0.459998 0.628151
Si Si5 0.099351 0.791228 0.382512
Si Si6 0.456141 0.567927 0.797705
Si Si7 0.384928 0.687191 0.355439
Si Si8 0.981077 0.883789 0.544261
O O1 0.921502 0.551938 0.568807
O O2 0.591299 0.656124 0.442474
O O3 0.934397 0.749934 0.503205
O O4 0.805533 0.552759 0.415643
O O5 0.604948 0.563154 0.780604
O O6 0.702338 0.434486 0.702815
O O7 0.945690 0.599851 0.824595
O O8 0.852922 0.395287 0.857898
O O9 0.244094 0.848408 0.476354
O O10 0.462388 0.990555 0.618041
O O11 0.500000 0.000000 0.500000
O O12 0.211629 0.083851 0.473188
O O13 0.018077 0.327794 0.627798
O O14 0.256814 0.511996 0.720103
O O15 0.234747 0.749306 0.361826
O O16 0.431800 0.708644 0.814873
O O17 0.000000 0.000000 0.500000
#
# Coordination Sequence:
#
# PCOD9251298 Si02
#       8
#     4   4   4   4   4   4   4   4
#     4  11  22  45  65  98 140 183 233 289 356 422
#     4  11  25  41  70 104 134 183 240 287 355 416
#     4  11  21  40  69  97 130 176 228 285 350 415
#     4  11  26  42  67  99 143 182 232 295 353 415
#     4  11  26  45  67  99 144 181 234 292 355 426
#     4  12  23  44  70 102 135 185 241 293 345 421
#     4  12  24  45  71  99 144 182 233 293 349 425
#     4  11  19  37  67  96 131 175 226 290 339 410
#
# _framework density 20.367801
#
# number of rings (size 3 to 8) (size 9 to 14) (size 15 to 20)
#    0.000    0.750    5.000    3.000    1.750    0.500 
#    2.250    1.250    0.000    0.000    0.000    0.000 
#    0.000    0.000    0.000    0.000    0.000    0.000 
#
# Total GULP energy -178698.820764 kJ/mol
# GULP energy per Si atom -5584.338149 kJ/mol
# Density = 2.032144 g / cm^3
# Si number density = 20.367801 Si / 1000 Ang^3
#
#
#
# Elastic Constant Matrix: (Units=GPa)
#
#
# Indices 1 2 3 4 5 6 
#
# 1 104.3181 29.1568 32.4993 0.0000 18.3684 0.0000
# 2 29.1568 95.2307 61.4107 0.0000 12.6580 0.0000
# 3 32.4993 61.4107 119.6408 0.0000 25.0212 0.0000
# 4 0.0000 0.0000 0.0000 39.8627 0.0000 2.5081
# 5 18.3684 12.6580 25.0212 0.0000 24.6522 0.0000
# 6 0.0000 0.0000 0.0000 2.5081 0.0000 25.7488
#
#
#
# Elastic Compliance Matrix: (Units=1/GPa)
#
#
# Indices 1 2 3 4 5 6 
#
# 1 0.011613 -0.002294 -0.000525 0.000000 -0.006942 0.000000
# 2 -0.002294 0.016150 -0.007985 0.000000 0.001521 0.000000
# 3 -0.000525 -0.007985 0.014802 0.000000 -0.010533 0.000000
# 4 0.000000 0.000000 0.000000 0.025241 0.000000 -0.002459
# 5 -0.006942 0.001521 -0.010533 0.000000 0.055646 0.000000
# 6 0.000000 0.000000 0.000000 -0.002459 0.000000 0.039076
#
#
# Mechanical properties :
#
#
# Convention : Reuss Voigt Hill
#
# Bulk Modulus (GPa) = 47.71563 62.81367 55.26465
# Shear Modulus (GPa) = 26.16122 31.12758 28.64440
#
# Velocity S-wave (km/s) = 3.58780 3.91356 3.75421
# Velocity P-wave (km/s) = 6.37502 7.16435 6.78118
#
# Compressibility (1/GPa) = 0.02095749
#
# Stress axis : x y z
#
# Youngs Moduli (GPa) = 86.10832 61.91952 67.55759
#
# Poissons Ratio (x) = 0.14206 0.03548
# Poissons Ratio (y) = 0.19755 0.53942
# Poissons Ratio (z) = 0.04522 0.49440
#
# Static dielectric constant tensor:
#      x y z
#    x 1.740460 0.000000 -0.001020 
#    y 0.000000 1.749690 0.000000 
#    z -0.001020 0.000000 1.731110 
# 
# From -- ./inp_files/72359.got.cif
#   From: 2010.05.17/outbox.cif.g08.bks.cpg/sg14_37_cif.got.tgz:72359.got - 2010.06.03 17:49:19.
