data_PCOD9251826
_publ_section_title
;
Structure prediction by ZEFSAII (Michael W. Deem and Ramdas Pophale) SiO2 
 PCOD9251826
Probable space group: P 21/C
;
_chemical_formula_sum "Si O2"
_cell_formula_units_Z 30
_cell_length_a 11.342739
_cell_length_b 8.464919
_cell_length_c 13.991410
_cell_angle_alpha 90.000000
_cell_angle_beta 63.424455
_cell_angle_gamma 90.000000
_cell_volume 1201.454815
_symmetry_space_group_name_H-M "P 21/C"
_symmetry_group_IT_number 14
_symmetry_cell_setting 'monoclinic'
loop_
_space_group_symop_operation_xyz
x,y,z
-x,1/2+y,1/2-z
-x,-y,-z
x,1/2-y,1/2+z
loop_
_atom_site_type_symbol
_atom_site_label
_atom_site_fract_x
_atom_site_fract_y
_atom_site_fract_z
Si Si1 0.330498 0.462608 0.475111
Si Si2 0.452858 0.506977 0.882893
Si Si3 0.327303 0.226087 0.649364
Si Si4 0.927008 0.972839 0.314043
Si Si5 0.177370 0.672730 0.647306
Si Si6 0.239708 0.201080 0.387821
Si Si7 0.000000 0.000000 0.500000
Si Si8 0.409130 0.680931 0.706354
O O1 0.323137 0.368070 0.577104
O O2 0.272897 0.632266 0.523155
O O3 0.237349 0.375141 0.432664
O O4 0.522602 0.572154 0.615711
O O5 0.542033 0.619159 0.917546
O O6 0.317646 0.406087 0.939073
O O7 0.410272 0.624080 0.813662
O O8 0.551320 0.364585 0.818022
O O9 0.325561 0.285614 0.759647
O O10 0.195076 0.124731 0.684493
O O11 0.880587 0.153021 0.338337
O O12 0.963282 0.919213 0.408175
O O13 0.055173 0.946006 0.201930
O O14 0.269955 0.662278 0.706355
O O15 0.104962 0.118892 0.410952
#
# Coordination Sequence:
#
# PCOD9251826 Si02
#       8
#     4   4   4   4   4   4   2   4
#     4  11  24  45  73 104 143 183 239 299 353 421
#     4  11  22  43  72 106 147 183 240 291 363 418
#     4  12  23  49  74 102 150 189 238 302 352 428
#     4  12  27  46  73 101 145 194 238 296 360 426
#     4  12  26  48  70 107 142 191 237 295 364 426
#     4  11  25  45  74 104 146 188 237 297 360 423
#     4  12  24  48  68 104 138 188 246 290 350 430
#     4  11  24  45  73 110 141 190 237 295 364 422
#
# _framework density 24.969729000000001
#
# number of rings (size 3 to 8) (size 9 to 14) (size 15 to 20)
#    0.000    0.533    5.333    4.400    0.000    3.200 
#    7.200    1.333    0.000    0.000    0.000    0.000 
#    0.000    0.000    0.000    0.000    0.000    0.000 
#
# Total GULP energy -167467.839050 kJ/mol
# GULP energy per Si atom -5582.261302 kJ/mol
# Density = 2.491290 g / cm^3
# Si number density = 24.969729 Si / 1000 Ang^3
#
#
#
# Elastic Constant Matrix: (Units=GPa)
#
#
# Indices 1 2 3 4 5 6 
#
# 1 122.8515 19.3376 3.8809 0.0000 -3.0542 0.0000
# 2 19.3376 79.0161 9.8404 0.0000 -15.9936 0.0000
# 3 3.8809 9.8404 62.0719 0.0000 4.2340 0.0000
# 4 0.0000 0.0000 0.0000 33.5566 0.0000 -10.0359
# 5 -3.0542 -15.9936 4.2340 0.0000 26.4765 0.0000
# 6 0.0000 0.0000 0.0000 -10.0359 0.0000 50.8122
#
#
#
# Elastic Compliance Matrix: (Units=1/GPa)
#
#
# Indices 1 2 3 4 5 6 
#
# 1 0.008470 -0.002105 -0.000178 0.000000 -0.000266 0.000000
# 2 -0.002105 0.015482 -0.002977 0.000000 0.009585 0.000000
# 3 -0.000178 -0.002977 0.016902 0.000000 -0.004521 0.000000
# 4 0.000000 0.000000 0.000000 0.031671 0.000000 0.006255
# 5 -0.000266 0.009585 -0.004521 0.000000 0.044252 0.000000
# 6 0.000000 0.000000 0.000000 0.006255 0.000000 0.020916
#
#
# Mechanical properties :
#
#
# Convention : Reuss Voigt Hill
#
# Bulk Modulus (GPa) = 32.96455 36.67304 34.81880
# Shear Modulus (GPa) = 31.58118 37.56108 34.57113
#
# Velocity S-wave (km/s) = 3.56023 3.88269 3.72495
# Velocity P-wave (km/s) = 5.48915 5.90079 5.69869
#
# Compressibility (1/GPa) = 0.03033561
#
# Stress axis : x y z
#
# Youngs Moduli (GPa) = 118.06106 64.59315 59.16543
#
# Poissons Ratio (x) = 0.13594 0.01052
# Poissons Ratio (y) = 0.24847 0.17611
# Poissons Ratio (z) = 0.02099 0.19226
#
# Static dielectric constant tensor:
#      x y z
#    x 1.947850 0.000000 0.074000 
#    y 0.000000 2.005520 0.000000 
#    z 0.074000 0.000000 1.648170 
# 
# From -- ./inp_files/43403.got.cif
#   From: 2010.05.17/outbox.cif.g08.bks.cpg/sg14_22_cif.got.tgz:43403.got - 2010.06.03 17:49:19.
