data_PCOD9251576
_publ_section_title
;
Structure prediction by ZEFSAII (Michael W. Deem and Ramdas Pophale) SiO2 
 PCOD9251576
Probable space group: P 21/C
;
_chemical_formula_sum "Si O2"
_cell_formula_units_Z 30
_cell_length_a 18.830255
_cell_length_b 8.181288
_cell_length_c 14.699633
_cell_angle_alpha 90.000000
_cell_angle_beta 142.028771
_cell_angle_gamma 90.000000
_cell_volume 1393.307832
_symmetry_space_group_name_H-M "P 21/C"
_symmetry_group_IT_number 14
_symmetry_cell_setting 'monoclinic'
loop_
_space_group_symop_operation_xyz
x,y,z
-x,1/2+y,1/2-z
-x,-y,-z
x,1/2-y,1/2+z
loop_
_atom_site_type_symbol
_atom_site_label
_atom_site_fract_x
_atom_site_fract_y
_atom_site_fract_z
Si Si1 0.972357 0.044995 0.287199
Si Si2 0.257220 0.133480 0.312824
Si Si3 0.644626 0.091765 0.328113
Si Si4 0.138512 0.900078 0.314842
Si Si5 0.500000 0.500000 0.000000
Si Si6 0.809754 0.890628 0.398458
Si Si7 0.454746 0.948128 0.252748
Si Si8 0.755350 0.829259 0.021291
O O1 0.919895 0.224007 0.247786
O O2 0.068545 0.020614 0.462124
O O3 0.868235 0.919552 0.173499
O O4 0.046040 0.020735 0.268871
O O5 0.194326 0.272117 0.190709
O O6 0.288737 0.216145 0.441194
O O7 0.178894 0.978942 0.261311
O O8 0.369103 0.076176 0.371818
O O9 0.749250 0.113140 0.506076
O O10 0.580873 0.264821 0.254697
O O11 0.706017 0.022071 0.299805
O O12 0.549992 0.964926 0.270157
O O13 0.505071 0.469040 0.893878
O O14 0.788070 0.775774 0.465439
O O15 0.340945 0.040380 0.103535
#
# Coordination Sequence:
#
# PCOD9251576 Si02
#       8
#     4   4   4   4   2   4   4   4
#     4  11  22  43  74 100 135 188 231 289 350 415
#     4  12  25  44  69 103 144 185 234 289 351 421
#     4  11  23  43  69  98 134 182 232 283 350 413
#     4  11  21  42  71 100 135 180 235 279 347 416
#     4  12  24  42  70 102 142 182 234 284 346 426
#     4  11  24  45  69 102 142 181 234 297 344 425
#     4  12  24  43  71  97 138 189 232 290 350 414
#     4  12  23  45  71 100 140 186 231 291 358 409
#
# _framework density 21.531495
#
# number of rings (size 3 to 8) (size 9 to 14) (size 15 to 20)
#    0.000    0.533    8.000    1.600    0.000    1.067 
#    4.800    1.333    0.000    0.000    0.000    0.000 
#    0.000    0.000    0.000    0.000    0.000    0.000 
#
# Total GULP energy -167191.490356 kJ/mol
# GULP energy per Si atom -5573.049679 kJ/mol
# Density = 2.148249 g / cm^3
# Si number density = 21.531495 Si / 1000 Ang^3
#
#
#
# Elastic Constant Matrix: (Units=GPa)
#
#
# Indices 1 2 3 4 5 6 
#
# 1 50.3907 7.0600 8.6257 0.0000 3.4422 0.0000
# 2 7.0600 75.3761 -8.5435 0.0000 12.0791 0.0000
# 3 8.6257 -8.5435 49.5062 0.0000 22.0383 0.0000
# 4 0.0000 0.0000 0.0000 23.8424 0.0000 20.5803
# 5 3.4422 12.0791 22.0383 0.0000 35.2069 0.0000
# 6 0.0000 0.0000 0.0000 20.5803 0.0000 26.5542
#
#
#
# Elastic Compliance Matrix: (Units=1/GPa)
#
#
# Indices 1 2 3 4 5 6 
#
# 1 0.020977 -0.002885 -0.005102 0.000000 0.002133 0.000000
# 2 -0.002885 0.016029 0.007751 0.000000 -0.010070 0.000000
# 3 -0.005102 0.007751 0.032423 0.000000 -0.022456 0.000000
# 4 0.000000 0.000000 0.000000 0.126710 0.000000 -0.098204
# 5 0.002133 -0.010070 -0.022456 0.000000 0.045707 0.000000
# 6 0.000000 0.000000 0.000000 -0.098204 0.000000 0.113769
#
#
# Mechanical properties :
#
#
# Convention : Reuss Voigt Hill
#
# Bulk Modulus (GPa) = 14.50158 21.06195 17.78176
# Shear Modulus (GPa) = 13.19012 28.32942 20.75977
#
# Velocity S-wave (km/s) = 2.47775 3.63122 3.10846
# Velocity P-wave (km/s) = 3.86463 5.23299 4.59998
#
# Compressibility (1/GPa) = 0.06895802
#
# Stress axis : x y z
#
# Youngs Moduli (GPa) = 47.67179 62.38594 30.84251
#
# Poissons Ratio (x) = 0.17997 0.15736
# Poissons Ratio (y) = 0.13752 -0.23907
# Poissons Ratio (z) = 0.24322 -0.48358
#
# Static dielectric constant tensor:
#      x y z
#    x 1.765980 0.000000 0.011520 
#    y 0.000000 1.823500 0.000000 
#    z 0.011520 0.000000 1.795930 
# 
# From -- ./inp_files/43450.got.cif
#   From: 2010.05.17/outbox.cif.g08.bks.cpg/sg14_22_cif.got.tgz:43450.got - 2010.06.03 17:49:19.
