data_PCOD9251280
_publ_section_title
;
Structure prediction by ZEFSAII (Michael W. Deem and Ramdas Pophale) SiO2 
 PCOD9251280
Probable space group: P 21/C
;
_chemical_formula_sum "Si O2"
_cell_formula_units_Z 32
_cell_length_a 13.677703
_cell_length_b 18.454831
_cell_length_c 15.390887
_cell_angle_alpha 90.000000
_cell_angle_beta 152.708907
_cell_angle_gamma 90.000000
_cell_volume 1781.299871
_symmetry_space_group_name_H-M "P 21/C"
_symmetry_group_IT_number 14
_symmetry_cell_setting 'monoclinic'
loop_
_space_group_symop_operation_xyz
x,y,z
-x,1/2+y,1/2-z
-x,-y,-z
x,1/2-y,1/2+z
loop_
_atom_site_type_symbol
_atom_site_label
_atom_site_fract_x
_atom_site_fract_y
_atom_site_fract_z
Si Si1 0.668227 0.527410 0.280921
Si Si2 0.321576 0.169531 0.107075
Si Si3 0.689605 0.743511 0.575676
Si Si4 0.538253 0.256488 0.424324
Si Si5 0.892576 0.169532 0.107076
Si Si6 0.893616 0.527410 0.280922
Si Si7 0.605410 0.372260 0.218936
Si Si8 0.832461 0.127740 0.718936
O O1 0.599497 0.595458 0.284806
O O2 0.726225 0.548185 0.226226
O O3 0.528579 0.454246 0.175342
O O4 0.891133 0.500000 0.500000
O O5 0.397650 0.235445 0.228940
O O6 0.375782 0.185372 0.049561
O O7 0.066733 0.161003 0.903612
O O8 0.605981 0.725637 0.605982
O O9 0.571494 0.816692 0.451570
O O10 0.939770 0.764555 0.771061
O O11 0.723341 0.314628 0.549562
O O12 0.668354 0.183308 0.548430
O O13 0.029887 0.095459 0.215195
O O14 0.740490 0.161003 0.903611
O O15 0.822104 0.454246 0.175342
O O16 0.767857 0.381321 0.267857
#
# Coordination Sequence:
#
# PCOD9251280 Si02
#       8
#     4   4   4   4   4   4   4   4
#     4   8  15  29  53  78 101 131 166 213 269 306
#     4  11  19  34  51  76 107 139 168 208 260 306
#     4  11  22  33  52  80 105 138 177 206 255 314
#     4  11  22  33  52  80 105 138 177 206 255 314
#     4  11  19  34  51  76 107 139 168 208 260 306
#     4   8  15  29  53  78 101 131 166 213 269 306
#     4   9  18  34  54  79 106 130 169 221 263 307
#     4   9  18  34  54  79 106 130 169 221 263 307
#
# _framework density 17.964407999999999
#
# number of rings (size 3 to 8) (size 9 to 14) (size 15 to 20)
#    0.000    2.250    2.500    3.750    0.000    1.000 
#    0.000    3.750    0.000    6.750    0.000    1.750 
#    0.000    0.000    0.000    0.000    0.000    0.000 
#
# Total GULP energy -178290.295944 kJ/mol
# GULP energy per Si atom -5571.571748 kJ/mol
# Density = 1.792352 g / cm^3
# Si number density = 17.964408 Si / 1000 Ang^3
#
#
#
# Elastic Constant Matrix: (Units=GPa)
#
#
# Indices 1 2 3 4 5 6 
#
# 1 96.9625 42.8265 28.1816 0.0000 2.1319 0.0000
# 2 42.8265 74.8138 11.1179 0.0000 2.3058 0.0000
# 3 28.1816 11.1179 41.9857 0.0000 1.8658 0.0000
# 4 0.0000 0.0000 0.0000 30.1766 0.0000 -0.0220
# 5 2.1319 2.3058 1.8658 0.0000 19.7496 0.0000
# 6 0.0000 0.0000 0.0000 -0.0220 0.0000 29.8744
#
#
#
# Elastic Compliance Matrix: (Units=1/GPa)
#
#
# Indices 1 2 3 4 5 6 
#
# 1 0.016489 -0.008114 -0.008920 0.000000 0.000010 0.000000
# 2 -0.008114 0.017939 0.000753 0.000000 -0.001290 0.000000
# 3 -0.008920 0.000753 0.029691 0.000000 -0.001930 0.000000
# 4 0.000000 0.000000 0.000000 0.033138 0.000000 0.000024
# 5 0.000010 -0.001290 -0.001930 0.000000 0.050966 0.000000
# 6 0.000000 0.000000 0.000000 0.000024 0.000000 0.033473
#
#
# Mechanical properties :
#
#
# Convention : Reuss Voigt Hill
#
# Bulk Modulus (GPa) = 31.68725 42.00156 36.84440
# Shear Modulus (GPa) = 22.24425 24.73587 23.49006
#
# Velocity S-wave (km/s) = 3.52268 3.71474 3.61998
# Velocity P-wave (km/s) = 5.85003 6.46763 6.16657
#
# Compressibility (1/GPa) = 0.03155844
#
# Stress axis : x y z
#
# Youngs Moduli (GPa) = 60.64548 55.74428 33.68022
#
# Poissons Ratio (x) = 0.45230 0.30042
# Poissons Ratio (y) = 0.49207 -0.02537
# Poissons Ratio (z) = 0.54094 -0.04199
#
# Static dielectric constant tensor:
#      x y z
#    x 1.603430 0.000000 -0.006830 
#    y 0.000000 1.694890 0.000000 
#    z -0.006830 0.000000 1.697360 
# 
# From -- ./inp_files/45469.got.cif
#   From: 2010.05.17/outbox.cif.g08.bks.cpg/sg14_23_cif.got.tgz:45469.got - 2010.06.03 17:49:19.
