data_PCOD9251565
_publ_section_title
;
Structure prediction by ZEFSAII (Michael W. Deem and Ramdas Pophale) SiO2 
 PCOD9251565
Probable space group: P 21/C
;
_chemical_formula_sum "Si O2"
_cell_formula_units_Z 30
_cell_length_a 13.789606
_cell_length_b 6.459915
_cell_length_c 13.818120
_cell_angle_alpha 90.000000
_cell_angle_beta 111.811854
_cell_angle_gamma 90.000000
_cell_volume 1142.791367
_symmetry_space_group_name_H-M "P 21/C"
_symmetry_group_IT_number 14
_symmetry_cell_setting 'monoclinic'
loop_
_space_group_symop_operation_xyz
x,y,z
-x,1/2+y,1/2-z
-x,-y,-z
x,1/2-y,1/2+z
loop_
_atom_site_type_symbol
_atom_site_label
_atom_site_fract_x
_atom_site_fract_y
_atom_site_fract_z
Si Si1 0.042081 0.840734 0.919940
Si Si2 0.241804 0.394228 0.121483
Si Si3 0.000000 0.500000 0.000000
Si Si4 0.221100 0.120301 0.931664
Si Si5 0.310213 0.753517 0.379542
Si Si6 0.900990 0.988755 0.694893
Si Si7 0.626964 0.938188 0.754887
Si Si8 0.597406 0.221031 0.377994
O O1 0.046456 0.588592 0.884578
O O2 0.975614 0.953666 0.813394
O O3 0.155671 0.939687 0.961969
O O4 0.997859 0.770122 0.005593
O O5 0.127227 0.489397 0.083218
O O6 0.328096 0.571974 0.156816
O O7 0.272634 0.210507 0.206355
O O8 0.258974 0.285919 0.023310
O O9 0.142175 0.263114 0.842690
O O10 0.296251 0.992732 0.888042
O O11 0.369033 0.869868 0.316600
O O12 0.368973 0.815800 0.499666
O O13 0.193268 0.850597 0.325128
O O14 0.619089 0.043368 0.856760
O O15 0.522522 0.818347 0.689913
#
# Coordination Sequence:
#
# PCOD9251565 Si02
#       8
#     4   4   2   4   4   4   4   4
#     4  11  23  40  64  95 141 189 242 294 364 440
#     4  12  25  49  72 103 158 194 243 319 375 445
#     4  12  26  42  68 110 140 196 246 292 370 462
#     4  11  22  44  68  95 143 195 235 307 376 432
#     4  11  25  44  75 107 140 194 248 309 381 447
#     4  11  21  42  65  95 140 188 238 298 363 439
#     4  12  27  48  77 112 145 199 254 313 380 453
#     4  12  25  52  76 107 153 193 248 317 384 443
#
# _framework density 26.251511000000001
#
# number of rings (size 3 to 8) (size 9 to 14) (size 15 to 20)
#    0.000    0.533    6.667    2.000    0.000    2.667 
#    2.400    1.333    0.000    0.000    0.000    0.000 
#    0.000    0.000    0.000    0.000    0.000    0.000 
#
# Total GULP energy -167556.228239 kJ/mol
# GULP energy per Si atom -5585.207608 kJ/mol
# Density = 2.619176 g / cm^3
# Si number density = 26.251511 Si / 1000 Ang^3
#
#
#
# Elastic Constant Matrix: (Units=GPa)
#
#
# Indices 1 2 3 4 5 6 
#
# 1 75.3696 16.3231 31.9975 0.0000 17.4206 0.0000
# 2 16.3231 84.2380 46.9586 0.0000 11.7828 0.0000
# 3 31.9975 46.9586 124.5903 0.0000 14.9041 0.0000
# 4 0.0000 0.0000 0.0000 52.2099 0.0000 1.2360
# 5 17.4206 11.7828 14.9041 0.0000 32.2917 0.0000
# 6 0.0000 0.0000 0.0000 1.2360 0.0000 50.1055
#
#
#
# Elastic Compliance Matrix: (Units=1/GPa)
#
#
# Indices 1 2 3 4 5 6 
#
# 1 0.016377 -0.000380 -0.003199 0.000000 -0.007220 0.000000
# 2 -0.000380 0.015324 -0.005328 0.000000 -0.002927 0.000000
# 3 -0.003199 -0.005328 0.011026 0.000000 -0.001419 0.000000
# 4 0.000000 0.000000 0.000000 0.019165 0.000000 -0.000473
# 5 -0.007220 -0.002927 -0.001419 0.000000 0.036586 0.000000
# 6 0.000000 0.000000 0.000000 -0.000473 0.000000 0.019970
#
#
# Mechanical properties :
#
#
# Convention : Reuss Voigt Hill
#
# Bulk Modulus (GPa) = 40.14006 52.75070 46.44538
# Shear Modulus (GPa) = 34.58628 39.51600 37.05114
#
# Velocity S-wave (km/s) = 3.63367 3.88401 3.76092
# Velocity P-wave (km/s) = 5.73834 6.34445 6.04899
#
# Compressibility (1/GPa) = 0.02491277
#
# Stress axis : x y z
#
# Youngs Moduli (GPa) = 61.06058 65.25556 90.69667
#
# Poissons Ratio (x) = 0.02482 0.29014
# Poissons Ratio (y) = 0.02322 0.48323
# Poissons Ratio (z) = 0.19533 0.34768
#
# Static dielectric constant tensor:
#      x y z
#    x 2.711430 0.000000 -0.678960 
#    y 0.000000 2.288220 0.000000 
#    z -0.678960 0.000000 2.698040 
# 
# From -- ./inp_files/58686.got.cif
#   From: 2010.05.17/outbox.cif.g08.bks.cpg/sg14_30_cif.got.tgz:58686.got - 2010.06.03 17:49:19.
