data_PCOD9251007
_publ_section_title
;
Structure prediction by ZEFSAII (Michael W. Deem and Ramdas Pophale) SiO2 
 PCOD9251007
Probable space group: P 21/C
;
_chemical_formula_sum "Si O2"
_cell_formula_units_Z 28
_cell_length_a 6.729981
_cell_length_b 11.511793
_cell_length_c 14.863274
_cell_angle_alpha 90.000000
_cell_angle_beta 66.233118
_cell_angle_gamma 90.000000
_cell_volume 1053.862315
_symmetry_space_group_name_H-M "P 21/C"
_symmetry_group_IT_number 14
_symmetry_cell_setting 'monoclinic'
loop_
_space_group_symop_operation_xyz
x,y,z
-x,1/2+y,1/2-z
-x,-y,-z
x,1/2-y,1/2+z
loop_
_atom_site_type_symbol
_atom_site_label
_atom_site_fract_x
_atom_site_fract_y
_atom_site_fract_z
Si Si1 0.327441 0.895371 0.525178
Si Si2 0.582844 0.108847 0.773153
Si Si3 0.052525 0.204115 0.477908
Si Si4 0.119719 0.066623 0.902798
Si Si5 0.414877 0.139170 0.272543
Si Si6 0.298972 0.247215 0.109751
Si Si7 0.071538 0.474324 0.219395
O O1 0.149581 0.882716 0.477920
O O2 0.476393 0.782049 0.481773
O O3 0.165590 0.924343 0.638207
O O4 0.500000 0.000000 0.500000
O O5 0.372130 0.095804 0.877747
O O6 0.517162 0.994133 0.726921
O O7 0.830304 0.076061 0.747429
O O8 0.565808 0.245064 0.749590
O O9 0.126949 0.255682 0.559494
O O10 0.996633 0.310054 0.421131
O O11 0.250966 0.150501 0.386352
O O12 0.000000 0.000000 0.000000
O O13 0.326053 0.153159 0.184756
O O14 0.223941 0.361680 0.177825
O O15 0.917140 0.006343 0.179487
#
# Coordination Sequence:
#
# PCOD9251007 Si02
#       7
#     4   4   4   4   4   4   4
#     4  10  25  44  76 113 152 201 268 329 405 472
#     4  11  26  49  80 108 159 208 272 333 410 482
#     4  11  25  47  75 112 154 206 267 331 407 487
#     4  11  28  48  71 113 155 210 265 322 412 497
#     4  11  26  53  74 118 159 215 268 337 411 486
#     4  11  26  45  76 117 155 208 269 333 409 487
#     4  11  24  47  77 108 156 204 266 335 405 479
#
# _framework density 26.568935
#
# number of rings (size 3 to 8) (size 9 to 14) (size 15 to 20)
#    0.000    1.143    4.286    0.000    8.000    6.286 
#    0.000    0.000    0.000    0.000    0.000    0.000 
#    0.000    0.000    0.000    0.000    0.000    0.000 
#
# Total GULP energy -156120.076929 kJ/mol
# GULP energy per Si atom -5575.717033 kJ/mol
# Density = 2.650846 g / cm^3
# Si number density = 26.568935 Si / 1000 Ang^3
#
#
#
# Elastic Constant Matrix: (Units=GPa)
#
#
# Indices 1 2 3 4 5 6 
#
# 1 135.5831 20.0579 74.4146 0.0000 -13.5320 0.0000
# 2 20.0579 126.5943 41.7909 0.0000 -22.9400 0.0000
# 3 74.4146 41.7909 133.3055 0.0000 -4.4325 0.0000
# 4 0.0000 0.0000 0.0000 50.9515 0.0000 6.1085
# 5 -13.5320 -22.9400 -4.4325 0.0000 43.1353 0.0000
# 6 0.0000 0.0000 0.0000 6.1085 0.0000 32.5936
#
#
#
# Elastic Compliance Matrix: (Units=1/GPa)
#
#
# Indices 1 2 3 4 5 6 
#
# 1 0.011057 0.000949 -0.006359 0.000000 0.003320 0.000000
# 2 0.000949 0.009820 -0.003436 0.000000 0.005167 0.000000
# 3 -0.006359 -0.003436 0.012043 0.000000 -0.002585 0.000000
# 4 0.000000 0.000000 0.000000 0.020078 0.000000 -0.003763
# 5 0.003320 0.005167 -0.002585 0.000000 0.026706 0.000000
# 6 0.000000 0.000000 0.000000 -0.003763 0.000000 0.031386
#
#
# Mechanical properties :
#
#
# Convention : Reuss Voigt Hill
#
# Bulk Modulus (GPa) = 65.67769 74.22332 69.95051
# Shear Modulus (GPa) = 37.35301 42.61740 39.98521
#
# Velocity S-wave (km/s) = 3.75359 4.00938 3.88359
# Velocity P-wave (km/s) = 6.59995 7.03067 6.81871
#
# Compressibility (1/GPa) = 0.01522587
#
# Stress axis : x y z
#
# Youngs Moduli (GPa) = 90.44203 101.83756 83.03679
#
# Poissons Ratio (x) = -0.09665 0.52806
# Poissons Ratio (y) = -0.08583 0.28535
# Poissons Ratio (z) = 0.57515 0.34995
#
# Static dielectric constant tensor:
#      x y z
#    x 2.280280 0.000000 -0.008580 
#    y 0.000000 1.578550 0.000000 
#    z -0.008580 0.000000 2.497040 
# 
# From -- ./inp_files/72247.got.cif
#   From: 2010.05.17/outbox.cif.g08.bks.cpg/sg14_37_cif.got.tgz:72247.got - 2010.06.03 17:49:19.
