data_PCOD9251348
_publ_section_title
;
Structure prediction by ZEFSAII (Michael W. Deem and Ramdas Pophale) SiO2 
 PCOD9251348
Probable space group: P 21/C
;
_chemical_formula_sum "Si O2"
_cell_formula_units_Z 24
_cell_length_a 18.531323
_cell_length_b 9.248084
_cell_length_c 16.300237
_cell_angle_alpha 90.000000
_cell_angle_beta 157.623074
_cell_angle_gamma 90.000000
_cell_volume 1063.488316
_symmetry_space_group_name_H-M "P 21/C"
_symmetry_group_IT_number 14
_symmetry_cell_setting 'monoclinic'
loop_
_space_group_symop_operation_xyz
x,y,z
-x,1/2+y,1/2-z
-x,-y,-z
x,1/2-y,1/2+z
loop_
_atom_site_type_symbol
_atom_site_label
_atom_site_fract_x
_atom_site_fract_y
_atom_site_fract_z
Si Si1 0.381848 0.856177 0.014073
Si Si2 0.868024 0.652005 0.421539
Si Si3 0.825546 0.876479 0.229613
Si Si4 0.023489 0.110510 0.349713
Si Si5 0.695339 0.628809 0.981629
Si Si6 0.696914 0.438483 0.136121
O O1 0.193490 0.836481 0.873443
O O2 0.392985 0.719678 0.965582
O O3 0.328130 0.001616 0.908720
O O4 0.548292 0.876108 0.253085
O O5 0.868184 0.762589 0.344635
O O6 0.710783 0.530796 0.234865
O O7 0.077392 0.584159 0.644598
O O8 0.853993 0.741604 0.983849
O O9 0.008142 0.969025 0.391904
O O10 0.739943 0.787639 0.063453
O O11 0.107285 0.073038 0.350097
O O12 0.626923 0.534218 0.986390
#
# Coordination Sequence:
#
# PCOD9251348 Si02
#       6
#     4   4   4   4   4   4
#     4   9  20  34  55  81 109 138 177 222 267 316
#     4   9  17  36  55  77 105 147 178 216 263 323
#     4   9  20  34  57  78 107 144 179 218 268 314
#     4   9  21  32  58  76 107 139 181 216 268 308
#     4  11  20  36  54  84 109 138 178 226 262 317
#     4   9  19  32  59  77 107 144 178 214 273 309
#
# _framework density 22.567243000000001
#
# number of rings (size 3 to 8) (size 9 to 14) (size 15 to 20)
#    1.000    1.667    0.000    1.500    4.667    0.000 
#    0.000    1.667    0.000    6.000    0.000    0.000 
#    0.000    0.000    0.000    0.000    0.000    0.000 
#
# Total GULP energy -133747.395199 kJ/mol
# GULP energy per Si atom -5572.808133 kJ/mol
# Density = 2.251588 g / cm^3
# Si number density = 22.567243 Si / 1000 Ang^3
#
#
#
# Elastic Constant Matrix: (Units=GPa)
#
#
# Indices 1 2 3 4 5 6 
#
# 1 47.7102 7.6493 -8.6401 0.0000 6.1847 0.0000
# 2 7.6493 102.4122 20.7905 0.0000 -7.7949 0.0000
# 3 -8.6401 20.7905 60.3335 0.0000 0.5905 0.0000
# 4 0.0000 0.0000 0.0000 27.3406 0.0000 -19.2896
# 5 6.1847 -7.7949 0.5905 0.0000 16.4651 0.0000
# 6 0.0000 0.0000 0.0000 -19.2896 0.0000 15.3054
#
#
#
# Elastic Compliance Matrix: (Units=1/GPa)
#
#
# Indices 1 2 3 4 5 6 
#
# 1 0.023788 -0.003560 0.004739 0.000000 -0.010791 0.000000
# 2 -0.003560 0.011478 -0.004533 0.000000 0.006934 0.000000
# 3 0.004739 -0.004533 0.018860 0.000000 -0.004602 0.000000
# 4 0.000000 0.000000 0.000000 0.330085 0.000000 0.416013
# 5 -0.010791 0.006934 -0.004602 0.000000 0.068235 0.000000
# 6 0.000000 0.000000 0.000000 0.416013 0.000000 0.589646
#
#
# Mechanical properties :
#
#
# Convention : Reuss Voigt Hill
#
# Bulk Modulus (GPa) = 21.08908 27.78392 24.43650
# Shear Modulus (GPa) = 4.69657 24.53263 14.61460
#
# Velocity S-wave (km/s) = 1.44418 3.30068 2.54756
# Velocity P-wave (km/s) = 3.48513 5.18308 4.41648
#
# Compressibility (1/GPa) = 0.04741790
#
# Stress axis : x y z
#
# Youngs Moduli (GPa) = 42.03860 87.12034 53.02142
#
# Poissons Ratio (x) = 0.31015 -0.25126
# Poissons Ratio (y) = 0.14966 0.24035
# Poissons Ratio (z) = -0.19922 0.39492
#
# Static dielectric constant tensor:
#      x y z
#    x 1.827680 0.000000 0.017350 
#    y 0.000000 1.880430 0.000000 
#    z 0.017350 0.000000 1.848780 
# 
# From -- ./inp_files/61883.got.cif
#   From: 2010.05.17/outbox.cif.g08.bks.cpg/sg14_31_cif.got.tgz:61883.got - 2010.06.03 17:49:19.
