data_PCOD9251141
_publ_section_title
;
Structure prediction by ZEFSAII (Michael W. Deem and Ramdas Pophale) SiO2 
 PCOD9251141
Probable space group: P 21/C
;
_chemical_formula_sum "Si O2"
_cell_formula_units_Z 20
_cell_length_a 20.195584
_cell_length_b 7.228141
_cell_length_c 11.355689
_cell_angle_alpha 90.000000
_cell_angle_beta 27.020393
_cell_angle_gamma 90.000000
_cell_volume 753.089386
_symmetry_space_group_name_H-M "P 21/C"
_symmetry_group_IT_number 14
_symmetry_cell_setting 'monoclinic'
loop_
_space_group_symop_operation_xyz
x,y,z
-x,1/2+y,1/2-z
-x,-y,-z
x,1/2-y,1/2+z
loop_
_atom_site_type_symbol
_atom_site_label
_atom_site_fract_x
_atom_site_fract_y
_atom_site_fract_z
Si Si1 0.916505 0.102848 0.237587
Si Si2 0.416918 0.015351 0.488636
Si Si3 0.835163 0.765734 0.980306
Si Si4 0.256815 0.542434 0.558796
Si Si5 0.445250 0.581225 0.464380
O O1 0.831370 0.944900 0.444352
O O2 0.025695 0.196752 0.158433
O O3 0.821206 0.263421 0.331318
O O4 0.000000 0.000000 0.000000
O O5 0.584417 0.062075 0.254781
O O6 0.422618 0.056781 0.339303
O O7 0.402538 0.796873 0.532001
O O8 0.300176 0.141659 0.736969
O O9 0.837530 0.887797 0.856217
O O10 0.309235 0.492972 0.607352
O O11 0.500000 0.500000 0.500000
#
# Coordination Sequence:
#
# PCOD9251141 Si02
#       5
#     4   4   4   4   4
#     4  12  28  56  84 124 177 238 289 351 442 531
#     4  10  26  50  84 138 166 225 293 362 451 504
#     4  12  26  55  84 121 180 224 296 363 425 526
#     4  10  26  52  83 131 163 231 290 348 447 520
#     4  10  25  52  85 132 178 219 282 372 439 525
#
# _framework density 26.557272999999999
#
# number of rings (size 3 to 8) (size 9 to 14) (size 15 to 20)
#    1.200    0.000    2.000    1.800    2.800    4.800 
#   10.800    0.000    0.000    0.000    0.000    0.000 
#    0.000    0.000    0.000    0.000    0.000    0.000 
#
# Total GULP energy -112169.856438 kJ/mol
# GULP energy per Si atom -5608.492822 kJ/mol
# Density = 2.649683 g / cm^3
# Si number density = 26.557273 Si / 1000 Ang^3
#
#
#
# Elastic Constant Matrix: (Units=GPa)
#
#
# Indices 1 2 3 4 5 6 
#
# 1 241.4633 67.8292 50.2894 0.0000 -8.1742 0.0000
# 2 67.8292 153.0819 40.0847 0.0000 -7.5818 0.0000
# 3 50.2894 40.0847 65.8735 0.0000 -2.7855 0.0000
# 4 0.0000 0.0000 0.0000 25.6458 0.0000 -1.0976
# 5 -8.1742 -7.5818 -2.7855 0.0000 54.6485 0.0000
# 6 0.0000 0.0000 0.0000 -1.0976 0.0000 52.1679
#
#
#
# Elastic Compliance Matrix: (Units=1/GPa)
#
#
# Indices 1 2 3 4 5 6 
#
# 1 0.005210 -0.001488 -0.003054 0.000000 0.000417 0.000000
# 2 -0.001488 0.008234 -0.003844 0.000000 0.000724 0.000000
# 3 -0.003054 -0.003844 0.019852 0.000000 0.000022 0.000000
# 4 0.000000 0.000000 0.000000 0.039028 0.000000 0.000821
# 5 0.000417 0.000724 0.000022 0.000000 0.018463 0.000000
# 6 0.000000 0.000000 0.000000 0.000821 0.000000 0.019186
#
#
# Mechanical properties :
#
#
# Convention : Reuss Voigt Hill
#
# Bulk Modulus (GPa) = 60.51842 86.31390 73.41616
# Shear Modulus (GPa) = 37.80643 46.64013 42.22328
#
# Velocity S-wave (km/s) = 3.77713 4.19526 3.99167
# Velocity P-wave (km/s) = 6.46990 7.48589 6.99636
#
# Compressibility (1/GPa) = 0.01652390
#
# Stress axis : x y z
#
# Youngs Moduli (GPa) = 191.95410 121.44517 50.37228
#
# Poissons Ratio (x) = 0.18070 0.15384
# Poissons Ratio (y) = 0.28562 0.19363
# Poissons Ratio (z) = 0.58624 0.46684
#
# Static dielectric constant tensor:
#      x y z
#    x 2.154950 0.000000 0.071420 
#    y 0.000000 2.049820 0.000000 
#    z 0.071420 0.000000 2.139120 
# 
# From -- ./inp_files/50875.got.cif
#   From: 2010.05.17/outbox.cif.g08.bks.cpg/sg14_26_cif.got.tgz:50875.got - 2010.06.03 17:49:19.
