data_PCOD9251443
_publ_section_title
;
Structure prediction by ZEFSAII (Michael W. Deem and Ramdas Pophale) SiO2 
 PCOD9251443
Probable space group: P 21/C
;
_chemical_formula_sum "Si O2"
_cell_formula_units_Z 20
_cell_length_a 7.766063
_cell_length_b 14.265201
_cell_length_c 7.458601
_cell_angle_alpha 90.000000
_cell_angle_beta 62.086013
_cell_angle_gamma 90.000000
_cell_volume 730.158485
_symmetry_space_group_name_H-M "P 21/C"
_symmetry_group_IT_number 14
_symmetry_cell_setting 'monoclinic'
loop_
_space_group_symop_operation_xyz
x,y,z
-x,1/2+y,1/2-z
-x,-y,-z
x,1/2-y,1/2+z
loop_
_atom_site_type_symbol
_atom_site_label
_atom_site_fract_x
_atom_site_fract_y
_atom_site_fract_z
Si Si1 0.748851 0.430275 0.007040
Si Si2 0.014878 0.387477 0.173582
Si Si3 0.609374 0.436126 0.704325
Si Si4 0.690139 0.698519 0.250054
Si Si5 0.819044 0.875455 0.047564
O O1 0.919605 0.503723 0.866378
O O2 0.572676 0.496598 0.154631
O O3 0.687518 0.387255 0.847163
O O4 0.828945 0.374242 0.137881
O O5 0.191400 0.336690 0.982304
O O6 0.011487 0.361835 0.385772
O O7 0.510050 0.358208 0.629703
O O8 0.755579 0.516633 0.565163
O O9 0.658853 0.808020 0.224528
O O10 0.828866 0.666643 0.345510
#
# Coordination Sequence:
#
# PCOD9251443 Si02
#       5
#     4   4   4   4   4
#     4   8  16  34  62  80 109 146 186 235 285 334
#     4   9  18  36  56  81 109 147 188 233 283 340
#     4   9  19  36  60  89 113 150 193 237 290 343
#     4  11  21  36  59  83 116 155 196 238 291 343
#     4  11  21  36  59  83 116 155 196 238 291 343
#
# _framework density 27.391313
#
# number of rings (size 3 to 8) (size 9 to 14) (size 15 to 20)
#    0.000    2.400    2.000    1.800    0.000    0.000 
#    0.000   20.000    0.000    0.000    0.000    0.000 
#    0.000    0.000    0.000    0.000    0.000    0.000 
#
# Total GULP energy -111709.369525 kJ/mol
# GULP energy per Si atom -5585.468476 kJ/mol
# Density = 2.732897 g / cm^3
# Si number density = 27.391313 Si / 1000 Ang^3
#
#
#
# Elastic Constant Matrix: (Units=GPa)
#
#
# Indices 1 2 3 4 5 6 
#
# 1 89.7825 25.9334 36.4341 0.0000 22.6255 0.0000
# 2 25.9334 116.8502 29.1728 0.0000 7.6106 0.0000
# 3 36.4341 29.1728 117.9063 0.0000 12.1765 0.0000
# 4 0.0000 0.0000 0.0000 30.3109 0.0000 4.2408
# 5 22.6255 7.6106 12.1765 0.0000 44.5402 0.0000
# 6 0.0000 0.0000 0.0000 4.2408 0.0000 18.3100
#
#
#
# Elastic Compliance Matrix: (Units=1/GPa)
#
#
# Indices 1 2 3 4 5 6 
#
# 1 0.014649 -0.002002 -0.003394 0.000000 -0.006171 0.000000
# 2 -0.002002 0.009436 -0.001703 0.000000 -0.000130 0.000000
# 3 -0.003394 -0.001703 0.010026 0.000000 -0.000726 0.000000
# 4 0.000000 0.000000 0.000000 0.034096 0.000000 -0.007897
# 5 -0.006171 -0.000130 -0.000726 0.000000 0.025807 0.000000
# 6 0.000000 0.000000 0.000000 -0.007897 0.000000 0.056444
#
#
# Mechanical properties :
#
#
# Convention : Reuss Voigt Hill
#
# Bulk Modulus (GPa) = 50.21587 56.40219 53.30903
# Shear Modulus (GPa) = 29.18967 34.16545 31.67756
#
# Velocity S-wave (km/s) = 3.26798 3.53556 3.40440
# Velocity P-wave (km/s) = 5.71070 6.10761 5.91249
#
# Compressibility (1/GPa) = 0.01991402
#
# Stress axis : x y z
#
# Youngs Moduli (GPa) = 68.26527 105.97954 99.73743
#
# Poissons Ratio (x) = 0.21215 0.33851
# Poissons Ratio (y) = 0.13665 0.16982
# Poissons Ratio (z) = 0.23169 0.18045
#
# Static dielectric constant tensor:
#      x y z
#    x 2.237570 0.000000 -0.009870 
#    y 0.000000 2.163840 0.000000 
#    z -0.009870 0.000000 2.145620 
# 
# From -- ./inp_files/8318.got.cif
#   From: 2010.05.17/outbox.cif.g08.bks.cpg/sg14_5_cif.got.tgz:8318.got - 2010.06.03 17:49:19.
