data_PCOD9251198
_publ_section_title
;
Structure prediction by ZEFSAII (Michael W. Deem and Ramdas Pophale) SiO2 
 PCOD9251198
Probable space group: P 21/C
;
_chemical_formula_sum "Si O2"
_cell_formula_units_Z 20
_cell_length_a 4.938858
_cell_length_b 26.163418
_cell_length_c 5.700708
_cell_angle_alpha 90.000000
_cell_angle_beta 97.189363
_cell_angle_gamma 90.000000
_cell_volume 730.839276
_symmetry_space_group_name_H-M "P 21/C"
_symmetry_group_IT_number 14
_symmetry_cell_setting 'monoclinic'
loop_
_space_group_symop_operation_xyz
x,y,z
-x,1/2+y,1/2-z
-x,-y,-z
x,1/2-y,1/2+z
loop_
_atom_site_type_symbol
_atom_site_label
_atom_site_fract_x
_atom_site_fract_y
_atom_site_fract_z
Si Si1 0.098164 0.173094 0.931753
Si Si2 0.549699 0.971689 0.253803
Si Si3 0.535901 0.262416 0.968559
Si Si4 0.909329 0.090205 0.614171
Si Si5 0.384957 0.860928 0.790685
O O1 0.261208 0.226990 0.952969
O O2 0.016093 0.147527 0.677643
O O3 0.329998 0.133135 0.048544
O O4 0.840789 0.167304 0.074927
O O5 0.851261 0.949427 0.319533
O O6 0.329383 0.925662 0.235678
O O7 0.500000 0.000000 0.500000
O O8 0.500000 0.000000 0.000000
O O9 0.666218 0.241293 0.740187
O O10 0.514580 0.321746 0.904144
O O11 0.769087 0.092365 0.345075
#
# Coordination Sequence:
#
# PCOD9251198 Si02
#       5
#     4   4   4   4   4
#     4  11  27  48  76 113 157 213 266 324 381 466
#     4  12  30  54  84 120 156 200 258 338 410 484
#     4  10  26  46  70 108 158 206 266 316 372 440
#     4  12  28  50  86 112 160 206 264 320 408 472
#     4  11  27  48  76 113 157 213 266 324 381 466
#
# _framework density 27.365794000000001
#
# number of rings (size 3 to 8) (size 9 to 14) (size 15 to 20)
#    0.000    0.800    0.000    3.600   22.400    6.400 
#    3.600    0.000    0.000    0.000    0.000    0.000 
#    0.000    0.000    0.000    0.000    0.000    0.000 
#
# Total GULP energy -111862.067545 kJ/mol
# GULP energy per Si atom -5593.103377 kJ/mol
# Density = 2.730351 g / cm^3
# Si number density = 27.365794 Si / 1000 Ang^3
#
#
#
# Elastic Constant Matrix: (Units=GPa)
#
#
# Indices 1 2 3 4 5 6 
#
# 1 127.0982 22.4659 40.3333 0.0000 -0.8022 0.0000
# 2 22.4659 71.1140 43.6719 0.0000 1.1289 0.0000
# 3 40.3333 43.6719 171.7595 0.0000 -0.6341 0.0000
# 4 0.0000 0.0000 0.0000 69.2492 0.0000 4.3182
# 5 -0.8022 1.1289 -0.6341 0.0000 50.6855 0.0000
# 6 0.0000 0.0000 0.0000 4.3182 0.0000 62.0462
#
#
#
# Elastic Compliance Matrix: (Units=1/GPa)
#
#
# Indices 1 2 3 4 5 6 
#
# 1 0.008686 -0.001771 -0.001589 0.000000 0.000157 0.000000
# 2 -0.001771 0.017034 -0.003917 0.000000 -0.000456 0.000000
# 3 -0.001589 -0.003917 0.007192 0.000000 0.000152 0.000000
# 4 0.000000 0.000000 0.000000 0.014504 0.000000 -0.001009
# 5 0.000157 -0.000456 0.000152 0.000000 0.019744 0.000000
# 6 0.000000 0.000000 0.000000 -0.001009 0.000000 0.016187
#
#
# Mechanical properties :
#
#
# Convention : Reuss Voigt Hill
#
# Bulk Modulus (GPa) = 54.47047 64.76819 59.61933
# Shear Modulus (GPa) = 48.06785 53.96289 51.01537
#
# Velocity S-wave (km/s) = 4.19560 4.44544 4.32232
# Velocity P-wave (km/s) = 6.58928 7.07589 6.83691
#
# Compressibility (1/GPa) = 0.01835857
#
# Stress axis : x y z
#
# Youngs Moduli (GPa) = 115.12580 58.70593 139.04925
#
# Poissons Ratio (x) = 0.10396 0.22093
# Poissons Ratio (y) = 0.20387 0.54465
# Poissons Ratio (z) = 0.18292 0.22995
#
# Static dielectric constant tensor:
#      x y z
#    x 2.059210 0.000000 0.023410 
#    y 0.000000 2.315920 0.000000 
#    z 0.023410 0.000000 2.157960 
# 
# From -- ./inp_files/698.got.cif
#   From: 2010.05.17/outbox.cif.g08.bks.cpg/sg14_1_cif.got.tgz:698.got - 2010.06.03 17:49:19.
