data_PCOD9251456
_publ_section_title
;
Structure prediction by ZEFSAII (Michael W. Deem and Ramdas Pophale) SiO2 
 PCOD9251456
Probable space group: P 21/C
;
_chemical_formula_sum "Si O2"
_cell_formula_units_Z 20
_cell_length_a 8.719383
_cell_length_b 6.621033
_cell_length_c 14.363191
_cell_angle_alpha 90.000000
_cell_angle_beta 108.687170
_cell_angle_gamma 90.000000
_cell_volume 785.491970
_symmetry_space_group_name_H-M "P 21/C"
_symmetry_group_IT_number 14
_symmetry_cell_setting 'monoclinic'
loop_
_space_group_symop_operation_xyz
x,y,z
-x,1/2+y,1/2-z
-x,-y,-z
x,1/2-y,1/2+z
loop_
_atom_site_type_symbol
_atom_site_label
_atom_site_fract_x
_atom_site_fract_y
_atom_site_fract_z
Si Si1 0.908957 0.702615 0.846170
Si Si2 0.332292 0.520788 0.763602
Si Si3 0.568178 0.737614 0.555643
Si Si4 0.346559 0.005688 0.603182
Si Si5 0.794584 0.090564 0.167457
O O1 0.778156 0.886009 0.823625
O O2 0.836722 0.548522 0.907277
O O3 0.892514 0.576602 0.746333
O O4 0.083607 0.801561 0.880149
O O5 0.526500 0.531763 0.785333
O O6 0.263489 0.739159 0.771690
O O7 0.327393 0.394838 0.859822
O O8 0.393791 0.791840 0.566315
O O9 0.355294 0.478800 0.410962
O O10 0.592815 0.826149 0.458491
#
# Coordination Sequence:
#
# PCOD9251456 Si02
#       5
#     4   4   4   4   4
#     4  11  22  37  59  92 121 162 205 256 307 367
#     4   9  20  37  60  84 121 158 201 256 308 360
#     4   8  20  41  59  84 124 157 206 261 306 362
#     4   9  20  40  60  86 123 154 211 260 303 361
#     4  11  21  37  61  83 127 164 202 251 314 365
#
# _framework density 25.461749000000001
#
# number of rings (size 3 to 8) (size 9 to 14) (size 15 to 20)
#    1.200    1.200    2.000    0.000    2.800    1.600 
#    0.000    1.000    0.000    0.000    0.000    0.000 
#    0.000    0.000    0.000    0.000    0.000    0.000 
#
# Total GULP energy -111679.785083 kJ/mol
# GULP energy per Si atom -5583.989254 kJ/mol
# Density = 2.540380 g / cm^3
# Si number density = 25.461749 Si / 1000 Ang^3
#
#
#
# Elastic Constant Matrix: (Units=GPa)
#
#
# Indices 1 2 3 4 5 6 
#
# 1 168.4874 66.3418 32.4543 0.0000 -3.5712 0.0000
# 2 66.3418 142.6074 20.8507 0.0000 8.3772 0.0000
# 3 32.4543 20.8507 38.3017 0.0000 6.8939 0.0000
# 4 0.0000 0.0000 0.0000 29.2455 0.0000 4.9558
# 5 -3.5712 8.3772 6.8939 0.0000 27.7710 0.0000
# 6 0.0000 0.0000 0.0000 4.9558 0.0000 56.6621
#
#
#
# Elastic Compliance Matrix: (Units=1/GPa)
#
#
# Indices 1 2 3 4 5 6 
#
# 1 0.008457 -0.003262 -0.006033 0.000000 0.003569 0.000000
# 2 -0.003262 0.008924 -0.001606 0.000000 -0.002713 0.000000
# 3 -0.006033 -0.001606 0.033650 0.000000 -0.008645 0.000000
# 4 0.000000 0.000000 0.000000 0.034708 0.000000 -0.003036
# 5 0.003569 -0.002713 -0.008645 0.000000 0.039432 0.000000
# 6 0.000000 0.000000 0.000000 -0.003036 0.000000 0.017914
#
#
# Mechanical properties :
#
#
# Convention : Reuss Voigt Hill
#
# Bulk Modulus (GPa) = 34.21081 65.41002 49.81041
# Shear Modulus (GPa) = 28.63203 38.05238 33.34220
#
# Velocity S-wave (km/s) = 3.35701 3.87006 3.62263
# Velocity P-wave (km/s) = 5.33773 6.76129 6.09124
#
# Compressibility (1/GPa) = 0.02923053
#
# Stress axis : x y z
#
# Youngs Moduli (GPa) = 118.24172 112.05886 29.71741
#
# Poissons Ratio (x) = 0.36553 0.17928
# Poissons Ratio (y) = 0.38570 0.04772
# Poissons Ratio (z) = 0.71332 0.17994
#
# Static dielectric constant tensor:
#      x y z
#    x 2.022800 0.000000 -0.001770 
#    y 0.000000 2.009840 0.000000 
#    z -0.001770 0.000000 2.019170 
# 
# From -- ./inp_files/54320.got.cif
#   From: 2010.05.17/outbox.cif.g08.bks.cpg/sg14_28_cif.got.tgz:54320.got - 2010.06.03 17:49:19.
