data_PCOD9251933
_publ_section_title
;
Structure prediction by ZEFSAII (Michael W. Deem and Ramdas Pophale) SiO2 
 PCOD9251933
Probable space group: P 21/C
;
_chemical_formula_sum "Si O2"
_cell_formula_units_Z 32
_cell_length_a 25.006314
_cell_length_b 9.310868
_cell_length_c 7.807779
_cell_angle_alpha 90.000000
_cell_angle_beta 62.073180
_cell_angle_gamma 90.000000
_cell_volume 1606.189458
_symmetry_space_group_name_H-M "P 21/C"
_symmetry_group_IT_number 14
_symmetry_cell_setting 'monoclinic'
loop_
_space_group_symop_operation_xyz
x,y,z
-x,1/2+y,1/2-z
-x,-y,-z
x,1/2-y,1/2+z
loop_
_atom_site_type_symbol
_atom_site_label
_atom_site_fract_x
_atom_site_fract_y
_atom_site_fract_z
Si Si1 0.809851 0.580637 0.579306
Si Si2 0.321837 0.081403 0.310208
Si Si3 0.678163 0.581406 0.775724
Si Si4 0.940974 0.918179 0.881852
Si Si5 0.439154 0.916268 0.544121
Si Si6 0.560846 0.083732 0.861584
Si Si7 0.809852 0.919364 0.491144
Si Si8 0.059025 0.081825 0.704779
O O1 0.744355 0.527840 0.613929
O O2 0.875132 0.525697 0.417859
O O3 0.809953 0.750000 0.535073
O O4 0.809915 0.565455 0.785130
O O5 0.321003 0.071636 0.518493
O O6 0.328490 0.249998 0.257260
O O7 0.255644 0.027838 0.346991
O O8 0.378917 0.992669 0.156231
O O9 0.621083 0.492672 0.792986
O O10 0.945312 0.750003 0.832027
O O11 0.940665 0.930970 0.089002
O O12 0.999999 0.000004 0.726814
O O13 0.442999 0.750000 0.585500
O O14 0.433955 0.924701 0.349066
O O15 0.500000 0.000000 0.500000
O O16 0.500000 0.000000 0.000000
O O17 0.875134 0.974301 0.456743
#
# Coordination Sequence:
#
# PCOD9251933 Si02
#       8
#     4   4   4   4   4   4   4   4
#     4   8  14  27  46  67  92 122 157 195 235 281
#     4   9  18  32  52  75  97 124 159 199 241 286
#     4   9  18  32  52  75  97 124 159 199 241 286
#     4   9  17  29  46  68  94 125 160 198 239 283
#     4  11  23  38  55  76 102 132 165 201 243 290
#     4  11  23  38  55  76 102 132 165 201 243 290
#     4   8  14  27  46  67  92 122 157 195 235 281
#     4   9  17  29  46  68  94 125 160 198 239 283
#
# _framework density 19.922927999999999
#
# number of rings (size 3 to 8) (size 9 to 14) (size 15 to 20)
#    0.000    2.750    0.000    1.500    0.000    4.500 
#    0.000    1.250    0.000    0.000    0.000    0.000 
#    0.000    0.000    0.000    0.000    0.000    0.000 
#
# Total GULP energy -178281.492666 kJ/mol
# GULP energy per Si atom -5571.296646 kJ/mol
# Density = 1.987758 g / cm^3
# Si number density = 19.922928 Si / 1000 Ang^3
#
#
#
# Elastic Constant Matrix: (Units=GPa)
#
#
# Indices 1 2 3 4 5 6 
#
# 1 166.7349 68.9253 58.8930 0.0000 -77.6203 0.0000
# 2 68.9253 76.7956 26.3572 0.0000 -43.0942 0.0000
# 3 58.8930 26.3572 56.0923 0.0000 -34.3930 0.0000
# 4 0.0000 0.0000 0.0000 24.2584 0.0000 -4.9345
# 5 -77.6203 -43.0942 -34.3930 0.0000 59.3461 0.0000
# 6 0.0000 0.0000 0.0000 -4.9345 0.0000 29.1329
#
#
#
# Elastic Compliance Matrix: (Units=1/GPa)
#
#
# Indices 1 2 3 4 5 6 
#
# 1 0.017643 -0.004670 -0.006608 0.000000 0.015855 0.000000
# 2 -0.004670 0.023238 0.000908 0.000000 0.011293 0.000000
# 3 -0.006608 0.000908 0.030162 0.000000 0.009496 0.000000
# 4 0.000000 0.000000 0.000000 0.042694 0.000000 0.007231
# 5 0.015855 0.011293 0.009496 0.000000 0.051292 0.000000
# 6 0.000000 0.000000 0.000000 0.007231 0.000000 0.035550
#
#
# Mechanical properties :
#
#
# Convention : Reuss Voigt Hill
#
# Bulk Modulus (GPa) = 19.87958 67.55265 43.71612
# Shear Modulus (GPa) = 21.00075 32.24398 26.62236
#
# Velocity S-wave (km/s) = 3.25021 4.02734 3.65946
# Velocity P-wave (km/s) = 4.90765 7.45698 6.31236
#
# Compressibility (1/GPa) = 0.05030287
#
# Stress axis : x y z
#
# Youngs Moduli (GPa) = 56.67902 43.03253 33.15460
#
# Poissons Ratio (x) = 0.20095 0.21909
# Poissons Ratio (y) = 0.26467 -0.03009
# Poissons Ratio (z) = 0.37454 -0.03906
#
# Static dielectric constant tensor:
#      x y z
#    x 1.794800 0.000000 -0.029820 
#    y 0.000000 1.633810 0.000000 
#    z -0.029820 0.000000 1.765340 
# 
# From -- ./inp_files/19369.got.cif
#   From: 2010.05.17/outbox.cif.g08.bks.cpg/sg14_10_cif.got.tgz:19369.got - 2010.06.03 17:49:19.
