data_PCOD9251361
_publ_section_title
;
Structure prediction by ZEFSAII (Michael W. Deem and Ramdas Pophale) SiO2 
 PCOD9251361
Probable space group: P 21/C
;
_chemical_formula_sum "Si O2"
_cell_formula_units_Z 28
_cell_length_a 12.049748
_cell_length_b 15.294032
_cell_length_c 8.511709
_cell_angle_alpha 90.000000
_cell_angle_beta 57.294728
_cell_angle_gamma 90.000000
_cell_volume 1319.929557
_symmetry_space_group_name_H-M "P 21/C"
_symmetry_group_IT_number 14
_symmetry_cell_setting 'monoclinic'
loop_
_space_group_symop_operation_xyz
x,y,z
-x,1/2+y,1/2-z
-x,-y,-z
x,1/2-y,1/2+z
loop_
_atom_site_type_symbol
_atom_site_label
_atom_site_fract_x
_atom_site_fract_y
_atom_site_fract_z
Si Si1 0.317778 0.482163 0.577578
Si Si2 0.044580 0.121394 0.301547
Si Si3 0.104861 0.200963 0.593292
Si Si4 0.906368 0.520041 0.720633
Si Si5 0.478904 0.633027 0.435019
Si Si6 0.409890 0.285636 0.946555
Si Si7 0.382433 0.050353 0.673422
O O1 0.176124 0.438281 0.688059
O O2 0.339953 0.586034 0.572538
O O3 0.406064 0.440421 0.646861
O O4 0.380350 0.458559 0.361102
O O5 0.054261 0.165642 0.465033
O O6 0.045486 0.205021 0.184934
O O7 0.934307 0.051287 0.335700
O O8 0.075225 0.119854 0.733315
O O9 0.263951 0.218206 0.479915
O O10 0.756355 0.513279 0.780385
O O11 0.000000 0.500000 0.500000
O O12 0.528304 0.699014 0.529443
O O13 0.489955 0.676314 0.257624
O O14 0.392270 0.350583 0.106885
O O15 0.500000 0.000000 0.500000
#
# Coordination Sequence:
#
# PCOD9251361 Si02
#       7
#     4   4   4   4   4   4   4
#     4  11  22  38  63  96 135 172 226 284 346 391
#     4  12  23  43  68 102 136 180 229 292 341 410
#     4  11  23  40  68 101 133 179 230 282 339 412
#     4  11  24  41  70 102 135 176 233 284 342 410
#     4  11  22  35  60  96 128 175 223 287 330 399
#     4  11  20  37  60  93 128 174 234 272 331 408
#     4  11  23  42  68  94 134 177 225 278 341 409
#
# _framework density 21.213253999999999
#
# number of rings (size 3 to 8) (size 9 to 14) (size 15 to 20)
#    0.000    0.857    5.714    2.143    2.000    0.000 
#    0.000    1.429    0.000    0.000    0.000    0.000 
#    0.000    0.000    0.000    0.000    0.000    0.000 
#
# Total GULP energy -156453.743518 kJ/mol
# GULP energy per Si atom -5587.633697 kJ/mol
# Density = 2.116497 g / cm^3
# Si number density = 21.213254 Si / 1000 Ang^3
#
#
#
# Elastic Constant Matrix: (Units=GPa)
#
#
# Indices 1 2 3 4 5 6 
#
# 1 90.5670 59.4373 35.6252 0.0000 8.4031 0.0000
# 2 59.4373 138.1036 33.8633 0.0000 -1.3319 0.0000
# 3 35.6252 33.8633 63.1088 0.0000 3.4983 0.0000
# 4 0.0000 0.0000 0.0000 34.8270 0.0000 5.1517
# 5 8.4031 -1.3319 3.4983 0.0000 29.5263 0.0000
# 6 0.0000 0.0000 0.0000 5.1517 0.0000 43.7804
#
#
#
# Elastic Compliance Matrix: (Units=1/GPa)
#
#
# Indices 1 2 3 4 5 6 
#
# 1 0.018191 -0.006241 -0.006661 0.000000 -0.004669 0.000000
# 2 -0.006241 0.010503 -0.002253 0.000000 0.002517 0.000000
# 3 -0.006661 -0.002253 0.020852 0.000000 -0.000676 0.000000
# 4 0.000000 0.000000 0.000000 0.029222 0.000000 -0.003439
# 5 -0.004669 0.002517 -0.000676 0.000000 0.035391 0.000000
# 6 0.000000 0.000000 0.000000 -0.003439 0.000000 0.023246
#
#
# Mechanical properties :
#
#
# Convention : Reuss Voigt Hill
#
# Bulk Modulus (GPa) = 51.98249 61.07011 56.52630
# Shear Modulus (GPa) = 28.71483 32.48366 30.59924
#
# Velocity S-wave (km/s) = 3.68316 3.91742 3.80209
# Velocity P-wave (km/s) = 6.53035 7.02230 6.78079
#
# Compressibility (1/GPa) = 0.01923725
#
# Stress axis : x y z
#
# Youngs Moduli (GPa) = 54.97347 95.20726 47.95660
#
# Poissons Ratio (x) = 0.59415 0.31945
# Poissons Ratio (y) = 0.34307 0.10803
# Poissons Ratio (z) = 0.36619 0.21447
#
# Static dielectric constant tensor:
#      x y z
#    x 1.770620 0.000000 0.023810 
#    y 0.000000 1.873020 0.000000 
#    z 0.023810 0.000000 1.804620 
# 
# From -- ./inp_files/13246.got.cif
#   From: 2010.05.17/outbox.cif.g08.bks.cpg/sg14_7_cif.got.tgz:13246.got - 2010.06.03 17:49:19.
