data_PCOD9251617
_publ_section_title
;
Structure prediction by ZEFSAII (Michael W. Deem and Ramdas Pophale) SiO2 
 PCOD9251617
Probable space group: P 21/C
;
_chemical_formula_sum "Si O2"
_cell_formula_units_Z 24
_cell_length_a 13.001515
_cell_length_b 7.847130
_cell_length_c 13.896272
_cell_angle_alpha 90.000000
_cell_angle_beta 40.701298
_cell_angle_gamma 90.000000
_cell_volume 924.544226
_symmetry_space_group_name_H-M "P 21/C"
_symmetry_group_IT_number 14
_symmetry_cell_setting 'monoclinic'
loop_
_space_group_symop_operation_xyz
x,y,z
-x,1/2+y,1/2-z
-x,-y,-z
x,1/2-y,1/2+z
loop_
_atom_site_type_symbol
_atom_site_label
_atom_site_fract_x
_atom_site_fract_y
_atom_site_fract_z
Si Si1 0.921365 0.721785 0.448049
Si Si2 0.934254 0.944346 0.752491
Si Si3 0.416934 0.553136 0.196022
Si Si4 0.862415 0.246665 0.531945
Si Si5 0.643159 0.942075 0.703088
Si Si6 0.608954 0.769619 0.914374
O O1 0.997330 0.700827 0.497611
O O2 0.940899 0.564816 0.362585
O O3 0.742298 0.782643 0.590242
O O4 0.017018 0.877295 0.329052
O O5 0.766117 0.862504 0.841156
O O6 0.068289 0.817594 0.616532
O O7 0.274729 0.618202 0.361382
O O8 0.545107 0.488172 0.182313
O O9 0.361349 0.413267 0.158645
O O10 0.491394 0.711845 0.082633
O O11 0.778576 0.075769 0.633958
O O12 0.551183 0.884405 0.864464
#
# Coordination Sequence:
#
# PCOD9251617 Si02
#       6
#     4   4   4   4   4   4
#     4  11  23  41  70  95 127 169 221 265 320 379
#     4  11  23  43  68  93 128 171 213 269 319 379
#     4  11  26  39  66  97 132 169 211 265 321 389
#     4  11  24  43  65  98 126 166 221 269 313 381
#     4  11  21  45  66  90 130 175 212 260 327 379
#     4  11  23  44  64  92 132 171 207 264 327 376
#
# _framework density 25.958735000000001
#
# number of rings (size 3 to 8) (size 9 to 14) (size 15 to 20)
#    0.000    1.000    5.000    2.000    2.333    5.333 
#    3.000    0.000    0.000    0.000    0.000    0.000 
#    0.000    0.000    0.000    0.000    0.000    0.000 
#
# Total GULP energy -134416.030773 kJ/mol
# GULP energy per Si atom -5600.667949 kJ/mol
# Density = 2.589965 g / cm^3
# Si number density = 25.958735 Si / 1000 Ang^3
#
#
#
# Elastic Constant Matrix: (Units=GPa)
#
#
# Indices 1 2 3 4 5 6 
#
# 1 65.0656 -13.7729 33.9958 0.0000 11.7398 0.0000
# 2 -13.7729 82.4562 19.1468 0.0000 -4.7467 0.0000
# 3 33.9958 19.1468 149.1557 0.0000 11.3655 0.0000
# 4 0.0000 0.0000 0.0000 53.2132 0.0000 8.4355
# 5 11.7398 -4.7467 11.3655 0.0000 35.1515 0.0000
# 6 0.0000 0.0000 0.0000 8.4355 0.0000 23.3923
#
#
#
# Elastic Compliance Matrix: (Units=1/GPa)
#
#
# Indices 1 2 3 4 5 6 
#
# 1 0.019443 0.004063 -0.004614 0.000000 -0.004453 0.000000
# 2 0.004063 0.013527 -0.002766 0.000000 0.001364 0.000000
# 3 -0.004614 -0.002766 0.008225 0.000000 -0.001492 0.000000
# 4 0.000000 0.000000 0.000000 0.019932 0.000000 -0.007188
# 5 -0.004453 0.001364 -0.001492 0.000000 0.030602 0.000000
# 6 0.000000 0.000000 0.000000 -0.007188 0.000000 0.045341
#
#
# Mechanical properties :
#
#
# Convention : Reuss Voigt Hill
#
# Bulk Modulus (GPa) = 28.93505 41.71299 35.32402
# Shear Modulus (GPa) = 32.21134 39.50525 35.85829
#
# Velocity S-wave (km/s) = 3.52642 3.90532 3.72069
# Velocity P-wave (km/s) = 5.26798 6.03649 5.66528
#
# Compressibility (1/GPa) = 0.03456016
#
# Stress axis : x y z
#
# Youngs Moduli (GPa) = 51.43198 73.92550 121.58402
#
# Poissons Ratio (x) = -0.30033 0.56095
# Poissons Ratio (y) = -0.20895 0.33634
# Poissons Ratio (z) = 0.23729 0.20450
#
# Static dielectric constant tensor:
#      x y z
#    x 1.973600 0.000000 0.003910 
#    y 0.000000 2.138110 0.000000 
#    z 0.003910 0.000000 1.991910 
# 
# From -- ./inp_files/46340.got.cif
#   From: 2010.05.17/outbox.cif.g08.bks.cpg/sg14_24_cif.got.tgz:46340.got - 2010.06.03 17:49:19.
