data_PCOD9251206
_publ_section_title
;
Structure prediction by ZEFSAII (Michael W. Deem and Ramdas Pophale) SiO2 
 PCOD9251206
Probable space group: P 21/C
;
_chemical_formula_sum "Si O2"
_cell_formula_units_Z 20
_cell_length_a 15.657106
_cell_length_b 5.335072
_cell_length_c 9.394997
_cell_angle_alpha 90.000000
_cell_angle_beta 82.371678
_cell_angle_gamma 90.000000
_cell_volume 777.835619
_symmetry_space_group_name_H-M "P 21/C"
_symmetry_group_IT_number 14
_symmetry_cell_setting 'monoclinic'
loop_
_space_group_symop_operation_xyz
x,y,z
-x,1/2+y,1/2-z
-x,-y,-z
x,1/2-y,1/2+z
loop_
_atom_site_type_symbol
_atom_site_label
_atom_site_fract_x
_atom_site_fract_y
_atom_site_fract_z
Si Si1 0.489373 0.700476 0.923166
Si Si2 0.239891 0.419716 0.962775
Si Si3 0.197681 0.748926 0.718441
Si Si4 0.898736 0.963476 0.008687
Si Si5 0.404600 0.134108 0.877951
O O1 0.456024 0.391621 0.940983
O O2 0.563325 0.697698 0.787556
O O3 0.406119 0.827964 0.870827
O O4 0.500000 0.000000 0.000000
O O5 0.246077 0.555425 0.809836
O O6 0.142203 0.313700 0.994318
O O7 0.308497 0.197458 0.945603
O O8 0.255161 0.586981 0.098801
O O9 0.134495 0.604382 0.624840
O O10 0.145525 0.919795 0.841140
O O11 0.000000 0.000000 0.000000
#
# Coordination Sequence:
#
# PCOD9251206 Si02
#       5
#     4   4   4   4   4
#     4  11  24  49  73 111 143 197 247 310 383 447
#     4  11  26  51  75 112 151 200 258 317 390 455
#     4  10  26  46  74 114 143 203 251 322 375 462
#     4  11  26  45  76 108 155 198 255 311 385 458
#     4  11  26  47  76 104 150 194 251 317 371 460
#
# _framework density 25.712375999999999
#
# number of rings (size 3 to 8) (size 9 to 14) (size 15 to 20)
#    0.000    1.200    2.000    1.200   11.200    4.800 
#    3.600    0.000    0.000    0.000    0.000    0.000 
#    0.000    0.000    0.000    0.000    0.000    0.000 
#
# Total GULP energy -111720.827948 kJ/mol
# GULP energy per Si atom -5586.041397 kJ/mol
# Density = 2.565385 g / cm^3
# Si number density = 25.712376 Si / 1000 Ang^3
#
#
#
# Elastic Constant Matrix: (Units=GPa)
#
#
# Indices 1 2 3 4 5 6 
#
# 1 96.8411 47.1054 13.0119 0.0000 2.0076 0.0000
# 2 47.1054 164.4985 74.0180 0.0000 1.3371 0.0000
# 3 13.0119 74.0180 185.9228 0.0000 -0.0960 0.0000
# 4 0.0000 0.0000 0.0000 53.0309 0.0000 4.4652
# 5 2.0076 1.3371 -0.0960 0.0000 17.8571 0.0000
# 6 0.0000 0.0000 0.0000 4.4652 0.0000 35.0748
#
#
#
# Elastic Compliance Matrix: (Units=1/GPa)
#
#
# Indices 1 2 3 4 5 6 
#
# 1 0.012081 -0.003740 0.000643 0.000000 -0.001075 0.000000
# 2 -0.003740 0.008569 -0.003150 0.000000 -0.000238 0.000000
# 3 0.000643 -0.003150 0.006588 0.000000 0.000199 0.000000
# 4 0.000000 0.000000 0.000000 0.019061 0.000000 -0.002427
# 5 -0.001075 -0.000238 0.000199 0.000000 0.056140 0.000000
# 6 0.000000 0.000000 0.000000 -0.002427 0.000000 0.028819
#
#
# Mechanical properties :
#
#
# Convention : Reuss Voigt Hill
#
# Bulk Modulus (GPa) = 67.82356 79.50365 73.66361
# Shear Modulus (GPa) = 33.63198 42.06770 37.84984
#
# Velocity S-wave (km/s) = 3.62056 4.04925 3.84089
# Velocity P-wave (km/s) = 6.62669 7.26976 6.95566
#
# Compressibility (1/GPa) = 0.01474414
#
# Stress axis : x y z
#
# Youngs Moduli (GPa) = 82.77213 116.69451 151.79780
#
# Poissons Ratio (x) = 0.43645 -0.09759
# Poissons Ratio (y) = 0.30958 0.47815
# Poissons Ratio (z) = -0.05322 0.36758
#
# Static dielectric constant tensor:
#      x y z
#    x 1.763450 0.000000 -0.111370 
#    y 0.000000 2.136130 0.000000 
#    z -0.111370 0.000000 1.774220 
# 
# From -- ./inp_files/17260.got.cif
#   From: 2010.05.17/outbox.cif.g08.bks.cpg/sg14_9_cif.got.tgz:17260.got - 2010.06.03 17:49:19.
