data_PCOD9251191
_publ_section_title
;
Structure prediction by ZEFSAII (Michael W. Deem and Ramdas Pophale) SiO2 
 PCOD9251191
Probable space group: P 21/C
;
_chemical_formula_sum "Si O2"
_cell_formula_units_Z 18
_cell_length_a 13.393020
_cell_length_b 4.948778
_cell_length_c 14.319555
_cell_angle_alpha 90.000000
_cell_angle_beta 135.777224
_cell_angle_gamma 90.000000
_cell_volume 661.940737
_symmetry_space_group_name_H-M "P 21/C"
_symmetry_group_IT_number 14
_symmetry_cell_setting 'monoclinic'
loop_
_space_group_symop_operation_xyz
x,y,z
-x,1/2+y,1/2-z
-x,-y,-z
x,1/2-y,1/2+z
loop_
_atom_site_type_symbol
_atom_site_label
_atom_site_fract_x
_atom_site_fract_y
_atom_site_fract_z
Si Si1 0.246486 0.107046 0.956017
Si Si2 0.426797 0.552210 0.308748
Si Si3 0.832161 0.099871 0.505580
Si Si4 0.298736 0.040254 0.308254
Si Si5 0.000000 0.000000 0.000000
O O1 0.256648 0.287887 0.871027
O O2 0.408365 0.102968 0.102326
O O3 0.144677 0.283897 0.956579
O O4 0.188738 0.802670 0.920003
O O5 0.316827 0.610050 0.151271
O O6 0.400968 0.245391 0.320757
O O7 0.381583 0.753674 0.363763
O O8 0.959810 0.227421 0.534754
O O9 0.156759 0.985458 0.155292
#
# Coordination Sequence:
#
# PCOD9251191 Si02
#       5
#     4   4   4   4   2
#     4  12  23  40  66 100 126 167 226 285 336 392
#     4  11  22  42  65  96 131 172 215 275 351 406
#     4  11  24  40  65  92 132 173 220 280 332 408
#     4  11  24  41  67  92 133 175 218 277 334 413
#     4  10  26  46  62  92 132 184 224 262 348 410
#
# _framework density 27.192768999999998
#
# number of rings (size 3 to 8) (size 9 to 14) (size 15 to 20)
#    0.000    0.889    0.000    8.000    0.000    9.778 
#    0.000    0.000    0.000    0.000    0.000    0.000 
#    0.000    0.000    0.000    0.000    0.000    0.000 
#
# Total GULP energy -100494.647302 kJ/mol
# GULP energy per Si atom -5583.035961 kJ/mol
# Density = 2.713088 g / cm^3
# Si number density = 27.192769 Si / 1000 Ang^3
#
#
#
# Elastic Constant Matrix: (Units=GPa)
#
#
# Indices 1 2 3 4 5 6 
#
# 1 30.1677 -6.3233 -4.3292 0.0000 13.7512 0.0000
# 2 -6.3233 116.0833 21.2973 0.0000 13.1362 0.0000
# 3 -4.3292 21.2973 61.2351 0.0000 18.2887 0.0000
# 4 0.0000 0.0000 0.0000 17.2942 0.0000 3.1887
# 5 13.7512 13.1362 18.2887 0.0000 42.8066 0.0000
# 6 0.0000 0.0000 0.0000 3.1887 0.0000 59.3052
#
#
#
# Elastic Compliance Matrix: (Units=1/GPa)
#
#
# Indices 1 2 3 4 5 6 
#
# 1 0.042972 0.003018 0.007322 0.000000 -0.017859 0.000000
# 2 0.003018 0.009519 -0.002218 0.000000 -0.002943 0.000000
# 3 0.007322 -0.002218 0.020769 0.000000 -0.010545 0.000000
# 4 0.000000 0.000000 0.000000 0.058402 0.000000 -0.003140
# 5 -0.017859 -0.002943 -0.010545 0.000000 0.034506 0.000000
# 6 0.000000 0.000000 0.000000 -0.003140 0.000000 0.017031
#
#
# Mechanical properties :
#
#
# Convention : Reuss Voigt Hill
#
# Bulk Modulus (GPa) = 11.17264 25.41950 18.29607
# Shear Modulus (GPa) = 25.40790 37.00394 31.20592
#
# Velocity S-wave (km/s) = 3.06005 3.69291 3.39127
# Velocity P-wave (km/s) = 4.07465 5.24896 4.69864
#
# Compressibility (1/GPa) = 0.08950438
#
# Stress axis : x y z
#
# Youngs Moduli (GPa) = 23.27097 105.05378 48.14862
#
# Poissons Ratio (x) = -0.31709 -0.35255
# Poissons Ratio (y) = -0.07024 0.10681
# Poissons Ratio (z) = -0.17039 0.23304
#
# Static dielectric constant tensor:
#      x y z
#    x 2.520330 0.000000 -0.231270 
#    y 0.000000 2.033020 0.000000 
#    z -0.231270 0.000000 2.052140 
# 
# From -- ./inp_files/46041.got.cif
#   From: 2010.05.17/outbox.cif.g08.bks.cpg/sg14_24_cif.got.tgz:46041.got - 2010.06.03 17:49:19.
