data_PCOD9251067
_publ_section_title
;
Structure prediction by ZEFSAII (Michael W. Deem and Ramdas Pophale) SiO2 
 PCOD9251067
Probable space group: P 21/C
;
_chemical_formula_sum "Si O2"
_cell_formula_units_Z 20
_cell_length_a 7.948989
_cell_length_b 7.925734
_cell_length_c 18.968000
_cell_angle_alpha 90.000000
_cell_angle_beta 35.834775
_cell_angle_gamma 90.000000
_cell_volume 699.620644
_symmetry_space_group_name_H-M "P 21/C"
_symmetry_group_IT_number 14
_symmetry_cell_setting 'monoclinic'
loop_
_space_group_symop_operation_xyz
x,y,z
-x,1/2+y,1/2-z
-x,-y,-z
x,1/2-y,1/2+z
loop_
_atom_site_type_symbol
_atom_site_label
_atom_site_fract_x
_atom_site_fract_y
_atom_site_fract_z
Si Si1 0.670596 0.264780 0.663022
Si Si2 0.662741 0.563793 0.014921
Si Si3 0.789438 0.661600 0.565852
Si Si4 0.130887 0.999813 0.778536
Si Si5 0.124207 0.123954 0.280226
O O1 0.575430 0.678215 0.704522
O O2 0.834160 0.370083 0.670153
O O3 0.463478 0.372485 0.680449
O O4 0.946259 0.200895 0.524772
O O5 0.464566 0.473298 0.141100
O O6 0.500000 0.500000 0.000000
O O7 0.627275 0.759942 0.052092
O O8 0.978604 0.507507 0.882925
O O9 0.000000 0.500000 0.500000
O O10 0.008359 0.186188 0.833355
O O11 0.957625 0.921776 0.771820
#
# Coordination Sequence:
#
# PCOD9251067 Si02
#       5
#     4   4   4   4   4
#     4  11  27  48  76 115 161 207 272 341 409 491
#     4   9  23  45  73 105 159 212 268 340 407 489
#     4  11  26  48  79 119 159 219 279 339 417 503
#     4  10  25  46  72 108 153 210 265 334 413 493
#     4  11  25  44  75 107 151 208 265 330 408 486
#
# _framework density 28.586919999999999
#
# number of rings (size 3 to 8) (size 9 to 14) (size 15 to 20)
#    0.000    1.600    0.000    1.200   14.000    4.800 
#    0.000    1.000    0.000    0.000    0.000    0.000 
#    0.000    0.000    0.000    0.000    0.000    0.000 
#
# Total GULP energy -111488.784710 kJ/mol
# GULP energy per Si atom -5574.439236 kJ/mol
# Density = 2.852186 g / cm^3
# Si number density = 28.586920 Si / 1000 Ang^3
#
#
#
# Elastic Constant Matrix: (Units=GPa)
#
#
# Indices 1 2 3 4 5 6 
#
# 1 108.5167 30.7693 6.2117 0.0000 6.6842 0.0000
# 2 30.7693 147.8933 -6.6528 0.0000 28.4557 0.0000
# 3 6.2117 -6.6528 153.7734 0.0000 2.6440 0.0000
# 4 0.0000 0.0000 0.0000 37.8121 0.0000 -2.8379
# 5 6.6842 28.4557 2.6440 0.0000 46.9943 0.0000
# 6 0.0000 0.0000 0.0000 -2.8379 0.0000 45.6566
#
#
#
# Elastic Compliance Matrix: (Units=1/GPa)
#
#
# Indices 1 2 3 4 5 6 
#
# 1 0.009830 -0.002041 -0.000483 0.000000 -0.000135 0.000000
# 2 -0.002041 0.008103 0.000513 0.000000 -0.004645 0.000000
# 3 -0.000483 0.000513 0.006555 0.000000 -0.000611 0.000000
# 4 0.000000 0.000000 0.000000 0.026571 0.000000 0.001652
# 5 -0.000135 -0.004645 -0.000611 0.000000 0.024145 0.000000
# 6 0.000000 0.000000 0.000000 0.001652 0.000000 0.022005
#
#
# Mechanical properties :
#
#
# Convention : Reuss Voigt Hill
#
# Bulk Modulus (GPa) = 48.86113 52.31552 50.58833
# Shear Modulus (GPa) = 46.27341 51.41626 48.84483
#
# Velocity S-wave (km/s) = 4.02766 4.24558 4.13806
# Velocity P-wave (km/s) = 6.22564 6.50950 6.36915
#
# Compressibility (1/GPa) = 0.02046617
#
# Stress axis : x y z
#
# Youngs Moduli (GPa) = 101.73132 123.41042 152.54884
#
# Poissons Ratio (x) = 0.25186 0.07369
# Poissons Ratio (y) = 0.20761 -0.07824
# Poissons Ratio (z) = 0.04914 -0.06329
#
# Static dielectric constant tensor:
#      x y z
#    x 2.370210 0.000000 -0.051540 
#    y 0.000000 2.685280 0.000000 
#    z -0.051540 0.000000 2.359850 
# 
# From -- ./inp_files/64301.got.cif
#   From: 2010.05.17/outbox.cif.g08.bks.cpg/sg14_33_cif.got.tgz:64301.got - 2010.06.03 17:49:19.
