data_PCOD9251874
_publ_section_title
;
Structure prediction by ZEFSAII (Michael W. Deem and Ramdas Pophale) SiO2 
 PCOD9251874
Probable space group: P 21/C
;
_chemical_formula_sum "Si O2"
_cell_formula_units_Z 20
_cell_length_a 15.864126
_cell_length_b 8.927571
_cell_length_c 10.607109
_cell_angle_alpha 90.000000
_cell_angle_beta 148.900754
_cell_angle_gamma 90.000000
_cell_volume 775.952917
_symmetry_space_group_name_H-M "P 21/C"
_symmetry_group_IT_number 14
_symmetry_cell_setting 'monoclinic'
loop_
_space_group_symop_operation_xyz
x,y,z
-x,1/2+y,1/2-z
-x,-y,-z
x,1/2-y,1/2+z
loop_
_atom_site_type_symbol
_atom_site_label
_atom_site_fract_x
_atom_site_fract_y
_atom_site_fract_z
Si Si1 0.270492 0.967621 0.629820
Si Si2 0.160084 0.901385 0.740028
Si Si3 0.554843 0.875266 0.812050
Si Si4 0.003072 0.100102 0.881570
Si Si5 0.364915 0.210766 0.349002
O O1 0.241600 0.856704 0.709825
O O2 0.390640 0.920330 0.673325
O O3 0.091105 0.992694 0.344649
O O4 0.345502 0.115529 0.786142
O O5 0.097492 0.754483 0.730103
O O6 0.000000 0.000000 0.500000
O O7 0.297171 0.005127 0.981483
O O8 0.527381 0.855349 0.627357
O O9 0.601312 0.726311 0.957145
O O10 0.189419 0.139480 0.099386
O O11 0.000000 0.000000 0.000000
#
# Coordination Sequence:
#
# PCOD9251874 Si02
#       5
#     4   4   4   4   4
#     4  11  26  41  74  99 145 194 241 295 369 426
#     4  11  22  45  72  98 139 197 234 295 360 433
#     4  11  25  45  74 103 148 195 241 298 368 420
#     4  12  27  44  72 108 140 184 252 294 357 425
#     4  11  24  48  70 103 147 186 246 300 350 433
#
# _framework density 25.774757000000001
#
# number of rings (size 3 to 8) (size 9 to 14) (size 15 to 20)
#    0.000    0.800    4.000    4.800    8.400    0.000 
#    0.000    2.000    0.000    0.000    0.000    0.000 
#    0.000    0.000    0.000    0.000    0.000    0.000 
#
# Total GULP energy -111909.074319 kJ/mol
# GULP energy per Si atom -5595.453716 kJ/mol
# Density = 2.571609 g / cm^3
# Si number density = 25.774757 Si / 1000 Ang^3
#
#
#
# Elastic Constant Matrix: (Units=GPa)
#
#
# Indices 1 2 3 4 5 6 
#
# 1 158.1510 36.2860 12.4821 0.0000 4.4431 0.0000
# 2 36.2860 51.1478 21.7114 0.0000 6.0223 0.0000
# 3 12.4821 21.7114 90.7975 0.0000 4.6116 0.0000
# 4 0.0000 0.0000 0.0000 35.6081 0.0000 5.4124
# 5 4.4431 6.0223 4.6116 0.0000 48.9114 0.0000
# 6 0.0000 0.0000 0.0000 5.4124 0.0000 39.8073
#
#
#
# Elastic Compliance Matrix: (Units=1/GPa)
#
#
# Indices 1 2 3 4 5 6 
#
# 1 0.007558 -0.005473 0.000272 0.000000 -0.000038 0.000000
# 2 -0.005473 0.025961 -0.005344 0.000000 -0.002195 0.000000
# 3 0.000272 -0.005344 0.012281 0.000000 -0.000525 0.000000
# 4 0.000000 0.000000 0.000000 0.028676 0.000000 -0.003899
# 5 -0.000038 -0.002195 -0.000525 0.000000 0.020768 0.000000
# 6 0.000000 0.000000 0.000000 -0.003899 0.000000 0.025651
#
#
# Mechanical properties :
#
#
# Convention : Reuss Voigt Hill
#
# Bulk Modulus (GPa) = 40.47043 49.00611 44.73827
# Shear Modulus (GPa) = 33.28398 40.17314 36.72856
#
# Velocity S-wave (km/s) = 3.59742 3.95222 3.77899
# Velocity P-wave (km/s) = 5.74377 6.31516 6.03623
#
# Compressibility (1/GPa) = 0.02470940
#
# Stress axis : x y z
#
# Youngs Moduli (GPa) = 132.30266 38.51966 81.42898
#
# Poissons Ratio (x) = 0.21082 -0.02211
# Poissons Ratio (y) = 0.72409 0.43514
# Poissons Ratio (z) = -0.03593 0.20584
#
# Static dielectric constant tensor:
#      x y z
#    x 2.064390 0.000000 -0.080440 
#    y 0.000000 2.064140 0.000000 
#    z -0.080440 0.000000 1.703320 
# 
# From -- ./inp_files/23033.got.cif
#   From: 2010.05.17/outbox.cif.g08.bks.cpg/sg14_12_cif.got.tgz:23033.got - 2010.06.03 17:49:19.
