data_PCOD9251730
_publ_section_title
;
Structure prediction by ZEFSAII (Michael W. Deem and Ramdas Pophale) SiO2 
 PCOD9251730
Probable space group: P 21/C
;
_chemical_formula_sum "Si O2"
_cell_formula_units_Z 24
_cell_length_a 10.140642
_cell_length_b 13.491982
_cell_length_c 7.448202
_cell_angle_alpha 90.000000
_cell_angle_beta 86.497248
_cell_angle_gamma 90.000000
_cell_volume 1017.139619
_symmetry_space_group_name_H-M "P 21/C"
_symmetry_group_IT_number 14
_symmetry_cell_setting 'monoclinic'
loop_
_space_group_symop_operation_xyz
x,y,z
-x,1/2+y,1/2-z
-x,-y,-z
x,1/2-y,1/2+z
loop_
_atom_site_type_symbol
_atom_site_label
_atom_site_fract_x
_atom_site_fract_y
_atom_site_fract_z
Si Si1 0.758848 0.808555 0.159189
Si Si2 0.026192 0.289736 0.098278
Si Si3 0.129247 0.603584 0.344574
Si Si4 0.381434 0.010965 0.742939
Si Si5 0.889414 0.037508 0.751498
Si Si6 0.358295 0.407639 0.847299
O O1 0.672078 0.903245 0.117550
O O2 0.672909 0.708772 0.183001
O O3 0.839039 0.835879 0.331229
O O4 0.892337 0.783740 0.038429
O O5 0.928521 0.210819 0.200812
O O6 0.933819 0.385507 0.093411
O O7 0.266370 0.570847 0.245986
O O8 0.147920 0.594102 0.559861
O O9 0.015236 0.527696 0.296350
O O10 0.394026 0.069683 0.552595
O O11 0.517856 0.955302 0.767924
O O12 0.773024 0.966984 0.696126
#
# Coordination Sequence:
#
# PCOD9251730 Si02
#       6
#     4   4   4   4   4   4
#     4  12  22  43  66  95 131 176 213 268 338 385
#     4  12  23  39  67 101 131 169 220 272 324 389
#     4  11  22  40  64  98 129 160 224 269 314 386
#     4  11  26  45  65  97 135 174 219 271 318 398
#     4  11  23  40  66  98 125 169 215 271 322 379
#     4  11  26  44  67  95 135 176 217 265 332 388
#
# _framework density 23.595580999999999
#
# number of rings (size 3 to 8) (size 9 to 14) (size 15 to 20)
#    0.000    0.667    6.667    1.000    2.333    3.333 
#    0.000    3.333    0.000    0.000    0.000    0.000 
#    0.000    0.000    0.000    0.000    0.000    0.000 
#
# Total GULP energy -133905.321078 kJ/mol
# GULP energy per Si atom -5579.388378 kJ/mol
# Density = 2.354188 g / cm^3
# Si number density = 23.595581 Si / 1000 Ang^3
#
#
#
# Elastic Constant Matrix: (Units=GPa)
#
#
# Indices 1 2 3 4 5 6 
#
# 1 125.1751 70.9248 20.0926 0.0000 -11.2692 0.0000
# 2 70.9248 157.8351 14.8582 0.0000 -15.0195 0.0000
# 3 20.0926 14.8582 30.5548 0.0000 -1.4580 0.0000
# 4 0.0000 0.0000 0.0000 50.0410 0.0000 -4.4463
# 5 -11.2692 -15.0195 -1.4580 0.0000 24.5588 0.0000
# 6 0.0000 0.0000 0.0000 -4.4463 0.0000 51.4285
#
#
#
# Elastic Compliance Matrix: (Units=1/GPa)
#
#
# Indices 1 2 3 4 5 6 
#
# 1 0.011593 -0.004493 -0.005331 0.000000 0.002255 0.000000
# 2 -0.004493 0.008771 -0.001156 0.000000 0.003234 0.000000
# 3 -0.005331 -0.001156 0.036750 0.000000 -0.000972 0.000000
# 4 0.000000 0.000000 0.000000 0.020138 0.000000 0.001741
# 5 0.002255 0.003234 -0.000972 0.000000 0.043674 0.000000
# 6 0.000000 0.000000 0.000000 0.001741 0.000000 0.019595
#
#
# Mechanical properties :
#
#
# Convention : Reuss Voigt Hill
#
# Bulk Modulus (GPa) = 28.44696 58.36848 43.40772
# Shear Modulus (GPa) = 28.70252 39.05162 33.87707
#
# Velocity S-wave (km/s) = 3.49153 4.07263 3.79322
# Velocity P-wave (km/s) = 5.32321 6.84878 6.13361
#
# Compressibility (1/GPa) = 0.03515314
#
# Stress axis : x y z
#
# Youngs Moduli (GPa) = 86.25565 114.00740 27.21106
#
# Poissons Ratio (x) = 0.51225 0.14507
# Poissons Ratio (y) = 0.38756 0.03147
# Poissons Ratio (z) = 0.45985 0.13183
#
# Static dielectric constant tensor:
#      x y z
#    x 1.807400 0.000000 -0.061180 
#    y 0.000000 1.868080 0.000000 
#    z -0.061180 0.000000 2.359690 
# 
# From -- ./inp_files/8521.got.cif
#   From: 2010.05.17/outbox.cif.g08.bks.cpg/sg14_5_cif.got.tgz:8521.got - 2010.06.03 17:49:19.
