data_PCOD9251984
_publ_section_title
;
Structure prediction by ZEFSAII (Michael W. Deem and Ramdas Pophale) SiO2 
 PCOD9251984
Probable space group: P 21/C
;
_chemical_formula_sum "Si O2"
_cell_formula_units_Z 28
_cell_length_a 29.022867
_cell_length_b 5.562101
_cell_length_c 9.427197
_cell_angle_alpha 90.000000
_cell_angle_beta 123.746858
_cell_angle_gamma 90.000000
_cell_volume 1265.389012
_symmetry_space_group_name_H-M "P 21/C"
_symmetry_group_IT_number 14
_symmetry_cell_setting 'monoclinic'
loop_
_space_group_symop_operation_xyz
x,y,z
-x,1/2+y,1/2-z
-x,-y,-z
x,1/2-y,1/2+z
loop_
_atom_site_type_symbol
_atom_site_label
_atom_site_fract_x
_atom_site_fract_y
_atom_site_fract_z
Si Si1 0.978856 0.785929 0.865266
Si Si2 0.246232 0.496044 0.636742
Si Si3 0.921500 0.498913 0.015019
Si Si4 0.790601 0.008520 0.262092
Si Si5 0.459217 0.668564 0.520085
Si Si6 0.427426 0.289031 0.665646
Si Si7 0.622857 0.980230 0.667196
O O1 0.948752 0.603145 0.919603
O O2 0.932845 0.836452 0.669198
O O3 0.035690 0.717404 0.881119
O O4 0.000000 0.000000 0.000000
O O5 0.226242 0.497507 0.435513
O O6 0.229658 0.743802 0.693046
O O7 0.312898 0.508063 0.744038
O O8 0.227774 0.244161 0.687460
O O9 0.857117 0.465161 0.883453
O O10 0.500000 0.500000 0.500000
O O11 0.419072 0.521163 0.553590
O O12 0.507790 0.807736 0.686224
O O13 0.417587 0.809376 0.347400
O O14 0.389359 0.279156 0.737487
O O15 0.408296 0.076824 0.531714
#
# Coordination Sequence:
#
# PCOD9251984 Si02
#       7
#     4   4   4   4   4   4   4
#     4  11  23  40  67 111 144 188 238 292 380 444
#     4  12  30  52  79 113 148 211 272 316 383 446
#     4  11  25  42  74 104 154 190 244 309 370 452
#     4  12  29  53  81 111 157 207 266 322 379 450
#     4  12  24  41  68 105 139 175 228 288 379 451
#     4  12  24  44  67 104 137 179 224 292 380 443
#     4  12  28  43  74  97 145 183 239 309 356 451
#
# _framework density 22.127583999999999
#
# number of rings (size 3 to 8) (size 9 to 14) (size 15 to 20)
#    0.000    0.286    4.286    3.857    8.000    0.000 
#    0.000    0.000    0.000    0.000    0.000    0.000 
#    0.000    0.000    0.000    0.000    0.000    0.000 
#
# Total GULP energy -156043.462708 kJ/mol
# GULP energy per Si atom -5572.980811 kJ/mol
# Density = 2.207722 g / cm^3
# Si number density = 22.127584 Si / 1000 Ang^3
#
#
#
# Elastic Constant Matrix: (Units=GPa)
#
#
# Indices 1 2 3 4 5 6 
#
# 1 163.6309 46.0679 65.6676 0.0000 27.2715 0.0000
# 2 46.0679 87.2309 27.2432 0.0000 -10.5151 0.0000
# 3 65.6676 27.2432 124.1405 0.0000 -7.5188 0.0000
# 4 0.0000 0.0000 0.0000 27.4230 0.0000 -9.9943
# 5 27.2715 -10.5151 -7.5188 0.0000 50.9996 0.0000
# 6 0.0000 0.0000 0.0000 -9.9943 0.0000 36.4278
#
#
#
# Elastic Compliance Matrix: (Units=1/GPa)
#
#
# Indices 1 2 3 4 5 6 
#
# 1 0.010838 -0.005050 -0.005084 0.000000 -0.007586 0.000000
# 2 -0.005050 0.014901 -0.000251 0.000000 0.005736 0.000000
# 3 -0.005084 -0.000251 0.011060 0.000000 0.004297 0.000000
# 4 0.000000 0.000000 0.000000 0.040517 0.000000 0.011116
# 5 -0.007586 0.005736 0.004297 0.000000 0.025481 0.000000
# 6 0.000000 0.000000 0.000000 0.011116 0.000000 0.030501
#
#
# Mechanical properties :
#
#
# Convention : Reuss Voigt Hill
#
# Bulk Modulus (GPa) = 62.39210 72.55109 67.47159
# Shear Modulus (GPa) = 31.36533 38.70501 35.03517
#
# Velocity S-wave (km/s) = 3.76902 4.18685 3.98342
# Velocity P-wave (km/s) = 6.87011 7.49878 7.19132
#
# Compressibility (1/GPa) = 0.01602767
#
# Stress axis : x y z
#
# Youngs Moduli (GPa) = 92.26930 67.11048 90.41432
#
# Poissons Ratio (x) = 0.33893 0.45968
# Poissons Ratio (y) = 0.46598 0.02271
# Poissons Ratio (z) = 0.46911 0.01686
#
# Static dielectric constant tensor:
#      x y z
#    x 1.648490 0.000000 0.130760 
#    y 0.000000 3.728200 0.000000 
#    z 0.130760 0.000000 1.775300 
# 
# From -- ./inp_files/19863.got.cif
#   From: 2010.05.17/outbox.cif.g08.bks.cpg/sg14_10_cif.got.tgz:19863.got - 2010.06.03 17:49:19.
