data_PCOD9251796
_publ_section_title
;
Structure prediction by ZEFSAII (Michael W. Deem and Ramdas Pophale) SiO2 
 PCOD9251796
Probable space group: P 21/C
;
_chemical_formula_sum "Si O2"
_cell_formula_units_Z 24
_cell_length_a 8.008223
_cell_length_b 16.304358
_cell_length_c 8.866099
_cell_angle_alpha 90.000000
_cell_angle_beta 92.936044
_cell_angle_gamma 90.000000
_cell_volume 1156.117509
_symmetry_space_group_name_H-M "P 21/C"
_symmetry_group_IT_number 14
_symmetry_cell_setting 'monoclinic'
loop_
_space_group_symop_operation_xyz
x,y,z
-x,1/2+y,1/2-z
-x,-y,-z
x,1/2-y,1/2+z
loop_
_atom_site_type_symbol
_atom_site_label
_atom_site_fract_x
_atom_site_fract_y
_atom_site_fract_z
Si Si1 0.671019 0.486791 0.099252
Si Si2 0.835907 0.326738 0.641967
Si Si3 0.799811 0.838077 0.704054
Si Si4 0.590978 0.076419 0.927282
Si Si5 0.617028 0.771451 0.986169
Si Si6 0.712023 0.323611 0.964086
O O1 0.755725 0.574118 0.130830
O O2 0.637892 0.448653 0.261781
O O3 0.500000 0.500000 0.000000
O O4 0.763563 0.415258 0.011392
O O5 0.751606 0.395455 0.532485
O O6 0.719992 0.316109 0.784624
O O7 0.830405 0.243305 0.546299
O O8 0.019070 0.343492 0.712679
O O9 0.775361 0.768821 0.575724
O O10 0.671181 0.809626 0.829464
O O11 0.466950 0.154175 0.925476
O O12 0.500000 0.000000 0.000000
O O13 0.472174 0.701558 0.982197
#
# Coordination Sequence:
#
# PCOD9251796 Si02
#       6
#     4   4   4   4   4   4
#     4  12  24  41  69 101 133 173 231 282 327 403
#     4  11  25  44  68  97 138 177 221 283 348 397
#     4  12  25  43  66 104 133 169 228 289 342 393
#     4  11  22  44  68  95 130 179 228 271 332 413
#     4  11  22  42  70  93 131 179 224 271 333 418
#     4  11  22  44  68  93 134 181 224 266 341 414
#
# _framework density 20.759136000000002
#
# number of rings (size 3 to 8) (size 9 to 14) (size 15 to 20)
#    0.000    0.667    3.333    7.000    0.000    1.333 
#    3.000    0.000    0.000    0.000    0.000    0.000 
#    0.000    0.000    0.000    0.000    0.000    0.000 
#
# Total GULP energy -134185.936229 kJ/mol
# GULP energy per Si atom -5591.080676 kJ/mol
# Density = 2.071189 g / cm^3
# Si number density = 20.759136 Si / 1000 Ang^3
#
#
#
# Elastic Constant Matrix: (Units=GPa)
#
#
# Indices 1 2 3 4 5 6 
#
# 1 102.9304 29.5300 26.6047 0.0000 39.2394 0.0000
# 2 29.5300 122.6035 28.2986 0.0000 34.5275 0.0000
# 3 26.6047 28.2986 99.0128 0.0000 24.6913 0.0000
# 4 0.0000 0.0000 0.0000 51.3466 0.0000 9.5125
# 5 39.2394 34.5275 24.6913 0.0000 48.7231 0.0000
# 6 0.0000 0.0000 0.0000 9.5125 0.0000 18.6916
#
#
#
# Elastic Compliance Matrix: (Units=1/GPa)
#
#
# Indices 1 2 3 4 5 6 
#
# 1 0.014125 -0.000129 -0.001081 0.000000 -0.010736 0.000000
# 2 -0.000129 0.010333 -0.001280 0.000000 -0.006570 0.000000
# 3 -0.001081 -0.001280 0.011805 0.000000 -0.004204 0.000000
# 4 0.000000 0.000000 0.000000 0.021503 0.000000 -0.010943
# 5 -0.010736 -0.006570 -0.004204 0.000000 0.035957 0.000000
# 6 0.000000 0.000000 0.000000 -0.010943 0.000000 0.059069
#
#
# Mechanical properties :
#
#
# Convention : Reuss Voigt Hill
#
# Bulk Modulus (GPa) = 31.96778 54.82369 43.39574
# Shear Modulus (GPa) = 29.72671 39.75982 34.74327
#
# Velocity S-wave (km/s) = 3.78826 4.38115 4.09545
# Velocity P-wave (km/s) = 5.87940 7.21522 6.58129
#
# Compressibility (1/GPa) = 0.03128149
#
# Stress axis : x y z
#
# Youngs Moduli (GPa) = 70.79872 96.77592 84.71316
#
# Poissons Ratio (x) = 0.01249 0.09158
# Poissons Ratio (y) = 0.00913 0.10846
# Poissons Ratio (z) = 0.07654 0.12390
#
# Static dielectric constant tensor:
#      x y z
#    x 1.759750 0.000000 -0.030960 
#    y 0.000000 1.739840 0.000000 
#    z -0.030960 0.000000 1.638290 
# 
# From -- ./inp_files/8425.got.cif
#   From: 2010.05.17/outbox.cif.g08.bks.cpg/sg14_5_cif.got.tgz:8425.got - 2010.06.03 17:49:19.
