data_PCOD9251558
_publ_section_title
;
Structure prediction by ZEFSAII (Michael W. Deem and Ramdas Pophale) SiO2 
 PCOD9251558
Probable space group: P 21/C
;
_chemical_formula_sum "Si O2"
_cell_formula_units_Z 32
_cell_length_a 15.603493
_cell_length_b 5.367148
_cell_length_c 15.823034
_cell_angle_alpha 90.000000
_cell_angle_beta 112.092169
_cell_angle_gamma 90.000000
_cell_volume 1227.829617
_symmetry_space_group_name_H-M "P 21/C"
_symmetry_group_IT_number 14
_symmetry_cell_setting 'monoclinic'
loop_
_space_group_symop_operation_xyz
x,y,z
-x,1/2+y,1/2-z
-x,-y,-z
x,1/2-y,1/2+z
loop_
_atom_site_type_symbol
_atom_site_label
_atom_site_fract_x
_atom_site_fract_y
_atom_site_fract_z
Si Si1 0.610672 0.944317 0.980358
Si Si2 0.048706 0.250214 0.046936
Si Si3 0.461504 0.875093 0.366130
Si Si4 0.742817 0.687792 0.912170
Si Si5 0.976652 0.134283 0.196097
Si Si6 0.768114 0.360231 0.650396
Si Si7 0.285374 0.135725 0.282607
Si Si8 0.611667 0.191513 0.328591
O O1 0.516667 0.781080 0.957414
O O2 0.693107 0.759878 0.980536
O O3 0.587964 0.092650 0.885564
O O4 0.669673 0.126552 0.063115
O O5 0.150464 0.261478 0.047659
O O6 0.040435 0.233002 0.144243
O O7 0.000000 0.500000 0.000000
O O8 0.000000 0.000000 0.000000
O O9 0.403020 0.716382 0.276454
O O10 0.389182 0.096305 0.358988
O O11 0.542740 0.977811 0.335987
O O12 0.706643 0.837161 0.815552
O O13 0.715083 0.403110 0.884368
O O14 0.865673 0.139539 0.136876
O O15 0.995455 0.349210 0.273069
O O16 0.761833 0.613957 0.701797
O O17 0.767697 0.108539 0.705300
#
# Coordination Sequence:
#
# PCOD9251558 Si02
#       8
#     4   4   4   4   4   4   4   4
#     4  11  26  43  72 103 147 191 233 310 362 435
#     4  12  28  46  76 114 147 182 245 322 374 441
#     4  11  22  41  71 104 140 194 249 288 361 426
#     4  11  25  44  74 104 139 189 247 294 367 432
#     4  12  26  51  79 103 148 205 248 300 383 474
#     4  12  29  47  70 108 150 188 242 304 382 420
#     4  12  27  47  73 103 147 194 246 301 344 452
#     4  11  21  41  73 103 141 187 242 298 353 439
#
# _framework density 26.062245999999998
#
# number of rings (size 3 to 8) (size 9 to 14) (size 15 to 20)
#    0.000    0.500    2.500    5.250    8.750    1.000 
#    0.000    0.000    0.000    0.000    0.000    0.000 
#    0.000    0.000    0.000    0.000    0.000    0.000 
#
# Total GULP energy -179110.932517 kJ/mol
# GULP energy per Si atom -5597.216641 kJ/mol
# Density = 2.600293 g / cm^3
# Si number density = 26.062246 Si / 1000 Ang^3
#
#
#
# Elastic Constant Matrix: (Units=GPa)
#
#
# Indices 1 2 3 4 5 6 
#
# 1 120.5121 11.2473 -13.5759 0.0000 40.7301 0.0000
# 2 11.2473 123.9141 14.0438 0.0000 10.0961 0.0000
# 3 -13.5759 14.0438 55.2872 0.0000 14.6885 0.0000
# 4 0.0000 0.0000 0.0000 45.5910 0.0000 4.5929
# 5 40.7301 10.0961 14.6885 0.0000 39.2694 0.0000
# 6 0.0000 0.0000 0.0000 4.5929 0.0000 32.8846
#
#
#
# Elastic Compliance Matrix: (Units=1/GPa)
#
#
# Indices 1 2 3 4 5 6 
#
# 1 0.016335 -0.000920 0.009641 0.000000 -0.020312 0.000000
# 2 -0.000920 0.008441 -0.002273 0.000000 -0.000365 0.000000
# 3 0.009641 -0.002273 0.026130 0.000000 -0.019190 0.000000
# 4 0.000000 0.000000 0.000000 0.022247 0.000000 -0.003107
# 5 -0.020312 -0.000365 -0.019190 0.000000 0.053805 0.000000
# 6 0.000000 0.000000 0.000000 -0.003107 0.000000 0.030843
#
#
# Mechanical properties :
#
#
# Convention : Reuss Voigt Hill
#
# Bulk Modulus (GPa) = 15.67344 35.90487 25.78915
# Shear Modulus (GPa) = 30.08907 42.74889 36.41898
#
# Velocity S-wave (km/s) = 3.40149 4.05441 3.74222
# Velocity P-wave (km/s) = 4.63182 5.97697 5.34686
#
# Compressibility (1/GPa) = 0.06380221
#
# Stress axis : x y z
#
# Youngs Moduli (GPa) = 61.21827 118.46895 38.26954
#
# Poissons Ratio (x) = 0.10904 -0.36897
# Poissons Ratio (y) = 0.05635 0.08699
# Poissons Ratio (z) = -0.59023 0.26929
#
# Static dielectric constant tensor:
#      x y z
#    x 2.025160 0.000000 0.010040 
#    y 0.000000 2.095930 0.000000 
#    z 0.010040 0.000000 2.107580 
# 
# From -- ./inp_files/58619.got.cif
#   From: 2010.05.17/outbox.cif.g08.bks.cpg/sg14_30_cif.got.tgz:58619.got - 2010.06.03 17:49:19.
