data_PCOD9251276
_publ_section_title
;
Structure prediction by ZEFSAII (Michael W. Deem and Ramdas Pophale) SiO2 
 PCOD9251276
Probable space group: P 21/C
;
_chemical_formula_sum "Si O2"
_cell_formula_units_Z 28
_cell_length_a 7.596521
_cell_length_b 12.123732
_cell_length_c 15.967286
_cell_angle_alpha 90.000000
_cell_angle_beta 130.186630
_cell_angle_gamma 90.000000
_cell_volume 1123.427865
_symmetry_space_group_name_H-M "P 21/C"
_symmetry_group_IT_number 14
_symmetry_cell_setting 'monoclinic'
loop_
_space_group_symop_operation_xyz
x,y,z
-x,1/2+y,1/2-z
-x,-y,-z
x,1/2-y,1/2+z
loop_
_atom_site_type_symbol
_atom_site_label
_atom_site_fract_x
_atom_site_fract_y
_atom_site_fract_z
Si Si1 0.052272 0.913219 0.354434
Si Si2 0.104646 0.873659 0.181699
Si Si3 0.402154 0.117861 0.061017
Si Si4 0.104701 0.229303 0.088998
Si Si5 0.013751 0.356122 0.889521
Si Si6 0.357719 0.614365 0.596942
Si Si7 0.501154 0.800032 0.536192
O O1 0.097953 0.925555 0.270246
O O2 0.300200 0.889139 0.472501
O O3 0.912961 0.802673 0.334411
O O4 0.930625 0.020306 0.354544
O O5 0.297279 0.909973 0.174766
O O6 0.133963 0.741107 0.196652
O O7 0.850503 0.887909 0.062547
O O8 0.335349 0.169015 0.130672
O O9 0.540865 0.204967 0.048074
O O10 0.478708 0.992101 0.094299
O O11 0.053957 0.316091 0.997002
O O12 0.896049 0.140562 0.021314
O O13 0.256775 0.351362 0.914674
O O14 0.486684 0.727582 0.615434
#
# Coordination Sequence:
#
# PCOD9251276 Si02
#       7
#     4   4   4   4   4   4   4
#     4  11  19  32  53  74  99 129 162 208 247 279
#     4   9  20  32  48  78  99 121 169 210 240 284
#     4   9  17  34  53  73 100 131 164 201 241 293
#     4   8  17  30  50  74  94 128 172 193 233 304
#     4   9  19  36  51  70 102 131 161 202 243 294
#     4   9  16  32  53  70  99 134 160 197 244 292
#     4   9  19  32  51  73  96 134 171 189 234 310
#
# _framework density 24.923718000000001
#
# number of rings (size 3 to 8) (size 9 to 14) (size 15 to 20)
#    0.000    3.429    0.000    3.000    0.000    3.429 
#    0.000    7.143    0.000    0.000    0.000    0.000 
#    0.000    0.000    0.000    0.000    0.000    0.000 
#
# Total GULP energy -156421.575343 kJ/mol
# GULP energy per Si atom -5586.484834 kJ/mol
# Density = 2.486699 g / cm^3
# Si number density = 24.923718 Si / 1000 Ang^3
#
#
#
# Elastic Constant Matrix: (Units=GPa)
#
#
# Indices 1 2 3 4 5 6 
#
# 1 76.6333 -4.7586 13.0875 0.0000 -10.1183 0.0000
# 2 -4.7586 120.6628 8.4788 0.0000 -7.4727 0.0000
# 3 13.0875 8.4788 54.3756 0.0000 -5.4361 0.0000
# 4 0.0000 0.0000 0.0000 5.3425 0.0000 -16.8364
# 5 -10.1183 -7.4727 -5.4361 0.0000 34.4576 0.0000
# 6 0.0000 0.0000 0.0000 -16.8364 0.0000 16.5029
#
#
#
# Elastic Compliance Matrix: (Units=1/GPa)
#
#
# Indices 1 2 3 4 5 6 
#
# 1 0.014168 0.001023 -0.003182 0.000000 0.003880 0.000000
# 2 0.001023 0.008545 -0.001385 0.000000 0.001935 0.000000
# 3 -0.003182 -0.001385 0.019557 0.000000 0.001851 0.000000
# 4 0.000000 0.000000 0.000000 -0.084502 0.000000 -0.086209
# 5 0.003880 0.001935 0.001851 0.000000 0.030872 0.000000
# 6 0.000000 0.000000 0.000000 -0.086209 0.000000 -0.027356
#
#
# Mechanical properties :
#
#
# Convention : Reuss Voigt Hill
#
# Bulk Modulus (GPa) = 28.42326 31.69859 30.06093
# Shear Modulus (GPa) = -251.27404 26.91820 -112.17792
#
# Velocity S-wave (km/s) = -10.05167 3.28994 -6.71612
# Velocity P-wave (km/s) = 11.10342 5.21320 6.93212
#
# Compressibility (1/GPa) = 0.03518245
#
# Stress axis : x y z
#
# Youngs Moduli (GPa) = 70.57979 117.02688 51.13150
#
# Poissons Ratio (x) = -0.11968 0.16268
# Poissons Ratio (y) = -0.07218 0.07082
# Poissons Ratio (z) = 0.22456 0.16210
#
# Static dielectric constant tensor:
#      x y z
#    x 1.982240 0.000000 0.015700 
#    y 0.000000 1.973520 0.000000 
#    z 0.015700 0.000000 2.072490 
# 
# From -- ./inp_files/55231.got.cif
#   From: 2010.05.17/outbox.cif.g08.bks.cpg/sg14_28_cif.got.tgz:55231.got - 2010.06.03 17:49:19.
