data_PCOD9251692
_publ_section_title
;
Structure prediction by ZEFSAII (Michael W. Deem and Ramdas Pophale) SiO2 
 PCOD9251692
Probable space group: P 21/C
;
_chemical_formula_sum "Si O2"
_cell_formula_units_Z 32
_cell_length_a 19.981486
_cell_length_b 10.463662
_cell_length_c 19.155175
_cell_angle_alpha 90.000000
_cell_angle_beta 20.687090
_cell_angle_gamma 90.000000
_cell_volume 1414.806557
_symmetry_space_group_name_H-M "P 21/C"
_symmetry_group_IT_number 14
_symmetry_cell_setting 'monoclinic'
loop_
_space_group_symop_operation_xyz
x,y,z
-x,1/2+y,1/2-z
-x,-y,-z
x,1/2-y,1/2+z
loop_
_atom_site_type_symbol
_atom_site_label
_atom_site_fract_x
_atom_site_fract_y
_atom_site_fract_z
Si Si1 0.340876 0.599614 0.478223
Si Si2 0.684031 0.634166 0.239888
Si Si3 0.955430 0.750571 0.357000
Si Si4 0.072522 0.997001 0.042444
Si Si5 0.385737 0.699177 0.284586
Si Si6 0.111971 0.872892 0.468057
Si Si7 0.877121 0.679362 0.637312
Si Si8 0.234135 0.180359 0.096729
O O1 0.476180 0.610565 0.413128
O O2 0.415237 0.678007 0.338299
O O3 0.323413 0.449711 0.477478
O O4 0.136733 0.661292 0.690190
O O5 0.703204 0.729603 0.286295
O O6 0.797172 0.699323 0.064999
O O7 0.797044 0.503822 0.145797
O O8 0.994934 0.602230 0.336782
O O9 0.884643 0.752591 0.346871
O O10 0.260403 0.922017 0.882666
O O11 0.119508 0.075657 0.926855
O O12 0.912255 0.896050 0.175083
O O13 0.253981 0.815871 0.387495
O O14 0.589595 0.731350 0.053953
O O15 0.064703 0.771291 0.452928
O O16 0.908347 0.873875 0.705486
#
# Coordination Sequence:
#
# PCOD9251692 Si02
#       8
#     4   4   4   4   4   4   4   4
#     4  12  23  38  62 101 133 166 215 265 335 396
#     4  11  22  40  63  92 130 170 214 269 324 391
#     4  11  22  38  64  96 132 168 211 270 329 392
#     4   9  20  42  66  88 126 173 218 266 320 389
#     4  11  22  38  64  96 132 168 211 270 329 392
#     4  11  22  40  63  92 130 170 214 269 324 391
#     4   9  21  42  64  87 121 177 222 259 321 384
#     4  12  23  38  62 101 133 166 215 265 335 396
#
# _framework density 22.617932
#
# number of rings (size 3 to 8) (size 9 to 14) (size 15 to 20)
#    0.000    1.250    6.250    0.375    0.000    0.000 
#    0.000   18.125    0.000    0.000    0.000    0.000 
#    0.000    0.000    0.000    0.000    0.000    0.000 
#
# Total GULP energy -178663.194574 kJ/mol
# GULP energy per Si atom -5583.224830 kJ/mol
# Density = 2.256645 g / cm^3
# Si number density = 22.617932 Si / 1000 Ang^3
#
#
#
# Elastic Constant Matrix: (Units=GPa)
#
#
# Indices 1 2 3 4 5 6 
#
# 1 88.5096 11.0998 23.3829 0.0000 -20.7126 0.0000
# 2 11.0998 86.8482 11.2620 0.0000 -8.6004 0.0000
# 3 23.3829 11.2620 87.8511 0.0000 -18.4182 0.0000
# 4 0.0000 0.0000 0.0000 26.8403 0.0000 -3.5639
# 5 -20.7126 -8.6004 -18.4182 0.0000 32.3387 0.0000
# 6 0.0000 0.0000 0.0000 -3.5639 0.0000 28.8674
#
#
#
# Elastic Compliance Matrix: (Units=1/GPa)
#
#
# Indices 1 2 3 4 5 6 
#
# 1 0.013651 -0.000753 -0.001983 0.000000 0.007414 0.000000
# 2 -0.000753 0.011941 -0.000869 0.000000 0.002198 0.000000
# 3 -0.001983 -0.000869 0.013295 0.000000 0.006071 0.000000
# 4 0.000000 0.000000 0.000000 0.037878 0.000000 0.004676
# 5 0.007414 0.002198 0.006071 0.000000 0.039713 0.000000
# 6 0.000000 0.000000 0.000000 0.004676 0.000000 0.035218
#
#
# Mechanical properties :
#
#
# Convention : Reuss Voigt Hill
#
# Bulk Modulus (GPa) = 31.56927 39.41093 35.49010
# Shear Modulus (GPa) = 29.50422 32.10690 30.80556
#
# Velocity S-wave (km/s) = 3.61565 3.77176 3.69453
# Velocity P-wave (km/s) = 5.60522 6.03578 5.82448
#
# Compressibility (1/GPa) = 0.03167638
#
# Stress axis : x y z
#
# Youngs Moduli (GPa) = 73.25215 83.74485 75.21727
#
# Poissons Ratio (x) = 0.06310 0.14912
# Poissons Ratio (y) = 0.05519 0.06540
# Poissons Ratio (z) = 0.14523 0.07281
#
# Static dielectric constant tensor:
#      x y z
#    x 1.860410 0.000000 0.015940 
#    y 0.000000 1.890680 0.000000 
#    z 0.015940 0.000000 1.814610 
# 
# From -- ./inp_files/69920.got.cif
#   From: 2010.05.17/outbox.cif.g08.bks.cpg/sg14_35_cif.got.tgz:69920.got - 2010.06.03 17:49:19.
