data_PCOD9251427
_publ_section_title
;
Structure prediction by ZEFSAII (Michael W. Deem and Ramdas Pophale) SiO2 
 PCOD9251427
Probable space group: P 21/C
;
_chemical_formula_sum "Si O2"
_cell_formula_units_Z 24
_cell_length_a 9.534558
_cell_length_b 15.494466
_cell_length_c 8.157457
_cell_angle_alpha 90.000000
_cell_angle_beta 95.134813
_cell_angle_gamma 90.000000
_cell_volume 1200.288332
_symmetry_space_group_name_H-M "P 21/C"
_symmetry_group_IT_number 14
_symmetry_cell_setting 'monoclinic'
loop_
_space_group_symop_operation_xyz
x,y,z
-x,1/2+y,1/2-z
-x,-y,-z
x,1/2-y,1/2+z
loop_
_atom_site_type_symbol
_atom_site_label
_atom_site_fract_x
_atom_site_fract_y
_atom_site_fract_z
Si Si1 0.676033 0.290751 0.774593
Si Si2 0.340091 0.619651 0.877853
Si Si3 0.405984 0.449477 0.263908
Si Si4 0.830078 0.527379 0.298277
Si Si5 0.581431 0.878821 0.886542
Si Si6 0.154449 0.946635 0.834205
O O1 0.703264 0.189749 0.764175
O O2 0.519853 0.304084 0.684072
O O3 0.782038 0.351346 0.682709
O O4 0.679454 0.331283 0.954624
O O5 0.502809 0.590830 0.871862
O O6 0.243016 0.536640 0.838211
O O7 0.404909 0.383511 0.416333
O O8 0.497650 0.533205 0.328325
O O9 0.250255 0.488646 0.233878
O O10 0.731642 0.610945 0.315756
O O11 0.826170 0.479839 0.476680
O O12 0.990585 0.548346 0.275598
#
# Coordination Sequence:
#
# PCOD9251427 Si02
#       6
#     4   4   4   4   4   4
#     4  11  21  33  51  74 101 132 170 212 252 295
#     4  11  21  33  51  74 101 132 170 212 252 295
#     4   8  15  30  51  73  97 126 161 199 242 293
#     4   9  18  34  55  77 103 134 165 201 250 305
#     4   8  15  30  51  73  97 126 161 199 242 293
#     4   9  18  34  55  77 103 134 165 201 250 305
#
# _framework density 19.995196
#
# number of rings (size 3 to 8) (size 9 to 14) (size 15 to 20)
#    0.000    2.667    0.000    5.000    0.000    6.667 
#    0.000    1.667    0.000    0.000    0.000    0.000 
#    0.000    0.000    0.000    0.000    0.000    0.000 
#
# Total GULP energy -133880.866029 kJ/mol
# GULP energy per Si atom -5578.369418 kJ/mol
# Density = 1.994969 g / cm^3
# Si number density = 19.995196 Si / 1000 Ang^3
#
#
#
# Elastic Constant Matrix: (Units=GPa)
#
#
# Indices 1 2 3 4 5 6 
#
# 1 156.7624 21.6101 16.7377 0.0000 -9.3372 0.0000
# 2 21.6101 43.0849 4.7949 0.0000 -4.7416 0.0000
# 3 16.7377 4.7949 47.2728 0.0000 -5.2416 0.0000
# 4 0.0000 0.0000 0.0000 29.0460 0.0000 1.0897
# 5 -9.3372 -4.7416 -5.2416 0.0000 16.2084 0.0000
# 6 0.0000 0.0000 0.0000 1.0897 0.0000 13.4020
#
#
#
# Elastic Compliance Matrix: (Units=1/GPa)
#
#
# Indices 1 2 3 4 5 6 
#
# 1 0.007167 -0.003093 -0.001936 0.000000 0.002598 0.000000
# 2 -0.003093 0.025452 -0.000890 0.000000 0.005376 0.000000
# 3 -0.001936 -0.000890 0.022587 0.000000 0.005929 0.000000
# 4 0.000000 0.000000 0.000000 0.034534 0.000000 -0.002808
# 5 0.002598 0.005376 0.005929 0.000000 0.066683 0.000000
# 6 0.000000 0.000000 0.000000 -0.002808 0.000000 0.074844
#
#
# Mechanical properties :
#
#
# Convention : Reuss Voigt Hill
#
# Bulk Modulus (GPa) = 23.05890 37.04504 30.05197
# Shear Modulus (GPa) = 19.41285 25.32976 22.37130
#
# Velocity S-wave (km/s) = 3.11927 3.56306 3.34853
# Velocity P-wave (km/s) = 4.95281 5.95772 5.47836
#
# Compressibility (1/GPa) = 0.04336721
#
# Stress axis : x y z
#
# Youngs Moduli (GPa) = 139.52984 39.28920 44.27348
#
# Poissons Ratio (x) = 0.12154 0.08570
# Poissons Ratio (y) = 0.43162 0.03942
# Poissons Ratio (z) = 0.27010 0.03498
#
# Static dielectric constant tensor:
#      x y z
#    x 1.715610 0.000000 -0.015100 
#    y 0.000000 1.699430 0.000000 
#    z -0.015100 0.000000 1.766220 
# 
# From -- ./inp_files/9128.got.cif
#   From: 2010.05.17/outbox.cif.g08.bks.cpg/sg14_5_cif.got.tgz:9128.got - 2010.06.03 17:49:19.
