data_PCOD9251506
_publ_section_title
;
Structure prediction by ZEFSAII (Michael W. Deem and Ramdas Pophale) SiO2 
 PCOD9251506
Probable space group: P 21/C
;
_chemical_formula_sum "Si O2"
_cell_formula_units_Z 20
_cell_length_a 8.689544
_cell_length_b 5.223416
_cell_length_c 25.203665
_cell_angle_alpha 90.000000
_cell_angle_beta 49.616183
_cell_angle_gamma 90.000000
_cell_volume 871.387691
_symmetry_space_group_name_H-M "P 21/C"
_symmetry_group_IT_number 14
_symmetry_cell_setting 'monoclinic'
loop_
_space_group_symop_operation_xyz
x,y,z
-x,1/2+y,1/2-z
-x,-y,-z
x,1/2-y,1/2+z
loop_
_atom_site_type_symbol
_atom_site_label
_atom_site_fract_x
_atom_site_fract_y
_atom_site_fract_z
Si Si1 0.944976 0.655840 0.794110
Si Si2 0.194941 0.011746 0.914590
Si Si3 0.316567 0.685797 0.036277
Si Si4 0.434662 0.484459 0.599257
Si Si5 0.907290 0.012400 0.622992
O O1 0.713841 0.748742 0.855232
O O2 0.957272 0.408322 0.754059
O O3 0.064715 0.585690 0.821585
O O4 0.161939 0.227519 0.876850
O O5 0.420206 0.073844 0.886285
O O6 0.199262 0.732807 0.886427
O O7 0.000000 0.000000 0.000000
O O8 0.139777 0.514215 0.052997
O O9 0.291989 0.818575 0.098949
O O10 0.500000 0.500000 0.000000
O O11 0.386937 0.903438 0.980896
#
# Coordination Sequence:
#
# PCOD9251506 Si02
#       5
#     4   4   4   4   4
#     4  12  27  49  73  96 133 198 256 288 323 403
#     4  12  25  41  69 114 149 172 209 287 385 429
#     4  11  21  39  71 105 140 178 229 289 360 418
#     4  11  25  41  70 106 141 181 234 290 351 424
#     4  12  25  44  69 105 145 177 227 289 352 426
#
# _framework density 22.951898
#
# number of rings (size 3 to 8) (size 9 to 14) (size 15 to 20)
#    0.000    0.400    4.000    5.400    2.800    0.000 
#    0.000    4.000    0.000    2.400    0.000    0.000 
#    0.000    0.000    0.000    0.000    0.000    0.000 
#
# Total GULP energy -111582.838850 kJ/mol
# GULP energy per Si atom -5579.141942 kJ/mol
# Density = 2.289966 g / cm^3
# Si number density = 22.951898 Si / 1000 Ang^3
#
#
#
# Elastic Constant Matrix: (Units=GPa)
#
#
# Indices 1 2 3 4 5 6 
#
# 1 69.9615 0.6512 20.3242 0.0000 -0.6767 0.0000
# 2 0.6512 111.3148 31.7018 0.0000 9.5266 0.0000
# 3 20.3242 31.7018 69.9399 0.0000 9.5830 0.0000
# 4 0.0000 0.0000 0.0000 49.4588 0.0000 3.2740
# 5 -0.6767 9.5266 9.5830 0.0000 21.7626 0.0000
# 6 0.0000 0.0000 0.0000 3.2740 0.0000 38.9322
#
#
#
# Elastic Compliance Matrix: (Units=1/GPa)
#
#
# Indices 1 2 3 4 5 6 
#
# 1 0.015910 0.001278 -0.005528 0.000000 0.002369 0.000000
# 2 0.001278 0.010560 -0.004821 0.000000 -0.002460 0.000000
# 3 -0.005528 -0.004821 0.018968 0.000000 -0.006414 0.000000
# 4 0.000000 0.000000 0.000000 0.020332 0.000000 -0.001710
# 5 0.002369 -0.002460 -0.006414 0.000000 0.049925 0.000000
# 6 0.000000 0.000000 0.000000 -0.001710 0.000000 0.025829
#
#
# Mechanical properties :
#
#
# Convention : Reuss Voigt Hill
#
# Bulk Modulus (GPa) = 36.63241 39.61896 38.12569
# Shear Modulus (GPa) = 29.62711 35.26665 32.44688
#
# Velocity S-wave (km/s) = 3.59672 3.92413 3.76399
# Velocity P-wave (km/s) = 5.76573 6.15069 5.96132
#
# Compressibility (1/GPa) = 0.02729823
#
# Stress axis : x y z
#
# Youngs Moduli (GPa) = 62.85198 94.70142 52.71968
#
# Poissons Ratio (x) = -0.12107 0.29141
# Poissons Ratio (y) = -0.08035 0.25415
# Poissons Ratio (z) = 0.34742 0.45653
#
# Static dielectric constant tensor:
#      x y z
#    x 1.898180 0.000000 0.053970 
#    y 0.000000 1.869010 0.000000 
#    z 0.053970 0.000000 1.981130 
# 
# From -- ./inp_files/75993.got.cif
#   From: 2010.05.17/outbox.cif.g08.bks.cpg/sg14_38_cif.got.tgz:75993.got - 2010.06.03 17:49:19.
