data_PCOD9251695
_publ_section_title
;
Structure prediction by ZEFSAII (Michael W. Deem and Ramdas Pophale) SiO2 
 PCOD9251695
Probable space group: P 21/C
;
_chemical_formula_sum "Si O2"
_cell_formula_units_Z 32
_cell_length_a 16.181677
_cell_length_b 15.066825
_cell_length_c 12.451609
_cell_angle_alpha 90.000000
_cell_angle_beta 25.565508
_cell_angle_gamma 90.000000
_cell_volume 1310.070266
_symmetry_space_group_name_H-M "P 21/C"
_symmetry_group_IT_number 14
_symmetry_cell_setting 'monoclinic'
loop_
_space_group_symop_operation_xyz
x,y,z
-x,1/2+y,1/2-z
-x,-y,-z
x,1/2-y,1/2+z
loop_
_atom_site_type_symbol
_atom_site_label
_atom_site_fract_x
_atom_site_fract_y
_atom_site_fract_z
Si Si1 0.811995 0.302374 0.125544
Si Si2 0.321740 0.152339 0.809812
Si Si3 0.083945 0.503486 0.658484
Si Si4 0.730552 0.544123 0.941262
Si Si5 0.406035 0.784031 0.318468
Si Si6 0.669743 0.099364 0.986439
Si Si7 0.205734 0.264319 0.244470
Si Si8 0.689909 0.096683 0.299791
O O1 0.759004 0.322608 0.064088
O O2 0.689151 0.370542 0.341318
O O3 0.747851 0.200606 0.228980
O O4 0.033454 0.295745 0.902494
O O5 0.481518 0.176665 0.710723
O O6 0.214489 0.224440 0.862924
O O7 0.458440 0.097906 0.566746
O O8 0.160232 0.094779 0.053453
O O9 0.149855 0.539787 0.694654
O O10 0.210742 0.555811 0.420487
O O11 0.870840 0.522071 0.874264
O O12 0.800633 0.637581 0.805383
O O13 0.747890 0.463859 0.834404
O O14 0.520807 0.554376 0.240424
O O15 0.321779 0.692055 0.459646
O O16 0.585971 0.771373 0.029158
#
# Coordination Sequence:
#
# PCOD9251695 Si02
#       8
#     4   4   4   4   4   4   4   4
#     4  12  24  41  66  92 130 172 208 254 323 380
#     4  12  23  39  67  94 130 165 213 264 323 372
#     4  12  22  39  64  96 125 164 209 268 320 376
#     4  11  22  38  66  97 128 159 209 265 328 371
#     4  11  23  41  58  93 130 166 206 260 314 380
#     4  11  23  39  62  90 127 167 208 259 315 380
#     4  11  22  40  64  94 126 165 206 264 314 380
#     4  12  19  39  65  97 129 160 204 269 324 372
#
# _framework density 24.426171
#
# number of rings (size 3 to 8) (size 9 to 14) (size 15 to 20)
#    0.000    0.500    7.500    2.250    0.000    4.000 
#    2.250    0.625    0.000    1.500    0.000    0.000 
#    0.000    0.000    0.000    0.000    0.000    0.000 
#
# Total GULP energy -178881.544725 kJ/mol
# GULP energy per Si atom -5590.048273 kJ/mol
# Density = 2.437058 g / cm^3
# Si number density = 24.426171 Si / 1000 Ang^3
#
#
#
# Elastic Constant Matrix: (Units=GPa)
#
#
# Indices 1 2 3 4 5 6 
#
# 1 153.1364 25.8512 38.7565 0.0000 -19.2472 0.0000
# 2 25.8512 40.2093 24.7827 0.0000 6.3276 0.0000
# 3 38.7565 24.7827 46.4476 0.0000 -18.1110 0.0000
# 4 0.0000 0.0000 0.0000 29.8174 0.0000 2.0503
# 5 -19.2472 6.3276 -18.1110 0.0000 22.7881 0.0000
# 6 0.0000 0.0000 0.0000 2.0503 0.0000 40.9212
#
#
#
# Elastic Compliance Matrix: (Units=1/GPa)
#
#
# Indices 1 2 3 4 5 6 
#
# 1 0.008968 -0.007840 0.000728 0.000000 0.010330 0.000000
# 2 -0.007840 0.100085 -0.087347 0.000000 -0.103832 0.000000
# 3 0.000728 -0.087347 0.111902 0.000000 0.113804 0.000000
# 4 0.000000 0.000000 0.000000 0.033653 0.000000 -0.001686
# 5 0.010330 -0.103832 0.113804 0.000000 0.171885 0.000000
# 6 0.000000 0.000000 0.000000 -0.001686 0.000000 0.024522
#
#
# Mechanical properties :
#
#
# Convention : Reuss Voigt Hill
#
# Bulk Modulus (GPa) = 31.21302 46.50824 38.86063
# Shear Modulus (GPa) = 7.68508 28.73219 18.20864
#
# Velocity S-wave (km/s) = 1.77569 3.43343 2.73327
# Velocity P-wave (km/s) = 4.12436 5.89911 5.08969
#
# Compressibility (1/GPa) = 0.03203792
#
# Stress axis : x y z
#
# Youngs Moduli (GPa) = 111.51250 9.99146 8.93640
#
# Poissons Ratio (x) = 0.07833 -0.00651
# Poissons Ratio (y) = 0.87423 0.78057
# Poissons Ratio (z) = -0.08119 0.87272
#
# Static dielectric constant tensor:
#      x y z
#    x 2.077550 0.000000 0.040690 
#    y 0.000000 2.007210 0.000000 
#    z 0.040690 0.000000 1.919610 
# 
# From -- ./inp_files/33042.got.cif
#   From: 2010.05.17/outbox.cif.g08.bks.cpg/sg14_17_cif.got.tgz:33042.got - 2010.06.03 17:49:19.
