data_PCOD9251532
_publ_section_title
;
Structure prediction by ZEFSAII (Michael W. Deem and Ramdas Pophale) SiO2 
 PCOD9251532
Probable space group: P 21/C
;
_chemical_formula_sum "Si O2"
_cell_formula_units_Z 24
_cell_length_a 11.686133
_cell_length_b 10.113975
_cell_length_c 8.947349
_cell_angle_alpha 90.000000
_cell_angle_beta 109.988051
_cell_angle_gamma 90.000000
_cell_volume 993.815691
_symmetry_space_group_name_H-M "P 21/C"
_symmetry_group_IT_number 14
_symmetry_cell_setting 'monoclinic'
loop_
_space_group_symop_operation_xyz
x,y,z
-x,1/2+y,1/2-z
-x,-y,-z
x,1/2-y,1/2+z
loop_
_atom_site_type_symbol
_atom_site_label
_atom_site_fract_x
_atom_site_fract_y
_atom_site_fract_z
Si Si1 0.902396 0.352923 0.107847
Si Si2 0.851919 0.575212 0.711253
Si Si3 0.082004 0.376751 0.578260
Si Si4 0.520003 0.643427 0.429029
Si Si5 0.754072 0.183519 0.249288
Si Si6 0.686018 0.702475 0.229341
O O1 0.830062 0.307071 0.222113
O O2 0.009838 0.459664 0.176889
O O3 0.992932 0.232778 0.103039
O O4 0.806790 0.364534 0.931439
O O5 0.863168 0.656720 0.561983
O O6 0.784340 0.438156 0.651949
O O7 0.766211 0.660722 0.783921
O O8 0.198156 0.394559 0.738843
O O9 0.000000 0.500000 0.500000
O O10 0.500000 0.500000 0.500000
O O11 0.389618 0.699558 0.319357
O O12 0.607307 0.638246 0.325126
O O13 0.588662 0.749131 0.564981
#
# Coordination Sequence:
#
# PCOD9251532 Si02
#       6
#     4   4   4   4   4   4
#     4  11  24  38  66 101 137 172 228 293 357 418
#     4  11  22  43  69  98 139 183 230 297 364 427
#     4  11  21  40  70 102 135 182 226 289 362 425
#     4  12  25  48  73  97 144 196 245 296 352 437
#     4  12  23  43  66  96 137 183 232 290 357 426
#     4  11  24  46  72 100 140 193 241 294 364 425
#
# _framework density 24.149346999999999
#
# number of rings (size 3 to 8) (size 9 to 14) (size 15 to 20)
#    0.000    0.667    6.667    1.500    0.000    0.000 
#    3.000    0.833    0.000    0.000    0.000    0.000 
#    0.000    0.000    0.000    0.000    0.000    0.000 
#
# Total GULP energy -133956.871629 kJ/mol
# GULP energy per Si atom -5581.536318 kJ/mol
# Density = 2.409438 g / cm^3
# Si number density = 24.149347 Si / 1000 Ang^3
#
#
#
# Elastic Constant Matrix: (Units=GPa)
#
#
# Indices 1 2 3 4 5 6 
#
# 1 170.0119 21.5111 30.8829 0.0000 51.6905 0.0000
# 2 21.5111 61.2131 -10.8551 0.0000 2.6175 0.0000
# 3 30.8829 -10.8551 86.2052 0.0000 40.0794 0.0000
# 4 0.0000 0.0000 0.0000 31.0236 0.0000 3.6132
# 5 51.6905 2.6175 40.0794 0.0000 58.7189 0.0000
# 6 0.0000 0.0000 0.0000 3.6132 0.0000 39.7251
#
#
#
# Elastic Compliance Matrix: (Units=1/GPa)
#
#
# Indices 1 2 3 4 5 6 
#
# 1 0.008441 -0.002640 0.000064 0.000000 -0.007357 0.000000
# 2 -0.002640 0.017955 0.003660 0.000000 -0.000974 0.000000
# 3 0.000064 0.003660 0.017784 0.000000 -0.012358 0.000000
# 4 0.000000 0.000000 0.000000 0.032579 0.000000 -0.002963
# 5 -0.007357 -0.000974 -0.012358 0.000000 0.031985 0.000000
# 6 0.000000 0.000000 0.000000 -0.002963 0.000000 0.025443
#
#
# Mechanical properties :
#
#
# Convention : Reuss Voigt Hill
#
# Bulk Modulus (GPa) = 21.57695 44.50089 33.03892
# Shear Modulus (GPa) = 33.90560 44.28627 39.09594
#
# Velocity S-wave (km/s) = 3.75106 4.28699 4.02795
# Velocity P-wave (km/s) = 5.26448 6.55529 5.94502
#
# Compressibility (1/GPa) = 0.04634575
#
# Stress axis : x y z
#
# Youngs Moduli (GPa) = 118.46729 55.69517 56.23117
#
# Poissons Ratio (x) = 0.14706 -0.00359
# Poissons Ratio (y) = 0.31281 -0.20579
# Poissons Ratio (z) = -0.00756 -0.20382
#
# Static dielectric constant tensor:
#      x y z
#    x 1.923990 0.000000 -0.002940 
#    y 0.000000 2.035570 0.000000 
#    z -0.002940 0.000000 2.094250 
# 
# From -- ./inp_files/12513.got.cif
#   From: 2010.05.17/outbox.cif.g08.bks.cpg/sg14_7_cif.got.tgz:12513.got - 2010.06.03 17:49:19.
