data_PCOD9251896
_publ_section_title
;
Structure prediction by ZEFSAII (Michael W. Deem and Ramdas Pophale) SiO2 
 PCOD9251896
Probable space group: P 21/C
;
_chemical_formula_sum "Si O2"
_cell_formula_units_Z 20
_cell_length_a 18.020441
_cell_length_b 6.817470
_cell_length_c 13.306671
_cell_angle_alpha 90.000000
_cell_angle_beta 146.477191
_cell_angle_gamma 90.000000
_cell_volume 902.835570
_symmetry_space_group_name_H-M "P 21/C"
_symmetry_group_IT_number 14
_symmetry_cell_setting 'monoclinic'
loop_
_space_group_symop_operation_xyz
x,y,z
-x,1/2+y,1/2-z
-x,-y,-z
x,1/2-y,1/2+z
loop_
_atom_site_type_symbol
_atom_site_label
_atom_site_fract_x
_atom_site_fract_y
_atom_site_fract_z
Si Si1 0.911224 0.695941 0.402192
Si Si2 0.208303 0.852526 0.473770
Si Si3 0.043687 0.515398 0.212907
Si Si4 0.573118 0.193744 0.120633
Si Si5 0.638903 0.968984 0.541347
O O1 0.757626 0.631418 0.240140
O O2 0.000000 0.500000 0.500000
O O3 0.920615 0.823981 0.311219
O O4 0.968643 0.834943 0.553290
O O5 0.064056 0.954765 0.325348
O O6 0.286468 0.852885 0.667192
O O7 0.296517 0.963540 0.490402
O O8 0.172293 0.630852 0.399933
O O9 0.592913 0.338894 0.049439
O O10 0.481701 0.313577 0.097339
O O11 0.500000 0.000000 0.000000
#
# Coordination Sequence:
#
# PCOD9251896 Si02
#       5
#     4   4   4   4   4
#     4  11  22  46  72 103 152 189 240 306 372 434
#     4  12  26  45  75 107 145 189 247 303 374 442
#     4  11  26  42  71 112 145 189 240 310 370 443
#     4  11  28  50  70 100 145 195 246 305 366 440
#     4  11  26  46  71 101 140 191 243 297 362 443
#
# _framework density 22.152429000000001
#
# number of rings (size 3 to 8) (size 9 to 14) (size 15 to 20)
#    0.000    0.800    2.000    3.600   11.200    0.000 
#    3.600    0.000    0.000    0.000    0.000    0.000 
#    0.000    0.000    0.000    0.000    0.000    0.000 
#
# Total GULP energy -112005.472659 kJ/mol
# GULP energy per Si atom -5600.273633 kJ/mol
# Density = 2.210201 g / cm^3
# Si number density = 22.152429 Si / 1000 Ang^3
#
#
#
# Elastic Constant Matrix: (Units=GPa)
#
#
# Indices 1 2 3 4 5 6 
#
# 1 90.2008 40.6352 -22.7337 0.0000 4.0195 0.0000
# 2 40.6352 149.1201 27.6828 0.0000 -3.1754 0.0000
# 3 -22.7337 27.6828 65.6356 0.0000 -2.4583 0.0000
# 4 0.0000 0.0000 0.0000 41.1779 0.0000 7.0251
# 5 4.0195 -3.1754 -2.4583 0.0000 30.7895 0.0000
# 6 0.0000 0.0000 0.0000 7.0251 0.0000 39.3112
#
#
#
# Elastic Compliance Matrix: (Units=1/GPa)
#
#
# Indices 1 2 3 4 5 6 
#
# 1 0.015757 -0.005789 0.007823 0.000000 -0.002029 0.000000
# 2 -0.005789 0.009411 -0.005927 0.000000 0.001253 0.000000
# 3 0.007823 -0.005927 0.020445 0.000000 0.000000 0.000000
# 4 0.000000 0.000000 0.000000 0.025049 0.000000 -0.004476
# 5 -0.002029 0.001253 0.000000 0.000000 0.032873 0.000000
# 6 0.000000 0.000000 0.000000 -0.004476 0.000000 0.026238
#
#
# Mechanical properties :
#
#
# Convention : Reuss Voigt Hill
#
# Bulk Modulus (GPa) = 26.43708 44.01389 35.22549
# Shear Modulus (GPa) = 33.29634 39.54720 36.42177
#
# Velocity S-wave (km/s) = 3.88113 4.22978 4.05920
# Velocity P-wave (km/s) = 5.66077 6.61563 6.15674
#
# Compressibility (1/GPa) = 0.03782566
#
# Stress axis : x y z
#
# Youngs Moduli (GPa) = 63.46582 106.26340 48.91128
#
# Poissons Ratio (x) = 0.61518 -0.38264
# Poissons Ratio (y) = 0.36741 0.28991
# Poissons Ratio (z) = -0.49650 0.62985
#
# Static dielectric constant tensor:
#      x y z
#    x 1.822540 0.000000 0.004820 
#    y 0.000000 1.816270 0.000000 
#    z 0.004820 0.000000 1.804160 
# 
# From -- ./inp_files/49765.got.cif
#   From: 2010.05.17/outbox.cif.g08.bks.cpg/sg14_25_cif.got.tgz:49765.got - 2010.06.03 17:49:19.
