data_PCOD9251498
_publ_section_title
;
Structure prediction by ZEFSAII (Michael W. Deem and Ramdas Pophale) SiO2 
 PCOD9251498
Probable space group: P 21/C
;
_chemical_formula_sum "Si O2"
_cell_formula_units_Z 24
_cell_length_a 12.953007
_cell_length_b 13.257769
_cell_length_c 8.895618
_cell_angle_alpha 90.000000
_cell_angle_beta 32.973086
_cell_angle_gamma 90.000000
_cell_volume 831.403094
_symmetry_space_group_name_H-M "P 21/C"
_symmetry_group_IT_number 14
_symmetry_cell_setting 'monoclinic'
loop_
_space_group_symop_operation_xyz
x,y,z
-x,1/2+y,1/2-z
-x,-y,-z
x,1/2-y,1/2+z
loop_
_atom_site_type_symbol
_atom_site_label
_atom_site_fract_x
_atom_site_fract_y
_atom_site_fract_z
Si Si1 0.295788 0.165717 0.808501
Si Si2 0.513867 0.283045 0.770291
Si Si3 0.156256 0.627584 0.447264
Si Si4 0.413939 0.560008 0.870957
Si Si5 0.006690 0.657180 0.085410
Si Si6 0.810961 0.949179 0.566899
O O1 0.422766 0.257937 0.720549
O O2 0.340002 0.173472 0.581458
O O3 0.395367 0.068153 0.763350
O O4 0.091861 0.169101 0.130961
O O5 0.690873 0.348858 0.607733
O O6 0.581381 0.167472 0.721114
O O7 0.247929 0.565870 0.198242
O O8 0.105937 0.736835 0.437175
O O9 0.975385 0.578739 0.746620
O O10 0.379515 0.472129 0.794411
O O11 0.137038 0.558964 0.928778
O O12 0.843768 0.629947 0.161546
#
# Coordination Sequence:
#
# PCOD9251498 Si02
#       6
#     4   4   4   4   4   4
#     4   9  21  36  64  90 126 165 211 257 318 374
#     4   9  19  39  63  87 128 171 203 259 321 378
#     4  11  21  39  67  89 128 172 210 263 315 379
#     4   9  20  40  59  91 126 167 208 257 319 369
#     4  11  24  39  61  99 122 165 217 262 315 385
#     4  11  24  39  64  93 128 166 217 262 316 381
#
# _framework density 28.866864
#
# number of rings (size 3 to 8) (size 9 to 14) (size 15 to 20)
#    1.000    1.000    1.667    1.500    2.333    0.667 
#    0.000    5.000    0.000    0.000    0.000    0.000 
#    0.000    0.000    0.000    0.000    0.000    0.000 
#
# Total GULP energy -134468.283912 kJ/mol
# GULP energy per Si atom -5602.845163 kJ/mol
# Density = 2.880116 g / cm^3
# Si number density = 28.866864 Si / 1000 Ang^3
#
#
#
# Elastic Constant Matrix: (Units=GPa)
#
#
# Indices 1 2 3 4 5 6 
#
# 1 146.0493 43.8657 16.1103 0.0000 9.9491 0.0000
# 2 43.8657 151.4941 -1.0861 0.0000 7.5322 0.0000
# 3 16.1103 -1.0861 104.2756 0.0000 22.6684 0.0000
# 4 0.0000 0.0000 0.0000 28.1985 0.0000 -0.7590
# 5 9.9491 7.5322 22.6684 0.0000 32.9085 0.0000
# 6 0.0000 0.0000 0.0000 -0.7590 0.0000 58.1182
#
#
#
# Elastic Compliance Matrix: (Units=1/GPa)
#
#
# Indices 1 2 3 4 5 6 
#
# 1 0.007685 -0.002174 -0.000956 0.000000 -0.001167 0.000000
# 2 -0.002174 0.007312 0.000744 0.000000 -0.001529 0.000000
# 3 -0.000956 0.000744 0.011431 0.000000 -0.007756 0.000000
# 4 0.000000 0.000000 0.000000 0.035475 0.000000 0.000463
# 5 -0.001167 -0.001529 -0.007756 0.000000 0.036432 0.000000
# 6 0.000000 0.000000 0.000000 0.000463 0.000000 0.017212
#
#
# Mechanical properties :
#
#
# Convention : Reuss Voigt Hill
#
# Bulk Modulus (GPa) = 46.17544 57.73320 51.95432
# Shear Modulus (GPa) = 39.20373 46.70698 42.95536
#
# Velocity S-wave (km/s) = 3.68922 4.02682 3.86171
# Velocity P-wave (km/s) = 5.84618 6.45473 6.15798
#
# Compressibility (1/GPa) = 0.02165653
#
# Stress axis : x y z
#
# Youngs Moduli (GPa) = 130.12437 136.76557 87.47786
#
# Poissons Ratio (x) = 0.29733 0.08365
# Poissons Ratio (y) = 0.28290 -0.06512
# Poissons Ratio (z) = 0.12443 -0.10182
#
# Static dielectric constant tensor:
#      x y z
#    x 2.279970 0.000000 -0.055600 
#    y 0.000000 2.263640 0.000000 
#    z -0.055600 0.000000 2.166920 
# 
# From -- ./inp_files/33860.got.cif
#   From: 2010.05.17/outbox.cif.g08.bks.cpg/sg14_17_cif.got.tgz:33860.got - 2010.06.03 17:49:19.
