data_PCOD9251649
_publ_section_title
;
Structure prediction by ZEFSAII (Michael W. Deem and Ramdas Pophale) SiO2 
 PCOD9251649
Probable space group: P 21/C
;
_chemical_formula_sum "Si O2"
_cell_formula_units_Z 32
_cell_length_a 11.677859
_cell_length_b 19.564267
_cell_length_c 7.988381
_cell_angle_alpha 90.000000
_cell_angle_beta 57.082713
_cell_angle_gamma 90.000000
_cell_volume 1532.087207
_symmetry_space_group_name_H-M "P 21/C"
_symmetry_group_IT_number 14
_symmetry_cell_setting 'monoclinic'
loop_
_space_group_symop_operation_xyz
x,y,z
-x,1/2+y,1/2-z
-x,-y,-z
x,1/2-y,1/2+z
loop_
_atom_site_type_symbol
_atom_site_label
_atom_site_fract_x
_atom_site_fract_y
_atom_site_fract_z
Si Si1 0.332713 0.075604 0.450226
Si Si2 0.186885 0.180331 0.011360
Si Si3 0.903950 0.671548 0.799096
Si Si4 0.719997 0.423780 0.889808
Si Si5 0.000061 0.930519 0.712040
Si Si6 0.883489 0.427023 0.253822
Si Si7 0.447043 0.387766 0.229563
Si Si8 0.606492 0.040533 0.112808
O O1 0.203570 0.122468 0.519035
O O2 0.393900 0.098120 0.581919
O O3 0.457614 0.074915 0.221148
O O4 0.286213 0.997970 0.516228
O O5 0.128753 0.252133 0.117728
O O6 0.126000 0.120039 0.171869
O O7 0.132338 0.166996 0.867381
O O8 0.350935 0.171693 0.877184
O O9 0.053193 0.641484 0.717757
O O10 0.876884 0.403460 0.770590
O O11 0.669834 0.436026 0.741091
O O12 0.608811 0.378120 0.076205
O O13 0.063036 0.929906 0.477378
O O14 0.948954 0.006776 0.794439
O O15 0.721117 0.437251 0.391385
O O16 0.418521 0.459100 0.349779
#
# Coordination Sequence:
#
# PCOD9251649 Si02
#       8
#     4   4   4   4   4   4   4   4
#     4   8  16  31  55  82 107 138 182 228 274 331
#     4  11  22  38  58  81 111 149 187 228 282 339
#     4  11  22  38  58  81 111 149 187 228 282 339
#     4   9  16  32  57  83 107 139 184 229 275 328
#     4  11  22  35  53  83 117 148 187 234 279 328
#     4  11  22  35  53  83 117 148 187 234 279 328
#     4   8  16  31  55  82 107 138 182 228 274 331
#     4   9  16  32  57  83 107 139 184 229 275 328
#
# _framework density 20.88654
#
# number of rings (size 3 to 8) (size 9 to 14) (size 15 to 20)
#    0.000    2.250    2.500    3.000    0.000    1.000 
#    0.000    6.250    0.000    3.000    0.000    0.000 
#    0.000    0.000    0.000    0.000    0.000    0.000 
#
# Total GULP energy -178644.240621 kJ/mol
# GULP energy per Si atom -5582.632519 kJ/mol
# Density = 2.083900 g / cm^3
# Si number density = 20.886540 Si / 1000 Ang^3
#
#
#
# Elastic Constant Matrix: (Units=GPa)
#
#
# Indices 1 2 3 4 5 6 
#
# 1 35.3192 -6.9682 11.0448 0.0000 -5.6173 0.0000
# 2 -6.9682 56.9770 20.5030 0.0000 -4.9037 0.0000
# 3 11.0448 20.5030 94.5960 0.0000 -15.7852 0.0000
# 4 0.0000 0.0000 0.0000 23.6728 0.0000 -6.5637
# 5 -5.6173 -4.9037 -15.7852 0.0000 29.4382 0.0000
# 6 0.0000 0.0000 0.0000 -6.5637 0.0000 19.2922
#
#
#
# Elastic Compliance Matrix: (Units=1/GPa)
#
#
# Indices 1 2 3 4 5 6 
#
# 1 0.031494 0.005747 -0.004130 0.000000 0.004753 0.000000
# 2 0.005747 0.020114 -0.004710 0.000000 0.001922 0.000000
# 3 -0.004130 -0.004710 0.012973 0.000000 0.005384 0.000000
# 4 0.000000 0.000000 0.000000 0.046643 0.000000 0.015869
# 5 0.004753 0.001922 0.005384 0.000000 0.038083 0.000000
# 6 0.000000 0.000000 0.000000 0.015869 0.000000 0.057233
#
#
# Mechanical properties :
#
#
# Convention : Reuss Voigt Hill
#
# Bulk Modulus (GPa) = 17.12468 26.22794 21.67631
# Shear Modulus (GPa) = 21.53403 25.30148 23.41775
#
# Velocity S-wave (km/s) = 3.21440 3.48426 3.35205
# Velocity P-wave (km/s) = 4.68969 5.36389 5.03808
#
# Compressibility (1/GPa) = 0.05839526
#
# Stress axis : x y z
#
# Youngs Moduli (GPa) = 31.75179 49.71667 77.08539
#
# Poissons Ratio (x) = -0.28571 0.31834
# Poissons Ratio (y) = -0.18247 0.36306
# Poissons Ratio (z) = 0.13113 0.23416
#
# Static dielectric constant tensor:
#      x y z
#    x 1.796150 0.000000 -0.007220 
#    y 0.000000 1.709290 0.000000 
#    z -0.007220 0.000000 1.793140 
# 
# From -- ./inp_files/13888.got.cif
#   From: 2010.05.17/outbox.cif.g08.bks.cpg/sg14_7_cif.got.tgz:13888.got - 2010.06.03 17:49:19.
