data_PCOD9251181
_publ_section_title
;
Structure prediction by ZEFSAII (Michael W. Deem and Ramdas Pophale) SiO2 
 PCOD9251181
Probable space group: P 21/C
;
_chemical_formula_sum "Si O2"
_cell_formula_units_Z 18
_cell_length_a 8.481592
_cell_length_b 7.965314
_cell_length_c 11.763339
_cell_angle_alpha 90.000000
_cell_angle_beta 99.682532
_cell_angle_gamma 90.000000
_cell_volume 783.393182
_symmetry_space_group_name_H-M "P 21/C"
_symmetry_group_IT_number 14
_symmetry_cell_setting 'monoclinic'
loop_
_space_group_symop_operation_xyz
x,y,z
-x,1/2+y,1/2-z
-x,-y,-z
x,1/2-y,1/2+z
loop_
_atom_site_type_symbol
_atom_site_label
_atom_site_fract_x
_atom_site_fract_y
_atom_site_fract_z
Si Si1 0.162072 0.051906 0.084793
Si Si2 0.500000 0.000000 0.000000
Si Si3 0.684875 0.021347 0.674135
Si Si4 0.613822 0.391828 0.738602
Si Si5 0.822892 0.552123 0.947792
O O1 0.322699 0.980633 0.045131
O O2 0.181567 0.252645 0.083340
O O3 0.169788 0.997993 0.218434
O O4 0.000000 0.000000 0.000000
O O5 0.591802 0.980475 0.132590
O O6 0.625751 0.212767 0.678863
O O7 0.543202 0.904784 0.703053
O O8 0.721425 0.978704 0.549445
O O9 0.758298 0.440023 0.837116
O O10 0.000000 0.500000 0.000000
#
# Coordination Sequence:
#
# PCOD9251181 Si02
#       5
#     4   2   4   4   4
#     4  11  27  48  76 109 153 199 256 310 389 450
#     4  10  26  44  78 102 150 196 246 308 374 440
#     4  11  27  46  76 109 149 200 252 315 379 452
#     4  11  25  47  74 107 150 193 258 304 386 444
#     4  12  29  46  75 112 152 198 253 314 385 460
#
# _framework density 22.976966999999998
#
# number of rings (size 3 to 8) (size 9 to 14) (size 15 to 20)
#    0.000    0.889    0.000    4.667   21.778    0.000 
#    0.000    0.000    0.000    0.000    0.000    0.000 
#    0.000    0.000    0.000    0.000    0.000    0.000 
#
# Total GULP energy -100286.154341 kJ/mol
# GULP energy per Si atom -5571.453019 kJ/mol
# Density = 2.292467 g / cm^3
# Si number density = 22.976967 Si / 1000 Ang^3
#
#
#
# Elastic Constant Matrix: (Units=GPa)
#
#
# Indices 1 2 3 4 5 6 
#
# 1 65.8542 -9.4068 20.3805 0.0000 24.5969 0.0000
# 2 -9.4068 61.3031 -27.0116 0.0000 -3.9505 0.0000
# 3 20.3805 -27.0116 95.0970 0.0000 9.7794 0.0000
# 4 0.0000 0.0000 0.0000 10.7639 0.0000 1.0153
# 5 24.5969 -3.9505 9.7794 0.0000 52.1499 0.0000
# 6 0.0000 0.0000 0.0000 1.0153 0.0000 14.0015
#
#
#
# Elastic Compliance Matrix: (Units=1/GPa)
#
#
# Indices 1 2 3 4 5 6 
#
# 1 0.019452 0.001126 -0.002972 0.000000 -0.008532 0.000000
# 2 0.001126 0.018721 0.005083 0.000000 -0.000066 0.000000
# 3 -0.002972 0.005083 0.012657 0.000000 -0.000587 0.000000
# 4 0.000000 0.000000 0.000000 0.093543 0.000000 -0.006783
# 5 -0.008532 -0.000066 -0.000587 0.000000 0.023305 0.000000
# 6 0.000000 0.000000 0.000000 -0.006783 0.000000 0.071913
#
#
# Mechanical properties :
#
#
# Convention : Reuss Voigt Hill
#
# Bulk Modulus (GPa) = 17.45098 21.13094 19.29096
# Shear Modulus (GPa) = 19.82417 31.26922 25.54670
#
# Velocity S-wave (km/s) = 2.94051 3.69303 3.33804
# Velocity P-wave (km/s) = 4.37496 5.23461 4.82397
#
# Compressibility (1/GPa) = 0.05730336
#
# Stress axis : x y z
#
# Youngs Moduli (GPa) = 51.40747 53.41730 79.01039
#
# Poissons Ratio (x) = -0.06013 0.23480
# Poissons Ratio (y) = -0.05787 -0.40161
# Poissons Ratio (z) = 0.15277 -0.27152
#
# Static dielectric constant tensor:
#      x y z
#    x 1.863990 0.000000 0.000750 
#    y 0.000000 1.883700 0.000000 
#    z 0.000750 0.000000 1.849860 
# 
# From -- ./inp_files/22601.got.cif
#   From: 2010.05.17/outbox.cif.g08.bks.cpg/sg14_12_cif.got.tgz:22601.got - 2010.06.03 17:49:19.
