data_PCOD9251372
_publ_section_title
;
Structure prediction by ZEFSAII (Michael W. Deem and Ramdas Pophale) SiO2 
 PCOD9251372
Probable space group: P 21/C
;
_chemical_formula_sum "Si O2"
_cell_formula_units_Z 20
_cell_length_a 7.445928
_cell_length_b 8.871609
_cell_length_c 17.393726
_cell_angle_alpha 90.000000
_cell_angle_beta 129.260049
_cell_angle_gamma 90.000000
_cell_volume 889.636973
_symmetry_space_group_name_H-M "P 21/C"
_symmetry_group_IT_number 14
_symmetry_cell_setting 'monoclinic'
loop_
_space_group_symop_operation_xyz
x,y,z
-x,1/2+y,1/2-z
-x,-y,-z
x,1/2-y,1/2+z
loop_
_atom_site_type_symbol
_atom_site_label
_atom_site_fract_x
_atom_site_fract_y
_atom_site_fract_z
Si Si1 0.704900 0.747093 0.367242
Si Si2 0.977708 0.704411 0.085986
Si Si3 0.244042 0.943640 0.402871
Si Si4 0.495930 0.663826 0.466253
Si Si5 0.307900 0.958579 0.240108
O O1 0.925661 0.781560 0.481130
O O2 0.528864 0.672173 0.383190
O O3 0.574070 0.901086 0.309801
O O4 0.733275 0.619060 0.311332
O O5 0.959739 0.533014 0.110049
O O6 0.174428 0.820160 0.162975
O O7 0.739950 0.766589 0.060842
O O8 0.274029 0.765189 0.425984
O O9 0.231499 0.967719 0.308181
O O10 0.500000 0.000000 0.500000
O O11 0.500000 0.500000 0.500000
#
# Coordination Sequence:
#
# PCOD9251372 Si02
#       5
#     4   4   4   4   4
#     4   9  22  37  57  85 123 154 195 262 292 366
#     4   9  20  38  59  82 120 153 200 247 296 368
#     4   9  18  37  60  82 120 155 194 259 291 355
#     4   8  17  34  58  86 116 151 193 243 300 344
#     4  11  20  38  62  86 119 160 203 238 318 357
#
# _framework density 22.481079000000001
#
# number of rings (size 3 to 8) (size 9 to 14) (size 15 to 20)
#    1.200    1.600    2.000    0.600    0.000    6.400 
#    0.000    3.000    4.400    0.000    0.000    0.000 
#    0.000    0.000    0.000    0.000    0.000    0.000 
#
# Total GULP energy -111378.464611 kJ/mol
# GULP energy per Si atom -5568.923231 kJ/mol
# Density = 2.242991 g / cm^3
# Si number density = 22.481079 Si / 1000 Ang^3
#
#
#
# Elastic Constant Matrix: (Units=GPa)
#
#
# Indices 1 2 3 4 5 6 
#
# 1 59.4037 37.0953 28.5987 0.0000 -3.5936 0.0000
# 2 37.0953 80.8433 20.0026 0.0000 -30.5497 0.0000
# 3 28.5987 20.0026 118.4024 0.0000 -13.3495 0.0000
# 4 0.0000 0.0000 0.0000 28.7855 0.0000 -12.3142
# 5 -3.5936 -30.5497 -13.3495 0.0000 19.5819 0.0000
# 6 0.0000 0.0000 0.0000 -12.3142 0.0000 37.5138
#
#
#
# Elastic Compliance Matrix: (Units=1/GPa)
#
#
# Indices 1 2 3 4 5 6 
#
# 1 0.044993 -0.042971 -0.011088 0.000000 -0.066341 0.000000
# 2 -0.042971 0.071182 0.010817 0.000000 0.110540 0.000000
# 3 -0.011088 0.010817 0.011883 0.000000 0.022942 0.000000
# 4 0.000000 0.000000 0.000000 0.040415 0.000000 0.013267
# 5 -0.066341 0.110540 0.022942 0.000000 0.226985 0.000000
# 6 0.000000 0.000000 0.000000 0.013267 0.000000 0.031012
#
#
# Mechanical properties :
#
#
# Convention : Reuss Voigt Hill
#
# Bulk Modulus (GPa) = 24.05364 47.78253 35.91809
# Shear Modulus (GPa) = 9.49104 28.70641 19.09873
#
# Velocity S-wave (km/s) = 2.05693 3.57727 2.91786
# Velocity P-wave (km/s) = 4.04525 6.19380 5.23102
#
# Compressibility (1/GPa) = 0.04157374
#
# Stress axis : x y z
#
# Youngs Moduli (GPa) = 22.22585 14.04842 84.15297
#
# Poissons Ratio (x) = 0.60368 0.93307
# Poissons Ratio (y) = 0.95507 -0.91027
# Poissons Ratio (z) = 0.24644 -0.15196
#
# Static dielectric constant tensor:
#      x y z
#    x 1.875020 0.000000 0.040040 
#    y 0.000000 1.975670 0.000000 
#    z 0.040040 0.000000 1.845800 
# 
# From -- ./inp_files/54962.got.cif
#   From: 2010.05.17/outbox.cif.g08.bks.cpg/sg14_28_cif.got.tgz:54962.got - 2010.06.03 17:49:19.
