data_PCOD9251961
_publ_section_title
;
Structure prediction by ZEFSAII (Michael W. Deem and Ramdas Pophale) SiO2 
 PCOD9251961
Probable space group: P 21/C
;
_chemical_formula_sum "Si O2"
_cell_formula_units_Z 28
_cell_length_a 27.223868
_cell_length_b 4.953443
_cell_length_c 8.650029
_cell_angle_alpha 90.000000
_cell_angle_beta 78.199616
_cell_angle_gamma 90.000000
_cell_volume 1141.820447
_symmetry_space_group_name_H-M "P 21/C"
_symmetry_group_IT_number 14
_symmetry_cell_setting 'monoclinic'
loop_
_space_group_symop_operation_xyz
x,y,z
-x,1/2+y,1/2-z
-x,-y,-z
x,1/2-y,1/2+z
loop_
_atom_site_type_symbol
_atom_site_label
_atom_site_fract_x
_atom_site_fract_y
_atom_site_fract_z
Si Si1 0.179812 0.139138 0.302954
Si Si2 0.028566 0.790100 0.091024
Si Si3 0.635114 0.872888 0.291810
Si Si4 0.214688 0.614547 0.097950
Si Si5 0.481196 0.129340 0.672164
Si Si6 0.672393 0.109946 0.588125
Si Si7 0.071351 0.412969 0.803140
O O1 0.213757 0.394506 0.237087
O O2 0.192545 0.891524 0.179500
O O3 0.186168 0.024225 0.471398
O O4 0.122409 0.232076 0.308667
O O5 0.076058 0.875251 0.162376
O O6 0.979254 0.727142 0.225372
O O7 0.051702 0.560970 0.967781
O O8 0.000000 0.000000 0.000000
O O9 0.577096 0.797786 0.307185
O O10 0.644426 0.982782 0.458063
O O11 0.648728 0.115189 0.166239
O O12 0.668314 0.613027 0.226486
O O13 0.270798 0.659537 0.000974
O O14 0.510989 0.395955 0.704502
O O15 0.500000 0.000000 0.500000
#
# Coordination Sequence:
#
# PCOD9251961 Si02
#       7
#     4   4   4   4   4   4   4
#     4  12  27  44  74  98 140 171 227 268 357 395
#     4  11  23  40  61  88 125 161 210 253 315 364
#     4  12  24  43  70 101 132 187 224 279 332 400
#     4  12  26  48  69 104 132 180 215 294 334 403
#     4  12  25  43  66  99 144 180 226 278 334 396
#     4  12  25  45  71  98 137 171 239 275 339 398
#     4  11  25  40  65  92 124 168 209 265 310 406
#
# _framework density 24.522247
#
# number of rings (size 3 to 8) (size 9 to 14) (size 15 to 20)
#    0.000    0.286    1.429    8.143    4.000    0.000 
#    0.000    0.000    0.000    0.000    0.000    0.000 
#    0.000    0.000    0.000    0.000    0.000    0.000 
#
# Total GULP energy -156776.873716 kJ/mol
# GULP energy per Si atom -5599.174061 kJ/mol
# Density = 2.446643 g / cm^3
# Si number density = 24.522247 Si / 1000 Ang^3
#
#
#
# Elastic Constant Matrix: (Units=GPa)
#
#
# Indices 1 2 3 4 5 6 
#
# 1 68.3265 -10.9357 -3.9824 0.0000 1.4348 0.0000
# 2 -10.9357 69.9868 0.8036 0.0000 -15.6372 0.0000
# 3 -3.9824 0.8036 76.9663 0.0000 0.2530 0.0000
# 4 0.0000 0.0000 0.0000 46.0648 0.0000 -0.6739
# 5 1.4348 -15.6372 0.2530 0.0000 34.9203 0.0000
# 6 0.0000 0.0000 0.0000 -0.6739 0.0000 13.3881
#
#
#
# Elastic Compliance Matrix: (Units=1/GPa)
#
#
# Indices 1 2 3 4 5 6 
#
# 1 0.015062 0.002450 0.000752 0.000000 0.000473 0.000000
# 2 0.002450 0.016278 -0.000067 0.000000 0.007189 0.000000
# 3 0.000752 -0.000067 0.013033 0.000000 -0.000155 0.000000
# 4 0.000000 0.000000 0.000000 0.021725 0.000000 0.001093
# 5 0.000473 0.007189 -0.000155 0.000000 0.031838 0.000000
# 6 0.000000 0.000000 0.000000 0.001093 0.000000 0.074748
#
#
# Mechanical properties :
#
#
# Convention : Reuss Voigt Hill
#
# Bulk Modulus (GPa) = 19.74543 20.78342 20.26443
# Shear Modulus (GPa) = 27.27873 34.16759 30.72316
#
# Velocity S-wave (km/s) = 3.33890 3.73678 3.54343
# Velocity P-wave (km/s) = 4.78893 5.20690 5.00228
#
# Compressibility (1/GPa) = 0.05064463
#
# Stress axis : x y z
#
# Youngs Moduli (GPa) = 66.39351 61.43123 76.72937
#
# Poissons Ratio (x) = -0.15054 -0.05771
# Poissons Ratio (y) = -0.16270 0.00513
# Poissons Ratio (z) = -0.04994 0.00410
#
# Static dielectric constant tensor:
#      x y z
#    x 2.284920 0.000000 0.203140 
#    y 0.000000 3.320080 0.000000 
#    z 0.203140 0.000000 2.137500 
# 
# From -- ./inp_files/19594.got.cif
#   From: 2010.05.17/outbox.cif.g08.bks.cpg/sg14_10_cif.got.tgz:19594.got - 2010.06.03 17:49:19.
