data_PCOD9251912
_publ_section_title
;
Structure prediction by ZEFSAII (Michael W. Deem and Ramdas Pophale) SiO2 
 PCOD9251912
Probable space group: P 21/C
;
_chemical_formula_sum "Si O2"
_cell_formula_units_Z 20
_cell_length_a 5.569473
_cell_length_b 17.630977
_cell_length_c 8.538911
_cell_angle_alpha 90.000000
_cell_angle_beta 83.262837
_cell_angle_gamma 90.000000
_cell_volume 832.690599
_symmetry_space_group_name_H-M "P 21/C"
_symmetry_group_IT_number 14
_symmetry_cell_setting 'monoclinic'
loop_
_space_group_symop_operation_xyz
x,y,z
-x,1/2+y,1/2-z
-x,-y,-z
x,1/2-y,1/2+z
loop_
_atom_site_type_symbol
_atom_site_label
_atom_site_fract_x
_atom_site_fract_y
_atom_site_fract_z
Si Si1 0.292111 0.456644 0.609615
Si Si2 0.773285 0.852947 0.169350
Si Si3 0.721532 0.281351 0.421507
Si Si4 0.359446 0.637197 0.240457
Si Si5 0.912644 0.985014 0.334250
O O1 0.500000 0.500000 0.500000
O O2 0.171010 0.406369 0.485279
O O3 0.380183 0.397177 0.734231
O O4 0.146986 0.521797 0.707187
O O5 0.513654 0.815941 0.151097
O O6 0.009409 0.799632 0.165382
O O7 0.757755 0.909985 0.317474
O O8 0.674999 0.191919 0.403877
O O9 0.709809 0.314378 0.598806
O O10 0.210713 0.560597 0.223253
O O11 0.000000 0.000000 0.500000
#
# Coordination Sequence:
#
# PCOD9251912 Si02
#       5
#     4   4   4   4   4
#     4  11  22  47  76 102 143 194 247 296 371 444
#     4  11  24  47  71 103 142 200 242 292 374 439
#     4  11  27  44  73 101 148 191 244 299 369 443
#     4  11  26  46  70 105 145 194 244 298 371 436
#     4  12  26  43  75 110 146 185 254 311 358 429
#
# _framework density 24.018525
#
# number of rings (size 3 to 8) (size 9 to 14) (size 15 to 20)
#    0.000    0.800    4.000    3.000    5.600    2.400 
#    0.000    0.000    0.000    0.000    0.000    0.000 
#    0.000    0.000    0.000    0.000    0.000    0.000 
#
# Total GULP energy -111784.000757 kJ/mol
# GULP energy per Si atom -5589.200038 kJ/mol
# Density = 2.396386 g / cm^3
# Si number density = 24.018525 Si / 1000 Ang^3
#
#
#
# Elastic Constant Matrix: (Units=GPa)
#
#
# Indices 1 2 3 4 5 6 
#
# 1 101.9164 16.2941 38.4479 0.0000 10.6360 0.0000
# 2 16.2941 51.5952 5.7986 0.0000 -3.6490 0.0000
# 3 38.4479 5.7986 52.8420 0.0000 22.5442 0.0000
# 4 0.0000 0.0000 0.0000 45.9832 0.0000 19.3410
# 5 10.6360 -3.6490 22.5442 0.0000 24.4172 0.0000
# 6 0.0000 0.0000 0.0000 19.3410 0.0000 47.3771
#
#
#
# Elastic Compliance Matrix: (Units=1/GPa)
#
#
# Indices 1 2 3 4 5 6 
#
# 1 0.014336 -0.002868 -0.011993 0.000000 0.004400 0.000000
# 2 -0.002868 0.021224 -0.003511 0.000000 0.007663 0.000000
# 3 -0.011993 -0.003511 0.042949 0.000000 -0.034955 0.000000
# 4 0.000000 0.000000 0.000000 0.026255 0.000000 -0.010718
# 5 0.004400 0.007663 -0.034955 0.000000 0.072457 0.000000
# 6 0.000000 0.000000 0.000000 -0.010718 0.000000 0.025483
#
#
# Mechanical properties :
#
#
# Convention : Reuss Voigt Hill
#
# Bulk Modulus (GPa) = 23.94470 36.38166 30.16318
# Shear Modulus (GPa) = 19.73396 33.27638 26.50517
#
# Velocity S-wave (km/s) = 2.86949 3.72620 3.32555
# Velocity P-wave (km/s) = 4.57925 5.80456 5.22793
#
# Compressibility (1/GPa) = 0.04176290
#
# Stress axis : x y z
#
# Youngs Moduli (GPa) = 69.75565 47.11626 23.28355
#
# Poissons Ratio (x) = 0.13514 0.27924
# Poissons Ratio (y) = 0.20008 0.08176
# Poissons Ratio (z) = 0.83659 0.16545
#
# Static dielectric constant tensor:
#      x y z
#    x 2.062050 0.000000 -0.007990 
#    y 0.000000 1.978300 0.000000 
#    z -0.007990 0.000000 1.906310 
# 
# From -- ./inp_files/5463.got.cif
#   From: 2010.05.17/outbox.cif.g08.bks.cpg/sg14_3_cif.got.tgz:5463.got - 2010.06.03 17:49:19.
