data_PCOD9251569
_publ_section_title
;
Structure prediction by ZEFSAII (Michael W. Deem and Ramdas Pophale) SiO2 
 PCOD9251569
Probable space group: P 21/C
;
_chemical_formula_sum "Si O2"
_cell_formula_units_Z 28
_cell_length_a 11.259236
_cell_length_b 9.635388
_cell_length_c 14.694287
_cell_angle_alpha 90.000000
_cell_angle_beta 56.690905
_cell_angle_gamma 90.000000
_cell_volume 1332.255579
_symmetry_space_group_name_H-M "P 21/C"
_symmetry_group_IT_number 14
_symmetry_cell_setting 'monoclinic'
loop_
_space_group_symop_operation_xyz
x,y,z
-x,1/2+y,1/2-z
-x,-y,-z
x,1/2-y,1/2+z
loop_
_atom_site_type_symbol
_atom_site_label
_atom_site_fract_x
_atom_site_fract_y
_atom_site_fract_z
Si Si1 0.333820 0.245315 0.905784
Si Si2 0.897694 0.668235 0.618023
Si Si3 0.141080 0.752979 0.651810
Si Si4 0.369978 0.536497 0.489441
Si Si5 0.112232 0.653152 0.362773
Si Si6 0.598421 0.241999 0.675563
Si Si7 0.366663 0.978879 0.488485
O O1 0.243080 0.250032 0.851106
O O2 0.496570 0.247411 0.804594
O O3 0.307040 0.373078 0.983214
O O4 0.310083 0.101067 0.967417
O O5 0.858849 0.511191 0.662959
O O6 0.004521 0.736210 0.644760
O O7 0.982817 0.661254 0.486952
O O8 0.243266 0.619967 0.592385
O O9 0.090956 0.774500 0.775462
O O10 0.244032 0.881682 0.582198
O O11 0.500000 0.500000 0.500000
O O12 0.429378 0.636286 0.385248
O O13 0.243043 0.728579 0.357009
O O14 0.584768 0.100576 0.624123
O O15 0.500000 0.000000 0.500000
#
# Coordination Sequence:
#
# PCOD9251569 Si02
#       7
#     4   4   4   4   4   4   4
#     4  12  24  40  70 101 141 183 232 297 350 420
#     4  11  24  47  69 102 141 182 237 284 351 429
#     4  11  25  46  71 102 141 191 228 291 362 419
#     4  11  21  42  68 103 138 180 243 290 343 421
#     4  11  22  48  74  93 138 190 233 288 352 416
#     4  11  22  44  68 100 136 188 236 287 360 408
#     4  11  24  42  67 102 143 177 234 299 344 413
#
# _framework density 21.016988999999999
#
# number of rings (size 3 to 8) (size 9 to 14) (size 15 to 20)
#    0.000    0.857    4.286    5.143    2.000    1.714 
#    7.714    0.000    0.000    0.000    0.000    0.000 
#    0.000    0.000    0.000    0.000    0.000    0.000 
#
# Total GULP energy -156617.143965 kJ/mol
# GULP energy per Si atom -5593.469427 kJ/mol
# Density = 2.096915 g / cm^3
# Si number density = 21.016989 Si / 1000 Ang^3
#
#
#
# Elastic Constant Matrix: (Units=GPa)
#
#
# Indices 1 2 3 4 5 6 
#
# 1 122.8002 30.4284 16.1087 0.0000 12.1781 0.0000
# 2 30.4284 110.3305 40.5514 0.0000 5.6849 0.0000
# 3 16.1087 40.5514 59.0240 0.0000 25.7310 0.0000
# 4 0.0000 0.0000 0.0000 11.6522 0.0000 10.1783
# 5 12.1781 5.6849 25.7310 0.0000 28.5401 0.0000
# 6 0.0000 0.0000 0.0000 10.1783 0.0000 33.6167
#
#
#
# Elastic Compliance Matrix: (Units=1/GPa)
#
#
# Indices 1 2 3 4 5 6 
#
# 1 0.009109 -0.002816 0.001481 0.000000 -0.004661 0.000000
# 2 -0.002816 0.014354 -0.013790 0.000000 0.010776 0.000000
# 3 0.001481 -0.013790 0.041338 0.000000 -0.035154 0.000000
# 4 0.000000 0.000000 0.000000 0.116680 0.000000 -0.035328
# 5 -0.004661 0.010776 -0.035154 0.000000 0.066575 0.000000
# 6 0.000000 0.000000 0.000000 -0.035328 0.000000 0.040443
#
#
# Mechanical properties :
#
#
# Convention : Reuss Voigt Hill
#
# Bulk Modulus (GPa) = 28.94485 51.81461 40.37973
# Shear Modulus (GPa) = 15.13927 28.43287 21.78607
#
# Velocity S-wave (km/s) = 2.68682 3.68210 3.22311
# Velocity P-wave (km/s) = 4.84018 6.54098 5.75377
#
# Compressibility (1/GPa) = 0.03454846
#
# Stress axis : x y z
#
# Youngs Moduli (GPa) = 109.77981 69.66800 24.19103
#
# Poissons Ratio (x) = 0.19621 -0.03582
# Poissons Ratio (y) = 0.30918 0.33361
# Poissons Ratio (z) = -0.16256 0.96076
#
# Static dielectric constant tensor:
#      x y z
#    x 1.778040 0.000000 -0.004210 
#    y 0.000000 1.778160 0.000000 
#    z -0.004210 0.000000 1.736630 
# 
# From -- ./inp_files/43319.got.cif
#   From: 2010.05.17/outbox.cif.g08.bks.cpg/sg14_22_cif.got.tgz:43319.got - 2010.06.03 17:49:19.
