data_PCOD9251648
_publ_section_title
;
Structure prediction by ZEFSAII (Michael W. Deem and Ramdas Pophale) SiO2 
 PCOD9251648
Probable space group: P 21/C
;
_chemical_formula_sum "Si O2"
_cell_formula_units_Z 24
_cell_length_a 16.409047
_cell_length_b 7.645511
_cell_length_c 14.110638
_cell_angle_alpha 90.000000
_cell_angle_beta 144.354443
_cell_angle_gamma 90.000000
_cell_volume 1031.651921
_symmetry_space_group_name_H-M "P 21/C"
_symmetry_group_IT_number 14
_symmetry_cell_setting 'monoclinic'
loop_
_space_group_symop_operation_xyz
x,y,z
-x,1/2+y,1/2-z
-x,-y,-z
x,1/2-y,1/2+z
loop_
_atom_site_type_symbol
_atom_site_label
_atom_site_fract_x
_atom_site_fract_y
_atom_site_fract_z
Si Si1 0.692814 0.041102 0.883013
Si Si2 0.107448 0.873987 0.761814
Si Si3 0.118668 0.826790 0.085670
Si Si4 0.809038 0.736898 0.763299
Si Si5 0.800041 0.534997 0.942359
Si Si6 0.386764 0.178010 0.587960
O O1 0.779161 0.034367 0.866530
O O2 0.550156 0.145457 0.732416
O O3 0.650442 0.857958 0.891885
O O4 0.798667 0.133152 0.057053
O O5 0.134963 0.721991 0.711455
O O6 0.941374 0.885668 0.623136
O O7 0.144515 0.057602 0.746633
O O8 0.163686 0.647008 0.073541
O O9 0.953541 0.845509 0.908105
O O10 0.760485 0.663351 0.818598
O O11 0.690778 0.819740 0.586171
O O12 0.681483 0.531939 0.908805
#
# Coordination Sequence:
#
# PCOD9251648 Si02
#       6
#     4   4   4   4   4   4
#     4  11  22  35  50  75 107 139 169 205 251 302
#     4   8  17  34  57  78 100 131 169 207 254 307
#     4   9  17  35  59  79  97 128 171 214 253 299
#     4   8  17  34  57  78 100 131 169 207 254 307
#     4   9  17  35  59  79  97 128 171 214 253 299
#     4  11  22  35  50  75 107 139 169 205 251 302
#
# _framework density 23.263660000000002
#
# number of rings (size 3 to 8) (size 9 to 14) (size 15 to 20)
#    0.000    2.667    0.000    4.000    0.000    1.333 
#    0.000   15.000    0.000    0.000    0.000    0.000 
#    0.000    0.000    0.000    0.000    0.000    0.000 
#
# Total GULP energy -134268.503273 kJ/mol
# GULP energy per Si atom -5594.520970 kJ/mol
# Density = 2.321071 g / cm^3
# Si number density = 23.263660 Si / 1000 Ang^3
#
#
#
# Elastic Constant Matrix: (Units=GPa)
#
#
# Indices 1 2 3 4 5 6 
#
# 1 98.0136 -0.3995 48.0226 0.0000 23.4447 0.0000
# 2 -0.3995 69.9138 9.0131 0.0000 -1.8060 0.0000
# 3 48.0226 9.0131 85.7720 0.0000 12.2507 0.0000
# 4 0.0000 0.0000 0.0000 32.4185 0.0000 2.4815
# 5 23.4447 -1.8060 12.2507 0.0000 18.5083 0.0000
# 6 0.0000 0.0000 0.0000 2.4815 0.0000 36.2322
#
#
#
# Elastic Compliance Matrix: (Units=1/GPa)
#
#
# Indices 1 2 3 4 5 6 
#
# 1 0.018305 0.000638 -0.007745 0.000000 -0.017999 0.000000
# 2 0.000638 0.014643 -0.002192 0.000000 0.002071 0.000000
# 3 -0.007745 -0.002192 0.016406 0.000000 -0.001262 0.000000
# 4 0.000000 0.000000 0.000000 0.031009 0.000000 -0.002124
# 5 -0.017999 0.002071 -0.001262 0.000000 0.077866 0.000000
# 6 0.000000 0.000000 0.000000 -0.002124 0.000000 0.027745
#
#
# Mechanical properties :
#
#
# Convention : Reuss Voigt Hill
#
# Bulk Modulus (GPa) = 32.51355 40.77463 36.64409
# Shear Modulus (GPa) = 23.27475 30.56936 26.92205
#
# Velocity S-wave (km/s) = 3.16646 3.62890 3.40554
# Velocity P-wave (km/s) = 5.23212 5.92653 5.59012
#
# Compressibility (1/GPa) = 0.03075641
#
# Stress axis : x y z
#
# Youngs Moduli (GPa) = 54.62860 68.29186 60.95385
#
# Poissons Ratio (x) = -0.04358 0.47210
# Poissons Ratio (y) = -0.03486 0.13360
# Poissons Ratio (z) = 0.42311 0.14969
#
# Static dielectric constant tensor:
#      x y z
#    x 1.820960 0.000000 -0.018020 
#    y 0.000000 1.998840 0.000000 
#    z -0.018020 0.000000 1.810330 
# 
# From -- ./inp_files/32233.got.cif
#   From: 2010.05.17/outbox.cif.g08.bks.cpg/sg14_17_cif.got.tgz:32233.got - 2010.06.03 17:49:19.
