data_PCOD9251273
_publ_section_title
;
Structure prediction by ZEFSAII (Michael W. Deem and Ramdas Pophale) SiO2 
 PCOD9251273
Probable space group: P 21/C
;
_chemical_formula_sum "Si O2"
_cell_formula_units_Z 24
_cell_length_a 7.335135
_cell_length_b 8.409550
_cell_length_c 16.834597
_cell_angle_alpha 90.000000
_cell_angle_beta 73.514662
_cell_angle_gamma 90.000000
_cell_volume 995.757214
_symmetry_space_group_name_H-M "P 21/C"
_symmetry_group_IT_number 14
_symmetry_cell_setting 'monoclinic'
loop_
_space_group_symop_operation_xyz
x,y,z
-x,1/2+y,1/2-z
-x,-y,-z
x,1/2-y,1/2+z
loop_
_atom_site_type_symbol
_atom_site_label
_atom_site_fract_x
_atom_site_fract_y
_atom_site_fract_z
Si Si1 0.249080 0.751999 0.905019
Si Si2 0.386219 0.374700 0.216909
Si Si3 0.289207 0.052213 0.496958
Si Si4 0.908370 0.753153 0.846999
Si Si5 0.286398 0.553372 0.548322
Si Si6 0.527009 0.272057 0.855234
O O1 0.470260 0.729867 0.856043
O O2 0.200511 0.591770 0.959404
O O3 0.130738 0.760556 0.838465
O O4 0.205937 0.889517 0.973441
O O5 0.178716 0.299424 0.226399
O O6 0.411007 0.557699 0.188540
O O7 0.464942 0.349563 0.295006
O O8 0.173460 0.116311 0.584881
O O9 0.337872 0.192998 0.430225
O O10 0.500000 0.000000 0.500000
O O11 0.823478 0.916899 0.891328
O O12 0.500000 0.500000 0.500000
O O13 0.316328 0.700474 0.605125
#
# Coordination Sequence:
#
# PCOD9251273 Si02
#       6
#     4   4   4   4   4   4
#     4  11  23  39  62  94 127 165 211 258 314 373
#     4  11  23  42  62  90 131 163 210 256 321 391
#     4  11  18  41  66  91 118 163 216 259 310 365
#     4  12  22  38  65  92 128 166 209 262 311 372
#     4  12  20  39  66  91 125 165 216 261 307 368
#     4  11  22  39  69  90 123 174 205 258 326 371
#
# _framework density 24.102262
#
# number of rings (size 3 to 8) (size 9 to 14) (size 15 to 20)
#    0.000    0.667    8.333    2.000    0.000    0.000 
#    0.000    6.667    0.000    0.000    0.000    0.000 
#    0.000    0.000    0.000    0.000    0.000    0.000 
#
# Total GULP energy -134275.686662 kJ/mol
# GULP energy per Si atom -5594.820278 kJ/mol
# Density = 2.404740 g / cm^3
# Si number density = 24.102262 Si / 1000 Ang^3
#
#
#
# Elastic Constant Matrix: (Units=GPa)
#
#
# Indices 1 2 3 4 5 6 
#
# 1 91.0855 18.8078 4.9650 0.0000 30.6181 0.0000
# 2 18.8078 70.2742 1.1471 0.0000 5.4263 0.0000
# 3 4.9650 1.1471 62.7250 0.0000 17.6664 0.0000
# 4 0.0000 0.0000 0.0000 46.2468 0.0000 9.5481
# 5 30.6181 5.4263 17.6664 0.0000 29.8686 0.0000
# 6 0.0000 0.0000 0.0000 9.5481 0.0000 18.3294
#
#
#
# Elastic Compliance Matrix: (Units=1/GPa)
#
#
# Indices 1 2 3 4 5 6 
#
# 1 0.018500 -0.003402 0.004518 0.000000 -0.021018 0.000000
# 2 -0.003402 0.015075 -0.000261 0.000000 0.000903 0.000000
# 3 0.004518 -0.000261 0.020255 0.000000 -0.016564 0.000000
# 4 0.000000 0.000000 0.000000 0.024229 0.000000 -0.012621
# 5 -0.021018 0.000903 -0.016564 0.000000 0.064659 0.000000
# 6 0.000000 0.000000 0.000000 -0.012621 0.000000 0.061132
#
#
# Mechanical properties :
#
#
# Convention : Reuss Voigt Hill
#
# Bulk Modulus (GPa) = 18.00504 30.43605 24.22055
# Shear Modulus (GPa) = 22.65996 32.16662 27.41329
#
# Velocity S-wave (km/s) = 3.06953 3.65717 3.37616
# Velocity P-wave (km/s) = 4.47763 5.52163 5.02681
#
# Compressibility (1/GPa) = 0.05554000
#
# Stress axis : x y z
#
# Youngs Moduli (GPa) = 54.05345 66.33490 49.37058
#
# Poissons Ratio (x) = 0.22568 -0.22304
# Poissons Ratio (y) = 0.18389 0.01287
# Poissons Ratio (z) = -0.24419 0.01729
#
# Static dielectric constant tensor:
#      x y z
#    x 1.951940 0.000000 0.026300 
#    y 0.000000 1.924240 0.000000 
#    z 0.026300 0.000000 1.952110 
# 
# From -- ./inp_files/54563.got.cif
#   From: 2010.05.17/outbox.cif.g08.bks.cpg/sg14_28_cif.got.tgz:54563.got - 2010.06.03 17:49:19.
