data_PCOD9251063
_publ_section_title
;
Structure prediction by ZEFSAII (Michael W. Deem and Ramdas Pophale) SiO2 
 PCOD9251063
Probable space group: P 21/C
;
_chemical_formula_sum "Si O2"
_cell_formula_units_Z 28
_cell_length_a 12.242071
_cell_length_b 7.446263
_cell_length_c 14.030875
_cell_angle_alpha 90.000000
_cell_angle_beta 79.823291
_cell_angle_gamma 90.000000
_cell_volume 1258.899820
_symmetry_space_group_name_H-M "P 21/C"
_symmetry_group_IT_number 14
_symmetry_cell_setting 'monoclinic'
loop_
_space_group_symop_operation_xyz
x,y,z
-x,1/2+y,1/2-z
-x,-y,-z
x,1/2-y,1/2+z
loop_
_atom_site_type_symbol
_atom_site_label
_atom_site_fract_x
_atom_site_fract_y
_atom_site_fract_z
Si Si1 0.730032 0.497479 0.370233
Si Si2 0.457469 0.932630 0.405653
Si Si3 0.900332 0.701724 0.799861
Si Si4 0.691833 0.393183 0.586258
Si Si5 0.937484 0.165894 0.059394
Si Si6 0.532080 0.596078 0.286514
Si Si7 0.086891 0.693955 0.136057
O O1 0.792059 0.677302 0.327622
O O2 0.694564 0.500847 0.486407
O O3 0.622780 0.468118 0.321588
O O4 0.821840 0.341841 0.349737
O O5 0.346361 0.811878 0.432999
O O6 0.537705 0.785391 0.341917
O O7 0.500000 0.000000 0.500000
O O8 0.446270 0.088293 0.328976
O O9 0.881961 0.493976 0.822420
O O10 0.987346 0.763946 0.867872
O O11 0.967114 0.742706 0.693190
O O12 0.814433 0.392192 0.609530
O O13 0.594209 0.459553 0.669674
O O14 0.919125 0.308820 0.977346
O O15 0.000000 0.000000 0.000000
#
# Coordination Sequence:
#
# PCOD9251063 Si02
#       7
#     4   4   4   4   4   4   4
#     4  11  23  46  71 105 144 195 248 305 376 438
#     4  10  25  47  74 110 144 194 254 300 385 453
#     4  12  23  44  69 106 143 192 242 298 367 439
#     4   9  23  42  74  98 146 195 238 315 363 441
#     4  11  21  45  69 104 142 189 241 296 366 434
#     4  10  25  46  70 107 146 194 242 310 375 440
#     4  11  24  42  68 103 144 191 238 302 361 436
#
# _framework density 22.241643
#
# number of rings (size 3 to 8) (size 9 to 14) (size 15 to 20)
#    0.857    0.571    4.286    0.857    4.000    2.286 
#    7.714    1.429    0.000    0.000    0.000    0.000 
#    0.000    0.000    0.000    0.000    0.000    0.000 
#
# Total GULP energy -156452.900743 kJ/mol
# GULP energy per Si atom -5587.603598 kJ/mol
# Density = 2.219102 g / cm^3
# Si number density = 22.241643 Si / 1000 Ang^3
#
#
#
# Elastic Constant Matrix: (Units=GPa)
#
#
# Indices 1 2 3 4 5 6 
#
# 1 115.4032 17.6355 25.5192 0.0000 -10.9580 0.0000
# 2 17.6355 49.8310 0.1351 0.0000 -7.9644 0.0000
# 3 25.5192 0.1351 100.0424 0.0000 -0.3395 0.0000
# 4 0.0000 0.0000 0.0000 30.9959 0.0000 -10.0742
# 5 -10.9580 -7.9644 -0.3395 0.0000 29.8927 0.0000
# 6 0.0000 0.0000 0.0000 -10.0742 0.0000 19.9357
#
#
#
# Elastic Compliance Matrix: (Units=1/GPa)
#
#
# Indices 1 2 3 4 5 6 
#
# 1 0.009959 -0.003070 -0.002527 0.000000 0.002804 0.000000
# 2 -0.003070 0.021907 0.000769 0.000000 0.004720 0.000000
# 3 -0.002527 0.000769 0.010637 0.000000 -0.000600 0.000000
# 4 0.000000 0.000000 0.000000 0.038602 0.000000 0.019507
# 5 0.002804 0.004720 -0.000600 0.000000 0.035732 0.000000
# 6 0.000000 0.000000 0.000000 0.019507 0.000000 0.060019
#
#
# Mechanical properties :
#
#
# Convention : Reuss Voigt Hill
#
# Bulk Modulus (GPa) = 30.44219 39.09513 34.76866
# Shear Modulus (GPa) = 25.32157 30.96399 28.14278
#
# Velocity S-wave (km/s) = 3.37779 3.73522 3.56099
# Velocity P-wave (km/s) = 5.37860 6.01815 5.70734
#
# Compressibility (1/GPa) = 0.03284915
#
# Stress axis : x y z
#
# Youngs Moduli (GPa) = 100.40764 45.64853 94.00938
#
# Poissons Ratio (x) = 0.14012 0.23755
# Poissons Ratio (y) = 0.30821 -0.07234
# Poissons Ratio (z) = 0.25371 -0.03512
#
# Static dielectric constant tensor:
#      x y z
#    x 1.795150 0.000000 -0.011310 
#    y 0.000000 1.836560 0.000000 
#    z -0.011310 0.000000 1.830560 
# 
# From -- ./inp_files/43097.got.cif
#   From: 2010.05.17/outbox.cif.g08.bks.cpg/sg14_22_cif.got.tgz:43097.got - 2010.06.03 17:49:19.
