data_PCOD9251301
_publ_section_title
;
Structure prediction by ZEFSAII (Michael W. Deem and Ramdas Pophale) SiO2 
 PCOD9251301
Probable space group: P 21/C
;
_chemical_formula_sum "Si O2"
_cell_formula_units_Z 32
_cell_length_a 14.820985
_cell_length_b 16.964861
_cell_length_c 19.913920
_cell_angle_alpha 90.000000
_cell_angle_beta 19.257175
_cell_angle_gamma 90.000000
_cell_volume 1651.377873
_symmetry_space_group_name_H-M "P 21/C"
_symmetry_group_IT_number 14
_symmetry_cell_setting 'monoclinic'
loop_
_space_group_symop_operation_xyz
x,y,z
-x,1/2+y,1/2-z
-x,-y,-z
x,1/2-y,1/2+z
loop_
_atom_site_type_symbol
_atom_site_label
_atom_site_fract_x
_atom_site_fract_y
_atom_site_fract_z
Si Si1 0.452780 0.425064 0.374029
Si Si2 0.226158 0.912541 0.477060
Si Si3 0.927207 0.342172 0.775310
Si Si4 0.586732 0.912508 0.616504
Si Si5 0.632680 0.546002 0.344999
Si Si6 0.882901 0.157861 0.819639
Si Si7 0.145468 0.574951 0.527698
Si Si8 0.721928 0.045993 0.300372
O O1 0.249338 0.366088 0.555325
O O2 0.671056 0.474345 0.264421
O O3 0.267998 0.500007 0.481989
O O4 0.581520 0.383334 0.218666
O O5 0.221231 0.872750 0.553160
O O6 0.919474 0.916888 0.664033
O O7 0.334595 0.000027 0.415360
O O8 0.869209 0.250017 0.815422
O O9 0.837008 0.387160 0.770383
O O10 0.380696 0.883311 0.819092
O O11 0.414563 0.916907 0.668964
O O12 0.876269 0.872676 0.398103
O O13 0.500000 0.500000 0.500000
O O14 0.407354 0.612841 0.485232
O O15 0.969368 0.133928 0.835314
O O16 0.929116 0.525668 0.635384
O O17 0.500000 0.000000 0.500000
#
# Coordination Sequence:
#
# PCOD9251301 Si02
#       8
#     4   4   4   4   4   4   4   4
#     4   9  20  37  61  89 114 150 201 244 289 352
#     4  11  20  37  64  86 114 156 198 248 292 347
#     4  11  23  38  57  85 125 158 192 244 305 358
#     4  11  20  37  64  86 114 156 198 248 292 347
#     4  11  19  38  63  89 115 151 205 246 291 347
#     4  11  23  38  57  85 125 158 192 244 305 358
#     4   9  20  37  61  89 114 150 201 244 289 352
#     4  11  19  38  63  89 115 151 205 246 291 347
#
# _framework density 19.377758
#
# number of rings (size 3 to 8) (size 9 to 14) (size 15 to 20)
#    0.000    1.500    5.000    1.500    0.000    2.000 
#    0.000    0.000    0.000    0.000    0.000    0.000 
#    0.000    0.000    0.000    0.000    0.000    0.000 
#
# Total GULP energy -178200.005758 kJ/mol
# GULP energy per Si atom -5568.750180 kJ/mol
# Density = 1.933365 g / cm^3
# Si number density = 19.377758 Si / 1000 Ang^3
#
#
#
# Elastic Constant Matrix: (Units=GPa)
#
#
# Indices 1 2 3 4 5 6 
#
# 1 57.1596 25.0190 0.7883 0.0000 6.8183 0.0000
# 2 25.0190 76.2970 30.7272 0.0000 7.2710 0.0000
# 3 0.7883 30.7272 75.6965 0.0000 16.5821 0.0000
# 4 0.0000 0.0000 0.0000 7.8830 0.0000 -3.5599
# 5 6.8183 7.2710 16.5821 0.0000 43.1202 0.0000
# 6 0.0000 0.0000 0.0000 -3.5599 0.0000 10.7259
#
#
#
# Elastic Compliance Matrix: (Units=1/GPa)
#
#
# Indices 1 2 3 4 5 6 
#
# 1 0.021485 -0.008285 0.003907 0.000000 -0.003503 0.000000
# 2 -0.008285 0.018865 -0.007820 0.000000 0.001136 0.000000
# 3 0.003907 -0.007820 0.017680 0.000000 -0.006098 0.000000
# 4 0.000000 0.000000 0.000000 0.149220 0.000000 0.049526
# 5 -0.003503 0.001136 -0.006098 0.000000 0.025898 0.000000
# 6 0.000000 0.000000 0.000000 0.049526 0.000000 0.109670
#
#
# Mechanical properties :
#
#
# Convention : Reuss Voigt Hill
#
# Bulk Modulus (GPa) = 29.73282 35.80247 32.76765
# Shear Modulus (GPa) = 13.21260 22.52040 17.86650
#
# Velocity S-wave (km/s) = 2.61405 3.41277 3.03976
# Velocity P-wave (km/s) = 4.94854 5.83485 5.40988
#
# Compressibility (1/GPa) = 0.03363286
#
# Stress axis : x y z
#
# Youngs Moduli (GPa) = 46.54385 53.00937 56.56023
#
# Poissons Ratio (x) = 0.43917 -0.22096
# Poissons Ratio (y) = 0.38561 0.44232
# Poissons Ratio (z) = -0.18183 0.41455
#
# Static dielectric constant tensor:
#      x y z
#    x 1.756540 0.000000 -0.028530 
#    y 0.000000 1.654910 0.000000 
#    z -0.028530 0.000000 1.733850 
# 
# From -- ./inp_files/68643.got.cif
#   From: 2010.05.17/outbox.cif.g08.bks.cpg/sg14_35_cif.got.tgz:68643.got - 2010.06.03 17:49:19.
