data_PCOD9251609
_publ_section_title
;
Structure prediction by ZEFSAII (Michael W. Deem and Ramdas Pophale) SiO2 
 PCOD9251609
Probable space group: P 21/C
;
_chemical_formula_sum "Si O2"
_cell_formula_units_Z 32
_cell_length_a 12.049673
_cell_length_b 11.472508
_cell_length_c 14.974810
_cell_angle_alpha 90.000000
_cell_angle_beta 129.029460
_cell_angle_gamma 90.000000
_cell_volume 1608.113225
_symmetry_space_group_name_H-M "P 21/C"
_symmetry_group_IT_number 14
_symmetry_cell_setting 'monoclinic'
loop_
_space_group_symop_operation_xyz
x,y,z
-x,1/2+y,1/2-z
-x,-y,-z
x,1/2-y,1/2+z
loop_
_atom_site_type_symbol
_atom_site_label
_atom_site_fract_x
_atom_site_fract_y
_atom_site_fract_z
Si Si1 0.381924 0.584075 0.561464
Si Si2 0.689627 0.655547 0.640940
Si Si3 0.423851 0.303107 0.589441
Si Si4 0.958926 0.380143 0.927247
Si Si5 0.785108 0.767112 0.867584
Si Si6 0.886814 0.442566 0.687056
Si Si7 0.103637 0.998742 0.138461
Si Si8 0.290001 0.717477 0.693442
O O1 0.531712 0.612463 0.589585
O O2 0.394030 0.443033 0.579125
O O3 0.243988 0.621393 0.431570
O O4 0.357873 0.650540 0.642790
O O5 0.653647 0.738637 0.539871
O O6 0.763016 0.701505 0.765363
O O7 0.802914 0.561357 0.665114
O O8 0.345714 0.247813 0.633533
O O9 0.587976 0.268398 0.680536
O O10 0.941298 0.395959 0.810659
O O11 0.808656 0.326681 0.884372
O O12 0.000000 0.500000 0.000000
O O13 0.076200 0.282564 0.012132
O O14 0.789826 0.900041 0.837884
O O15 0.013027 0.465173 0.679720
O O16 0.186463 0.877124 0.187929
O O17 0.000000 0.000000 0.000000
#
# Coordination Sequence:
#
# PCOD9251609 Si02
#       8
#     4   4   4   4   4   4   4   4
#     4  11  21  44  70  98 129 180 230 272 336 414
#     4  11  23  42  66  98 132 177 226 274 340 404
#     4  11  24  42  70  98 130 182 226 278 337 407
#     4  12  26  44  64 104 138 175 226 287 345 397
#     4  12  24  42  68  95 141 175 220 286 340 407
#     4  11  23  42  71  96 136 181 229 282 336 417
#     4  12  23  45  65 101 134 179 232 272 344 410
#     4  12  24  44  73  99 140 181 227 286 339 416
#
# _framework density 19.899097999999999
#
# number of rings (size 3 to 8) (size 9 to 14) (size 15 to 20)
#    0.000    0.500    6.250    3.750    1.750    0.000 
#    4.500    0.625    0.000    0.000    0.000    0.000 
#    0.000    0.000    0.000    0.000    0.000    0.000 
#
# Total GULP energy -178455.429562 kJ/mol
# GULP energy per Si atom -5576.732174 kJ/mol
# Density = 1.985381 g / cm^3
# Si number density = 19.899098 Si / 1000 Ang^3
#
#
#
# Elastic Constant Matrix: (Units=GPa)
#
#
# Indices 1 2 3 4 5 6 
#
# 1 4.1818 -28.5130 42.4575 0.0000 30.0130 0.0000
# 2 -28.5130 16.9113 48.7271 0.0000 18.4443 0.0000
# 3 42.4575 48.7271 141.9760 0.0000 -9.8839 0.0000
# 4 0.0000 0.0000 0.0000 23.2150 0.0000 0.8414
# 5 30.0130 18.4443 -9.8839 0.0000 21.8311 0.0000
# 6 0.0000 0.0000 0.0000 0.8414 0.0000 31.6665
#
#
#
# Elastic Compliance Matrix: (Units=1/GPa)
#
#
# Indices 1 2 3 4 5 6 
#
# 1 0.004852 -0.016734 0.004969 0.000000 0.009717 0.000000
# 2 -0.016734 0.013000 0.001424 0.000000 0.012667 0.000000
# 3 0.004969 0.001424 0.004656 0.000000 -0.005926 0.000000
# 4 0.000000 0.000000 0.000000 0.043117 0.000000 -0.001146
# 5 0.009717 0.012667 -0.005926 0.000000 0.019063 0.000000
# 6 0.000000 0.000000 0.000000 -0.001146 0.000000 0.031610
#
#
# Mechanical properties :
#
#
# Convention : Reuss Voigt Hill
#
# Bulk Modulus (GPa) = 547.46721 32.04581 289.75651
# Shear Modulus (GPa) = 36.34045 22.03568 29.18806
#
# Velocity S-wave (km/s) = 4.27808 3.33133 3.83404
# Velocity P-wave (km/s) = 17.32402 5.56202 12.86580
#
# Compressibility (1/GPa) = 0.00182659
#
# Stress axis : x y z
#
# Youngs Moduli (GPa) = 206.10749 76.92406 214.76663
#
# Poissons Ratio (x) = 1.28721 -1.06709
# Poissons Ratio (y) = 3.44891 -0.30589
# Poissons Ratio (z) = -1.02407 -0.10956
#
# Static dielectric constant tensor:
#      x y z
#    x 1.708150 0.000000 -0.004140 
#    y 0.000000 1.723370 0.000000 
#    z -0.004140 0.000000 1.748000 
# 
# From -- ./inp_files/44654.got.cif
#   From: 2010.05.17/outbox.cif.g08.bks.cpg/sg14_23_cif.got.tgz:44654.got - 2010.06.03 17:49:19.
