data_PCOD9251665
_publ_section_title
;
Structure prediction by ZEFSAII (Michael W. Deem and Ramdas Pophale) SiO2 
 PCOD9251665
Probable space group: P 21/C
;
_chemical_formula_sum "Si O2"
_cell_formula_units_Z 32
_cell_length_a 6.827403
_cell_length_b 16.688844
_cell_length_c 15.502536
_cell_angle_alpha 90.000000
_cell_angle_beta 138.295068
_cell_angle_gamma 90.000000
_cell_volume 1175.164207
_symmetry_space_group_name_H-M "P 21/C"
_symmetry_group_IT_number 14
_symmetry_cell_setting 'monoclinic'
loop_
_space_group_symop_operation_xyz
x,y,z
-x,1/2+y,1/2-z
-x,-y,-z
x,1/2-y,1/2+z
loop_
_atom_site_type_symbol
_atom_site_label
_atom_site_fract_x
_atom_site_fract_y
_atom_site_fract_z
Si Si1 0.048105 0.828377 0.070786
Si Si2 0.040188 0.773437 0.821244
Si Si3 0.391659 0.454178 0.068254
Si Si4 0.449959 0.404487 0.793803
Si Si5 0.295075 0.130721 0.714539
Si Si6 0.022513 0.671417 0.128864
Si Si7 0.342359 0.895814 0.009323
Si Si8 0.012330 0.967701 0.176697
O O1 0.399326 0.821378 0.205522
O O2 0.905703 0.890526 0.090232
O O3 0.923845 0.739374 0.027575
O O4 0.079662 0.874535 0.991327
O O5 0.767136 0.835839 0.744707
O O6 0.952450 0.693120 0.840207
O O7 0.065604 0.774742 0.727359
O O8 0.338233 0.811690 0.957808
O O9 0.372468 0.550203 0.070488
O O10 0.264388 0.421593 0.118821
O O11 0.745647 0.441062 0.173380
O O12 0.206810 0.401493 0.940965
O O13 0.262812 0.482927 0.702345
O O14 0.674350 0.369518 0.799535
O O15 0.385052 0.087503 0.836511
O O16 0.231940 0.963074 0.906403
#
# Coordination Sequence:
#
# PCOD9251665 Si02
#       8
#     4   4   4   4   4   4   4   4
#     4   9  18  34  61  80 113 156 197 234 295 347
#     4  11  22  37  59  91 121 153 197 245 301 356
#     4   9  20  36  63  85 115 159 201 241 291 353
#     4   9  19  39  59  81 121 155 196 245 288 352
#     4   9  19  38  58  83 117 156 198 243 293 346
#     4  12  22  37  60  91 120 160 193 243 306 359
#     4   9  17  36  61  80 114 155 193 242 296 339
#     4   8  17  34  62  86 108 155 200 242 288 348
#
# _framework density 27.230236000000001
#
# number of rings (size 3 to 8) (size 9 to 14) (size 15 to 20)
#    1.500    1.000    1.250    1.500    0.000    0.500 
#    4.500    2.500    0.000    3.750    0.000    0.000 
#    0.000    0.000    0.000    0.000    0.000    0.000 
#
# Total GULP energy -178333.279415 kJ/mol
# GULP energy per Si atom -5572.914982 kJ/mol
# Density = 2.716826 g / cm^3
# Si number density = 27.230236 Si / 1000 Ang^3
#
#
#
# Elastic Constant Matrix: (Units=GPa)
#
#
# Indices 1 2 3 4 5 6 
#
# 1 67.8491 31.1914 27.4906 0.0000 5.9867 0.0000
# 2 31.1914 108.0327 -0.8154 0.0000 1.7971 0.0000
# 3 27.4906 -0.8154 61.1893 0.0000 -10.5074 0.0000
# 4 0.0000 0.0000 0.0000 34.2670 0.0000 -2.6792
# 5 5.9867 1.7971 -10.5074 0.0000 44.0028 0.0000
# 6 0.0000 0.0000 0.0000 -2.6792 0.0000 44.3010
#
#
#
# Elastic Compliance Matrix: (Units=1/GPa)
#
#
# Indices 1 2 3 4 5 6 
#
# 1 0.022831 -0.006585 -0.011295 0.000000 -0.005534 0.000000
# 2 -0.006585 0.011162 0.003319 0.000000 0.001233 0.000000
# 3 -0.011295 0.003319 0.022630 0.000000 0.006805 0.000000
# 4 0.000000 0.000000 0.000000 0.029321 0.000000 0.001773
# 5 -0.005534 0.001233 0.006805 0.000000 0.025053 0.000000
# 6 0.000000 0.000000 0.000000 0.001773 0.000000 0.022680
#
#
# Mechanical properties :
#
#
# Convention : Reuss Voigt Hill
#
# Bulk Modulus (GPa) = 36.36329 39.20048 37.78188
# Shear Modulus (GPa) = 29.07525 36.46111 32.76818
#
# Velocity S-wave (km/s) = 3.27120 3.66320 3.47273
# Velocity P-wave (km/s) = 5.25839 5.68500 5.47585
#
# Compressibility (1/GPa) = 0.02750026
#
# Stress axis : x y z
#
# Youngs Moduli (GPa) = 43.80069 89.58805 44.18872
#
# Poissons Ratio (x) = 0.58993 0.49913
# Poissons Ratio (y) = 0.28842 -0.14665
# Poissons Ratio (z) = 0.49474 -0.29733
#
# Static dielectric constant tensor:
#      x y z
#    x 2.228010 0.000000 0.010020 
#    y 0.000000 2.155120 0.000000 
#    z 0.010020 0.000000 2.337560 
# 
# From -- ./inp_files/56044.got.cif
#   From: 2010.05.17/outbox.cif.g08.bks.cpg/sg14_29_cif.got.tgz:56044.got - 2010.06.03 17:49:19.
