data_PCOD9251931
_publ_section_title
;
Structure prediction by ZEFSAII (Michael W. Deem and Ramdas Pophale) SiO2 
 PCOD9251931
Probable space group: P 21/C
;
_chemical_formula_sum "Si O2"
_cell_formula_units_Z 20
_cell_length_a 5.499172
_cell_length_b 14.624444
_cell_length_c 8.968949
_cell_angle_alpha 90.000000
_cell_angle_beta 76.423547
_cell_angle_gamma 90.000000
_cell_volume 701.148811
_symmetry_space_group_name_H-M "P 21/C"
_symmetry_group_IT_number 14
_symmetry_cell_setting 'monoclinic'
loop_
_space_group_symop_operation_xyz
x,y,z
-x,1/2+y,1/2-z
-x,-y,-z
x,1/2-y,1/2+z
loop_
_atom_site_type_symbol
_atom_site_label
_atom_site_fract_x
_atom_site_fract_y
_atom_site_fract_z
Si Si1 0.059979 0.828336 0.266796
Si Si2 0.625041 0.877164 0.853229
Si Si3 0.736368 0.053640 0.537227
Si Si4 0.103486 0.630950 0.417364
Si Si5 0.417106 0.305917 0.967934
O O1 0.259912 0.902853 0.298243
O O2 0.131290 0.728267 0.324241
O O3 0.792244 0.843477 0.386758
O O4 0.036329 0.841798 0.095146
O O5 0.360494 0.925334 0.873732
O O6 0.669438 0.829247 0.686275
O O7 0.879093 0.921992 0.869463
O O8 0.570149 0.799089 0.985173
O O9 0.686529 0.147098 0.454043
O O10 0.500000 0.000000 0.500000
O O11 0.000000 0.000000 0.500000
#
# Coordination Sequence:
#
# PCOD9251931 Si02
#       5
#     4   4   4   4   4
#     4  11  23  41  68  99 129 161 210 263 323 373
#     4  11  23  37  65 105 130 158 198 265 337 375
#     4  12  26  42  64  90 124 178 222 252 294 378
#     4  11  23  37  65 105 130 158 198 265 337 375
#     4  11  23  41  68  99 129 161 210 263 323 373
#
# _framework density 28.524615000000001
#
# number of rings (size 3 to 8) (size 9 to 14) (size 15 to 20)
#    0.000    0.800    4.000    6.000    5.600    0.000 
#    0.000    0.000    0.000    7.200    0.000    0.000 
#    0.000    0.000    0.000    0.000    0.000    0.000 
#
# Total GULP energy -111853.918761 kJ/mol
# GULP energy per Si atom -5592.695938 kJ/mol
# Density = 2.845969 g / cm^3
# Si number density = 28.524615 Si / 1000 Ang^3
#
#
#
# Elastic Constant Matrix: (Units=GPa)
#
#
# Indices 1 2 3 4 5 6 
#
# 1 279.6276 39.7313 66.2240 0.0000 18.6068 0.0000
# 2 39.7313 67.7649 30.5742 0.0000 3.6300 0.0000
# 3 66.2240 30.5742 222.5568 0.0000 26.3133 0.0000
# 4 0.0000 0.0000 0.0000 32.6982 0.0000 -1.9110
# 5 18.6068 3.6300 26.3133 0.0000 54.0678 0.0000
# 6 0.0000 0.0000 0.0000 -1.9110 0.0000 35.9261
#
#
#
# Elastic Compliance Matrix: (Units=1/GPa)
#
#
# Indices 1 2 3 4 5 6 
#
# 1 0.004117 -0.001984 -0.000850 0.000000 -0.000870 0.000000
# 2 -0.001984 0.016688 -0.001751 0.000000 0.000415 0.000000
# 3 -0.000850 -0.001751 0.005240 0.000000 -0.002140 0.000000
# 4 0.000000 0.000000 0.000000 0.030678 0.000000 0.001632
# 5 -0.000870 0.000415 -0.002140 0.000000 0.019808 0.000000
# 6 0.000000 0.000000 0.000000 0.001632 0.000000 0.027922
#
#
# Mechanical properties :
#
#
# Convention : Reuss Voigt Hill
#
# Bulk Modulus (GPa) = 59.25878 93.66757 76.46318
# Shear Modulus (GPa) = 41.92943 53.43308 47.68126
#
# Velocity S-wave (km/s) = 3.83814 4.33277 4.09293
# Velocity P-wave (km/s) = 6.36093 7.61179 7.01430
#
# Compressibility (1/GPa) = 0.01687514
#
# Stress axis : x y z
#
# Youngs Moduli (GPa) = 242.88266 59.92311 190.85196
#
# Poissons Ratio (x) = 0.11889 0.16216
# Poissons Ratio (y) = 0.48188 0.33422
# Poissons Ratio (z) = 0.20637 0.10494
#
# Static dielectric constant tensor:
#      x y z
#    x 2.362470 0.000000 -0.059710 
#    y 0.000000 2.359000 0.000000 
#    z -0.059710 0.000000 2.198370 
# 
# From -- ./inp_files/5449.got.cif
#   From: 2010.05.17/outbox.cif.g08.bks.cpg/sg14_3_cif.got.tgz:5449.got - 2010.06.03 17:49:19.
