data_PCOD9251684
_publ_section_title
;
Structure prediction by ZEFSAII (Michael W. Deem and Ramdas Pophale) SiO2 
 PCOD9251684
Probable space group: P 21/C
;
_chemical_formula_sum "Si O2"
_cell_formula_units_Z 24
_cell_length_a 15.685283
_cell_length_b 5.034867
_cell_length_c 21.529978
_cell_angle_alpha 90.000000
_cell_angle_beta 141.878760
_cell_angle_gamma 90.000000
_cell_volume 1049.638159
_symmetry_space_group_name_H-M "P 21/C"
_symmetry_group_IT_number 14
_symmetry_cell_setting 'monoclinic'
loop_
_space_group_symop_operation_xyz
x,y,z
-x,1/2+y,1/2-z
-x,-y,-z
x,1/2-y,1/2+z
loop_
_atom_site_type_symbol
_atom_site_label
_atom_site_fract_x
_atom_site_fract_y
_atom_site_fract_z
Si Si1 0.169067 0.066262 0.524667
Si Si2 0.205879 0.505629 0.761160
Si Si3 0.960788 0.633388 0.695919
Si Si4 0.585922 0.251011 0.024828
Si Si5 0.278758 0.562914 0.512238
Si Si6 0.833662 0.013107 0.333072
O O1 0.256441 0.308940 0.544486
O O2 0.195952 0.067592 0.613616
O O3 0.217826 0.803216 0.517106
O O4 0.000406 0.056158 0.423024
O O5 0.044179 0.522422 0.685387
O O6 0.272775 0.651643 0.859409
O O7 0.223969 0.205471 0.748825
O O8 0.234823 0.705201 0.721783
O O9 0.983561 0.944147 0.717586
O O10 0.804526 0.557016 0.595025
O O11 0.599149 0.200273 0.958281
O O12 0.500000 0.500000 0.000000
O O13 0.500000 0.000000 0.000000
#
# Coordination Sequence:
#
# PCOD9251684 Si02
#       6
#     4   4   4   4   4   4
#     4  11  22  38  63 100 137 167 202 256 335 415
#     4  12  23  40  65  92 133 169 211 269 331 401
#     4  12  22  34  59  98 131 162 202 264 348 406
#     4  12  28  46  66  92 128 180 232 280 328 380
#     4  12  23  40  65  92 133 169 211 269 331 401
#     4  11  22  38  63 100 137 167 202 256 335 415
#
# _framework density 22.865022
#
# number of rings (size 3 to 8) (size 9 to 14) (size 15 to 20)
#    0.000    0.333    5.000    5.000    2.333    2.667 
#    0.000    0.000    0.000   20.000    0.000    0.000 
#    0.000    0.000    0.000    0.000    0.000    0.000 
#
# Total GULP energy -133634.415222 kJ/mol
# GULP energy per Si atom -5568.100634 kJ/mol
# Density = 2.281298 g / cm^3
# Si number density = 22.865022 Si / 1000 Ang^3
#
#
#
# Elastic Constant Matrix: (Units=GPa)
#
#
# Indices 1 2 3 4 5 6 
#
# 1 121.1693 50.7779 7.8603 0.0000 -21.6525 0.0000
# 2 50.7779 157.4019 5.3794 0.0000 -8.0801 0.0000
# 3 7.8603 5.3794 12.2376 0.0000 -10.6479 0.0000
# 4 0.0000 0.0000 0.0000 25.2594 0.0000 -1.1968
# 5 -21.6525 -8.0801 -10.6479 0.0000 24.4048 0.0000
# 6 0.0000 0.0000 0.0000 -1.1968 0.0000 46.7671
#
#
#
# Elastic Compliance Matrix: (Units=1/GPa)
#
#
# Indices 1 2 3 4 5 6 
#
# 1 0.011226 -0.003201 0.003128 0.000000 0.010265 0.000000
# 2 -0.003201 0.007395 -0.002475 0.000000 -0.001472 0.000000
# 3 0.003128 -0.002475 0.132978 0.000000 0.059975 0.000000
# 4 0.000000 0.000000 0.000000 0.039637 0.000000 0.001014
# 5 0.010265 -0.001472 0.059975 0.000000 0.075762 0.000000
# 6 0.000000 0.000000 0.000000 0.001014 0.000000 0.021409
#
#
# Mechanical properties :
#
#
# Convention : Reuss Voigt Hill
#
# Bulk Modulus (GPa) = 6.82585 46.53825 26.68205
# Shear Modulus (GPa) = 14.60545 34.40565 24.50555
#
# Velocity S-wave (km/s) = 2.53013 3.88329 3.27731
# Velocity P-wave (km/s) = 3.39517 6.36430 5.10056
#
# Compressibility (1/GPa) = 0.14650195
#
# Stress axis : x y z
#
# Youngs Moduli (GPa) = 89.07989 135.22678 7.52004
#
# Poissons Ratio (x) = 0.43292 -0.02352
# Poissons Ratio (y) = 0.28518 0.01861
# Poissons Ratio (z) = -0.27865 0.33470
#
# Static dielectric constant tensor:
#      x y z
#    x 2.090810 0.000000 0.272110 
#    y 0.000000 1.840640 0.000000 
#    z 0.272110 0.000000 2.267950 
# 
# From -- ./inp_files/67915.got.cif
#   From: 2010.05.17/outbox.cif.g08.bks.cpg/sg14_34_cif.got.tgz:67915.got - 2010.06.03 17:49:19.
