data_PCOD9251041
_publ_section_title
;
Structure prediction by ZEFSAII (Michael W. Deem and Ramdas Pophale) SiO2 
 PCOD9251041
Probable space group: P 21/C
;
_chemical_formula_sum "Si O2"
_cell_formula_units_Z 28
_cell_length_a 21.617262
_cell_length_b 7.979191
_cell_length_c 14.908044
_cell_angle_alpha 90.000000
_cell_angle_beta 24.755930
_cell_angle_gamma 90.000000
_cell_volume 1076.809548
_symmetry_space_group_name_H-M "P 21/C"
_symmetry_group_IT_number 14
_symmetry_cell_setting 'monoclinic'
loop_
_space_group_symop_operation_xyz
x,y,z
-x,1/2+y,1/2-z
-x,-y,-z
x,1/2-y,1/2+z
loop_
_atom_site_type_symbol
_atom_site_label
_atom_site_fract_x
_atom_site_fract_y
_atom_site_fract_z
Si Si1 0.987888 0.938876 0.899920
Si Si2 0.247329 0.527232 0.563804
Si Si3 0.878410 0.250942 0.631267
Si Si4 0.621612 0.485825 0.260835
Si Si5 0.952110 0.008363 0.374016
Si Si6 0.476951 0.894627 0.621248
Si Si7 0.290463 0.357227 0.034962
O O1 0.149149 0.023269 0.706100
O O2 0.992094 0.794265 0.967811
O O3 0.992026 0.899226 0.790163
O O4 0.868551 0.079953 0.084336
O O5 0.251458 0.662728 0.639646
O O6 0.378262 0.508916 0.321900
O O7 0.236566 0.333899 0.605315
O O8 0.102724 0.585673 0.699777
O O9 0.925361 0.117438 0.496843
O O10 0.500000 0.500000 0.500000
O O11 0.610862 0.283832 0.265816
O O12 0.603588 0.580299 0.188255
O O13 0.784830 0.552655 0.075040
O O14 0.627523 0.871824 0.478245
O O15 0.500000 0.000000 0.500000
#
# Coordination Sequence:
#
# PCOD9251041 Si02
#       7
#     4   4   4   4   4   4   4
#     4  10  25  45  74 111 155 201 255 327 398 466
#     4  12  26  48  77 113 152 206 267 325 400 485
#     4  11  25  45  75 112 153 201 253 325 391 469
#     4  11  27  47  74 109 151 206 255 327 398 475
#     4  11  26  45  76 111 156 195 261 325 402 478
#     4  12  29  48  76 107 150 208 266 327 400 483
#     4  11  25  48  70 107 152 199 255 327 390 471
#
# _framework density 26.002742000000001
#
# number of rings (size 3 to 8) (size 9 to 14) (size 15 to 20)
#    0.000    0.857    1.429    3.857   10.000    1.143 
#    0.000    0.000    0.000    0.000    0.000    0.000 
#    0.000    0.000    0.000    0.000    0.000    0.000 
#
# Total GULP energy -156164.455699 kJ/mol
# GULP energy per Si atom -5577.301989 kJ/mol
# Density = 2.594356 g / cm^3
# Si number density = 26.002742 Si / 1000 Ang^3
#
#
#
# Elastic Constant Matrix: (Units=GPa)
#
#
# Indices 1 2 3 4 5 6 
#
# 1 122.4049 32.2763 53.2705 0.0000 18.7497 0.0000
# 2 32.2763 90.3732 21.8344 0.0000 11.0975 0.0000
# 3 53.2705 21.8344 132.0974 0.0000 21.9450 0.0000
# 4 0.0000 0.0000 0.0000 42.6856 0.0000 9.4440
# 5 18.7497 11.0975 21.9450 0.0000 63.4946 0.0000
# 6 0.0000 0.0000 0.0000 9.4440 0.0000 -6.1362
#
#
#
# Elastic Compliance Matrix: (Units=1/GPa)
#
#
# Indices 1 2 3 4 5 6 
#
# 1 0.010692 -0.002770 -0.003618 0.000000 -0.001423 0.000000
# 2 -0.002770 0.012368 -0.000747 0.000000 -0.001086 0.000000
# 3 -0.003618 -0.000747 0.009499 0.000000 -0.002084 0.000000
# 4 0.000000 0.000000 0.000000 0.017476 0.000000 0.026897
# 5 -0.001423 -0.001086 -0.002084 0.000000 0.017080 0.000000
# 6 0.000000 0.000000 0.000000 0.026897 0.000000 -0.121571
#
#
# Mechanical properties :
#
#
# Convention : Reuss Voigt Hill
#
# Bulk Modulus (GPa) = 54.67394 62.18197 58.42795
# Shear Modulus (GPa) = -146.67134 35.84175 -55.41479
#
# Velocity S-wave (km/s) = -7.51855 3.71669 -4.62141
# Velocity P-wave (km/s) = 7.36882 6.51029 2.44087
#
# Compressibility (1/GPa) = 0.01829025
#
# Stress axis : x y z
#
# Youngs Moduli (GPa) = 93.52473 80.85194 105.27706
#
# Poissons Ratio (x) = 0.22396 0.38085
# Poissons Ratio (y) = 0.25906 0.07864
# Poissons Ratio (z) = 0.33834 0.06039
#
# Static dielectric constant tensor:
#      x y z
#    x 2.093780 0.000000 0.038270 
#    y 0.000000 2.271030 0.000000 
#    z 0.038270 0.000000 2.174210 
# 
# From -- ./inp_files/50195.got.cif
#   From: 2010.05.17/outbox.cif.g08.bks.cpg/sg14_26_cif.got.tgz:50195.got - 2010.06.03 17:49:19.
