data_PCOD9251567
_publ_section_title
;
Structure prediction by ZEFSAII (Michael W. Deem and Ramdas Pophale) SiO2 
 PCOD9251567
Probable space group: P 21/C
;
_chemical_formula_sum "Si O2"
_cell_formula_units_Z 28
_cell_length_a 21.637886
_cell_length_b 9.389750
_cell_length_c 19.164509
_cell_angle_alpha 90.000000
_cell_angle_beta 19.882917
_cell_angle_gamma 90.000000
_cell_volume 1324.256595
_symmetry_space_group_name_H-M "P 21/C"
_symmetry_group_IT_number 14
_symmetry_cell_setting 'monoclinic'
loop_
_space_group_symop_operation_xyz
x,y,z
-x,1/2+y,1/2-z
-x,-y,-z
x,1/2-y,1/2+z
loop_
_atom_site_type_symbol
_atom_site_label
_atom_site_fract_x
_atom_site_fract_y
_atom_site_fract_z
Si Si1 0.600924 0.219869 0.417398
Si Si2 0.150662 0.865243 0.548575
Si Si3 0.565710 0.129040 0.205763
Si Si4 0.634596 0.867755 0.727506
Si Si5 0.161824 0.422366 0.513869
Si Si6 0.946852 0.170343 0.968827
Si Si7 0.342438 0.084009 0.576273
O O1 0.500955 0.345957 0.563990
O O2 0.472045 0.170015 0.490971
O O3 0.623115 0.082554 0.444621
O O4 0.800629 0.243833 0.174393
O O5 0.310116 0.764994 0.408669
O O6 0.031379 0.770773 0.621965
O O7 0.026934 0.915774 0.744013
O O8 0.242359 0.992832 0.408672
O O9 0.489069 0.132015 0.210218
O O10 0.402573 0.119595 0.434135
O O11 0.692698 0.994017 0.088567
O O12 0.766554 0.730842 0.584708
O O13 0.142930 0.526294 0.467488
O O14 0.134099 0.128487 0.805872
#
# Coordination Sequence:
#
# PCOD9251567 Si02
#       7
#     4   4   4   4   4   4   4
#     4  11  23  43  67 102 133 170 235 272 326 407
#     4  11  24  41  64 100 138 171 219 284 342 395
#     4  11  22  43  67  96 131 176 227 273 338 391
#     4  12  24  39  68  99 137 174 219 284 339 399
#     4  11  21  42  66  97 132 172 234 277 319 400
#     4  11  24  44  69  97 135 182 219 279 337 394
#     4  11  21  45  72  93 126 182 230 275 320 398
#
# _framework density 21.143937999999999
#
# number of rings (size 3 to 8) (size 9 to 14) (size 15 to 20)
#    0.000    0.857    4.286    5.571    2.000    0.571 
#    2.571    0.714    0.000    0.000    0.000    0.000 
#    0.000    0.000    0.000    0.000    0.000    0.000 
#
# Total GULP energy -156725.534350 kJ/mol
# GULP energy per Si atom -5597.340513 kJ/mol
# Density = 2.109581 g / cm^3
# Si number density = 21.143938 Si / 1000 Ang^3
#
#
#
# Elastic Constant Matrix: (Units=GPa)
#
#
# Indices 1 2 3 4 5 6 
#
# 1 37.4846 -1.0670 12.9757 0.0000 -3.1848 0.0000
# 2 -1.0670 65.3963 -1.4664 0.0000 -12.7982 0.0000
# 3 12.9757 -1.4664 89.7648 0.0000 -5.5629 0.0000
# 4 0.0000 0.0000 0.0000 30.2641 0.0000 10.3562
# 5 -3.1848 -12.7982 -5.5629 0.0000 35.0377 0.0000
# 6 0.0000 0.0000 0.0000 10.3562 0.0000 5.5705
#
#
#
# Elastic Compliance Matrix: (Units=1/GPa)
#
#
# Indices 1 2 3 4 5 6 
#
# 1 0.028252 0.000811 -0.003932 0.000000 0.002240 0.000000
# 2 0.000811 0.016529 0.000537 0.000000 0.006197 0.000000
# 3 -0.003932 0.000537 0.011824 0.000000 0.001716 0.000000
# 4 0.000000 0.000000 0.000000 0.090822 0.000000 -0.168849
# 5 0.002240 0.006197 0.001716 0.000000 0.031280 0.000000
# 6 0.000000 0.000000 0.000000 -0.168849 0.000000 0.493428
#
#
# Mechanical properties :
#
#
# Convention : Reuss Voigt Hill
#
# Bulk Modulus (GPa) = 19.44110 23.72558 21.58334
# Shear Modulus (GPa) = 7.19996 26.32135 16.76065
#
# Velocity S-wave (km/s) = 1.84732 3.53209 2.81854
# Velocity P-wave (km/s) = 3.71009 5.28011 4.56313
#
# Compressibility (1/GPa) = 0.05143741
#
# Stress axis : x y z
#
# Youngs Moduli (GPa) = 35.39567 60.49847 84.57602
#
# Poissons Ratio (x) = -0.04908 0.33254
# Poissons Ratio (y) = -0.02871 -0.04540
# Poissons Ratio (z) = 0.13917 -0.03247
#
# Static dielectric constant tensor:
#      x y z
#    x 1.732930 0.000000 0.018660 
#    y 0.000000 1.753350 0.000000 
#    z 0.018660 0.000000 1.769420 
# 
# From -- ./inp_files/70173.got.cif
#   From: 2010.05.17/outbox.cif.g08.bks.cpg/sg14_36_cif.got.tgz:70173.got - 2010.06.03 17:49:19.
