data_PCOD9251355
_publ_section_title
;
Structure prediction by ZEFSAII (Michael W. Deem and Ramdas Pophale) SiO2 
 PCOD9251355
Probable space group: P 21/C
;
_chemical_formula_sum "Si O2"
_cell_formula_units_Z 24
_cell_length_a 7.777793
_cell_length_b 23.444697
_cell_length_c 5.159184
_cell_angle_alpha 90.000000
_cell_angle_beta 107.329334
_cell_angle_gamma 90.000000
_cell_volume 898.063995
_symmetry_space_group_name_H-M "P 21/C"
_symmetry_group_IT_number 14
_symmetry_cell_setting 'monoclinic'
loop_
_space_group_symop_operation_xyz
x,y,z
-x,1/2+y,1/2-z
-x,-y,-z
x,1/2-y,1/2+z
loop_
_atom_site_type_symbol
_atom_site_label
_atom_site_fract_x
_atom_site_fract_y
_atom_site_fract_z
Si Si1 0.235520 0.715458 0.967561
Si Si2 0.051443 0.921951 0.629967
Si Si3 0.315648 0.388851 0.066940
Si Si4 0.697373 0.384580 0.382285
Si Si5 0.669004 0.780842 0.751499
Si Si6 0.232447 0.497246 0.805055
O O1 0.165756 0.756674 0.703319
O O2 0.228406 0.652844 0.823507
O O3 0.451491 0.720333 0.124049
O O4 0.171202 0.965974 0.526161
O O5 0.876703 0.901114 0.388918
O O6 0.176591 0.874863 0.815759
O O7 0.941153 0.955788 0.808192
O O8 0.276525 0.341704 0.834308
O O9 0.372171 0.447725 0.946805
O O10 0.486245 0.370361 0.313428
O O11 0.708899 0.453472 0.360773
O O12 0.730730 0.734648 0.565280
#
# Coordination Sequence:
#
# PCOD9251355 Si02
#       6
#     4   4   4   4   4   4
#     4   9  20  36  60  89 122 161 207 260 311 366
#     4   9  21  39  55  86 124 154 191 257 309 365
#     4   9  20  39  57  92 115 157 209 250 302 381
#     4  11  20  36  65  83 118 162 204 249 311 369
#     4   9  18  38  59  87 123 161 207 259 311 364
#     4   9  20  40  56  88 126 150 202 254 309 369
#
# _framework density 26.724155
#
# number of rings (size 3 to 8) (size 9 to 14) (size 15 to 20)
#    1.000    1.667    0.000    1.000    2.333    0.667 
#    9.000    1.667    0.000    0.000    0.000    0.000 
#    0.000    0.000    0.000    0.000    0.000    0.000 
#
# Total GULP energy -133813.636030 kJ/mol
# GULP energy per Si atom -5575.568168 kJ/mol
# Density = 2.666333 g / cm^3
# Si number density = 26.724155 Si / 1000 Ang^3
#
#
#
# Elastic Constant Matrix: (Units=GPa)
#
#
# Indices 1 2 3 4 5 6 
#
# 1 58.3314 6.5726 17.4620 0.0000 20.6860 0.0000
# 2 6.5726 138.6883 -3.0759 0.0000 4.5077 0.0000
# 3 17.4620 -3.0759 63.6277 0.0000 4.8652 0.0000
# 4 0.0000 0.0000 0.0000 29.8183 0.0000 -6.6354
# 5 20.6860 4.5077 4.8652 0.0000 30.2174 0.0000
# 6 0.0000 0.0000 0.0000 -6.6354 0.0000 14.9615
#
#
#
# Elastic Compliance Matrix: (Units=1/GPa)
#
#
# Indices 1 2 3 4 5 6 
#
# 1 0.024476 -0.000771 -0.005550 0.000000 -0.015747 0.000000
# 2 -0.000771 0.007282 0.000614 0.000000 -0.000657 0.000000
# 3 -0.005550 0.000614 0.017198 0.000000 0.000939 0.000000
# 4 0.000000 0.000000 0.000000 0.037209 0.000000 0.016502
# 5 -0.015747 -0.000657 0.000939 0.000000 0.043820 0.000000
# 6 0.000000 0.000000 0.000000 0.016502 0.000000 0.074157
#
#
# Mechanical properties :
#
#
# Convention : Reuss Voigt Hill
#
# Bulk Modulus (GPa) = 26.63810 33.61830 30.12820
# Shear Modulus (GPa) = 21.92305 30.97870 26.45087
#
# Velocity S-wave (km/s) = 2.86728 3.40840 3.14948
# Velocity P-wave (km/s) = 4.57724 5.30063 4.95216
#
# Compressibility (1/GPa) = 0.03754022
#
# Stress axis : x y z
#
# Youngs Moduli (GPa) = 40.85586 137.32611 58.14776
#
# Poissons Ratio (x) = 0.10591 0.32275
# Poissons Ratio (y) = 0.03151 -0.03570
# Poissons Ratio (z) = 0.22677 -0.08431
#
# Static dielectric constant tensor:
#      x y z
#    x 2.163710 0.000000 0.056390 
#    y 0.000000 2.267980 0.000000 
#    z 0.056390 0.000000 2.173560 
# 
# From -- ./inp_files/1828.got.cif
#   From: 2010.05.17/outbox.cif.g08.bks.cpg/sg14_1_cif.got.tgz:1828.got - 2010.06.03 17:49:19.
