data_PCOD9251026
_publ_section_title
;
Structure prediction by ZEFSAII (Michael W. Deem and Ramdas Pophale) SiO2 
 PCOD9251026
Probable space group: P 21/C
;
_chemical_formula_sum "Si O2"
_cell_formula_units_Z 16
_cell_length_a 7.406977
_cell_length_b 4.778325
_cell_length_c 18.967034
_cell_angle_alpha 90.000000
_cell_angle_beta 60.724563
_cell_angle_gamma 90.000000
_cell_volume 585.560156
_symmetry_space_group_name_H-M "P 21/C"
_symmetry_group_IT_number 14
_symmetry_cell_setting 'monoclinic'
loop_
_space_group_symop_operation_xyz
x,y,z
-x,1/2+y,1/2-z
-x,-y,-z
x,1/2-y,1/2+z
loop_
_atom_site_type_symbol
_atom_site_label
_atom_site_fract_x
_atom_site_fract_y
_atom_site_fract_z
Si Si1 0.035336 0.771134 0.641186
Si Si2 0.480632 0.838369 0.078084
Si Si3 0.586583 0.701824 0.275070
Si Si4 0.081691 0.261663 0.537416
O O1 0.267338 0.834395 0.624369
O O2 0.063481 0.449836 0.612207
O O3 0.835761 0.798901 0.727814
O O4 0.988494 0.972394 0.583214
O O5 0.493316 0.060926 0.138566
O O6 0.692044 0.668691 0.032544
O O7 0.500000 0.000000 0.000000
O O8 0.501198 0.504243 0.228030
O O9 0.000000 0.500000 0.500000
#
# Coordination Sequence:
#
# PCOD9251026 Si02
#       4
#     4   4   4   4
#     4  11  24  42  67  99 135 182 233 287 348 418
#     4  10  25  45  70 103 141 185 238 294 353 423
#     4  12  27  47  71 104 144 189 238 295 359 426
#     4  11  22  42  68 100 137 180 229 288 350 417
#
# _framework density 27.324266999999999
#
# number of rings (size 3 to 8) (size 9 to 14) (size 15 to 20)
#    0.000    1.000    0.000    6.000    0.000   16.000 
#    0.000    0.000    0.000    0.000    0.000    0.000 
#    0.000    0.000    0.000    0.000    0.000    0.000 
#
# Total GULP energy -89556.023376 kJ/mol
# GULP energy per Si atom -5597.251461 kJ/mol
# Density = 2.726208 g / cm^3
# Si number density = 27.324267 Si / 1000 Ang^3
#
#
#
# Elastic Constant Matrix: (Units=GPa)
#
#
# Indices 1 2 3 4 5 6 
#
# 1 77.3845 -0.0969 31.4520 0.0000 -9.5408 0.0000
# 2 -0.0969 136.5594 17.9335 0.0000 1.9570 0.0000
# 3 31.4520 17.9335 134.4508 0.0000 -23.9544 0.0000
# 4 0.0000 0.0000 0.0000 37.1343 0.0000 -3.9931
# 5 -9.5408 1.9570 -23.9544 0.0000 54.7040 0.0000
# 6 0.0000 0.0000 0.0000 -3.9931 0.0000 37.8211
#
#
#
# Elastic Compliance Matrix: (Units=1/GPa)
#
#
# Indices 1 2 3 4 5 6 
#
# 1 0.014367 0.000418 -0.003224 0.000000 0.001079 0.000000
# 2 0.000418 0.007495 -0.001228 0.000000 -0.000733 0.000000
# 3 -0.003224 -0.001228 0.008963 0.000000 0.003406 0.000000
# 4 0.000000 0.000000 0.000000 0.027239 0.000000 0.002876
# 5 0.001079 -0.000733 0.003406 0.000000 0.019986 0.000000
# 6 0.000000 0.000000 0.000000 0.002876 0.000000 0.026744
#
#
# Mechanical properties :
#
#
# Convention : Reuss Voigt Hill
#
# Bulk Modulus (GPa) = 43.94545 49.66353 46.80449
# Shear Modulus (GPa) = 41.51229 45.87228 43.69229
#
# Velocity S-wave (km/s) = 3.90198 4.10177 4.00312
# Velocity P-wave (km/s) = 6.03477 6.37556 6.20751
#
# Compressibility (1/GPa) = 0.02275549
#
# Stress axis : x y z
#
# Youngs Moduli (GPa) = 69.60634 133.42399 111.57464
#
# Poissons Ratio (x) = -0.05579 0.35975
# Poissons Ratio (y) = -0.02911 0.13703
# Poissons Ratio (z) = 0.22443 0.16386
#
# Static dielectric constant tensor:
#      x y z
#    x 2.365360 0.000000 0.142910 
#    y 0.000000 2.060570 0.000000 
#    z 0.142910 0.000000 2.142510 
# 
# From -- ./inp_files/53927.got.cif
#   From: 2010.05.17/outbox.cif.g08.bks.cpg/sg14_27_cif.got.tgz:53927.got - 2010.06.03 17:49:19.
