data_PCOD9251637
_publ_section_title
;
Structure prediction by ZEFSAII (Michael W. Deem and Ramdas Pophale) SiO2 
 PCOD9251637
Probable space group: P 21/C
;
_chemical_formula_sum "Si O2"
_cell_formula_units_Z 28
_cell_length_a 5.878752
_cell_length_b 28.853444
_cell_length_c 7.603092
_cell_angle_alpha 90.000000
_cell_angle_beta 63.952334
_cell_angle_gamma 90.000000
_cell_volume 1158.662166
_symmetry_space_group_name_H-M "P 21/C"
_symmetry_group_IT_number 14
_symmetry_cell_setting 'monoclinic'
loop_
_space_group_symop_operation_xyz
x,y,z
-x,1/2+y,1/2-z
-x,-y,-z
x,1/2-y,1/2+z
loop_
_atom_site_type_symbol
_atom_site_label
_atom_site_fract_x
_atom_site_fract_y
_atom_site_fract_z
Si Si1 0.644257 0.369288 0.146332
Si Si2 0.858421 0.342182 0.454379
Si Si3 0.775697 0.977172 0.450461
Si Si4 0.350931 0.310834 0.731311
Si Si5 0.866118 0.591562 0.201728
Si Si6 0.295949 0.208927 0.633322
Si Si7 0.839138 0.930316 0.080478
O O1 0.752063 0.352523 0.296208
O O2 0.414891 0.404084 0.268749
O O3 0.852025 0.396549 0.961092
O O4 0.539135 0.322960 0.090013
O O5 0.649995 0.319059 0.646411
O O6 0.941454 0.391923 0.494442
O O7 0.092720 0.308355 0.343435
O O8 0.728426 0.929705 0.577385
O O9 0.887889 0.966261 0.219609
O O10 0.500000 0.000000 0.500000
O O11 0.000000 0.000000 0.500000
O O12 0.327261 0.263738 0.632160
O O13 0.217835 0.303862 0.962884
O O14 0.246296 0.359245 0.696475
O O15 0.823313 0.557419 0.380865
#
# Coordination Sequence:
#
# PCOD9251637 Si02
#       7
#     4   4   4   4   4   4   4
#     4  11  21  47  70 104 156 198 254 322 371 462
#     4  11  23  43  71 101 149 199 251 316 377 456
#     4  12  29  53  83 120 159 199 263 343 412 498
#     4  12  25  42  68 106 146 205 262 315 387 460
#     4  12  25  48  80 109 152 211 257 321 410 472
#     4  11  26  40  63 101 150 201 259 321 374 441
#     4  11  25  47  79 112 150 199 254 313 404 473
#
# _framework density 24.165800999999998
#
# number of rings (size 3 to 8) (size 9 to 14) (size 15 to 20)
#    0.000    0.571    4.286    3.429    4.000    3.429 
#    0.000    0.000    0.000    0.000    0.000    0.000 
#    0.000    0.000    0.000    0.000    0.000    0.000 
#
# Total GULP energy -156560.436976 kJ/mol
# GULP energy per Si atom -5591.444178 kJ/mol
# Density = 2.411080 g / cm^3
# Si number density = 24.165801 Si / 1000 Ang^3
#
#
#
# Elastic Constant Matrix: (Units=GPa)
#
#
# Indices 1 2 3 4 5 6 
#
# 1 87.3751 39.1838 25.2471 0.0000 10.5700 0.0000
# 2 39.1838 100.8107 26.0330 0.0000 -6.3264 0.0000
# 3 25.2471 26.0330 126.8542 0.0000 8.8316 0.0000
# 4 0.0000 0.0000 0.0000 21.4762 0.0000 5.0561
# 5 10.5700 -6.3264 8.8316 0.0000 43.4631 0.0000
# 6 0.0000 0.0000 0.0000 5.0561 0.0000 30.9669
#
#
#
# Elastic Compliance Matrix: (Units=1/GPa)
#
#
# Indices 1 2 3 4 5 6 
#
# 1 0.014928 -0.005671 -0.001519 0.000000 -0.004147 0.000000
# 2 -0.005671 0.012801 -0.001749 0.000000 0.003598 0.000000
# 3 -0.001519 -0.001749 0.008659 0.000000 -0.001645 0.000000
# 4 0.000000 0.000000 0.000000 0.048425 0.000000 -0.007907
# 5 -0.004147 0.003598 -0.001645 0.000000 0.024874 0.000000
# 6 0.000000 0.000000 0.000000 -0.007907 0.000000 0.033583
#
#
# Mechanical properties :
#
#
# Convention : Reuss Voigt Hill
#
# Bulk Modulus (GPa) = 54.01930 55.10753 54.56341
# Shear Modulus (GPa) = 29.88325 34.15298 32.01811
#
# Velocity S-wave (km/s) = 3.52034 3.76344 3.64391
# Velocity P-wave (km/s) = 6.23906 6.46050 6.35074
#
# Compressibility (1/GPa) = 0.01851190
#
# Stress axis : x y z
#
# Youngs Moduli (GPa) = 66.98623 78.11849 115.49032
#
# Poissons Ratio (x) = 0.44298 0.17539
# Poissons Ratio (y) = 0.37985 0.20198
# Poissons Ratio (z) = 0.10173 0.13662
#
# Static dielectric constant tensor:
#      x y z
#    x 2.019860 0.000000 0.032490 
#    y 0.000000 1.960470 0.000000 
#    z 0.032490 0.000000 1.893230 
# 
# From -- ./inp_files/6726.got.cif
#   From: 2010.05.17/outbox.cif.g08.bks.cpg/sg14_4_cif.got.tgz:6726.got - 2010.06.03 17:49:19.
