data_PCOD9251814
_publ_section_title
;
Structure prediction by ZEFSAII (Michael W. Deem and Ramdas Pophale) SiO2 
 PCOD9251814
Probable space group: P 21/C
;
_chemical_formula_sum "Si O2"
_cell_formula_units_Z 24
_cell_length_a 8.916288
_cell_length_b 8.064533
_cell_length_c 13.595618
_cell_angle_alpha 90.000000
_cell_angle_beta 101.489984
_cell_angle_gamma 90.000000
_cell_volume 958.010813
_symmetry_space_group_name_H-M "P 21/C"
_symmetry_group_IT_number 14
_symmetry_cell_setting 'monoclinic'
loop_
_space_group_symop_operation_xyz
x,y,z
-x,1/2+y,1/2-z
-x,-y,-z
x,1/2-y,1/2+z
loop_
_atom_site_type_symbol
_atom_site_label
_atom_site_fract_x
_atom_site_fract_y
_atom_site_fract_z
Si Si1 0.726742 0.880170 0.490375
Si Si2 0.615629 0.304992 0.045682
Si Si3 0.680537 0.190704 0.775092
Si Si4 0.819119 0.697683 0.796452
Si Si5 0.571102 0.501893 0.659315
Si Si6 0.001244 0.861368 0.669387
O O1 0.720159 0.083451 0.488103
O O2 0.654919 0.120540 0.660401
O O3 0.732257 0.786898 0.387131
O O4 0.875310 0.831439 0.570247
O O5 0.620138 0.108840 0.071767
O O6 0.440714 0.334170 0.991743
O O7 0.301859 0.361816 0.300426
O O8 0.856809 0.234521 0.814882
O O9 0.593704 0.083108 0.844815
O O10 0.593913 0.367416 0.750621
O O11 0.932267 0.544314 0.830943
O O12 0.081856 0.343188 0.735976
#
# Coordination Sequence:
#
# PCOD9251814 Si02
#       6
#     4   4   4   4   4   4
#     4  11  22  43  69 102 130 182 230 276 339 418
#     4   9  21  39  68  95 130 172 232 275 323 414
#     4   9  19  39  66  95 132 176 226 273 341 398
#     4  11  23  45  68  97 138 181 222 276 353 398
#     4   9  19  40  68  94 125 184 225 269 335 410
#     4  11  25  40  70 101 136 180 226 287 337 408
#
# _framework density 25.051909999999999
#
# number of rings (size 3 to 8) (size 9 to 14) (size 15 to 20)
#    1.000    1.000    1.667    1.500    0.000    5.333 
#    3.000    4.167    0.000    0.000    0.000    0.000 
#    0.000    0.000    0.000    0.000    0.000    0.000 
#
# Total GULP energy -134074.056643 kJ/mol
# GULP energy per Si atom -5586.419027 kJ/mol
# Density = 2.499489 g / cm^3
# Si number density = 25.051910 Si / 1000 Ang^3
#
#
#
# Elastic Constant Matrix: (Units=GPa)
#
#
# Indices 1 2 3 4 5 6 
#
# 1 111.8665 35.8154 41.3127 0.0000 26.8486 0.0000
# 2 35.8154 49.5119 18.6045 0.0000 4.4921 0.0000
# 3 41.3127 18.6045 94.3154 0.0000 16.9599 0.0000
# 4 0.0000 0.0000 0.0000 31.0862 0.0000 -5.0212
# 5 26.8486 4.4921 16.9599 0.0000 52.6468 0.0000
# 6 0.0000 0.0000 0.0000 -5.0212 0.0000 34.3283
#
#
#
# Elastic Compliance Matrix: (Units=1/GPa)
#
#
# Indices 1 2 3 4 5 6 
#
# 1 0.014286 -0.008487 -0.003613 0.000000 -0.005398 0.000000
# 2 -0.008487 0.026868 -0.002068 0.000000 0.002702 0.000000
# 3 -0.003613 -0.002068 0.012982 0.000000 -0.002163 0.000000
# 4 0.000000 0.000000 0.000000 0.032947 0.000000 0.004819
# 5 -0.005398 0.002702 -0.002163 0.000000 0.022213 0.000000
# 6 0.000000 0.000000 0.000000 0.004819 0.000000 0.029835
#
#
# Mechanical properties :
#
#
# Convention : Reuss Voigt Hill
#
# Bulk Modulus (GPa) = 38.75925 49.68434 44.22180
# Shear Modulus (GPa) = 28.39794 34.27634 31.33714
#
# Velocity S-wave (km/s) = 3.37050 3.70295 3.54063
# Velocity P-wave (km/s) = 5.53644 6.17722 5.86559
#
# Compressibility (1/GPa) = 0.02580029
#
# Stress axis : x y z
#
# Youngs Moduli (GPa) = 69.99810 37.21855 77.02792
#
# Poissons Ratio (x) = 0.31587 0.27830
# Poissons Ratio (y) = 0.59406 0.15933
# Poissons Ratio (z) = 0.25290 0.07698
#
# Static dielectric constant tensor:
#      x y z
#    x 1.937010 0.000000 -0.043980 
#    y 0.000000 2.076550 0.000000 
#    z -0.043980 0.000000 2.026870 
# 
# From -- ./inp_files/39332.got.cif
#   From: 2010.05.17/outbox.cif.g08.bks.cpg/sg14_20_cif.got.tgz:39332.got - 2010.06.03 17:49:19.
