data_PCOD9251739
_publ_section_title
;
Structure prediction by ZEFSAII (Michael W. Deem and Ramdas Pophale) SiO2 
 PCOD9251739
Probable space group: P 21/C
;
_chemical_formula_sum "Si O2"
_cell_formula_units_Z 24
_cell_length_a 11.727467
_cell_length_b 4.859220
_cell_length_c 18.525020
_cell_angle_alpha 90.000000
_cell_angle_beta 53.018381
_cell_angle_gamma 90.000000
_cell_volume 843.301821
_symmetry_space_group_name_H-M "P 21/C"
_symmetry_group_IT_number 14
_symmetry_cell_setting 'monoclinic'
loop_
_space_group_symop_operation_xyz
x,y,z
-x,1/2+y,1/2-z
-x,-y,-z
x,1/2-y,1/2+z
loop_
_atom_site_type_symbol
_atom_site_label
_atom_site_fract_x
_atom_site_fract_y
_atom_site_fract_z
Si Si1 0.291479 0.629281 0.911947
Si Si2 0.450115 0.765329 0.662457
Si Si3 0.162874 0.029060 0.612500
Si Si4 0.136876 0.134297 0.911160
Si Si5 0.122332 0.832100 0.784164
Si Si6 0.573519 0.782558 0.920712
O O1 0.433241 0.444170 0.838622
O O2 0.263154 0.934858 0.893746
O O3 0.169582 0.438971 0.922765
O O4 0.251175 0.609569 0.013364
O O5 0.470948 0.444737 0.636068
O O6 0.283078 0.750148 0.744835
O O7 0.452749 0.963926 0.589295
O O8 0.123403 0.847258 0.697164
O O9 0.265950 0.260237 0.609589
O O10 0.018021 0.167220 0.640680
O O11 0.115272 0.112538 0.833315
O O12 0.000000 0.000000 0.000000
O O13 0.500000 0.000000 0.000000
#
# Coordination Sequence:
#
# PCOD9251739 Si02
#       6
#     4   4   4   4   4   4
#     4  12  27  47  80 102 145 196 245 288 367 440
#     4  11  25  44  70 106 145 189 240 298 358 427
#     4  11  25  44  76 111 144 193 245 302 365 433
#     4  12  28  50  73 106 146 193 239 298 364 438
#     4  11  27  44  73 108 149 186 241 307 360 425
#     4  11  22  40  70 107 146 181 235 298 360 420
#
# _framework density 28.45956
#
# number of rings (size 3 to 8) (size 9 to 14) (size 15 to 20)
#    0.000    0.667    3.333    3.000    4.667    4.000 
#    0.000    0.000    0.000    0.000    0.000    0.000 
#    0.000    0.000    0.000    0.000    0.000    0.000 
#
# Total GULP energy -134060.871886 kJ/mol
# GULP energy per Si atom -5585.869662 kJ/mol
# Density = 2.839478 g / cm^3
# Si number density = 28.459560 Si / 1000 Ang^3
#
#
#
# Elastic Constant Matrix: (Units=GPa)
#
#
# Indices 1 2 3 4 5 6 
#
# 1 147.4880 24.4778 7.0897 0.0000 -15.3448 0.0000
# 2 24.4778 174.1752 4.5708 0.0000 -6.9602 0.0000
# 3 7.0897 4.5708 98.2155 0.0000 19.7397 0.0000
# 4 0.0000 0.0000 0.0000 28.9079 0.0000 8.8648
# 5 -15.3448 -6.9602 19.7397 0.0000 49.7515 0.0000
# 6 0.0000 0.0000 0.0000 8.8648 0.0000 44.7358
#
#
#
# Elastic Compliance Matrix: (Units=1/GPa)
#
#
# Indices 1 2 3 4 5 6 
#
# 1 0.007235 -0.000891 -0.000983 0.000000 0.002497 0.000000
# 2 -0.000891 0.005903 -0.000349 0.000000 0.000689 0.000000
# 3 -0.000983 -0.000349 0.011236 0.000000 -0.004810 0.000000
# 4 0.000000 0.000000 0.000000 0.036831 0.000000 -0.007298
# 5 0.002497 0.000689 -0.004810 0.000000 0.022875 0.000000
# 6 0.000000 0.000000 0.000000 -0.007298 0.000000 0.023800
#
#
# Mechanical properties :
#
#
# Convention : Reuss Voigt Hill
#
# Bulk Modulus (GPa) = 50.17965 54.68391 52.43178
# Shear Modulus (GPa) = 42.02832 50.26175 46.14503
#
# Velocity S-wave (km/s) = 3.84705 4.20703 4.03106
# Velocity P-wave (km/s) = 6.11582 6.54638 6.33476
#
# Compressibility (1/GPa) = 0.01992840
#
# Stress axis : x y z
#
# Youngs Moduli (GPa) = 138.21473 169.39663 89.00324
#
# Poissons Ratio (x) = 0.15097 0.08745
# Poissons Ratio (y) = 0.12318 0.03106
# Poissons Ratio (z) = 0.13581 0.05911
#
# Static dielectric constant tensor:
#      x y z
#    x 2.375800 0.000000 -0.119040 
#    y 0.000000 2.301280 0.000000 
#    z -0.119040 0.000000 2.524580 
# 
# From -- ./inp_files/56550.got.cif
#   From: 2010.05.17/outbox.cif.g08.bks.cpg/sg14_29_cif.got.tgz:56550.got - 2010.06.03 17:49:19.
