data_PCOD9251023
_publ_section_title
;
Structure prediction by ZEFSAII (Michael W. Deem and Ramdas Pophale) SiO2 
 PCOD9251023
Probable space group: P 21/C
;
_chemical_formula_sum "Si O2"
_cell_formula_units_Z 16
_cell_length_a 19.051844
_cell_length_b 5.321059
_cell_length_c 17.009043
_cell_angle_alpha 90.000000
_cell_angle_beta 20.818170
_cell_angle_gamma 90.000000
_cell_volume 612.825109
_symmetry_space_group_name_H-M "P 21/C"
_symmetry_group_IT_number 14
_symmetry_cell_setting 'monoclinic'
loop_
_space_group_symop_operation_xyz
x,y,z
-x,1/2+y,1/2-z
-x,-y,-z
x,1/2-y,1/2+z
loop_
_atom_site_type_symbol
_atom_site_label
_atom_site_fract_x
_atom_site_fract_y
_atom_site_fract_z
Si Si1 0.165909 0.582551 0.166587
Si Si2 0.080429 0.706688 0.978628
Si Si3 0.766952 0.668838 0.052582
Si Si4 0.581085 0.208565 0.977404
O O1 0.088510 0.387442 0.312970
O O2 0.296383 0.439892 0.965210
O O3 0.272473 0.814045 0.099181
O O4 0.963342 0.667752 0.337382
O O5 0.265733 0.842962 0.741959
O O6 0.167821 0.564585 0.961904
O O7 0.000000 0.500000 0.000000
O O8 0.605174 0.802220 0.276925
O O9 0.500000 0.000000 0.000000
#
# Coordination Sequence:
#
# PCOD9251023 Si02
#       4
#     4   4   4   4
#     4  12  24  46  73 100 147 194 240 305 371 435
#     4  11  23  45  72 101 142 185 238 302 368 438
#     4  11  25  44  70 104 142 192 244 300 370 435
#     4  10  25  45  69 108 143 188 243 302 360 441
#
# _framework density 26.108592999999999
#
# number of rings (size 3 to 8) (size 9 to 14) (size 15 to 20)
#    0.000    1.000    5.000    0.750    0.000    5.000 
#    9.000    0.000    0.000    0.000    0.000    0.000 
#    0.000    0.000    0.000    0.000    0.000    0.000 
#
# Total GULP energy -89105.638544 kJ/mol
# GULP energy per Si atom -5569.102409 kJ/mol
# Density = 2.604917 g / cm^3
# Si number density = 26.108593 Si / 1000 Ang^3
#
#
#
# Elastic Constant Matrix: (Units=GPa)
#
#
# Indices 1 2 3 4 5 6 
#
# 1 153.2954 48.0782 58.4621 0.0000 22.9262 0.0000
# 2 48.0782 49.2745 20.0194 0.0000 9.0278 0.0000
# 3 58.4621 20.0194 143.2708 0.0000 48.1588 0.0000
# 4 0.0000 0.0000 0.0000 -1.6306 0.0000 15.7628
# 5 22.9262 9.0278 48.1588 0.0000 43.9589 0.0000
# 6 0.0000 0.0000 0.0000 15.7628 0.0000 54.7742
#
#
#
# Elastic Compliance Matrix: (Units=1/GPa)
#
#
# Indices 1 2 3 4 5 6 
#
# 1 0.010514 -0.009004 -0.002866 0.000000 -0.000495 0.000000
# 2 -0.009004 0.029315 0.000037 0.000000 -0.001364 0.000000
# 3 -0.002866 0.000037 0.012100 0.000000 -0.011769 0.000000
# 4 0.000000 0.000000 0.000000 -0.162158 0.000000 0.046666
# 5 -0.000495 -0.001364 -0.011769 0.000000 0.036180 0.000000
# 6 0.000000 0.000000 0.000000 0.046666 0.000000 0.004827
#
#
# Mechanical properties :
#
#
# Convention : Reuss Voigt Hill
#
# Bulk Modulus (GPa) = 35.38239 66.55111 50.96675
# Shear Modulus (GPa) = -138.37611 34.03922 -52.16845
#
# Velocity S-wave (km/s) = -7.28802 3.61467 -4.47490
# Velocity P-wave (km/s) = 7.56564 6.55489 2.67136
#
# Compressibility (1/GPa) = 0.02826264
#
# Stress axis : x y z
#
# Youngs Moduli (GPa) = 95.10908 34.11227 82.64336
#
# Poissons Ratio (x) = 0.30715 0.23685
# Poissons Ratio (y) = 0.85636 -0.00302
# Poissons Ratio (z) = 0.27258 -0.00125
#
# Static dielectric constant tensor:
#      x y z
#    x 2.070140 0.000000 -0.082310 
#    y 0.000000 2.491400 0.000000 
#    z -0.082310 0.000000 2.116420 
# 
# From -- ./inp_files/38681.got.cif
#   From: 2010.05.17/outbox.cif.g08.bks.cpg/sg14_20_cif.got.tgz:38681.got - 2010.06.03 17:49:19.
