data_PCOD9251091
_publ_section_title
;
Structure prediction by ZEFSAII (Michael W. Deem and Ramdas Pophale) SiO2 
 PCOD9251091
Probable space group: P 21/C
;
_chemical_formula_sum "Si O2"
_cell_formula_units_Z 32
_cell_length_a 20.498583
_cell_length_b 12.104530
_cell_length_c 8.386132
_cell_angle_alpha 90.000000
_cell_angle_beta 37.822921
_cell_angle_gamma 90.000000
_cell_volume 1276.003821
_symmetry_space_group_name_H-M "P 21/C"
_symmetry_group_IT_number 14
_symmetry_cell_setting 'monoclinic'
loop_
_space_group_symop_operation_xyz
x,y,z
-x,1/2+y,1/2-z
-x,-y,-z
x,1/2-y,1/2+z
loop_
_atom_site_type_symbol
_atom_site_label
_atom_site_fract_x
_atom_site_fract_y
_atom_site_fract_z
Si Si1 0.148990 0.684516 0.085433
Si Si2 0.246604 0.149632 0.256946
Si Si3 0.077618 0.601652 0.801979
Si Si4 0.706695 0.351430 0.900969
Si Si5 0.035314 0.027592 0.755418
Si Si6 0.479957 0.819811 0.684292
Si Si7 0.631157 0.812368 0.670131
Si Si8 0.693568 0.023714 0.122833
O O1 0.061916 0.766396 0.337620
O O2 0.228965 0.630242 0.059666
O O3 0.084652 0.591944 0.112514
O O4 0.225209 0.759681 0.829146
O O5 0.127468 0.116681 0.537913
O O6 0.317148 0.125864 0.278540
O O7 0.275760 0.270798 0.131326
O O8 0.279558 0.080648 0.037495
O O9 0.198068 0.589622 0.619835
O O10 0.068316 0.572092 0.631756
O O11 0.000000 0.500000 0.000000
O O12 0.594895 0.287977 0.146161
O O13 0.686784 0.041206 0.327535
O O14 0.000000 0.000000 0.000000
O O15 0.538800 0.856049 0.732316
O O16 0.567600 0.785565 0.385653
O O17 0.406709 0.915282 0.757097
#
# Coordination Sequence:
#
# PCOD9251091 Si02
#       8
#     4   4   4   4   4   4   4   4
#     4  11  23  41  67 107 147 194 247 316 380 438
#     4  11  26  51  70 104 149 200 256 316 388 464
#     4  11  22  44  71 107 148 197 247 305 382 451
#     4  11  19  38  72 105 144 190 239 313 374 428
#     4  12  26  46  71 109 145 188 257 309 372 466
#     4  11  19  42  72 109 144 196 250 305 386 453
#     4  10  25  47  72 101 152 202 250 308 394 470
#     4  11  22  40  73 105 150 184 250 322 358 457
#
# _framework density 25.078295000000001
#
# number of rings (size 3 to 8) (size 9 to 14) (size 15 to 20)
#    0.000    1.000    5.000    3.000    0.000    2.000 
#   11.250    0.000    0.000    0.000    0.000    0.000 
#    0.000    0.000    0.000    0.000    0.000    0.000 
#
# Total GULP energy -178433.445077 kJ/mol
# GULP energy per Si atom -5576.045159 kJ/mol
# Density = 2.502122 g / cm^3
# Si number density = 25.078295 Si / 1000 Ang^3
#
#
#
# Elastic Constant Matrix: (Units=GPa)
#
#
# Indices 1 2 3 4 5 6 
#
# 1 74.6480 14.3516 -24.0461 0.0000 8.5188 0.0000
# 2 14.3516 30.4427 17.2734 0.0000 2.8710 0.0000
# 3 -24.0461 17.2734 118.9236 0.0000 -1.0966 0.0000
# 4 0.0000 0.0000 0.0000 44.7677 0.0000 11.9016
# 5 8.5188 2.8710 -1.0966 0.0000 14.0756 0.0000
# 6 0.0000 0.0000 0.0000 11.9016 0.0000 27.2900
#
#
#
# Elastic Compliance Matrix: (Units=1/GPa)
#
#
# Indices 1 2 3 4 5 6 
#
# 1 0.018037 -0.010616 0.005112 0.000000 -0.008353 0.000000
# 2 -0.010616 0.042904 -0.008406 0.000000 -0.002981 0.000000
# 3 0.005112 -0.008406 0.010658 0.000000 -0.000549 0.000000
# 4 0.000000 0.000000 0.000000 0.025267 0.000000 -0.011019
# 5 -0.008353 -0.002981 -0.000549 0.000000 0.076665 0.000000
# 6 0.000000 0.000000 0.000000 -0.011019 0.000000 0.041449
#
#
# Mechanical properties :
#
#
# Convention : Reuss Voigt Hill
#
# Bulk Modulus (GPa) = 22.84163 26.57467 24.70815
# Shear Modulus (GPa) = 19.42551 31.65571 25.54061
#
# Velocity S-wave (km/s) = 2.78617 3.55671 3.19475
# Velocity P-wave (km/s) = 4.41342 5.24276 4.84586
#
# Compressibility (1/GPa) = 0.04377971
#
# Stress axis : x y z
#
# Youngs Moduli (GPa) = 55.44114 23.30786 93.82400
#
# Poissons Ratio (x) = 0.24744 -0.47963
# Poissons Ratio (y) = 0.58857 0.78866
# Poissons Ratio (z) = -0.28342 0.19592
#
# Static dielectric constant tensor:
#      x y z
#    x 2.016740 0.000000 0.128480 
#    y 0.000000 2.287480 0.000000 
#    z 0.128480 0.000000 2.137330 
# 
# From -- ./inp_files/19057.got.cif
#   From: 2010.05.17/outbox.cif.g08.bks.cpg/sg14_10_cif.got.tgz:19057.got - 2010.06.03 17:49:19.
