data_PCOD9251383
_publ_section_title
;
Structure prediction by ZEFSAII (Michael W. Deem and Ramdas Pophale) SiO2 
 PCOD9251383
Probable space group: P 21/C
;
_chemical_formula_sum "Si O2"
_cell_formula_units_Z 32
_cell_length_a 26.165739
_cell_length_b 12.959879
_cell_length_c 14.152015
_cell_angle_alpha 90.000000
_cell_angle_beta 21.250714
_cell_angle_gamma 90.000000
_cell_volume 1739.401819
_symmetry_space_group_name_H-M "P 21/C"
_symmetry_group_IT_number 14
_symmetry_cell_setting 'monoclinic'
loop_
_space_group_symop_operation_xyz
x,y,z
-x,1/2+y,1/2-z
-x,-y,-z
x,1/2-y,1/2+z
loop_
_atom_site_type_symbol
_atom_site_label
_atom_site_fract_x
_atom_site_fract_y
_atom_site_fract_z
Si Si1 0.943723 0.987721 0.989476
Si Si2 0.453662 0.389891 0.040120
Si Si3 0.234920 0.689246 0.255614
Si Si4 0.201271 0.889934 0.435894
Si Si5 0.658729 0.881813 0.475094
Si Si6 0.561104 0.670619 0.737835
Si Si7 0.631925 0.205161 0.676838
Si Si8 0.568605 0.963453 0.056216
O O1 0.869081 0.091129 0.075097
O O2 0.063277 0.947384 0.712252
O O3 0.821596 0.902658 0.209455
O O4 0.000000 0.000000 0.000000
O O5 0.382903 0.334616 0.252412
O O6 0.500000 0.500000 0.000000
O O7 0.368863 0.395069 0.089019
O O8 0.585065 0.318332 0.787039
O O9 0.177891 0.790726 0.407714
O O10 0.389219 0.664005 0.035801
O O11 0.279056 0.712733 0.071956
O O12 0.280868 0.846981 0.390846
O O13 0.308872 0.970682 0.202064
O O14 0.604581 0.773883 0.608792
O O15 0.567356 0.965659 0.689644
O O16 0.613583 0.578024 0.581475
O O17 0.493358 0.134219 0.894803
#
# Coordination Sequence:
#
# PCOD9251383 Si02
#       8
#     4   4   4   4   4   4   4   4
#     4  12  26  46  65  92 135 181 218 268 326 404
#     4  12  21  35  66 100 131 170 211 279 342 378
#     4  11  21  43  65  95 131 173 220 271 332 389
#     4  12  24  40  69  93 132 179 215 273 335 391
#     4  12  22  42  65  94 131 171 222 272 329 390
#     4  11  22  38  65 100 131 161 220 283 324 389
#     4  11  21  39  68  99 127 172 226 271 324 397
#     4  11  20  39  65  97 127 166 222 272 320 388
#
# _framework density 18.397129
#
# number of rings (size 3 to 8) (size 9 to 14) (size 15 to 20)
#    0.000    0.500   10.000    0.375    0.000    2.000 
#    2.250    0.000    0.000    1.500    0.000    0.000 
#    0.000    0.000    0.000    0.000    0.000    0.000 
#
# Total GULP energy -178603.330704 kJ/mol
# GULP energy per Si atom -5581.354085 kJ/mol
# Density = 1.835526 g / cm^3
# Si number density = 18.397129 Si / 1000 Ang^3
#
#
#
# Elastic Constant Matrix: (Units=GPa)
#
#
# Indices 1 2 3 4 5 6 
#
# 1 98.9368 47.7390 41.5703 0.0000 4.3763 0.0000
# 2 47.7390 102.6149 54.4870 0.0000 5.8797 0.0000
# 3 41.5703 54.4870 109.2204 0.0000 3.7693 0.0000
# 4 0.0000 0.0000 0.0000 26.7504 0.0000 11.9825
# 5 4.3763 5.8797 3.7693 0.0000 23.5567 0.0000
# 6 0.0000 0.0000 0.0000 11.9825 0.0000 35.6181
#
#
#
# Elastic Compliance Matrix: (Units=1/GPa)
#
#
# Indices 1 2 3 4 5 6 
#
# 1 0.013633 -0.004833 -0.002747 0.000000 -0.000887 0.000000
# 2 -0.004833 0.015091 -0.005621 0.000000 -0.001969 0.000000
# 3 -0.002747 -0.005621 0.013011 0.000000 -0.000169 0.000000
# 4 0.000000 0.000000 0.000000 0.044016 0.000000 -0.014808
# 5 -0.000887 -0.001969 -0.000169 0.000000 0.043134 0.000000
# 6 0.000000 0.000000 0.000000 -0.014808 0.000000 0.033057
#
#
# Mechanical properties :
#
#
# Convention : Reuss Voigt Hill
#
# Bulk Modulus (GPa) = 65.21846 66.48496 65.85171
# Shear Modulus (GPa) = 25.84570 28.31676 27.08123
#
# Velocity S-wave (km/s) = 3.75223 3.92751 3.84087
# Velocity P-wave (km/s) = 7.36883 7.53554 7.45265
#
# Compressibility (1/GPa) = 0.01533308
#
# Stress axis : x y z
#
# Youngs Moduli (GPa) = 73.35180 66.26412 76.85514
#
# Poissons Ratio (x) = 0.32024 0.21114
# Poissons Ratio (y) = 0.35450 0.43202
# Poissons Ratio (z) = 0.20152 0.37248
#
# Static dielectric constant tensor:
#      x y z
#    x 1.668630 0.000000 0.005730 
#    y 0.000000 1.684550 0.000000 
#    z 0.005730 0.000000 1.607580 
# 
# From -- ./inp_files/52032.got.cif
#   From: 2010.05.17/outbox.cif.g08.bks.cpg/sg14_27_cif.got.tgz:52032.got - 2010.06.03 17:49:19.
