data_PCOD9251924
_publ_section_title
;
Structure prediction by ZEFSAII (Michael W. Deem and Ramdas Pophale) SiO2 
 PCOD9251924
Probable space group: P 21/C
;
_chemical_formula_sum "Si O2"
_cell_formula_units_Z 26
_cell_length_a 12.765694
_cell_length_b 10.317428
_cell_length_c 14.790489
_cell_angle_alpha 90.000000
_cell_angle_beta 150.644821
_cell_angle_gamma 90.000000
_cell_volume 954.973398
_symmetry_space_group_name_H-M "P 21/C"
_symmetry_group_IT_number 14
_symmetry_cell_setting 'monoclinic'
loop_
_space_group_symop_operation_xyz
x,y,z
-x,1/2+y,1/2-z
-x,-y,-z
x,1/2-y,1/2+z
loop_
_atom_site_type_symbol
_atom_site_label
_atom_site_fract_x
_atom_site_fract_y
_atom_site_fract_z
Si Si1 0.503255 0.848661 0.528403
Si Si2 0.966144 0.211374 0.759310
Si Si3 0.067888 0.349460 0.539433
Si Si4 0.000000 0.000000 0.500000
Si Si5 0.616524 0.263886 0.255940
Si Si6 0.450300 0.478674 0.264449
Si Si7 0.834098 0.022993 0.184501
O O1 0.284919 0.818217 0.416756
O O2 0.487516 0.773344 0.421464
O O3 0.713688 0.822460 0.744539
O O4 0.500000 0.000000 0.500000
O O5 0.069032 0.176847 0.933587
O O6 0.978578 0.363408 0.748255
O O7 0.067543 0.115861 0.764164
O O8 0.874254 0.264753 0.436385
O O9 0.000000 0.500000 0.500000
O O10 0.204832 0.054145 0.596238
O O11 0.162147 0.963192 0.706044
O O12 0.547663 0.390139 0.259328
O O13 0.551486 0.132447 0.256199
O O14 0.604821 0.461790 0.466329
#
# Coordination Sequence:
#
# PCOD9251924 Si02
#       7
#     4   4   4   2   4   4   4
#     4  11  24  46  87 119 163 217 274 347 409 501
#     4  11  28  51  81 124 161 219 279 335 423 490
#     4  11  22  49  83 117 163 209 279 343 404 507
#     4  12  30  54  84 120 170 218 274 344 428 474
#     4  11  28  51  81 124 161 219 279 335 423 490
#     4  12  31  54  82 121 171 222 278 349 414 511
#     4  12  31  54  82 121 171 222 278 349 414 511
#
# _framework density 27.225888999999999
#
# number of rings (size 3 to 8) (size 9 to 14) (size 15 to 20)
#    0.000    0.615    3.077    3.231    6.462    4.923 
#    5.538    1.538    0.000    0.000    0.000    0.000 
#    0.000    0.000    0.000    0.000    0.000    0.000 
#
# Total GULP energy -145834.785894 kJ/mol
# GULP energy per Si atom -5609.030227 kJ/mol
# Density = 2.716392 g / cm^3
# Si number density = 27.225889 Si / 1000 Ang^3
#
#
#
# Elastic Constant Matrix: (Units=GPa)
#
#
# Indices 1 2 3 4 5 6 
#
# 1 95.9646 25.5757 68.1271 0.0000 25.6936 0.0000
# 2 25.5757 142.1488 36.3826 0.0000 -1.6384 0.0000
# 3 68.1271 36.3826 263.4071 0.0000 18.1420 0.0000
# 4 0.0000 0.0000 0.0000 39.7261 0.0000 -1.7022
# 5 25.6936 -1.6384 18.1420 0.0000 41.8149 0.0000
# 6 0.0000 0.0000 0.0000 -1.7022 0.0000 47.0202
#
#
#
# Elastic Compliance Matrix: (Units=1/GPa)
#
#
# Indices 1 2 3 4 5 6 
#
# 1 0.015380 -0.002060 -0.003130 0.000000 -0.008173 0.000000
# 2 -0.002060 0.007591 -0.000643 0.000000 0.001842 0.000000
# 3 -0.003130 -0.000643 0.004705 0.000000 -0.000143 0.000000
# 4 0.000000 0.000000 0.000000 0.025211 0.000000 0.000913
# 5 -0.008173 0.001842 -0.000143 0.000000 0.029071 0.000000
# 6 0.000000 0.000000 0.000000 0.000913 0.000000 0.021300
#
#
# Mechanical properties :
#
#
# Convention : Reuss Voigt Hill
#
# Bulk Modulus (GPa) = 62.46212 84.63237 73.54724
# Shear Modulus (GPa) = 41.57585 50.47458 46.02522
#
# Velocity S-wave (km/s) = 3.91201 4.31039 4.11602
# Velocity P-wave (km/s) = 6.58765 7.47832 7.04707
#
# Compressibility (1/GPa) = 0.01600970
#
# Stress axis : x y z
#
# Youngs Moduli (GPa) = 65.01871 131.73055 212.55604
#
# Poissons Ratio (x) = 0.27139 0.66539
# Poissons Ratio (y) = 0.13395 0.13658
# Poissons Ratio (z) = 0.20354 0.08464
#
# Static dielectric constant tensor:
#      x y z
#    x 2.104620 0.000000 -0.009000 
#    y 0.000000 3.047450 0.000000 
#    z -0.009000 0.000000 2.048460 
# 
# From -- ./inp_files/46659.got.cif
#   From: 2010.05.17/outbox.cif.g08.bks.cpg/sg14_24_cif.got.tgz:46659.got - 2010.06.03 17:49:19.
