data_PCOD9251152
_publ_section_title
;
Structure prediction by ZEFSAII (Michael W. Deem and Ramdas Pophale) SiO2 
 PCOD9251152
Probable space group: P 21/C
;
_chemical_formula_sum "Si O2"
_cell_formula_units_Z 20
_cell_length_a 19.073594
_cell_length_b 6.284302
_cell_length_c 13.564046
_cell_angle_alpha 90.000000
_cell_angle_beta 32.686832
_cell_angle_gamma 90.000000
_cell_volume 878.031947
_symmetry_space_group_name_H-M "P 21/C"
_symmetry_group_IT_number 14
_symmetry_cell_setting 'monoclinic'
loop_
_space_group_symop_operation_xyz
x,y,z
-x,1/2+y,1/2-z
-x,-y,-z
x,1/2-y,1/2+z
loop_
_atom_site_type_symbol
_atom_site_label
_atom_site_fract_x
_atom_site_fract_y
_atom_site_fract_z
Si Si1 0.593745 0.802260 0.913507
Si Si2 0.385842 0.535723 0.274396
Si Si3 0.179186 0.889266 0.567671
Si Si4 0.268450 0.290452 0.568398
Si Si5 0.983579 0.455073 0.136224
O O1 0.635215 0.667818 0.770258
O O2 0.719522 0.840835 0.830564
O O3 0.512933 0.645587 0.081384
O O4 0.500000 0.000000 0.000000
O O5 0.273904 0.712445 0.408331
O O6 0.382987 0.432633 0.385315
O O7 0.103808 0.996950 0.565930
O O8 0.076925 0.774032 0.762452
O O9 0.264016 0.051419 0.533308
O O10 0.130941 0.382732 0.696127
O O11 0.000000 0.500000 0.000000
#
# Coordination Sequence:
#
# PCOD9251152 Si02
#       5
#     4   4   4   4   4
#     4  11  26  45  71 102 136 181 236 283 350 420
#     4  10  26  42  70  99 138 180 228 285 348 408
#     4  11  24  47  66 104 139 183 238 286 346 420
#     4  11  26  44  70  98 139 184 226 293 346 409
#     4  11  26  42  71  99 140 184 237 287 350 413
#
# _framework density 22.778213000000001
#
# number of rings (size 3 to 8) (size 9 to 14) (size 15 to 20)
#    0.000    1.200    2.000    1.200   14.000    4.000 
#    0.000    0.000    0.000    0.000    0.000    0.000 
#    0.000    0.000    0.000    0.000    0.000    0.000 
#
# Total GULP energy -111665.703349 kJ/mol
# GULP energy per Si atom -5583.285167 kJ/mol
# Density = 2.272637 g / cm^3
# Si number density = 22.778213 Si / 1000 Ang^3
#
#
#
# Elastic Constant Matrix: (Units=GPa)
#
#
# Indices 1 2 3 4 5 6 
#
# 1 117.9623 39.4403 6.9358 0.0000 -0.1779 0.0000
# 2 39.4403 104.4775 19.5053 0.0000 -1.9268 0.0000
# 3 6.9358 19.5053 62.0759 0.0000 14.6731 0.0000
# 4 0.0000 0.0000 0.0000 45.7807 0.0000 6.2187
# 5 -0.1779 -1.9268 14.6731 0.0000 35.7886 0.0000
# 6 0.0000 0.0000 0.0000 6.2187 0.0000 28.1254
#
#
#
# Elastic Compliance Matrix: (Units=1/GPa)
#
#
# Indices 1 2 3 4 5 6 
#
# 1 0.009703 -0.003690 0.000123 0.000000 -0.000201 0.000000
# 2 -0.003690 0.011709 -0.003778 0.000000 0.002161 0.000000
# 3 0.000123 -0.003778 0.019190 0.000000 -0.008071 0.000000
# 4 0.000000 0.000000 0.000000 0.022520 0.000000 -0.004979
# 5 -0.000201 0.002161 -0.008071 0.000000 0.031366 0.000000
# 6 0.000000 0.000000 0.000000 -0.004979 0.000000 0.036656
#
#
# Mechanical properties :
#
#
# Convention : Reuss Voigt Hill
#
# Bulk Modulus (GPa) = 38.58999 46.25316 42.42157
# Shear Modulus (GPa) = 32.36824 36.51457 34.44140
#
# Velocity S-wave (km/s) = 3.77373 4.00815 3.89271
# Velocity P-wave (km/s) = 5.99720 6.46300 6.23445
#
# Compressibility (1/GPa) = 0.02591346
#
# Stress axis : x y z
#
# Youngs Moduli (GPa) = 103.05686 85.40125 52.10948
#
# Poissons Ratio (x) = 0.31510 -0.00639
# Poissons Ratio (y) = 0.38024 0.19686
# Poissons Ratio (z) = -0.01264 0.32263
#
# Static dielectric constant tensor:
#      x y z
#    x 1.873350 0.000000 -0.016670 
#    y 0.000000 1.875410 0.000000 
#    z -0.016670 0.000000 1.877130 
# 
# From -- ./inp_files/33433.got.cif
#   From: 2010.05.17/outbox.cif.g08.bks.cpg/sg14_17_cif.got.tgz:33433.got - 2010.06.03 17:49:19.
