data_PCOD9251727
_publ_section_title
;
Structure prediction by ZEFSAII (Michael W. Deem and Ramdas Pophale) SiO2 
 PCOD9251727
Probable space group: P 21/C
;
_chemical_formula_sum "Si O2"
_cell_formula_units_Z 16
_cell_length_a 9.819111
_cell_length_b 4.981347
_cell_length_c 12.826949
_cell_angle_alpha 90.000000
_cell_angle_beta 109.740112
_cell_angle_gamma 90.000000
_cell_volume 590.527445
_symmetry_space_group_name_H-M "P 21/C"
_symmetry_group_IT_number 14
_symmetry_cell_setting 'monoclinic'
loop_
_space_group_symop_operation_xyz
x,y,z
-x,1/2+y,1/2-z
-x,-y,-z
x,1/2-y,1/2+z
loop_
_atom_site_type_symbol
_atom_site_label
_atom_site_fract_x
_atom_site_fract_y
_atom_site_fract_z
Si Si1 0.717632 0.467597 0.254779
Si Si2 0.845622 0.898659 0.999930
Si Si3 0.368811 0.013378 0.886015
Si Si4 0.017409 0.110920 0.289999
O O1 0.735888 0.575287 0.375919
O O2 0.629077 0.196212 0.208706
O O3 0.884703 0.367981 0.263871
O O4 0.645870 0.686611 0.161545
O O5 0.893445 0.635349 0.077806
O O6 0.767120 0.058665 0.072795
O O7 0.000000 0.000000 0.000000
O O8 0.500000 0.000000 0.000000
O O9 0.083251 0.345883 0.227335
#
# Coordination Sequence:
#
# PCOD9251727 Si02
#       4
#     4   4   4   4
#     4  11  25  43  71  99 137 178 227 278 338 401
#     4  11  25  41  72 105 135 178 223 276 343 402
#     4  11  27  49  68  97 138 180 229 282 331 400
#     4  11  22  40  62  99 148 174 215 276 339 400
#
# _framework density 27.094422000000002
#
# number of rings (size 3 to 8) (size 9 to 14) (size 15 to 20)
#    0.000    1.000    2.500    3.750    0.000    9.000 
#    0.000    0.000    0.000    0.000    0.000    0.000 
#    0.000    0.000    0.000    0.000    0.000    0.000 
#
# Total GULP energy -89159.583889 kJ/mol
# GULP energy per Si atom -5572.473993 kJ/mol
# Density = 2.703275 g / cm^3
# Si number density = 27.094422 Si / 1000 Ang^3
#
#
#
# Elastic Constant Matrix: (Units=GPa)
#
#
# Indices 1 2 3 4 5 6 
#
# 1 60.4136 17.2417 21.8351 0.0000 2.7531 0.0000
# 2 17.2417 206.2103 36.3140 0.0000 10.8913 0.0000
# 3 21.8351 36.3140 176.7569 0.0000 11.5067 0.0000
# 4 0.0000 0.0000 0.0000 40.8235 0.0000 2.6975
# 5 2.7531 10.8913 11.5067 0.0000 46.2666 0.0000
# 6 0.0000 0.0000 0.0000 2.6975 0.0000 16.2106
#
#
#
# Elastic Compliance Matrix: (Units=1/GPa)
#
#
# Indices 1 2 3 4 5 6 
#
# 1 0.017580 -0.001115 -0.001923 0.000000 -0.000305 0.000000
# 2 -0.001115 0.005143 -0.000858 0.000000 -0.000931 0.000000
# 3 -0.001923 -0.000858 0.006150 0.000000 -0.001213 0.000000
# 4 0.000000 0.000000 0.000000 0.024768 0.000000 -0.004122
# 5 -0.000305 -0.000931 -0.001213 0.000000 0.022153 0.000000
# 6 0.000000 0.000000 0.000000 -0.004122 0.000000 0.062374
#
#
# Mechanical properties :
#
#
# Convention : Reuss Voigt Hill
#
# Bulk Modulus (GPa) = 47.43662 66.01805 56.72734
# Shear Modulus (GPa) = 32.68254 45.19279 38.93767
#
# Velocity S-wave (km/s) = 3.47687 4.08851 3.79504
# Velocity P-wave (km/s) = 5.80208 6.83423 6.33920
#
# Compressibility (1/GPa) = 0.02108076
#
# Stress axis : x y z
#
# Youngs Moduli (GPa) = 56.88402 194.44041 162.59376
#
# Poissons Ratio (x) = 0.21683 0.31261
# Poissons Ratio (y) = 0.06343 0.13955
# Poissons Ratio (z) = 0.10937 0.16688
#
# Static dielectric constant tensor:
#      x y z
#    x 2.394210 0.000000 0.078180 
#    y 0.000000 2.252850 0.000000 
#    z 0.078180 0.000000 2.158440 
# 
# From -- ./inp_files/27438.got.cif
#   From: 2010.05.17/outbox.cif.g08.bks.cpg/sg14_14_cif.got.tgz:27438.got - 2010.06.03 17:49:19.
