data_PCOD9251767
_publ_section_title
;
Structure prediction by ZEFSAII (Michael W. Deem and Ramdas Pophale) SiO2 
 PCOD9251767
Probable space group: P 21/C
;
_chemical_formula_sum "Si O2"
_cell_formula_units_Z 24
_cell_length_a 24.162188
_cell_length_b 5.139523
_cell_length_c 22.462087
_cell_angle_alpha 90.000000
_cell_angle_beta 161.401233
_cell_angle_gamma 90.000000
_cell_volume 889.644889
_symmetry_space_group_name_H-M "P 21/C"
_symmetry_group_IT_number 14
_symmetry_cell_setting 'monoclinic'
loop_
_space_group_symop_operation_xyz
x,y,z
-x,1/2+y,1/2-z
-x,-y,-z
x,1/2-y,1/2+z
loop_
_atom_site_type_symbol
_atom_site_label
_atom_site_fract_x
_atom_site_fract_y
_atom_site_fract_z
Si Si1 0.337843 0.042905 0.916639
Si Si2 0.904008 0.208541 0.645358
Si Si3 0.732996 0.534616 0.867517
Si Si4 0.109389 0.256054 0.089316
Si Si5 0.554884 0.631943 0.271165
Si Si6 0.256077 0.970583 0.393097
O O1 0.297961 0.186876 0.813435
O O2 0.221704 0.239038 0.838157
O O3 0.253010 0.759028 0.841471
O O4 0.541222 0.025948 0.143566
O O5 0.812077 0.207217 0.485878
O O6 0.823901 0.086544 0.624668
O O7 0.944424 0.497856 0.707986
O O8 0.848501 0.687667 0.936969
O O9 0.714728 0.722227 0.905993
O O10 0.000000 0.500000 0.000000
O O11 0.000000 0.000000 0.000000
O O12 0.550326 0.384819 0.309650
O O13 0.458751 0.524222 0.115645
#
# Coordination Sequence:
#
# PCOD9251767 Si02
#       6
#     4   4   4   4   4   4
#     4  11  26  49  81 109 147 202 264 318 381 463
#     4  12  29  42  70 112 162 199 248 313 402 470
#     4  11  28  50  80 109 157 204 262 316 388 467
#     4  12  30  53  79 111 155 205 265 322 389 450
#     4  11  22  41  70 109 142 187 247 308 375 450
#     4  11  24  43  73 108 153 189 253 314 387 461
#
# _framework density 26.977056999999999
#
# number of rings (size 3 to 8) (size 9 to 14) (size 15 to 20)
#    0.000    0.667    1.667    4.500    9.333    5.333 
#    0.000    5.833    0.000    0.000    0.000    0.000 
#    0.000    0.000    0.000    0.000    0.000    0.000 
#
# Total GULP energy -133754.057209 kJ/mol
# GULP energy per Si atom -5573.085717 kJ/mol
# Density = 2.691566 g / cm^3
# Si number density = 26.977057 Si / 1000 Ang^3
#
#
#
# Elastic Constant Matrix: (Units=GPa)
#
#
# Indices 1 2 3 4 5 6 
#
# 1 147.9382 50.2905 30.2243 0.0000 1.9797 0.0000
# 2 50.2905 183.6638 36.9927 0.0000 -1.5805 0.0000
# 3 30.2243 36.9927 98.6167 0.0000 -30.9046 0.0000
# 4 0.0000 0.0000 0.0000 44.8003 0.0000 -3.3426
# 5 1.9797 -1.5805 -30.9046 0.0000 40.6646 0.0000
# 6 0.0000 0.0000 0.0000 -3.3426 0.0000 28.6082
#
#
#
# Elastic Compliance Matrix: (Units=1/GPa)
#
#
# Indices 1 2 3 4 5 6 
#
# 1 0.007875 -0.001667 -0.002532 0.000000 -0.002372 0.000000
# 2 -0.001667 0.006357 -0.002324 0.000000 -0.001438 0.000000
# 3 -0.002532 -0.002324 0.015487 0.000000 0.011803 0.000000
# 4 0.000000 0.000000 0.000000 0.022518 0.000000 0.002631
# 5 -0.002372 -0.001438 0.011803 0.000000 0.033621 0.000000
# 6 0.000000 0.000000 0.000000 0.002631 0.000000 0.035262
#
#
# Mechanical properties :
#
#
# Convention : Reuss Voigt Hill
#
# Bulk Modulus (GPa) = 59.97775 73.91484 66.94630
# Shear Modulus (GPa) = 35.78483 43.66202 39.72342
#
# Velocity S-wave (km/s) = 3.64605 4.02741 3.84147
# Velocity P-wave (km/s) = 6.32504 7.00609 6.67426
#
# Compressibility (1/GPa) = 0.01667285
#
# Stress axis : x y z
#
# Youngs Moduli (GPa) = 126.98065 157.30803 64.57052
#
# Poissons Ratio (x) = 0.26221 0.16348
# Poissons Ratio (y) = 0.21166 0.15009
# Poissons Ratio (z) = 0.32149 0.36566
#
# Static dielectric constant tensor:
#      x y z
#    x 2.163010 0.000000 -0.020090 
#    y 0.000000 2.315470 0.000000 
#    z -0.020090 0.000000 2.419240 
# 
# From -- ./inp_files/74814.got.cif
#   From: 2010.05.17/outbox.cif.g08.bks.cpg/sg14_38_cif.got.tgz:74814.got - 2010.06.03 17:49:19.
