data_PCOD9251257
_publ_section_title
;
Structure prediction by ZEFSAII (Michael W. Deem and Ramdas Pophale) SiO2 
 PCOD9251257
Probable space group: P 21/C
;
_chemical_formula_sum "Si O2"
_cell_formula_units_Z 28
_cell_length_a 11.970385
_cell_length_b 8.199179
_cell_length_c 15.858565
_cell_angle_alpha 90.000000
_cell_angle_beta 130.780937
_cell_angle_gamma 90.000000
_cell_volume 1178.582800
_symmetry_space_group_name_H-M "P 21/C"
_symmetry_group_IT_number 14
_symmetry_cell_setting 'monoclinic'
loop_
_space_group_symop_operation_xyz
x,y,z
-x,1/2+y,1/2-z
-x,-y,-z
x,1/2-y,1/2+z
loop_
_atom_site_type_symbol
_atom_site_label
_atom_site_fract_x
_atom_site_fract_y
_atom_site_fract_z
Si Si1 0.773637 0.400886 0.036571
Si Si2 0.790198 0.269818 0.715014
Si Si3 0.536411 0.651815 0.939846
Si Si4 0.286270 0.075012 0.916396
Si Si5 0.919191 0.737994 0.055645
Si Si6 0.594423 0.362371 0.375829
Si Si7 0.336295 0.190763 0.170030
O O1 0.614869 0.478172 0.987044
O O2 0.721543 0.275321 0.939204
O O3 0.841536 0.306128 0.149930
O O4 0.873071 0.551765 0.056131
O O5 0.635052 0.183116 0.653725
O O6 0.763776 0.461926 0.684595
O O7 0.907848 0.244630 0.846053
O O8 0.603602 0.723756 0.885902
O O9 0.613504 0.767004 0.047583
O O10 0.152227 0.141862 0.908381
O O11 0.380846 0.955332 0.023715
O O12 0.838985 0.783386 0.927956
O O13 0.434843 0.281464 0.286725
O O14 0.621343 0.502036 0.319356
#
# Coordination Sequence:
#
# PCOD9251257 Si02
#       7
#     4   4   4   4   4   4   4
#     4   9  18  30  46  69  90 119 155 184 219 260
#     4  11  17  28  47  68  97 121 146 184 228 267
#     4   9  18  29  44  69  95 120 149 184 223 266
#     4   8  18  31  46  67  90 121 155 184 219 262
#     4   9  18  29  44  69  95 120 149 184 223 266
#     4   9  16  30  54  68  82 115 157 194 213 255
#     4   9  17  31  49  68  88 114 154 188 222 264
#
# _framework density 23.757348
#
# number of rings (size 3 to 8) (size 9 to 14) (size 15 to 20)
#    0.000    3.429    0.000    3.429    0.000    0.000 
#    0.000    0.000    0.000   15.429    0.000    0.000 
#    0.000    0.000    0.000    0.000    0.000    0.000 
#
# Total GULP energy -156217.637784 kJ/mol
# GULP energy per Si atom -5579.201349 kJ/mol
# Density = 2.370327 g / cm^3
# Si number density = 23.757348 Si / 1000 Ang^3
#
#
#
# Elastic Constant Matrix: (Units=GPa)
#
#
# Indices 1 2 3 4 5 6 
#
# 1 21.6028 4.1330 11.4289 0.0000 -0.7361 0.0000
# 2 4.1330 112.5211 42.1606 0.0000 -0.7659 0.0000
# 3 11.4289 42.1606 151.8741 0.0000 21.0850 0.0000
# 4 0.0000 0.0000 0.0000 33.2149 0.0000 -4.9687
# 5 -0.7361 -0.7659 21.0850 0.0000 25.3945 0.0000
# 6 0.0000 0.0000 0.0000 -4.9687 0.0000 11.6226
#
#
#
# Elastic Compliance Matrix: (Units=1/GPa)
#
#
# Indices 1 2 3 4 5 6 
#
# 1 0.048776 -0.000136 -0.004327 0.000000 0.005003 0.000000
# 2 -0.000136 0.010115 -0.003209 0.000000 0.002966 0.000000
# 3 -0.004327 -0.003209 0.008852 0.000000 -0.007572 0.000000
# 4 0.000000 0.000000 0.000000 0.032164 0.000000 0.013750
# 5 0.005003 0.002966 -0.007572 0.000000 0.045900 0.000000
# 6 0.000000 0.000000 0.000000 0.013750 0.000000 0.091918
#
#
# Mechanical properties :
#
#
# Convention : Reuss Voigt Hill
#
# Bulk Modulus (GPa) = 19.08483 44.60479 31.84481
# Shear Modulus (GPa) = 18.48178 29.26476 23.87327
#
# Velocity S-wave (km/s) = 2.79218 3.51354 3.17342
# Velocity P-wave (km/s) = 4.29485 5.93935 5.18274
#
# Compressibility (1/GPa) = 0.05239765
#
# Stress axis : x y z
#
# Youngs Moduli (GPa) = 20.50180 98.86345 112.96552
#
# Poissons Ratio (x) = 0.01346 0.48883
# Poissons Ratio (y) = 0.00279 0.36256
# Poissons Ratio (z) = 0.08872 0.31730
#
# Static dielectric constant tensor:
#      x y z
#    x 2.008340 0.000000 -0.008410 
#    y 0.000000 1.937690 0.000000 
#    z -0.008410 0.000000 1.949100 
# 
# From -- ./inp_files/74132.got.cif
#   From: 2010.05.17/outbox.cif.g08.bks.cpg/sg14_38_cif.got.tgz:74132.got - 2010.06.03 17:49:19.
