data_PCOD9251880
_publ_section_title
;
Structure prediction by ZEFSAII (Michael W. Deem and Ramdas Pophale) SiO2 
 PCOD9251880
Probable space group: P 21/C
;
_chemical_formula_sum "Si O2"
_cell_formula_units_Z 32
_cell_length_a 13.184632
_cell_length_b 13.547508
_cell_length_c 18.713086
_cell_angle_alpha 90.000000
_cell_angle_beta 27.771562
_cell_angle_gamma 90.000000
_cell_volume 1557.434743
_symmetry_space_group_name_H-M "P 21/C"
_symmetry_group_IT_number 14
_symmetry_cell_setting 'monoclinic'
loop_
_space_group_symop_operation_xyz
x,y,z
-x,1/2+y,1/2-z
-x,-y,-z
x,1/2-y,1/2+z
loop_
_atom_site_type_symbol
_atom_site_label
_atom_site_fract_x
_atom_site_fract_y
_atom_site_fract_z
Si Si1 0.634243 0.313843 0.099656
Si Si2 0.573322 0.810530 0.658755
Si Si3 0.657502 0.379879 0.840218
Si Si4 0.333932 0.115635 0.669571
Si Si5 0.055972 0.682488 0.675610
Si Si6 0.104918 0.004273 0.513683
Si Si7 0.871682 0.677727 0.397303
Si Si8 0.247124 0.498695 0.636269
O O1 0.585410 0.218755 0.178150
O O2 0.417838 0.343405 0.191884
O O3 0.806030 0.276173 0.934106
O O4 0.741481 0.408263 0.070749
O O5 0.432583 0.837958 0.677330
O O6 0.694378 0.706938 0.566233
O O7 0.744269 0.897896 0.570408
O O8 0.651788 0.497921 0.838263
O O9 0.901011 0.348549 0.707596
O O10 0.499071 0.349961 0.004072
O O11 0.095266 0.147704 0.794768
O O12 0.196663 0.594455 0.619735
O O13 0.903390 0.720589 0.834300
O O14 0.000000 0.000000 0.500000
O O15 0.916679 0.000835 0.692937
O O16 0.802853 0.594776 0.383501
O O17 0.500000 0.500000 0.500000
#
# Coordination Sequence:
#
# PCOD9251880 Si02
#       8
#     4   4   4   4   4   4   4   4
#     4  12  29  46  73 104 145 190 233 287 362 423
#     4  12  29  46  73 104 145 190 233 287 362 423
#     4  11  22  45  74  98 135 182 236 293 343 405
#     4  11  22  45  74  98 135 182 236 293 343 405
#     4  12  25  44  73 106 136 183 240 287 348 421
#     4  12  28  51  69 102 152 189 235 297 361 425
#     4  12  25  44  73 106 136 183 240 287 348 421
#     4  12  28  47  73 110 144 183 241 303 350 424
#
# _framework density 20.546607999999999
#
# number of rings (size 3 to 8) (size 9 to 14) (size 15 to 20)
#    0.000    0.250    7.500    0.000   10.500    0.000 
#    0.000    1.250    0.000    0.000    0.000    0.000 
#    0.000    0.000    0.000    0.000    0.000    0.000 
#
# Total GULP energy -178895.934757 kJ/mol
# GULP energy per Si atom -5590.497961 kJ/mol
# Density = 2.049984 g / cm^3
# Si number density = 20.546608 Si / 1000 Ang^3
#
#
#
# Elastic Constant Matrix: (Units=GPa)
#
#
# Indices 1 2 3 4 5 6 
#
# 1 188.9162 57.5729 35.3314 0.0000 -36.4714 0.0000
# 2 57.5729 83.7798 8.5976 0.0000 -14.0616 0.0000
# 3 35.3314 8.5976 48.4173 0.0000 -20.0742 0.0000
# 4 0.0000 0.0000 0.0000 30.6407 0.0000 1.8775
# 5 -36.4714 -14.0616 -20.0742 0.0000 33.8729 0.0000
# 6 0.0000 0.0000 0.0000 1.8775 0.0000 37.6533
#
#
#
# Elastic Compliance Matrix: (Units=1/GPa)
#
#
# Indices 1 2 3 4 5 6 
#
# 1 0.008230 -0.004470 -0.003059 0.000000 0.005193 0.000000
# 2 -0.004470 0.015258 0.001569 0.000000 0.002451 0.000000
# 3 -0.003059 0.001569 0.028519 0.000000 0.014259 0.000000
# 4 0.000000 0.000000 0.000000 0.032736 0.000000 -0.001632
# 5 0.005193 0.002451 0.014259 0.000000 0.044581 0.000000
# 6 0.000000 0.000000 0.000000 -0.001632 0.000000 0.026639
#
#
# Mechanical properties :
#
#
# Convention : Reuss Voigt Hill
#
# Bulk Modulus (GPa) = 24.94587 58.23523 41.59055
# Shear Modulus (GPa) = 27.58641 35.07415 31.33028
#
# Velocity S-wave (km/s) = 3.66816 4.13613 3.90916
# Velocity P-wave (km/s) = 5.48708 7.15644 6.37662
#
# Compressibility (1/GPa) = 0.04008680
#
# Stress axis : x y z
#
# Youngs Moduli (GPa) = 121.50140 65.53790 35.06393
#
# Poissons Ratio (x) = 0.29297 0.10726
# Poissons Ratio (y) = 0.54315 -0.05500
# Poissons Ratio (z) = 0.37167 -0.10281
#
# Static dielectric constant tensor:
#      x y z
#    x 1.784180 0.000000 -0.052190 
#    y 0.000000 1.711840 0.000000 
#    z -0.052190 0.000000 1.739090 
# 
# From -- ./inp_files/57972.got.cif
#   From: 2010.05.17/outbox.cif.g08.bks.cpg/sg14_29_cif.got.tgz:57972.got - 2010.06.03 17:49:19.
