data_PCOD9251782
_publ_section_title
;
Structure prediction by ZEFSAII (Michael W. Deem and Ramdas Pophale) SiO2 
 PCOD9251782
Probable space group: P 21/C
;
_chemical_formula_sum "Si O2"
_cell_formula_units_Z 26
_cell_length_a 8.916896
_cell_length_b 8.997702
_cell_length_c 15.892696
_cell_angle_alpha 90.000000
_cell_angle_beta 62.880202
_cell_angle_gamma 90.000000
_cell_volume 1134.906006
_symmetry_space_group_name_H-M "P 21/C"
_symmetry_group_IT_number 14
_symmetry_cell_setting 'monoclinic'
loop_
_space_group_symop_operation_xyz
x,y,z
-x,1/2+y,1/2-z
-x,-y,-z
x,1/2-y,1/2+z
loop_
_atom_site_type_symbol
_atom_site_label
_atom_site_fract_x
_atom_site_fract_y
_atom_site_fract_z
Si Si1 0.112347 0.227888 0.408432
Si Si2 0.960772 0.359735 0.781946
Si Si3 0.777150 0.350140 0.549964
Si Si4 0.292111 0.022736 0.762676
Si Si5 0.500000 0.500000 0.500000
Si Si6 0.327520 0.530643 0.878494
Si Si7 0.243432 0.560635 0.702717
O O1 0.993758 0.141416 0.372614
O O2 0.979708 0.336010 0.487414
O O3 0.244356 0.320370 0.317600
O O4 0.216854 0.110329 0.436080
O O5 0.837431 0.483499 0.777464
O O6 0.875105 0.203002 0.782540
O O7 0.142909 0.410972 0.700062
O O8 0.734464 0.409528 0.653577
O O9 0.674698 0.443793 0.507153
O O10 0.709236 0.181544 0.563725
O O11 0.474403 0.005749 0.676239
O O12 0.417447 0.562994 0.608480
O O13 0.278028 0.552632 0.793056
#
# Coordination Sequence:
#
# PCOD9251782 Si02
#       7
#     4   4   4   4   2   4   4
#     4  11  25  44  66 100 142 176 229 286 349 414
#     4  11  22  42  67  97 134 182 226 278 350 420
#     4  12  24  43  70  99 140 182 228 289 347 410
#     4  12  23  42  71 101 127 183 234 280 349 413
#     4  12  24  42  70 106 138 180 234 294 342 410
#     4  11  25  43  69  99 135 181 229 288 341 412
#     4  11  23  43  68  97 140 179 227 284 345 412
#
# _framework density 22.909389000000001
#
# number of rings (size 3 to 8) (size 9 to 14) (size 15 to 20)
#    0.000    0.615    6.154    1.846    2.154    0.000 
#    0.000    0.769    0.000    0.000    0.000    0.000 
#    0.000    0.000    0.000    0.000    0.000    0.000 
#
# Total GULP energy -144751.255650 kJ/mol
# GULP energy per Si atom -5567.355987 kJ/mol
# Density = 2.285725 g / cm^3
# Si number density = 22.909389 Si / 1000 Ang^3
#
#
#
# Elastic Constant Matrix: (Units=GPa)
#
#
# Indices 1 2 3 4 5 6 
#
# 1 71.5927 12.6147 14.1718 0.0000 -28.5589 0.0000
# 2 12.6147 79.5404 19.0547 0.0000 -18.7742 0.0000
# 3 14.1718 19.0547 51.9676 0.0000 -10.7572 0.0000
# 4 0.0000 0.0000 0.0000 28.5097 0.0000 10.2450
# 5 -28.5589 -18.7742 -10.7572 0.0000 18.3456 0.0000
# 6 0.0000 0.0000 0.0000 10.2450 0.0000 -41.0577
#
#
#
# Elastic Compliance Matrix: (Units=1/GPa)
#
#
# Indices 1 2 3 4 5 6 
#
# 1 0.044331 0.012159 0.000357 0.000000 0.081663 0.000000
# 2 0.012159 0.020310 -0.002893 0.000000 0.038017 0.000000
# 3 0.000357 -0.002893 0.022431 0.000000 0.010747 0.000000
# 4 0.000000 0.000000 0.000000 0.032189 0.000000 0.008032
# 5 0.081663 0.038017 0.010747 0.000000 0.226843 0.000000
# 6 0.000000 0.000000 0.000000 0.008032 0.000000 -0.022352
#
#
# Mechanical properties :
#
#
# Convention : Reuss Voigt Hill
#
# Bulk Modulus (GPa) = 9.40583 32.75367 21.07975
# Shear Modulus (GPa) = 14.70817 11.64348 13.17583
#
# Velocity S-wave (km/s) = 2.53655 2.25686 2.40078
# Velocity P-wave (km/s) = 3.56277 4.59558 4.11173
#
# Compressibility (1/GPa) = 0.10631705
#
# Stress axis : x y z
#
# Youngs Moduli (GPa) = 22.55757 49.23630 44.58106
#
# Poissons Ratio (x) = -0.59868 -0.01590
# Poissons Ratio (y) = -0.27428 0.12899
# Poissons Ratio (z) = -0.00805 0.14246
#
# Static dielectric constant tensor:
#      x y z
#    x 1.847840 0.000000 -0.067720 
#    y 0.000000 1.950100 0.000000 
#    z -0.067720 0.000000 1.857030 
# 
# From -- ./inp_files/61845.got.cif
#   From: 2010.05.17/outbox.cif.g08.bks.cpg/sg14_31_cif.got.tgz:61845.got - 2010.06.03 17:49:19.
