data_PCOD9251947
_publ_section_title
;
Structure prediction by ZEFSAII (Michael W. Deem and Ramdas Pophale) SiO2 
 PCOD9251947
Probable space group: P 21/C
;
_chemical_formula_sum "Si O2"
_cell_formula_units_Z 28
_cell_length_a 25.121604
_cell_length_b 7.200243
_cell_length_c 9.664656
_cell_angle_alpha 90.000000
_cell_angle_beta 49.246707
_cell_angle_gamma 90.000000
_cell_volume 1324.278425
_symmetry_space_group_name_H-M "P 21/C"
_symmetry_group_IT_number 14
_symmetry_cell_setting 'monoclinic'
loop_
_space_group_symop_operation_xyz
x,y,z
-x,1/2+y,1/2-z
-x,-y,-z
x,1/2-y,1/2+z
loop_
_atom_site_type_symbol
_atom_site_label
_atom_site_fract_x
_atom_site_fract_y
_atom_site_fract_z
Si Si1 0.579295 0.050258 0.496965
Si Si2 0.910086 0.784899 0.408647
Si Si3 0.816890 0.759702 0.327558
Si Si4 0.736349 0.405148 0.838936
Si Si5 0.508482 0.308545 0.398321
Si Si6 0.048565 0.584322 0.795681
Si Si7 0.800370 0.146690 0.947222
O O1 0.658979 0.073620 0.409951
O O2 0.562851 0.177493 0.391003
O O3 0.532994 0.129382 0.703945
O O4 0.557197 0.835496 0.505263
O O5 0.861828 0.867675 0.369239
O O6 0.871898 0.806282 0.618078
O O7 0.912950 0.572845 0.357591
O O8 0.991597 0.831255 0.288410
O O9 0.784601 0.570793 0.441710
O O10 0.763209 0.895584 0.345669
O O11 0.747149 0.268442 0.948711
O O12 0.785888 0.326761 0.633213
O O13 0.500000 0.500000 0.500000
O O14 0.117603 0.693932 0.729517
O O15 0.000000 0.500000 0.000000
#
# Coordination Sequence:
#
# PCOD9251947 Si02
#       7
#     4   4   4   4   4   4   4
#     4  11  25  45  73 108 140 186 230 279 347 405
#     4  11  23  41  63  90 124 172 231 289 347 400
#     4  11  24  46  62  93 138 175 226 285 339 416
#     4  12  27  45  70 100 138 187 219 278 352 410
#     4  11  23  46  75 107 145 174 231 286 325 410
#     4  11  23  39  62  91 121 169 228 290 349 396
#     4  11  27  44  64 100 136 173 236 282 340 423
#
# _framework density 21.14359
#
# number of rings (size 3 to 8) (size 9 to 14) (size 15 to 20)
#    0.000    0.857    7.143    0.857    6.000    2.857 
#    0.000    0.000    0.000    0.000    0.000    0.000 
#    0.000    0.000    0.000    0.000    0.000    0.000 
#
# Total GULP energy -156202.221035 kJ/mol
# GULP energy per Si atom -5578.650751 kJ/mol
# Density = 2.109547 g / cm^3
# Si number density = 21.143590 Si / 1000 Ang^3
#
#
#
# Elastic Constant Matrix: (Units=GPa)
#
#
# Indices 1 2 3 4 5 6 
#
# 1 70.1410 23.6882 -8.7783 0.0000 -14.6646 0.0000
# 2 23.6882 94.8353 2.3787 0.0000 -3.5845 0.0000
# 3 -8.7783 2.3787 37.0887 0.0000 11.7897 0.0000
# 4 0.0000 0.0000 0.0000 17.3460 0.0000 4.2689
# 5 -14.6646 -3.5845 11.7897 0.0000 44.2259 0.0000
# 6 0.0000 0.0000 0.0000 4.2689 0.0000 42.5671
#
#
#
# Elastic Compliance Matrix: (Units=1/GPa)
#
#
# Indices 1 2 3 4 5 6 
#
# 1 0.016956 -0.004135 0.002838 0.000000 0.004531 0.000000
# 2 -0.004135 0.011622 -0.001735 0.000000 0.000033 0.000000
# 3 0.002838 -0.001735 0.030036 0.000000 -0.007207 0.000000
# 4 0.000000 0.000000 0.000000 0.059109 0.000000 -0.005928
# 5 0.004531 0.000033 -0.007207 0.000000 0.026037 0.000000
# 6 0.000000 0.000000 0.000000 -0.005928 0.000000 0.024087
#
#
# Mechanical properties :
#
#
# Convention : Reuss Voigt Hill
#
# Bulk Modulus (GPa) = 19.02909 26.29356 22.66133
# Shear Modulus (GPa) = 26.11950 33.14623 29.63287
#
# Velocity S-wave (km/s) = 3.51855 3.96368 3.74773
# Velocity P-wave (km/s) = 5.05237 5.78017 5.42848
#
# Compressibility (1/GPa) = 0.05255111
#
# Stress axis : x y z
#
# Youngs Moduli (GPa) = 58.97623 86.04165 33.29313
#
# Poissons Ratio (x) = 0.35580 -0.09450
# Poissons Ratio (y) = 0.24388 0.05775
# Poissons Ratio (z) = -0.16739 0.14926
#
# Static dielectric constant tensor:
#      x y z
#    x 1.856340 0.000000 -0.042450 
#    y 0.000000 1.778580 0.000000 
#    z -0.042450 0.000000 1.740230 
# 
# From -- ./inp_files/18715.got.cif
#   From: 2010.05.17/outbox.cif.g08.bks.cpg/sg14_10_cif.got.tgz:18715.got - 2010.06.03 17:49:19.
