data_PCOD9251905
_publ_section_title
;
Structure prediction by ZEFSAII (Michael W. Deem and Ramdas Pophale) SiO2 
 PCOD9251905
Probable space group: P 21/C
;
_chemical_formula_sum "Si O2"
_cell_formula_units_Z 32
_cell_length_a 11.152875
_cell_length_b 14.975751
_cell_length_c 16.149995
_cell_angle_alpha 90.000000
_cell_angle_beta 32.370979
_cell_angle_gamma 90.000000
_cell_volume 1444.193696
_symmetry_space_group_name_H-M "P 21/C"
_symmetry_group_IT_number 14
_symmetry_cell_setting 'monoclinic'
loop_
_space_group_symop_operation_xyz
x,y,z
-x,1/2+y,1/2-z
-x,-y,-z
x,1/2-y,1/2+z
loop_
_atom_site_type_symbol
_atom_site_label
_atom_site_fract_x
_atom_site_fract_y
_atom_site_fract_z
Si Si1 0.189348 0.198513 0.465307
Si Si2 0.313664 0.230536 0.070771
Si Si3 0.369630 0.444730 0.442060
Si Si4 0.625550 0.131116 0.117101
Si Si5 0.858523 0.087527 0.596690
Si Si6 0.860396 0.190723 0.428153
Si Si7 0.606913 0.100142 0.438612
Si Si8 0.944926 0.121989 0.087877
O O1 0.292159 0.231874 0.490414
O O2 0.382888 0.150260 0.299981
O O3 0.978042 0.134334 0.604742
O O4 0.073588 0.285724 0.494612
O O5 0.081455 0.224044 0.253901
O O6 0.374218 0.125936 0.015530
O O7 0.451373 0.310950 0.032803
O O8 0.380106 0.551564 0.446550
O O9 0.596335 0.423779 0.259680
O O10 0.151014 0.430065 0.511677
O O11 0.802235 0.104904 0.087535
O O12 0.702493 0.223899 0.032810
O O13 0.904146 0.149446 0.491676
O O14 0.000000 0.000000 0.500000
O O15 0.756200 0.112157 0.433151
O O16 0.759531 0.117726 0.268657
O O17 0.500000 0.000000 0.500000
#
# Coordination Sequence:
#
# PCOD9251905 Si02
#       8
#     4   4   4   4   4   4   4   4
#     4  11  22  47  71 101 145 195 234 297 379 432
#     4  11  26  48  73 102 154 191 236 306 379 432
#     4  11  25  46  75 106 141 195 241 300 373 438
#     4  12  25  45  75 108 143 193 252 299 360 448
#     4  12  26  46  73 104 142 188 250 301 359 438
#     4  12  28  45  71 110 144 191 249 303 366 448
#     4  12  28  47  74 107 148 193 246 304 379 440
#     4  11  23  47  72 104 147 192 242 307 361 438
#
# _framework density 22.157693999999999
#
# number of rings (size 3 to 8) (size 9 to 14) (size 15 to 20)
#    0.000    0.500    6.250    2.625    7.000    1.000 
#    0.000    1.250    0.000    0.000    0.000    0.000 
#    0.000    0.000    0.000    0.000    0.000    0.000 
#
# Total GULP energy -178411.432102 kJ/mol
# GULP energy per Si atom -5575.357253 kJ/mol
# Density = 2.210726 g / cm^3
# Si number density = 22.157694 Si / 1000 Ang^3
#
#
#
# Elastic Constant Matrix: (Units=GPa)
#
#
# Indices 1 2 3 4 5 6 
#
# 1 55.1197 32.9069 20.9572 0.0000 -9.6241 0.0000
# 2 32.9069 126.0478 36.4426 0.0000 -9.7422 0.0000
# 3 20.9572 36.4426 114.7576 0.0000 -29.1903 0.0000
# 4 0.0000 0.0000 0.0000 -58.1513 0.0000 -87.7702
# 5 -9.6241 -9.7422 -29.1903 0.0000 24.5906 0.0000
# 6 0.0000 0.0000 0.0000 -87.7702 0.0000 -49.8673
#
#
#
# Elastic Compliance Matrix: (Units=1/GPa)
#
#
# Indices 1 2 3 4 5 6 
#
# 1 0.022598 -0.005159 -0.001087 0.000000 0.005510 0.000000
# 2 -0.005159 0.009915 -0.002465 0.000000 -0.001018 0.000000
# 3 -0.001087 -0.002465 0.013378 0.000000 0.014479 0.000000
# 4 0.000000 0.000000 0.000000 0.010381 0.000000 -0.018271
# 5 0.005510 -0.001018 0.014479 0.000000 0.059606 0.000000
# 6 0.000000 0.000000 0.000000 -0.018271 0.000000 0.012105
#
#
# Mechanical properties :
#
#
# Convention : Reuss Voigt Hill
#
# Bulk Modulus (GPa) = 35.12747 52.94871 44.03809
# Shear Modulus (GPa) = 32.27999 -2.97769 14.65115
#
# Velocity S-wave (km/s) = 3.82098 -1.16051 2.57421
# Velocity P-wave (km/s) = 5.94595 4.70664 5.36222
#
# Compressibility (1/GPa) = 0.02846775
#
# Stress axis : x y z
#
# Youngs Moduli (GPa) = 44.25198 100.86229 74.74874
#
# Poissons Ratio (x) = 0.52039 0.08124
# Poissons Ratio (y) = 0.22832 0.18426
# Poissons Ratio (z) = 0.04810 0.24863
#
# Static dielectric constant tensor:
#      x y z
#    x 2.581460 0.000000 0.485320 
#    y 0.000000 1.725570 0.000000 
#    z 0.485320 0.000000 2.134500 
# 
# From -- ./inp_files/58004.got.cif
#   From: 2010.05.17/outbox.cif.g08.bks.cpg/sg14_30_cif.got.tgz:58004.got - 2010.06.03 17:49:19.
