data_PCOD9251825
_publ_section_title
;
Structure prediction by ZEFSAII (Michael W. Deem and Ramdas Pophale) SiO2 
 PCOD9251825
Probable space group: P 21/C
;
_chemical_formula_sum "Si O2"
_cell_formula_units_Z 28
_cell_length_a 9.006327
_cell_length_b 5.326173
_cell_length_c 34.485618
_cell_angle_alpha 90.000000
_cell_angle_beta 139.724393
_cell_angle_gamma 90.000000
_cell_volume 1069.414396
_symmetry_space_group_name_H-M "P 21/C"
_symmetry_group_IT_number 14
_symmetry_cell_setting 'monoclinic'
loop_
_space_group_symop_operation_xyz
x,y,z
-x,1/2+y,1/2-z
-x,-y,-z
x,1/2-y,1/2+z
loop_
_atom_site_type_symbol
_atom_site_label
_atom_site_fract_x
_atom_site_fract_y
_atom_site_fract_z
Si Si1 0.754023 0.185025 0.327394
Si Si2 0.442079 0.672085 0.634158
Si Si3 0.023245 0.692716 0.400050
Si Si4 0.544485 0.247429 0.565084
Si Si5 0.748781 0.252820 0.480630
Si Si6 0.167044 0.504828 0.812389
Si Si7 0.307107 0.787123 0.770229
O O1 0.593706 0.174303 0.333253
O O2 0.631157 0.246703 0.262179
O O3 0.926228 0.420308 0.369077
O O4 0.885695 0.922459 0.353997
O O5 0.236128 0.729238 0.563183
O O6 0.664970 0.763601 0.654349
O O7 0.493572 0.401071 0.663120
O O8 0.283461 0.725644 0.436568
O O9 0.030773 0.726237 0.448041
O O10 0.397665 0.497682 0.539346
O O11 0.379838 0.004254 0.532895
O O12 0.708591 0.201715 0.634849
O O13 0.179274 0.578009 0.769880
O O14 0.907536 0.480243 0.773909
#
# Coordination Sequence:
#
# PCOD9251825 Si02
#       7
#     4   4   4   4   4   4   4
#     4  12  31  44  72 103 150 186 230 283 356 424
#     4  11  28  46  69 106 138 191 231 286 353 419
#     4  12  26  47  70 105 143 188 231 289 351 415
#     4  11  22  43  71 110 138 176 237 295 349 405
#     4  11  24  45  76 102 140 182 239 292 344 410
#     4  11  24  42  74  99 139 178 242 288 348 412
#     4  12  25  45  72 101 139 186 234 295 346 417
#
# _framework density 26.182552000000001
#
# number of rings (size 3 to 8) (size 9 to 14) (size 15 to 20)
#    0.000    0.571    4.286    2.571   10.000    1.143 
#    0.000    0.000    0.000    0.000    0.000    0.000 
#    0.000    0.000    0.000    0.000    0.000    0.000 
#
# Total GULP energy -156740.233805 kJ/mol
# GULP energy per Si atom -5597.865493 kJ/mol
# Density = 2.612296 g / cm^3
# Si number density = 26.182552 Si / 1000 Ang^3
#
#
#
# Elastic Constant Matrix: (Units=GPa)
#
#
# Indices 1 2 3 4 5 6 
#
# 1 87.8049 17.3013 26.8338 0.0128 -17.7366 -0.0045
# 2 17.3013 126.8672 26.7078 -0.0090 10.7032 0.0067
# 3 26.8338 26.7078 169.1349 -0.0005 -33.9087 0.0204
# 4 0.0128 -0.0090 -0.0005 31.8364 0.0077 4.7485
# 5 -17.7366 10.7032 -33.9087 0.0077 40.6481 0.0060
# 6 -0.0045 0.0067 0.0204 4.7485 0.0060 38.5293
#
#
#
# Elastic Compliance Matrix: (Units=1/GPa)
#
#
# Indices 1 2 3 4 5 6 
#
# 1 0.013171 -0.002167 -0.000577 -0.000008 0.005836 0.000002
# 2 -0.002167 0.009050 -0.002104 0.000005 -0.005084 0.000000
# 3 -0.000577 -0.002104 0.007682 -0.000001 0.006710 -0.000005
# 4 -0.000008 0.000005 -0.000001 0.031999 -0.000011 -0.003944
# 5 0.005836 -0.005084 0.006710 -0.000011 0.034084 -0.000006
# 6 0.000002 0.000000 -0.000005 -0.003944 -0.000006 0.026440
#
#
# Mechanical properties :
#
#
# Convention : Reuss Voigt Hill
#
# Bulk Modulus (GPa) = 49.49328 58.38810 53.94069
# Shear Modulus (GPa) = 36.00776 43.06702 39.53739
#
# Velocity S-wave (km/s) = 3.71247 4.06011 3.89017
# Velocity P-wave (km/s) = 6.10907 6.65793 6.38940
#
# Compressibility (1/GPa) = 0.02020476
#
# Stress axis : x y z
#
# Youngs Moduli (GPa) = 75.92297 110.50047 130.18024
#
# Poissons Ratio (x) = 0.23946 0.07517
# Poissons Ratio (y) = 0.16453 0.27396
# Poissons Ratio (z) = 0.04384 0.23255
#
# Static dielectric constant tensor:
#      x y z
#    x 2.088280 -0.000030 -0.000230 
#    y -0.000030 2.105770 -0.000020 
#    z -0.000230 -0.000020 2.084340 
# 
# From -- ./inp_files/79291.got.cif
#   From: 2010.05.17/outbox.cif.g08.bks.cpg/sg14_40_cif.got.tgz:79291.got - 2010.06.03 17:49:19.
