data_PCOD9251034
_publ_section_title
;
Structure prediction by ZEFSAII (Michael W. Deem and Ramdas Pophale) SiO2 
 PCOD9251034
Probable space group: P 21/C
;
_chemical_formula_sum "Si O2"
_cell_formula_units_Z 28
_cell_length_a 18.703205
_cell_length_b 12.262320
_cell_length_c 8.611041
_cell_angle_alpha 90.000000
_cell_angle_beta 145.084994
_cell_angle_gamma 90.000000
_cell_volume 1130.353045
_symmetry_space_group_name_H-M "P 21/C"
_symmetry_group_IT_number 14
_symmetry_cell_setting 'monoclinic'
loop_
_space_group_symop_operation_xyz
x,y,z
-x,1/2+y,1/2-z
-x,-y,-z
x,1/2-y,1/2+z
loop_
_atom_site_type_symbol
_atom_site_label
_atom_site_fract_x
_atom_site_fract_y
_atom_site_fract_z
Si Si1 0.222337 0.065005 0.673007
Si Si2 0.427212 0.568904 0.738407
Si Si3 0.981256 0.581171 0.651115
Si Si4 0.217943 0.901765 0.303324
Si Si5 0.221969 0.783432 0.018069
Si Si6 0.957420 0.801413 0.433792
Si Si7 0.595542 0.564344 0.777962
O O1 0.153864 0.156067 0.655662
O O2 0.295817 0.105535 0.646746
O O3 0.105356 0.986998 0.418659
O O4 0.327403 0.005986 0.965856
O O5 0.344214 0.657965 0.676866
O O6 0.516267 0.627438 0.766973
O O7 0.500000 0.500000 0.000000
O O8 0.113542 0.512070 0.571800
O O9 0.975730 0.672348 0.502775
O O10 0.941470 0.651441 0.732440
O O11 0.209929 0.797654 0.179276
O O12 0.229187 0.842194 0.487175
O O13 0.341119 0.971540 0.503822
O O14 0.095656 0.841776 0.732056
O O15 0.500000 0.500000 0.500000
#
# Coordination Sequence:
#
# PCOD9251034 Si02
#       7
#     4   4   4   4   4   4   4
#     4  11  24  46  75 107 159 198 251 326 390 474
#     4  11  23  47  77 106 150 202 265 329 381 460
#     4  12  27  48  77 122 165 203 260 334 401 488
#     4  12  27  48  79 117 160 203 266 331 389 479
#     4  12  25  46  79 116 149 210 261 318 405 474
#     4  12  26  46  77 120 157 204 256 319 421 471
#     4  10  25  45  73 104 149 202 258 320 380 448
#
# _framework density 24.771021000000001
#
# number of rings (size 3 to 8) (size 9 to 14) (size 15 to 20)
#    0.000    0.571    4.286    3.000    6.000    1.143 
#    0.000    4.286    3.143    0.000    0.000    0.000 
#    0.000    0.000    0.000    0.000    0.000    0.000 
#
# Total GULP energy -156403.591652 kJ/mol
# GULP energy per Si atom -5585.842559 kJ/mol
# Density = 2.471464 g / cm^3
# Si number density = 24.771021 Si / 1000 Ang^3
#
#
#
# Elastic Constant Matrix: (Units=GPa)
#
#
# Indices 1 2 3 4 5 6 
#
# 1 159.0532 38.2255 36.1469 0.0000 11.2076 0.0000
# 2 38.2255 87.5946 42.4899 0.0000 -1.6404 0.0000
# 3 36.1469 42.4899 139.8416 0.0000 3.6708 0.0000
# 4 0.0000 0.0000 0.0000 26.1032 0.0000 -9.0287
# 5 11.2076 -1.6404 3.6708 0.0000 36.9789 0.0000
# 6 0.0000 0.0000 0.0000 -9.0287 0.0000 48.7788
#
#
#
# Elastic Compliance Matrix: (Units=1/GPa)
#
#
# Indices 1 2 3 4 5 6 
#
# 1 0.007336 -0.002759 -0.000999 0.000000 -0.002246 0.000000
# 2 -0.002759 0.014464 -0.003730 0.000000 0.001848 0.000000
# 3 -0.000999 -0.003730 0.008561 0.000000 -0.000713 0.000000
# 4 0.000000 0.000000 0.000000 0.040930 0.000000 0.007576
# 5 -0.002246 0.001848 -0.000713 0.000000 0.027876 0.000000
# 6 0.000000 0.000000 0.000000 0.007576 0.000000 0.021903
#
#
# Mechanical properties :
#
#
# Convention : Reuss Voigt Hill
#
# Bulk Modulus (GPa) = 64.99758 68.91267 66.95513
# Shear Modulus (GPa) = 35.41729 40.34732 37.88230
#
# Velocity S-wave (km/s) = 3.78535 4.04023 3.91487
# Velocity P-wave (km/s) = 6.73807 7.04591 6.89371
#
# Compressibility (1/GPa) = 0.01538519
#
# Stress axis : x y z
#
# Youngs Moduli (GPa) = 136.32303 69.13649 116.80493
#
# Poissons Ratio (x) = 0.19072 0.11668
# Poissons Ratio (y) = 0.37607 0.43571
# Poissons Ratio (z) = 0.13618 0.25790
#
# Static dielectric constant tensor:
#      x y z
#    x 2.145400 0.000000 0.031250 
#    y 0.000000 1.927170 0.000000 
#    z 0.031250 0.000000 1.987280 
# 
# From -- ./inp_files/17972.got.cif
#   From: 2010.05.17/outbox.cif.g08.bks.cpg/sg14_9_cif.got.tgz:17972.got - 2010.06.03 17:49:19.
