data_PCOD9251625
_publ_section_title
;
Structure prediction by ZEFSAII (Michael W. Deem and Ramdas Pophale) SiO2 
 PCOD9251625
Probable space group: P 21/C
;
_chemical_formula_sum "Si O2"
_cell_formula_units_Z 22
_cell_length_a 9.234419
_cell_length_b 14.118849
_cell_length_c 10.854188
_cell_angle_alpha 90.000000
_cell_angle_beta 140.382295
_cell_angle_gamma 90.000000
_cell_volume 902.395216
_symmetry_space_group_name_H-M "P 21/C"
_symmetry_group_IT_number 14
_symmetry_cell_setting 'monoclinic'
loop_
_space_group_symop_operation_xyz
x,y,z
-x,1/2+y,1/2-z
-x,-y,-z
x,1/2-y,1/2+z
loop_
_atom_site_type_symbol
_atom_site_label
_atom_site_fract_x
_atom_site_fract_y
_atom_site_fract_z
Si Si1 0.395185 0.292894 0.347597
Si Si2 0.871506 0.110874 0.133069
Si Si3 0.480711 0.517483 0.132936
Si Si4 0.000000 0.500000 0.500000
Si Si5 0.304736 0.310239 0.028502
Si Si6 0.987975 0.436714 0.115195
O O1 0.616808 0.359374 0.492482
O O2 0.422060 0.222785 0.479862
O O3 0.164805 0.352147 0.221661
O O4 0.362157 0.252190 0.188352
O O5 0.040680 0.179392 0.319291
O O6 0.934850 0.005241 0.222848
O O7 0.939017 0.100979 0.034867
O O8 0.733975 0.532546 0.342674
O O9 0.500000 0.500000 0.000000
O O10 0.387190 0.415799 0.116761
O O11 0.275245 0.588027 0.031806
O O12 0.000000 0.500000 0.000000
#
# Coordination Sequence:
#
# PCOD9251625 Si02
#       6
#     4   4   4   2   4   4
#     4  12  26  47  72 105 150 194 242 306 377 441
#     4  11  24  44  73 105 138 187 248 298 370 438
#     4  11  22  44  72 105 139 182 246 303 359 438
#     4  12  20  42  78 102 136 182 238 306 370 418
#     4  11  26  47  65 105 151 188 238 301 369 446
#     4  11  21  45  74 102 138 181 252 306 343 434
#
# _framework density 24.379560999999999
#
# number of rings (size 3 to 8) (size 9 to 14) (size 15 to 20)
#    0.000    0.727    9.091    0.545    0.000    4.364 
#    3.273    0.000    0.000    0.000    0.000    0.000 
#    0.000    0.000    0.000    0.000    0.000    0.000 
#
# Total GULP energy -122481.358215 kJ/mol
# GULP energy per Si atom -5567.334464 kJ/mol
# Density = 2.432407 g / cm^3
# Si number density = 24.379561 Si / 1000 Ang^3
#
#
#
# Elastic Constant Matrix: (Units=GPa)
#
#
# Indices 1 2 3 4 5 6 
#
# 1 122.3891 20.3468 65.8849 0.0000 42.3500 0.0000
# 2 20.3468 54.1741 28.5149 0.0000 14.0145 0.0000
# 3 65.8849 28.5149 144.9466 0.0000 48.0589 0.0000
# 4 0.0000 0.0000 0.0000 24.8429 0.0000 3.1200
# 5 42.3500 14.0145 48.0589 0.0000 57.3449 0.0000
# 6 0.0000 0.0000 0.0000 3.1200 0.0000 48.7304
#
#
#
# Elastic Compliance Matrix: (Units=1/GPa)
#
#
# Indices 1 2 3 4 5 6 
#
# 1 0.012234 -0.001305 -0.003343 0.000000 -0.005914 0.000000
# 2 -0.001305 0.020946 -0.002977 0.000000 -0.001660 0.000000
# 3 -0.003343 -0.002977 0.011002 0.000000 -0.006024 0.000000
# 4 0.000000 0.000000 0.000000 0.040579 0.000000 -0.002598
# 5 -0.005914 -0.001660 -0.006024 0.000000 0.027260 0.000000
# 6 0.000000 0.000000 0.000000 -0.002598 0.000000 0.020687
#
#
# Mechanical properties :
#
#
# Convention : Reuss Voigt Hill
#
# Bulk Modulus (GPa) = 34.56555 61.22256 47.89405
# Shear Modulus (GPa) = 31.72564 39.96784 35.84674
#
# Velocity S-wave (km/s) = 3.61130 4.05334 3.83869
# Velocity P-wave (km/s) = 5.62116 6.86097 6.27178
#
# Compressibility (1/GPa) = 0.02893054
#
# Stress axis : x y z
#
# Youngs Moduli (GPa) = 81.74089 47.74277 90.89654
#
# Poissons Ratio (x) = 0.06231 0.30388
# Poissons Ratio (y) = 0.10669 0.27058
# Poissons Ratio (z) = 0.27328 0.14212
#
# Static dielectric constant tensor:
#      x y z
#    x 2.027380 0.000000 -0.114330 
#    y 0.000000 2.043700 0.000000 
#    z -0.114330 0.000000 1.980090 
# 
# From -- ./inp_files/26202.got.cif
#   From: 2010.05.17/outbox.cif.g08.bks.cpg/sg14_14_cif.got.tgz:26202.got - 2010.06.03 17:49:19.
