data_PCOD9251847
_publ_section_title
;
Structure prediction by ZEFSAII (Michael W. Deem and Ramdas Pophale) SiO2 
 PCOD9251847
Probable space group: P 21/C
;
_chemical_formula_sum "Si O2"
_cell_formula_units_Z 30
_cell_length_a 7.812830
_cell_length_b 26.866452
_cell_length_c 7.874539
_cell_angle_alpha 90.000000
_cell_angle_beta 130.882289
_cell_angle_gamma 90.000000
_cell_volume 1249.676758
_symmetry_space_group_name_H-M "P 21/C"
_symmetry_group_IT_number 14
_symmetry_cell_setting 'monoclinic'
loop_
_space_group_symop_operation_xyz
x,y,z
-x,1/2+y,1/2-z
-x,-y,-z
x,1/2-y,1/2+z
loop_
_atom_site_type_symbol
_atom_site_label
_atom_site_fract_x
_atom_site_fract_y
_atom_site_fract_z
Si Si1 0.497728 0.899812 0.234507
Si Si2 0.003002 0.111165 0.950466
Si Si3 0.753036 0.053291 0.218424
Si Si4 0.771804 0.986162 0.564283
Si Si5 0.000000 0.000000 0.000000
Si Si6 0.628338 0.811538 0.794208
Si Si7 0.143409 0.853047 0.502288
Si Si8 0.281333 0.199920 0.751081
O O1 0.244176 0.887297 0.127724
O O2 0.654789 0.933961 0.454403
O O3 0.614435 0.846727 0.280892
O O4 0.459108 0.933310 0.037097
O O5 0.978853 0.120898 0.734737
O O6 0.166751 0.153381 0.132380
O O7 0.098744 0.056303 0.034246
O O8 0.841737 0.106727 0.339102
O O9 0.949100 0.024461 0.236570
O O10 0.727861 0.021148 0.373626
O O11 0.756479 0.013766 0.732782
O O12 0.389808 0.836875 0.601361
O O13 0.642860 0.755085 0.743797
O O14 0.648090 0.809128 0.009875
O O15 0.989069 0.805957 0.447545
#
# Coordination Sequence:
#
# PCOD9251847 Si02
#       8
#     4   4   4   4   2   4   4   4
#     4  12  25  45  72 108 142 192 237 301 357 430
#     4  11  28  45  68 111 145 186 241 288 369 426
#     4  11  22  44  70 101 143 189 238 289 358 427
#     4  11  25  42  70 107 146 190 242 290 359 430
#     4  12  24  46  68 106 150 190 236 296 354 430
#     4  11  28  47  73 101 143 186 235 307 351 436
#     4  11  24  48  71 100 144 187 230 298 353 429
#     4  11  27  46  73 105 137 186 246 290 368 428
#
# _framework density 24.006208000000001
#
# number of rings (size 3 to 8) (size 9 to 14) (size 15 to 20)
#    0.000    0.800    5.333    0.400    5.600    3.733 
#    0.000    0.000    0.000    0.000    0.000    0.000 
#    0.000    0.000    0.000    0.000    0.000    0.000 
#
# Total GULP energy -167523.567643 kJ/mol
# GULP energy per Si atom -5584.118921 kJ/mol
# Density = 2.395157 g / cm^3
# Si number density = 24.006208 Si / 1000 Ang^3
#
#
#
# Elastic Constant Matrix: (Units=GPa)
#
#
# Indices 1 2 3 4 5 6 
#
# 1 56.0778 31.7227 10.7419 0.0000 19.4704 0.0000
# 2 31.7227 154.2852 44.1190 0.0000 15.8017 0.0000
# 3 10.7419 44.1190 103.0902 0.0000 4.8951 0.0000
# 4 0.0000 0.0000 0.0000 1988.2282 0.0000 -319.6789
# 5 19.4704 15.8017 4.8951 0.0000 30.2943 0.0000
# 6 0.0000 0.0000 0.0000 -319.6789 0.0000 90.0475
#
#
#
# Elastic Compliance Matrix: (Units=1/GPa)
#
#
# Indices 1 2 3 4 5 6 
#
# 1 0.024780 -0.003546 -0.000399 0.000000 -0.014012 0.000000
# 2 -0.003546 0.008250 -0.003089 0.000000 -0.001525 0.000000
# 3 -0.000399 -0.003089 0.011060 0.000000 0.000081 0.000000
# 4 0.000000 0.000000 0.000000 0.001172 0.000000 0.004160
# 5 -0.014012 -0.001525 0.000081 0.000000 0.042798 0.000000
# 6 0.000000 0.000000 0.000000 0.004160 0.000000 0.025875
#
#
# Mechanical properties :
#
#
# Convention : Reuss Voigt Hill
#
# Bulk Modulus (GPa) = 33.30879 54.06892 43.68885
# Shear Modulus (GPa) = 36.22951 436.83865 236.53408
#
# Velocity S-wave (km/s) = 3.88902 13.50422 9.93702
# Velocity P-wave (km/s) = 5.83705 16.30104 12.24326
#
# Compressibility (1/GPa) = 0.03002211
#
# Stress axis : x y z
#
# Youngs Moduli (GPa) = 40.35562 121.21163 90.41653
#
# Poissons Ratio (x) = 0.42978 0.03610
# Poissons Ratio (y) = 0.14309 0.27928
# Poissons Ratio (z) = 0.01611 0.37440
#
# Static dielectric constant tensor:
#      x y z
#    x 1.606450 0.000000 0.315250 
#    y 0.000000 2.138260 0.000000 
#    z 0.315250 0.000000 1.721490 
# 
# From -- ./inp_files/11209.got.cif
#   From: 2010.05.17/outbox.cif.g08.bks.cpg/sg14_6_cif.got.tgz:11209.got - 2010.06.03 17:49:19.
