data_PCOD9251450
_publ_section_title
;
Structure prediction by ZEFSAII (Michael W. Deem and Ramdas Pophale) SiO2 
 PCOD9251450
Probable space group: P 21/C
;
_chemical_formula_sum "Si O2"
_cell_formula_units_Z 20
_cell_length_a 15.767530
_cell_length_b 5.043762
_cell_length_c 17.008910
_cell_angle_alpha 90.000000
_cell_angle_beta 139.285863
_cell_angle_gamma 90.000000
_cell_volume 882.332795
_symmetry_space_group_name_H-M "P 21/C"
_symmetry_group_IT_number 14
_symmetry_cell_setting 'monoclinic'
loop_
_space_group_symop_operation_xyz
x,y,z
-x,1/2+y,1/2-z
-x,-y,-z
x,1/2-y,1/2+z
loop_
_atom_site_type_symbol
_atom_site_label
_atom_site_fract_x
_atom_site_fract_y
_atom_site_fract_z
Si Si1 0.324892 0.464170 0.546896
Si Si2 0.906328 0.818217 0.018673
Si Si3 0.578594 0.392167 0.215782
Si Si4 0.157566 0.679040 0.130422
Si Si5 0.533523 0.246160 0.970356
O O1 0.187528 0.330870 0.471879
O O2 0.370779 0.606558 0.659701
O O3 0.439031 0.248708 0.612673
O O4 0.332395 0.667769 0.479422
O O5 0.850805 0.607412 0.915841
O O6 0.894791 0.109172 0.971513
O O7 0.055822 0.724786 0.129720
O O8 0.694869 0.256918 0.248841
O O9 0.558823 0.688561 0.169450
O O10 0.500000 0.500000 0.000000
O O11 0.500000 0.000000 0.000000
#
# Coordination Sequence:
#
# PCOD9251450 Si02
#       5
#     4   4   4   4   4
#     4  11  21  36  65  91 120 156 209 261 305 372
#     4   9  19  33  54  88 124 153 193 255 317 365
#     4  11  21  36  65  91 120 156 209 261 305 372
#     4   9  19  33  54  88 124 153 193 255 317 365
#     4  12  26  40  56  88 126 160 198 254 320 372
#
# _framework density 22.667186000000001
#
# number of rings (size 3 to 8) (size 9 to 14) (size 15 to 20)
#    0.000    1.600    4.000    1.200    5.600    0.000 
#    0.000    0.000    0.000    2.400    0.000    0.000 
#    0.000    0.000    0.000    0.000    0.000    0.000 
#
# Total GULP energy -111489.106300 kJ/mol
# GULP energy per Si atom -5574.455315 kJ/mol
# Density = 2.261559 g / cm^3
# Si number density = 22.667186 Si / 1000 Ang^3
#
#
#
# Elastic Constant Matrix: (Units=GPa)
#
#
# Indices 1 2 3 4 5 6 
#
# 1 233.0339 52.4502 44.0648 0.0000 30.3425 0.0000
# 2 52.4502 116.4579 11.7782 0.0000 2.0605 0.0000
# 3 44.0648 11.7782 21.6231 0.0000 9.8044 0.0000
# 4 0.0000 0.0000 0.0000 29.8794 0.0000 -7.2048
# 5 30.3425 2.0605 9.8044 0.0000 41.9979 0.0000
# 6 0.0000 0.0000 0.0000 -7.2048 0.0000 49.4496
#
#
#
# Elastic Compliance Matrix: (Units=1/GPa)
#
#
# Indices 1 2 3 4 5 6 
#
# 1 0.007546 -0.002018 -0.013254 0.000000 -0.002258 0.000000
# 2 -0.002018 0.009651 -0.001779 0.000000 0.001400 0.000000
# 3 -0.013254 -0.001779 0.078112 0.000000 -0.008573 0.000000
# 4 0.000000 0.000000 0.000000 0.034687 0.000000 0.005054
# 5 -0.002258 0.001400 -0.008573 0.000000 0.027375 0.000000
# 6 0.000000 0.000000 0.000000 0.005054 0.000000 0.020959
#
#
# Mechanical properties :
#
#
# Convention : Reuss Voigt Hill
#
# Bulk Modulus (GPa) = 16.33799 65.30013 40.81906
# Shear Modulus (GPa) = 21.47456 41.78682 31.63069
#
# Velocity S-wave (km/s) = 3.08130 4.29825 3.73961
# Velocity P-wave (km/s) = 4.45900 7.31465 6.05750
#
# Compressibility (1/GPa) = 0.06120705
#
# Stress axis : x y z
#
# Youngs Moduli (GPa) = 132.52643 103.61797 12.80206
#
# Poissons Ratio (x) = 0.20910 0.16968
# Poissons Ratio (y) = 0.26744 0.02278
# Poissons Ratio (z) = 1.75647 0.18435
#
# Static dielectric constant tensor:
#      x y z
#    x 1.974310 0.000000 0.008430 
#    y 0.000000 1.905740 0.000000 
#    z 0.008430 0.000000 1.869950 
# 
# From -- ./inp_files/58280.got.cif
#   From: 2010.05.17/outbox.cif.g08.bks.cpg/sg14_30_cif.got.tgz:58280.got - 2010.06.03 17:49:19.
