data_PCOD9251161
_publ_section_title
;
Structure prediction by ZEFSAII (Michael W. Deem and Ramdas Pophale) SiO2 
 PCOD9251161
Probable space group: P 21/C
;
_chemical_formula_sum "Si O2"
_cell_formula_units_Z 30
_cell_length_a 15.650457
_cell_length_b 5.203436
_cell_length_c 17.257944
_cell_angle_alpha 90.000000
_cell_angle_beta 112.715468
_cell_angle_gamma 90.000000
_cell_volume 1296.407513
_symmetry_space_group_name_H-M "P 21/C"
_symmetry_group_IT_number 14
_symmetry_cell_setting 'monoclinic'
loop_
_space_group_symop_operation_xyz
x,y,z
-x,1/2+y,1/2-z
-x,-y,-z
x,1/2-y,1/2+z
loop_
_atom_site_type_symbol
_atom_site_label
_atom_site_fract_x
_atom_site_fract_y
_atom_site_fract_z
Si Si1 0.440862 0.849939 0.218079
Si Si2 0.207058 0.185014 0.585624
Si Si3 0.934519 0.544070 0.125204
Si Si4 0.774351 0.902761 0.125036
Si Si5 0.281820 0.119594 0.256845
Si Si6 0.000000 0.000000 0.500000
Si Si7 0.708770 0.313222 0.457539
Si Si8 0.893814 0.217500 0.767728
O O1 0.517579 0.073898 0.246317
O O2 0.363884 0.945767 0.252899
O O3 0.392059 0.837790 0.116733
O O4 0.259114 0.160027 0.686419
O O5 0.232329 0.470280 0.566987
O O6 0.255122 0.968349 0.549882
O O7 0.097537 0.149935 0.552433
O O8 0.943916 0.415574 0.211918
O O9 0.943881 0.359216 0.055697
O O10 0.027674 0.711890 0.142654
O O11 0.844712 0.720759 0.101813
O O12 0.841362 0.045352 0.209544
O O13 0.705393 0.734809 0.153129
O O14 0.724091 0.105960 0.051962
O O15 0.185972 0.961379 0.227843
#
# Coordination Sequence:
#
# PCOD9251161 Si02
#       8
#     4   4   4   4   4   2   4   4
#     4  11  25  49  78 104 136 173 236 301 375 451
#     4  11  25  42  65 102 143 190 240 283 337 413
#     4  11  23  39  58  98 138 195 238 290 322 408
#     4  11  23  43  66  96 146 185 236 284 347 409
#     4  10  26  43  71 102 131 188 235 291 358 438
#     4  12  24  36  62 100 146 186 252 284 336 380
#     4  11  25  47  70 101 141 183 226 294 365 410
#     4  11  23  41  65  91 144 191 243 281 346 406
#
# _framework density 23.140871000000001
#
# number of rings (size 3 to 8) (size 9 to 14) (size 15 to 20)
#    0.000    1.067    2.667    3.200   13.067    1.600 
#    0.000    1.333    0.000    0.000    0.000    0.000 
#    0.000    0.000    0.000    0.000    0.000    0.000 
#
# Total GULP energy -167273.145859 kJ/mol
# GULP energy per Si atom -5575.771529 kJ/mol
# Density = 2.308820 g / cm^3
# Si number density = 23.140871 Si / 1000 Ang^3
#
#
#
# Elastic Constant Matrix: (Units=GPa)
#
#
# Indices 1 2 3 4 5 6 
#
# 1 58.0383 4.5715 21.2972 0.0000 4.3560 0.0000
# 2 4.5715 74.5834 21.4106 0.0000 7.2937 0.0000
# 3 21.2972 21.4106 54.8027 0.0000 15.7960 0.0000
# 4 0.0000 0.0000 0.0000 24.9178 0.0000 9.8689
# 5 4.3560 7.2937 15.7960 0.0000 39.6212 0.0000
# 6 0.0000 0.0000 0.0000 9.8689 0.0000 33.0877
#
#
#
# Elastic Compliance Matrix: (Units=1/GPa)
#
#
# Indices 1 2 3 4 5 6 
#
# 1 0.020216 0.001128 -0.008583 0.000000 0.000992 0.000000
# 2 0.001128 0.015173 -0.006243 0.000000 -0.000428 0.000000
# 3 -0.008583 -0.006243 0.026459 0.000000 -0.008456 0.000000
# 4 0.000000 0.000000 0.000000 0.045508 0.000000 -0.013573
# 5 0.000992 -0.000428 -0.008456 0.000000 0.028580 0.000000
# 6 0.000000 0.000000 0.000000 -0.013573 0.000000 0.034271
#
#
# Mechanical properties :
#
#
# Convention : Reuss Voigt Hill
#
# Bulk Modulus (GPa) = 29.02545 31.33145 30.17845
# Shear Modulus (GPa) = 23.91365 28.86833 26.39099
#
# Velocity S-wave (km/s) = 3.21813 3.53583 3.38072
# Velocity P-wave (km/s) = 5.13602 5.49894 5.32057
#
# Compressibility (1/GPa) = 0.03445253
#
# Stress axis : x y z
#
# Youngs Moduli (GPa) = 49.46530 65.90826 37.79470
#
# Poissons Ratio (x) = -0.07433 0.32438
# Poissons Ratio (y) = -0.05578 0.23593
# Poissons Ratio (z) = 0.42455 0.41143
#
# Static dielectric constant tensor:
#      x y z
#    x 1.986450 0.000000 -0.201990 
#    y 0.000000 1.771900 0.000000 
#    z -0.201990 0.000000 2.227820 
# 
# From -- ./inp_files/58576.got.cif
#   From: 2010.05.17/outbox.cif.g08.bks.cpg/sg14_30_cif.got.tgz:58576.got - 2010.06.03 17:49:19.
