data_PCOD9251584
_publ_section_title
;
Structure prediction by ZEFSAII (Michael W. Deem and Ramdas Pophale) SiO2 
 PCOD9251584
Probable space group: P 21/C
;
_chemical_formula_sum "Si O2"
_cell_formula_units_Z 28
_cell_length_a 9.235342
_cell_length_b 10.318601
_cell_length_c 14.589080
_cell_angle_alpha 90.000000
_cell_angle_beta 67.186882
_cell_angle_gamma 90.000000
_cell_volume 1281.522846
_symmetry_space_group_name_H-M "P 21/C"
_symmetry_group_IT_number 14
_symmetry_cell_setting 'monoclinic'
loop_
_space_group_symop_operation_xyz
x,y,z
-x,1/2+y,1/2-z
-x,-y,-z
x,1/2-y,1/2+z
loop_
_atom_site_type_symbol
_atom_site_label
_atom_site_fract_x
_atom_site_fract_y
_atom_site_fract_z
Si Si1 0.776248 0.234543 0.296938
Si Si2 0.479441 0.132613 0.952181
Si Si3 0.990867 0.347940 0.400146
Si Si4 0.208587 0.594304 0.377342
Si Si5 0.274061 0.223748 0.372991
Si Si6 0.529044 0.766857 0.846639
Si Si7 0.515140 0.479614 0.889172
O O1 0.633985 0.332344 0.355902
O O2 0.838536 0.212812 0.179389
O O3 0.680731 0.097136 0.334534
O O4 0.911698 0.284950 0.330693
O O5 0.341445 0.151691 0.912912
O O6 0.451718 0.221444 0.048841
O O7 0.500000 0.000000 0.000000
O O8 0.115706 0.467460 0.358747
O O9 0.089770 0.234066 0.424239
O O10 0.858903 0.393257 0.503536
O O11 0.395108 0.632018 0.344565
O O12 0.320599 0.215029 0.254642
O O13 0.372145 0.110459 0.394019
O O14 0.494078 0.614743 0.841732
O O15 0.500000 0.500000 0.000000
#
# Coordination Sequence:
#
# PCOD9251584 Si02
#       7
#     4   4   4   4   4   4   4
#     4  11  23  46  67 102 139 183 227 287 363 414
#     4  11  23  40  70 101 135 173 241 289 337 421
#     4  11  25  46  67 101 138 181 230 289 352 418
#     4  11  23  45  72  93 140 184 229 287 352 418
#     4  11  25  40  66 101 129 177 239 277 346 411
#     4  12  22  43  72  97 130 187 229 289 343 413
#     4  11  21  43  67  94 137 174 225 288 340 408
#
# _framework density 21.849005999999999
#
# number of rings (size 3 to 8) (size 9 to 14) (size 15 to 20)
#    0.000    0.857    7.143    1.714    4.000    1.143 
#    5.143    1.429    0.000    0.000    0.000    0.000 
#    0.000    0.000    0.000    0.000    0.000    0.000 
#
# Total GULP energy -155897.429901 kJ/mol
# GULP energy per Si atom -5567.765354 kJ/mol
# Density = 2.179928 g / cm^3
# Si number density = 21.849006 Si / 1000 Ang^3
#
#
#
# Elastic Constant Matrix: (Units=GPa)
#
#
# Indices 1 2 3 4 5 6 
#
# 1 94.6771 -0.9743 8.6499 0.0000 12.8288 0.0000
# 2 -0.9743 74.2673 12.8293 0.0000 -5.4292 0.0000
# 3 8.6499 12.8293 70.4799 0.0000 7.7070 0.0000
# 4 0.0000 0.0000 0.0000 41.5416 0.0000 0.6875
# 5 12.8288 -5.4292 7.7070 0.0000 33.3635 0.0000
# 6 0.0000 0.0000 0.0000 0.6875 0.0000 18.0440
#
#
#
# Elastic Compliance Matrix: (Units=1/GPa)
#
#
# Indices 1 2 3 4 5 6 
#
# 1 0.011202 0.000008 -0.000929 0.000000 -0.004091 0.000000
# 2 0.000008 0.014185 -0.002909 0.000000 0.002977 0.000000
# 3 -0.000929 -0.002909 0.015229 0.000000 -0.003634 0.000000
# 4 0.000000 0.000000 0.000000 0.024087 0.000000 -0.000918
# 5 -0.004091 0.002977 -0.003634 0.000000 0.032870 0.000000
# 6 0.000000 0.000000 0.000000 -0.000918 0.000000 0.055455
#
#
# Mechanical properties :
#
#
# Convention : Reuss Voigt Hill
#
# Bulk Modulus (GPa) = 30.34212 31.15936 30.75074
# Shear Modulus (GPa) = 29.12521 33.18445 31.15483
#
# Velocity S-wave (km/s) = 3.65502 3.90142 3.78023
# Velocity P-wave (km/s) = 5.63290 5.88106 5.75832
#
# Compressibility (1/GPa) = 0.03295749
#
# Stress axis : x y z
#
# Youngs Moduli (GPa) = 89.27355 70.49664 65.66296
#
# Poissons Ratio (x) = -0.00059 0.06099
# Poissons Ratio (y) = -0.00074 0.19099
# Poissons Ratio (z) = 0.08292 0.20505
#
# Static dielectric constant tensor:
#      x y z
#    x 1.783780 0.000000 0.023120 
#    y 0.000000 12.333460 0.000000 
#    z 0.023120 0.000000 1.818000 
# 
# From -- ./inp_files/40010.got.cif
#   From: 2010.05.17/outbox.cif.g08.bks.cpg/sg14_21_cif.got.tgz:40010.got - 2010.06.03 17:49:19.
