data_PCOD9251327
_publ_section_title
;
Structure prediction by ZEFSAII (Michael W. Deem and Ramdas Pophale) SiO2 
 PCOD9251327
Probable space group: P 21/C
;
_chemical_formula_sum "Si O2"
_cell_formula_units_Z 32
_cell_length_a 15.405134
_cell_length_b 7.741195
_cell_length_c 20.180892
_cell_angle_alpha 90.000000
_cell_angle_beta 140.915533
_cell_angle_gamma 90.000000
_cell_volume 1517.312728
_symmetry_space_group_name_H-M "P 21/C"
_symmetry_group_IT_number 14
_symmetry_cell_setting 'monoclinic'
loop_
_space_group_symop_operation_xyz
x,y,z
-x,1/2+y,1/2-z
-x,-y,-z
x,1/2-y,1/2+z
loop_
_atom_site_type_symbol
_atom_site_label
_atom_site_fract_x
_atom_site_fract_y
_atom_site_fract_z
Si Si1 0.394097 0.331448 0.331709
Si Si2 0.974941 0.166228 0.392312
Si Si3 0.867012 0.514018 0.133310
Si Si4 0.694132 0.294217 0.664279
Si Si5 0.036668 0.861174 0.859530
Si Si6 0.400821 0.320682 0.981293
Si Si7 0.316306 0.949186 0.987698
Si Si8 0.115271 0.218673 0.609406
O O1 0.354276 0.526681 0.330228
O O2 0.382798 0.220280 0.392531
O O3 0.552794 0.348778 0.404838
O O4 0.280351 0.271475 0.212266
O O5 0.836490 0.256506 0.283105
O O6 0.077533 0.139822 0.391558
O O7 0.051374 0.248330 0.499854
O O8 0.926991 0.975390 0.390359
O O9 0.916583 0.329039 0.137209
O O10 0.705508 0.539720 0.053327
O O11 0.946339 0.558509 0.247708
O O12 0.564708 0.164420 0.590537
O O13 0.718064 0.352539 0.602416
O O14 0.181997 0.955305 0.952722
O O15 0.951626 0.842276 0.875738
O O16 0.357311 0.141620 0.990888
#
# Coordination Sequence:
#
# PCOD9251327 Si02
#       8
#     4   4   4   4   4   4   4   4
#     4   8  14  27  48  71  95 127 163 196 232 282
#     4   9  17  30  49  72  96 126 166 202 233 281
#     4  11  20  31  50  75 100 125 160 204 244 283
#     4   8  14  27  48  71  95 127 163 196 232 282
#     4  11  20  31  50  75 100 125 160 204 244 283
#     4   9  16  29  50  73  97 124 162 202 236 280
#     4   9  16  29  50  73  97 124 162 202 236 280
#     4   9  17  30  49  72  96 126 166 202 233 281
#
# _framework density 21.089915999999999
#
# number of rings (size 3 to 8) (size 9 to 14) (size 15 to 20)
#    0.000    2.750    2.500    2.250    0.000    0.000 
#    0.000    3.750    0.000    3.000    0.000    0.000 
#    0.000    0.000    0.000    0.000    0.000    0.000 
#
# Total GULP energy -178699.804111 kJ/mol
# GULP energy per Si atom -5584.368878 kJ/mol
# Density = 2.104191 g / cm^3
# Si number density = 21.089916 Si / 1000 Ang^3
#
#
#
# Elastic Constant Matrix: (Units=GPa)
#
#
# Indices 1 2 3 4 5 6 
#
# 1 56.3417 14.6364 41.3427 0.0000 6.6692 0.0000
# 2 14.6364 63.7589 22.5857 0.0000 6.6050 0.0000
# 3 41.3427 22.5857 145.5791 0.0000 7.6008 0.0000
# 4 0.0000 0.0000 0.0000 -3.1468 0.0000 6.5919
# 5 6.6692 6.6050 7.6008 0.0000 21.8054 0.0000
# 6 0.0000 0.0000 0.0000 6.5919 0.0000 21.9687
#
#
#
# Elastic Compliance Matrix: (Units=1/GPa)
#
#
# Indices 1 2 3 4 5 6 
#
# 1 0.023365 -0.002809 -0.005980 0.000000 -0.004211 0.000000
# 2 -0.002809 0.017322 -0.001691 0.000000 -0.003798 0.000000
# 3 -0.005980 -0.001691 0.008869 0.000000 -0.000750 0.000000
# 4 0.000000 0.000000 0.000000 -0.195132 0.000000 0.058551
# 5 -0.004211 -0.003798 -0.000750 0.000000 0.048560 0.000000
# 6 0.000000 0.000000 0.000000 0.058551 0.000000 0.027950
#
#
# Mechanical properties :
#
#
# Convention : Reuss Voigt Hill
#
# Bulk Modulus (GPa) = 34.97109 46.97881 40.97495
# Shear Modulus (GPa) = -129.61816 20.59979 -54.50918
#
# Velocity S-wave (km/s) = -7.84813 3.12871 -5.08942
# Velocity P-wave (km/s) = 8.09360 5.94774 3.88142
#
# Compressibility (1/GPa) = 0.02859505
#
# Stress axis : x y z
#
# Youngs Moduli (GPa) = 42.79933 57.73163 112.75444
#
# Poissons Ratio (x) = 0.16218 0.67423
# Poissons Ratio (y) = 0.12023 0.19070
# Poissons Ratio (z) = 0.25593 0.09764
#
# Static dielectric constant tensor:
#      x y z
#    x 1.727690 0.000000 0.047500 
#    y 0.000000 1.839930 0.000000 
#    z 0.047500 0.000000 1.758560 
# 
# From -- ./inp_files/68229.got.cif
#   From: 2010.05.17/outbox.cif.g08.bks.cpg/sg14_35_cif.got.tgz:68229.got - 2010.06.03 17:49:19.
