data_PCOD9251378
_publ_section_title
;
Structure prediction by ZEFSAII (Michael W. Deem and Ramdas Pophale) SiO2 
 PCOD9251378
Probable space group: P 21/C
;
_chemical_formula_sum "Si O2"
_cell_formula_units_Z 32
_cell_length_a 9.856226
_cell_length_b 14.254287
_cell_length_c 11.286622
_cell_angle_alpha 90.000000
_cell_angle_beta 106.089942
_cell_angle_gamma 90.000000
_cell_volume 1523.581539
_symmetry_space_group_name_H-M "P 21/C"
_symmetry_group_IT_number 14
_symmetry_cell_setting 'monoclinic'
loop_
_space_group_symop_operation_xyz
x,y,z
-x,1/2+y,1/2-z
-x,-y,-z
x,1/2-y,1/2+z
loop_
_atom_site_type_symbol
_atom_site_label
_atom_site_fract_x
_atom_site_fract_y
_atom_site_fract_z
Si Si1 0.677645 0.736177 0.562767
Si Si2 0.472432 0.539486 0.268192
Si Si3 0.201165 0.616433 0.297519
Si Si4 0.273331 0.168684 0.188326
Si Si5 0.223781 0.826243 0.248686
Si Si6 0.951096 0.505014 0.351515
Si Si7 0.407952 0.883902 0.070124
Si Si8 0.512026 0.403747 0.073155
O O1 0.747868 0.702615 0.454081
O O2 0.755060 0.761331 0.706818
O O3 0.554294 0.664945 0.571082
O O4 0.598224 0.830229 0.501765
O O5 0.311442 0.570375 0.234136
O O6 0.565009 0.631030 0.259376
O O7 0.559594 0.493578 0.397572
O O8 0.474038 0.444726 0.191614
O O9 0.164762 0.722211 0.251684
O O10 0.300655 0.623954 0.436165
O O11 0.072676 0.549647 0.300049
O O12 0.178920 0.076980 0.185270
O O13 0.323138 0.833342 0.156343
O O14 0.332925 0.857638 0.379224
O O15 0.103545 0.904187 0.204130
O O16 0.000000 0.500000 0.500000
O O17 0.500000 0.500000 0.000000
#
# Coordination Sequence:
#
# PCOD9251378 Si02
#       8
#     4   4   4   4   4   4   4   4
#     4  12  24  41  70 109 140 179 234 302 354 425
#     4  11  21  40  67 104 128 179 235 294 344 425
#     4  12  24  41  70  96 133 184 237 287 350 421
#     4  12  24  44  70 103 143 180 238 288 364 414
#     4  11  23  43  64  97 137 184 234 283 357 417
#     4  12  26  47  67  97 139 196 236 291 343 433
#     4  11  21  38  70 100 131 171 235 287 349 416
#     4  11  20  38  68  98 140 174 220 297 363 409
#
# _framework density 21.003143999999999
#
# number of rings (size 3 to 8) (size 9 to 14) (size 15 to 20)
#    0.000    0.500    7.500    2.625    1.750    1.000 
#    2.250    0.000    0.000    2.250    0.000    0.000 
#    0.000    0.000    0.000    0.000    0.000    0.000 
#
# Total GULP energy -178483.102554 kJ/mol
# GULP energy per Si atom -5577.596955 kJ/mol
# Density = 2.095534 g / cm^3
# Si number density = 21.003144 Si / 1000 Ang^3
#
#
#
# Elastic Constant Matrix: (Units=GPa)
#
#
# Indices 1 2 3 4 5 6 
#
# 1 78.4441 37.2134 0.9219 0.0000 2.7529 0.0000
# 2 37.2134 118.4952 20.2090 0.0000 -3.3273 0.0000
# 3 0.9219 20.2090 50.2773 0.0000 -8.0719 0.0000
# 4 0.0000 0.0000 0.0000 58.7053 0.0000 22.8134
# 5 2.7529 -3.3273 -8.0719 0.0000 14.2290 0.0000
# 6 0.0000 0.0000 0.0000 22.8134 0.0000 75.8359
#
#
#
# Elastic Compliance Matrix: (Units=1/GPa)
#
#
# Indices 1 2 3 4 5 6 
#
# 1 0.015275 -0.005102 0.001215 0.000000 -0.003459 0.000000
# 2 -0.005102 0.010764 -0.004038 0.000000 0.001213 0.000000
# 3 0.001215 -0.004038 0.023436 0.000000 0.012115 0.000000
# 4 0.000000 0.000000 0.000000 0.019289 0.000000 -0.005803
# 5 -0.003459 0.001213 0.012115 0.000000 0.078105 0.000000
# 6 0.000000 0.000000 0.000000 -0.005803 0.000000 0.014932
#
#
# Mechanical properties :
#
#
# Convention : Reuss Voigt Hill
#
# Bulk Modulus (GPa) = 29.73928 40.43392 35.08660
# Shear Modulus (GPa) = 26.47482 42.34551 34.41016
#
# Velocity S-wave (km/s) = 3.55423 4.49503 4.05202
# Velocity P-wave (km/s) = 5.57078 6.79952 6.21559
#
# Compressibility (1/GPa) = 0.03362556
#
# Stress axis : x y z
#
# Youngs Moduli (GPa) = 65.46570 92.90152 42.66991
#
# Poissons Ratio (x) = 0.47394 -0.05185
# Poissons Ratio (y) = 0.33398 0.17231
# Poissons Ratio (z) = -0.07955 0.37517
#
# Static dielectric constant tensor:
#      x y z
#    x 1.781090 0.000000 -0.019040 
#    y 0.000000 1.769810 0.000000 
#    z -0.019040 0.000000 1.802180 
# 
# From -- ./inp_files/25561.got.cif
#   From: 2010.05.17/outbox.cif.g08.bks.cpg/sg14_13_cif.got.tgz:25561.got - 2010.06.03 17:49:19.
