data_PCOD9251999
_publ_section_title
;
Structure prediction by ZEFSAII (Michael W. Deem and Ramdas Pophale) SiO2 
 PCOD9251999
Probable space group: P 21/C
;
_chemical_formula_sum "Si O2"
_cell_formula_units_Z 30
_cell_length_a 7.751215
_cell_length_b 30.699954
_cell_length_c 5.079950
_cell_angle_alpha 90.000000
_cell_angle_beta 87.875493
_cell_angle_gamma 90.000000
_cell_volume 1208.003859
_symmetry_space_group_name_H-M "P 21/C"
_symmetry_group_IT_number 14
_symmetry_cell_setting 'monoclinic'
loop_
_space_group_symop_operation_xyz
x,y,z
-x,1/2+y,1/2-z
-x,-y,-z
x,1/2-y,1/2+z
loop_
_atom_site_type_symbol
_atom_site_label
_atom_site_fract_x
_atom_site_fract_y
_atom_site_fract_z
Si Si1 0.775890 0.159503 0.003500
Si Si2 0.000000 0.500000 0.500000
Si Si3 0.235360 0.983874 0.521380
Si Si4 0.973603 0.075936 0.783293
Si Si5 0.077462 0.146659 0.379198
Si Si6 0.597657 0.870548 0.987037
Si Si7 0.034431 0.220665 0.749100
Si Si8 0.559702 0.572386 0.994574
O O1 0.569850 0.160890 0.026911
O O2 0.893575 0.161207 0.261945
O O3 0.841337 0.112142 0.893190
O O4 0.847770 0.197926 0.812232
O O5 0.160156 0.522086 0.312397
O O6 0.904509 0.552768 0.514381
O O7 0.091656 0.973837 0.303730
O O8 0.373019 0.947400 0.443218
O O9 0.317918 0.030688 0.502518
O O10 0.049613 0.100464 0.526170
O O11 0.220662 0.146388 0.141859
O O12 0.131282 0.180147 0.606564
O O13 0.548526 0.907741 0.782290
O O14 0.603234 0.891080 0.276780
O O15 0.065689 0.258027 0.530826
#
# Coordination Sequence:
#
# PCOD9251999 Si02
#       8
#     4   2   4   4   4   4   4   4
#     4  11  25  48  79 103 148 190 243 294 371 439
#     4  12  24  36  62  88 138 186 258 310 358 422
#     4  11  25  40  59  91 135 197 250 318 365 413
#     4  11  23  41  62 100 137 198 249 312 363 428
#     4  11  26  46  78 107 147 193 238 298 373 436
#     4  12  27  47  70 108 141 194 246 297 355 438
#     4  11  24  48  82 116 149 185 226 291 368 448
#     4  11  27  43  65  93 147 191 250 311 365 411
#
# _framework density 24.83436
#
# number of rings (size 3 to 8) (size 9 to 14) (size 15 to 20)
#    0.000    0.800    2.667    3.600   11.200    1.067 
#    0.000    1.333    0.000    0.000    0.000    0.000 
#    0.000    0.000    0.000    0.000    0.000    0.000 
#
# Total GULP energy -167311.372525 kJ/mol
# GULP energy per Si atom -5577.045751 kJ/mol
# Density = 2.477784 g / cm^3
# Si number density = 24.834360 Si / 1000 Ang^3
#
#
#
# Elastic Constant Matrix: (Units=GPa)
#
#
# Indices 1 2 3 4 5 6 
#
# 1 70.1542 -2.0483 23.9075 0.0000 2.3558 0.0000
# 2 -2.0483 84.3486 29.8020 0.0000 6.9265 0.0000
# 3 23.9075 29.8020 136.5959 0.0000 -5.4549 0.0000
# 4 0.0000 0.0000 0.0000 62.7436 0.0000 -8.5237
# 5 2.3558 6.9265 -5.4549 0.0000 36.2498 0.0000
# 6 0.0000 0.0000 0.0000 -8.5237 0.0000 27.2390
#
#
#
# Elastic Compliance Matrix: (Units=1/GPa)
#
#
# Indices 1 2 3 4 5 6 
#
# 1 0.015427 0.001626 -0.003126 0.000000 -0.001784 0.000000
# 2 0.001626 0.013326 -0.003318 0.000000 -0.003151 0.000000
# 3 -0.003126 -0.003318 0.008677 0.000000 0.002143 0.000000
# 4 0.000000 0.000000 0.000000 0.016645 0.000000 0.005209
# 5 -0.001784 -0.003151 0.002143 0.000000 0.028627 0.000000
# 6 0.000000 0.000000 0.000000 0.005209 0.000000 0.038342
#
#
# Mechanical properties :
#
#
# Convention : Reuss Voigt Hill
#
# Bulk Modulus (GPa) = 35.97894 43.82455 39.90174
# Shear Modulus (GPa) = 35.72812 41.20898 38.46855
#
# Velocity S-wave (km/s) = 3.79708 4.07794 3.94001
# Velocity P-wave (km/s) = 5.80885 6.31330 6.06632
#
# Compressibility (1/GPa) = 0.02779404
#
# Stress axis : x y z
#
# Youngs Moduli (GPa) = 64.82161 75.04102 115.24170
#
# Poissons Ratio (x) = -0.12198 0.36024
# Poissons Ratio (y) = -0.10537 0.38235
# Poissons Ratio (z) = 0.20263 0.24897
#
# Static dielectric constant tensor:
#      x y z
#    x 2.133870 0.000000 0.021300 
#    y 0.000000 2.046830 0.000000 
#    z 0.021300 0.000000 2.044390 
# 
# From -- ./inp_files/2113.got.cif
#   From: 2010.05.17/outbox.cif.g08.bks.cpg/sg14_2_cif.got.tgz:2113.got - 2010.06.03 17:49:19.
