data_PCOD9251965
_publ_section_title
;
Structure prediction by ZEFSAII (Michael W. Deem and Ramdas Pophale) SiO2 
 PCOD9251965
Probable space group: P 21/C
;
_chemical_formula_sum "Si O2"
_cell_formula_units_Z 20
_cell_length_a 18.788848
_cell_length_b 5.074470
_cell_length_c 8.827829
_cell_angle_alpha 90.000000
_cell_angle_beta 91.647502
_cell_angle_gamma 90.000000
_cell_volume 841.327704
_symmetry_space_group_name_H-M "P 21/C"
_symmetry_group_IT_number 14
_symmetry_cell_setting 'monoclinic'
loop_
_space_group_symop_operation_xyz
x,y,z
-x,1/2+y,1/2-z
-x,-y,-z
x,1/2-y,1/2+z
loop_
_atom_site_type_symbol
_atom_site_label
_atom_site_fract_x
_atom_site_fract_y
_atom_site_fract_z
Si Si1 0.743464 0.887261 0.399025
Si Si2 0.527410 0.098402 0.664597
Si Si3 0.960794 0.289386 0.603311
Si Si4 0.306517 0.906429 0.280988
Si Si5 0.100677 0.071859 0.658848
O O1 0.696951 0.637454 0.345658
O O2 0.725675 0.139235 0.291815
O O3 0.732092 0.980734 0.570787
O O4 0.825105 0.798689 0.373660
O O5 0.490729 0.367385 0.717008
O O6 0.611947 0.142997 0.667901
O O7 0.500000 0.000000 0.500000
O O8 0.894556 0.370511 0.702853
O O9 0.927775 0.069662 0.492691
O O10 0.000000 0.500000 0.500000
O O11 0.030228 0.224535 0.709074
#
# Coordination Sequence:
#
# PCOD9251965 Si02
#       5
#     4   4   4   4   4
#     4  12  28  45  74  98 150 183 233 282 358 413
#     4  12  25  45  76 105 141 183 230 285 342 405
#     4  11  23  40  63  92 125 161 233 274 329 393
#     4  12  26  48  69 109 139 185 231 284 340 430
#     4  11  25  41  66  92 127 178 218 287 335 397
#
# _framework density 23.77195
#
# number of rings (size 3 to 8) (size 9 to 14) (size 15 to 20)
#    0.000    0.400    2.000    6.600    5.600    0.000 
#    0.000    0.000    0.000    0.000    0.000    0.000 
#    0.000    0.000    0.000    0.000    0.000    0.000 
#
# Total GULP energy -111845.505926 kJ/mol
# GULP energy per Si atom -5592.275296 kJ/mol
# Density = 2.371784 g / cm^3
# Si number density = 23.771950 Si / 1000 Ang^3
#
#
#
# Elastic Constant Matrix: (Units=GPa)
#
#
# Indices 1 2 3 4 5 6 
#
# 1 74.8655 -2.0361 -6.7133 0.0000 -5.6336 0.0000
# 2 -2.0361 65.5166 -2.5842 0.0000 9.8343 0.0000
# 3 -6.7133 -2.5842 77.4930 0.0000 -0.9392 0.0000
# 4 0.0000 0.0000 0.0000 42.0672 0.0000 -1.5199
# 5 -5.6336 9.8343 -0.9392 0.0000 33.1339 0.0000
# 6 0.0000 0.0000 0.0000 -1.5199 0.0000 31.9468
#
#
#
# Elastic Compliance Matrix: (Units=1/GPa)
#
#
# Indices 1 2 3 4 5 6 
#
# 1 0.013644 0.000124 0.001214 0.000000 0.002317 0.000000
# 2 0.000124 0.015994 0.000487 0.000000 -0.004712 0.000000
# 3 0.001214 0.000487 0.013031 0.000000 0.000431 0.000000
# 4 0.000000 0.000000 0.000000 0.023812 0.000000 0.001133
# 5 0.002317 -0.004712 0.000431 0.000000 0.031985 0.000000
# 6 0.000000 0.000000 0.000000 0.001133 0.000000 0.031356
#
#
# Mechanical properties :
#
#
# Convention : Reuss Voigt Hill
#
# Bulk Modulus (GPa) = 21.58934 21.68978 21.63956
# Shear Modulus (GPa) = 35.30784 36.71016 36.00900
#
# Velocity S-wave (km/s) = 3.85811 3.93398 3.89622
# Velocity P-wave (km/s) = 5.38035 5.45699 5.41881
#
# Compressibility (1/GPa) = 0.04631915
#
# Stress axis : x y z
#
# Youngs Moduli (GPa) = 73.29274 62.52469 76.73978
#
# Poissons Ratio (x) = -0.00776 -0.09318
# Poissons Ratio (y) = -0.00909 -0.03737
# Poissons Ratio (z) = -0.08899 -0.03045
#
# Static dielectric constant tensor:
#      x y z
#    x 2.152020 0.000000 -0.107170 
#    y 0.000000 1.043800 0.000000 
#    z -0.107170 0.000000 2.014160 
# 
# From -- ./inp_files/17256.got.cif
#   From: 2010.05.17/outbox.cif.g08.bks.cpg/sg14_9_cif.got.tgz:17256.got - 2010.06.03 17:49:19.
