data_PCOD9251032
_publ_section_title
;
Structure prediction by ZEFSAII (Michael W. Deem and Ramdas Pophale) SiO2 
 PCOD9251032
Probable space group: P 21/C
;
_chemical_formula_sum "Si O2"
_cell_formula_units_Z 20
_cell_length_a 4.982286
_cell_length_b 8.328693
_cell_length_c 18.247110
_cell_angle_alpha 90.000000
_cell_angle_beta 105.608341
_cell_angle_gamma 90.000000
_cell_volume 729.258561
_symmetry_space_group_name_H-M "P 21/C"
_symmetry_group_IT_number 14
_symmetry_cell_setting 'monoclinic'
loop_
_space_group_symop_operation_xyz
x,y,z
-x,1/2+y,1/2-z
-x,-y,-z
x,1/2-y,1/2+z
loop_
_atom_site_type_symbol
_atom_site_label
_atom_site_fract_x
_atom_site_fract_y
_atom_site_fract_z
Si Si1 0.763401 0.758845 0.491258
Si Si2 0.942622 0.594474 0.639851
Si Si3 0.008237 0.525754 0.891168
Si Si4 0.519938 0.284481 0.810971
Si Si5 0.691264 0.271582 0.662463
O O1 0.834065 0.610596 0.548446
O O2 0.967383 0.825379 0.443502
O O3 0.494244 0.728931 0.423869
O O4 0.783376 0.907036 0.550332
O O5 0.769029 0.729412 0.673763
O O6 0.886266 0.425114 0.671175
O O7 0.264943 0.638649 0.658036
O O8 0.713248 0.433689 0.855081
O O9 0.139775 0.604154 0.828668
O O10 0.512182 0.289281 0.722764
#
# Coordination Sequence:
#
# PCOD9251032 Si02
#       5
#     4   4   4   4   4
#     4  10  25  45  73 102 144 188 245 289 362 426
#     4  11  28  48  70 109 146 188 239 307 352 428
#     4  10  25  46  73 103 141 194 239 292 358 437
#     4  11  28  47  72 105 152 185 241 293 371 424
#     4  12  26  43  77 103 144 189 245 296 362 422
#
# _framework density 27.425118999999999
#
# number of rings (size 3 to 8) (size 9 to 14) (size 15 to 20)
#    0.000    1.200    0.000    2.400   22.400    0.800 
#    0.000    0.000    0.000    0.000    0.000    0.000 
#    0.000    0.000    0.000    0.000    0.000    0.000 
#
# Total GULP energy -112052.638575 kJ/mol
# GULP energy per Si atom -5602.631929 kJ/mol
# Density = 2.736270 g / cm^3
# Si number density = 27.425119 Si / 1000 Ang^3
#
#
#
# Elastic Constant Matrix: (Units=GPa)
#
#
# Indices 1 2 3 4 5 6 
#
# 1 29.0735 2.0051 44.9454 0.0000 7.8219 0.0000
# 2 2.0051 63.1520 53.8298 0.0000 2.1197 0.0000
# 3 44.9454 53.8298 140.9649 0.0000 6.9737 0.0000
# 4 0.0000 0.0000 0.0000 23.1137 0.0000 -6.7304
# 5 7.8219 2.1197 6.9737 0.0000 45.3986 0.0000
# 6 0.0000 0.0000 0.0000 -6.7304 0.0000 39.1803
#
#
#
# Elastic Compliance Matrix: (Units=1/GPa)
#
#
# Indices 1 2 3 4 5 6 
#
# 1 0.114937 0.040725 -0.051516 0.000000 -0.013791 0.000000
# 2 0.040725 0.037910 -0.027234 0.000000 -0.004603 0.000000
# 3 -0.051516 -0.027234 0.033673 0.000000 0.004975 0.000000
# 4 0.000000 0.000000 0.000000 0.045543 0.000000 0.007823
# 5 -0.013791 -0.004603 0.004975 0.000000 0.023854 0.000000
# 6 0.000000 0.000000 0.000000 0.007823 0.000000 0.026867
#
#
# Mechanical properties :
#
#
# Convention : Reuss Voigt Hill
#
# Bulk Modulus (GPa) = 9.05216 48.30567 28.67892
# Shear Modulus (GPa) = 12.63725 30.36584 21.50154
#
# Velocity S-wave (km/s) = 2.14893 3.33111 2.80305
# Velocity P-wave (km/s) = 3.07653 5.69622 4.57777
#
# Compressibility (1/GPa) = 0.11047083
#
# Stress axis : x y z
#
# Youngs Moduli (GPa) = 8.70041 26.37837 29.69751
#
# Poissons Ratio (x) = -1.07426 1.52990
# Poissons Ratio (y) = -0.35433 0.80877
# Poissons Ratio (z) = 0.44821 0.71838
#
# Static dielectric constant tensor:
#      x y z
#    x 2.109090 0.000000 0.004270 
#    y 0.000000 2.189470 0.000000 
#    z 0.004270 0.000000 2.086920 
# 
# From -- ./inp_files/52721.got.cif
#   From: 2010.05.17/outbox.cif.g08.bks.cpg/sg14_27_cif.got.tgz:52721.got - 2010.06.03 17:49:19.
