data_PCOD9251591
_publ_section_title
;
Structure prediction by ZEFSAII (Michael W. Deem and Ramdas Pophale) SiO2 
 PCOD9251591
Probable space group: P 21/C
;
_chemical_formula_sum "Si O2"
_cell_formula_units_Z 32
_cell_length_a 11.607079
_cell_length_b 16.463755
_cell_length_c 14.392543
_cell_angle_alpha 90.000000
_cell_angle_beta 147.308565
_cell_angle_gamma 90.000000
_cell_volume 1485.508779
_symmetry_space_group_name_H-M "P 21/C"
_symmetry_group_IT_number 14
_symmetry_cell_setting 'monoclinic'
loop_
_space_group_symop_operation_xyz
x,y,z
-x,1/2+y,1/2-z
-x,-y,-z
x,1/2-y,1/2+z
loop_
_atom_site_type_symbol
_atom_site_label
_atom_site_fract_x
_atom_site_fract_y
_atom_site_fract_z
Si Si1 0.303148 0.689824 0.603963
Si Si2 0.741980 0.914452 0.973777
Si Si3 0.049571 0.114402 0.548770
Si Si4 0.107456 0.564539 0.853720
Si Si5 0.385989 0.782095 0.482715
Si Si6 0.371157 0.822835 0.794940
Si Si7 0.407005 0.457729 0.165004
Si Si8 0.155212 0.195267 0.132458
O O1 0.346347 0.706122 0.525498
O O2 0.352774 0.777172 0.683736
O O3 0.459997 0.624597 0.755728
O O4 0.058581 0.668772 0.459245
O O5 0.599585 0.864993 0.951706
O O6 0.825700 0.853622 0.950954
O O7 0.576610 0.975936 0.814454
O O8 0.932023 0.956997 0.157977
O O9 0.228834 0.061105 0.621707
O O10 0.126463 0.208139 0.597228
O O11 0.999599 0.087445 0.619805
O O12 0.827893 0.116007 0.340268
O O13 0.225635 0.645627 0.898313
O O14 0.279232 0.494550 0.991520
O O15 0.350216 0.746203 0.357142
O O16 0.625863 0.813536 0.662351
#
# Coordination Sequence:
#
# PCOD9251591 Si02
#       8
#     4   4   4   4   4   4   4   4
#     4  11  24  44  70 101 135 186 228 287 351 409
#     4  12  25  44  70 101 142 186 226 286 350 412
#     4  11  21  43  70  96 139 181 227 295 336 401
#     4  12  24  43  68 102 139 180 229 283 351 411
#     4  12  22  45  73 105 133 181 236 294 339 408
#     4  11  23  43  73 104 134 178 242 290 338 402
#     4  12  25  45  66  99 151 180 223 291 355 418
#     4  11  21  47  70  96 138 176 238 288 328 407
#
# _framework density 21.541442
#
# number of rings (size 3 to 8) (size 9 to 14) (size 15 to 20)
#    0.000    0.500    7.500    2.625    0.000    2.000 
#    2.250    1.250    0.000    0.000    0.000    0.000 
#    0.000    0.000    0.000    0.000    0.000    0.000 
#
# Total GULP energy -178987.821702 kJ/mol
# GULP energy per Si atom -5593.369428 kJ/mol
# Density = 2.149241 g / cm^3
# Si number density = 21.541442 Si / 1000 Ang^3
#
#
#
# Elastic Constant Matrix: (Units=GPa)
#
#
# Indices 1 2 3 4 5 6 
#
# 1 44.3691 -1.8918 24.7148 0.0000 16.6943 0.0000
# 2 -1.8918 47.7177 -12.5227 0.0000 15.9273 0.0000
# 3 24.7148 -12.5227 84.1476 0.0000 21.5273 0.0000
# 4 0.0000 0.0000 0.0000 34.2935 0.0000 11.9941
# 5 16.6943 15.9273 21.5273 0.0000 33.8541 0.0000
# 6 0.0000 0.0000 0.0000 11.9941 0.0000 26.1814
#
#
#
# Elastic Compliance Matrix: (Units=1/GPa)
#
#
# Indices 1 2 3 4 5 6 
#
# 1 0.030778 0.004871 -0.004593 0.000000 -0.014548 0.000000
# 2 0.004871 0.031126 0.009032 0.000000 -0.022789 0.000000
# 3 -0.004593 0.009032 0.018015 0.000000 -0.013440 0.000000
# 4 0.000000 0.000000 0.000000 0.034724 0.000000 -0.015907
# 5 -0.014548 -0.022789 -0.013440 0.000000 0.055980 0.000000
# 6 0.000000 0.000000 0.000000 -0.015907 0.000000 0.045482
#
#
# Mechanical properties :
#
#
# Convention : Reuss Voigt Hill
#
# Bulk Modulus (GPa) = 10.14828 21.87055 16.00942
# Shear Modulus (GPa) = 21.70763 29.92808 25.81786
#
# Velocity S-wave (km/s) = 3.17790 3.73141 3.46572
# Velocity P-wave (km/s) = 4.26458 5.36091 4.84386
#
# Compressibility (1/GPa) = 0.09853887
#
# Stress axis : x y z
#
# Youngs Moduli (GPa) = 32.49040 32.12708 55.50859
#
# Poissons Ratio (x) = -0.15649 0.25495
# Poissons Ratio (y) = -0.15826 -0.50133
# Poissons Ratio (z) = 0.14923 -0.29016
#
# Static dielectric constant tensor:
#      x y z
#    x 1.761240 0.000000 0.034290 
#    y 0.000000 1.794510 0.000000 
#    z 0.034290 0.000000 1.778920 
# 
# From -- ./inp_files/45470.got.cif
#   From: 2010.05.17/outbox.cif.g08.bks.cpg/sg14_23_cif.got.tgz:45470.got - 2010.06.03 17:49:19.
