data_PCOD9251171
_publ_section_title
;
Structure prediction by ZEFSAII (Michael W. Deem and Ramdas Pophale) SiO2 
 PCOD9251171
Probable space group: P 21/C
;
_chemical_formula_sum "Si O2"
_cell_formula_units_Z 32
_cell_length_a 12.445544
_cell_length_b 11.810190
_cell_length_c 22.381327
_cell_angle_alpha 90.000000
_cell_angle_beta 30.251653
_cell_angle_gamma 90.000000
_cell_volume 1657.348408
_symmetry_space_group_name_H-M "P 21/C"
_symmetry_group_IT_number 14
_symmetry_cell_setting 'monoclinic'
loop_
_space_group_symop_operation_xyz
x,y,z
-x,1/2+y,1/2-z
-x,-y,-z
x,1/2-y,1/2+z
loop_
_atom_site_type_symbol
_atom_site_label
_atom_site_fract_x
_atom_site_fract_y
_atom_site_fract_z
Si Si1 0.939180 0.507573 0.631143
Si Si2 0.551448 0.827764 0.004487
Si Si3 0.177392 0.903131 0.410800
Si Si4 0.534137 0.533265 0.135725
Si Si5 0.155408 0.539113 0.650680
Si Si6 0.502165 0.202649 0.828076
Si Si7 0.303431 0.426337 0.069717
Si Si8 0.056991 0.330555 0.482899
O O1 0.697027 0.515551 0.770550
O O2 0.976724 0.588633 0.557098
O O3 0.096727 0.537153 0.608846
O O4 0.968626 0.383964 0.587217
O O5 0.317498 0.861266 0.092108
O O6 0.540320 0.827441 0.082304
O O7 0.635007 0.703956 0.947277
O O8 0.714570 0.922586 0.902102
O O9 0.300043 0.871718 0.290512
O O10 0.052329 0.786629 0.482203
O O11 0.355358 0.948501 0.371191
O O12 0.000000 0.000000 0.500000
O O13 0.485905 0.660457 0.182527
O O14 0.687411 0.552232 0.005758
O O15 0.929855 0.545188 0.793072
O O16 0.305424 0.176249 0.879039
O O17 0.500000 0.500000 0.000000
#
# Coordination Sequence:
#
# PCOD9251171 Si02
#       8
#     4   4   4   4   4   4   4   4
#     4  11  22  42  67  90 133 177 219 265 334 403
#     4  10  26  44  70  99 130 178 230 275 331 396
#     4  12  25  39  65 102 133 166 221 277 329 390
#     4  11  23  41  65  99 129 174 223 267 332 397
#     4  11  24  46  68  99 132 176 226 278 332 397
#     4  11  22  42  67  94 131 172 221 267 325 398
#     4  11  25  42  70  96 134 178 222 276 332 396
#     4  11  23  40  65  94 130 177 210 272 330 392
#
# _framework density 19.307949000000001
#
# number of rings (size 3 to 8) (size 9 to 14) (size 15 to 20)
#    0.000    1.000    6.250    0.000    3.500    1.000 
#    0.000    0.000    0.000    0.000    0.000    0.000 
#    0.000    0.000    0.000    0.000    0.000    0.000 
#
# Total GULP energy -178458.166903 kJ/mol
# GULP energy per Si atom -5576.817716 kJ/mol
# Density = 1.926400 g / cm^3
# Si number density = 19.307949 Si / 1000 Ang^3
#
#
#
# Elastic Constant Matrix: (Units=GPa)
#
#
# Indices 1 2 3 4 5 6 
#
# 1 94.6035 37.4486 37.0429 0.0000 -9.9003 0.0000
# 2 37.4486 112.7991 53.9617 0.0000 -2.6474 0.0000
# 3 37.0429 53.9617 129.1229 0.0000 -13.3861 0.0000
# 4 0.0000 0.0000 0.0000 28.1297 0.0000 -5.6510
# 5 -9.9003 -2.6474 -13.3861 0.0000 29.3913 0.0000
# 6 0.0000 0.0000 0.0000 -5.6510 0.0000 30.3924
#
#
#
# Elastic Compliance Matrix: (Units=1/GPa)
#
#
# Indices 1 2 3 4 5 6 
#
# 1 0.012990 -0.003265 -0.002035 0.000000 0.003155 0.000000
# 2 -0.003265 0.011939 -0.004256 0.000000 -0.001963 0.000000
# 3 -0.002035 -0.004256 0.010492 0.000000 0.003710 0.000000
# 4 0.000000 0.000000 0.000000 0.036929 0.000000 0.006866
# 5 0.003155 -0.001963 0.003710 0.000000 0.036599 0.000000
# 6 0.000000 0.000000 0.000000 0.006866 0.000000 0.034180
#
#
# Mechanical properties :
#
#
# Convention : Reuss Voigt Hill
#
# Bulk Modulus (GPa) = 61.31916 65.93688 63.62802
# Shear Modulus (GPa) = 29.81913 31.45416 30.63664
#
# Velocity S-wave (km/s) = 3.93414 4.04056 3.98771
# Velocity P-wave (km/s) = 7.24321 7.48281 7.36399
#
# Compressibility (1/GPa) = 0.01630812
#
# Stress axis : x y z
#
# Youngs Moduli (GPa) = 76.98326 83.75611 95.31300
#
# Poissons Ratio (x) = 0.27346 0.19397
# Poissons Ratio (y) = 0.25135 0.40569
# Poissons Ratio (z) = 0.15666 0.35650
#
# Static dielectric constant tensor:
#      x y z
#    x 1.658990 0.000000 -0.009090 
#    y 0.000000 1.665970 0.000000 
#    z -0.009090 0.000000 1.706020 
# 
# From -- ./inp_files/67394.got.cif
#   From: 2010.05.17/outbox.cif.g08.bks.cpg/sg14_34_cif.got.tgz:67394.got - 2010.06.03 17:49:19.
