data_PCOD9251721
_publ_section_title
;
Structure prediction by ZEFSAII (Michael W. Deem and Ramdas Pophale) SiO2 
 PCOD9251721
Probable space group: P 21/C
;
_chemical_formula_sum "Si O2"
_cell_formula_units_Z 20
_cell_length_a 14.142661
_cell_length_b 4.790659
_cell_length_c 17.972008
_cell_angle_alpha 90.000000
_cell_angle_beta 141.899273
_cell_angle_gamma 90.000000
_cell_volume 751.346792
_symmetry_space_group_name_H-M "P 21/C"
_symmetry_group_IT_number 14
_symmetry_cell_setting 'monoclinic'
loop_
_space_group_symop_operation_xyz
x,y,z
-x,1/2+y,1/2-z
-x,-y,-z
x,1/2-y,1/2+z
loop_
_atom_site_type_symbol
_atom_site_label
_atom_site_fract_x
_atom_site_fract_y
_atom_site_fract_z
Si Si1 0.263885 0.064672 0.672854
Si Si2 0.923599 0.607573 0.673599
Si Si3 0.418177 0.564672 0.827146
Si Si4 0.973700 0.207317 0.053946
Si Si5 0.365807 0.707317 0.446054
O O1 0.404409 0.867991 0.783521
O O2 0.168367 0.914918 0.549274
O O3 0.337367 0.367992 0.716479
O O4 0.235001 0.992318 0.894145
O O5 0.946711 0.492318 0.605855
O O6 0.949894 0.934708 0.699894
O O7 0.870785 0.607364 0.848363
O O8 0.325940 0.607364 0.848363
O O9 0.569818 0.414917 0.950726
O O10 0.000000 0.000000 0.000000
O O11 0.500000 0.500000 0.500000
#
# Coordination Sequence:
#
# PCOD9251721 Si02
#       5
#     4   4   4   4   4
#     4  11  22  39  70  96 132 184 232 285 354 422
#     4  12  30  46  74 110 146 184 248 306 362 432
#     4  11  22  39  70  96 132 184 232 285 354 422
#     4  11  25  44  72 106 147 188 246 292 367 433
#     4  11  25  44  72 106 147 188 246 292 367 433
#
# _framework density 26.618865
#
# number of rings (size 3 to 8) (size 9 to 14) (size 15 to 20)
#    0.000    0.800    4.000    2.400   11.200    0.000 
#    0.000    2.000    0.000    0.000    0.000    0.000 
#    0.000    0.000    0.000    0.000    0.000    0.000 
#
# Total GULP energy -112000.325118 kJ/mol
# GULP energy per Si atom -5600.016256 kJ/mol
# Density = 2.655828 g / cm^3
# Si number density = 26.618865 Si / 1000 Ang^3
#
#
#
# Elastic Constant Matrix: (Units=GPa)
#
#
# Indices 1 2 3 4 5 6 
#
# 1 93.8361 4.8027 17.8458 0.0000 5.4130 0.0000
# 2 4.8027 135.0038 27.9840 0.0000 8.4695 0.0000
# 3 17.8458 27.9840 82.5553 0.0000 -9.5347 0.0000
# 4 0.0000 0.0000 0.0000 57.1641 0.0000 13.0889
# 5 5.4130 8.4695 -9.5347 0.0000 39.9415 0.0000
# 6 0.0000 0.0000 0.0000 13.0889 0.0000 21.3393
#
#
#
# Elastic Compliance Matrix: (Units=1/GPa)
#
#
# Indices 1 2 3 4 5 6 
#
# 1 0.011307 0.000324 -0.002817 0.000000 -0.002274 0.000000
# 2 0.000324 0.008207 -0.003145 0.000000 -0.002535 0.000000
# 3 -0.002817 -0.003145 0.014303 0.000000 0.004463 0.000000
# 4 0.000000 0.000000 0.000000 0.020352 0.000000 -0.012483
# 5 -0.002274 -0.002535 0.004463 0.000000 0.026948 0.000000
# 6 0.000000 0.000000 0.000000 -0.012483 0.000000 0.054519
#
#
# Mechanical properties :
#
#
# Convention : Reuss Voigt Hill
#
# Bulk Modulus (GPa) = 44.36011 45.85115 45.10563
# Shear Modulus (GPa) = 32.37846 41.07317 36.72581
#
# Velocity S-wave (km/s) = 3.49144 3.93238 3.71845
# Velocity P-wave (km/s) = 5.74061 6.15472 5.95127
#
# Compressibility (1/GPa) = 0.02254277
#
# Stress axis : x y z
#
# Youngs Moduli (GPa) = 88.43990 121.85439 69.91357
#
# Poissons Ratio (x) = -0.03951 0.19693
# Poissons Ratio (y) = -0.02868 0.21985
# Poissons Ratio (z) = 0.24911 0.38319
#
# Static dielectric constant tensor:
#      x y z
#    x 2.095830 0.000000 0.026750 
#    y 0.000000 2.020840 0.000000 
#    z 0.026750 0.000000 2.169040 
# 
# From -- ./inp_files/47875.got.cif
#   From: 2010.05.17/outbox.cif.g08.bks.cpg/sg14_24_cif.got.tgz:47875.got - 2010.06.03 17:49:19.
