data_PCOD9251267
_publ_section_title
;
Structure prediction by ZEFSAII (Michael W. Deem and Ramdas Pophale) SiO2 
 PCOD9251267
Probable space group: P 21/C
;
_chemical_formula_sum "Si O2"
_cell_formula_units_Z 20
_cell_length_a 9.498231
_cell_length_b 17.363586
_cell_length_c 5.683310
_cell_angle_alpha 90.000000
_cell_angle_beta 97.537401
_cell_angle_gamma 90.000000
_cell_volume 929.211647
_symmetry_space_group_name_H-M "P 21/C"
_symmetry_group_IT_number 14
_symmetry_cell_setting 'monoclinic'
loop_
_space_group_symop_operation_xyz
x,y,z
-x,1/2+y,1/2-z
-x,-y,-z
x,1/2-y,1/2+z
loop_
_atom_site_type_symbol
_atom_site_label
_atom_site_fract_x
_atom_site_fract_y
_atom_site_fract_z
Si Si1 0.081427 0.053080 0.821655
Si Si2 0.612209 0.205758 0.236902
Si Si3 0.824706 0.090531 0.460914
Si Si4 0.634313 0.603341 0.482075
Si Si5 0.570269 0.449435 0.214846
O O1 0.972809 0.099026 0.629662
O O2 0.160214 0.991397 0.668195
O O3 0.197397 0.111253 0.957245
O O4 0.000000 0.000000 0.000000
O O5 0.614566 0.250622 0.486347
O O6 0.753622 0.151709 0.270143
O O7 0.465502 0.155402 0.203872
O O8 0.707795 0.089159 0.640206
O O9 0.622618 0.513537 0.408620
O O10 0.547619 0.606681 0.706873
O O11 0.500000 0.500000 0.000000
#
# Coordination Sequence:
#
# PCOD9251267 Si02
#       5
#     4   4   4   4   4
#     4  11  23  38  69 109 137 165 206 304 371 401
#     4  12  28  46  70  93 136 197 243 275 319 415
#     4  11  23  41  66 104 137 172 230 279 361 414
#     4  11  22  38  65 101 135 169 231 284 343 404
#     4  11  18  35  69  99 131 168 214 302 352 381
#
# _framework density 21.523620999999999
#
# number of rings (size 3 to 8) (size 9 to 14) (size 15 to 20)
#    0.000    0.800    6.000    2.400    2.800    0.000 
#    0.000    2.000    0.000    0.000    0.000    0.000 
#    0.000    0.000    0.000    0.000    0.000    0.000 
#
# Total GULP energy -111488.231570 kJ/mol
# GULP energy per Si atom -5574.411578 kJ/mol
# Density = 2.147463 g / cm^3
# Si number density = 21.523621 Si / 1000 Ang^3
#
#
#
# Elastic Constant Matrix: (Units=GPa)
#
#
# Indices 1 2 3 4 5 6 
#
# 1 132.8532 43.0047 60.4258 0.0000 38.3937 0.0000
# 2 43.0047 61.9906 38.8765 0.0000 17.3019 0.0000
# 3 60.4258 38.8765 113.2128 0.0000 23.2070 0.0000
# 4 0.0000 0.0000 0.0000 53.5673 0.0000 11.4514
# 5 38.3937 17.3019 23.2070 0.0000 60.5991 0.0000
# 6 0.0000 0.0000 0.0000 11.4514 0.0000 28.2426
#
#
#
# Elastic Compliance Matrix: (Units=1/GPa)
#
#
# Indices 1 2 3 4 5 6 
#
# 1 0.012243 -0.004657 -0.003926 0.000000 -0.004924 0.000000
# 2 -0.004657 0.023011 -0.005073 0.000000 -0.001677 0.000000
# 3 -0.003926 -0.005073 0.012874 0.000000 -0.000994 0.000000
# 4 0.000000 0.000000 0.000000 0.020440 0.000000 -0.008288
# 5 -0.004924 -0.001677 -0.000994 0.000000 0.020481 0.000000
# 6 0.000000 0.000000 0.000000 -0.008288 0.000000 0.038768
#
#
# Mechanical properties :
#
#
# Convention : Reuss Voigt Hill
#
# Bulk Modulus (GPa) = 48.03694 65.85229 56.94461
# Shear Modulus (GPa) = 30.85118 39.53177 35.19148
#
# Velocity S-wave (km/s) = 3.79009 4.29029 4.04792
# Velocity P-wave (km/s) = 6.44358 7.42993 6.95426
#
# Compressibility (1/GPa) = 0.02081731
#
# Stress axis : x y z
#
# Youngs Moduli (GPa) = 81.67749 43.45671 77.67454
#
# Poissons Ratio (x) = 0.20238 0.30497
# Poissons Ratio (y) = 0.38037 0.39401
# Poissons Ratio (z) = 0.32068 0.22044
#
# Static dielectric constant tensor:
#      x y z
#    x 1.853910 0.000000 0.021630 
#    y 0.000000 1.860750 0.000000 
#    z 0.021630 0.000000 1.891880 
# 
# From -- ./inp_files/1209.got.cif
#   From: 2010.05.17/outbox.cif.g08.bks.cpg/sg14_1_cif.got.tgz:1209.got - 2010.06.03 17:49:19.
