data_PCOD9251365
_publ_section_title
;
Structure prediction by ZEFSAII (Michael W. Deem and Ramdas Pophale) SiO2 
 PCOD9251365
Probable space group: P 21/C
;
_chemical_formula_sum "Si O2"
_cell_formula_units_Z 24
_cell_length_a 8.757868
_cell_length_b 8.489790
_cell_length_c 29.857574
_cell_angle_alpha 90.000000
_cell_angle_beta 31.463940
_cell_angle_gamma 90.000000
_cell_volume 1158.746973
_symmetry_space_group_name_H-M "P 21/C"
_symmetry_group_IT_number 14
_symmetry_cell_setting 'monoclinic'
loop_
_space_group_symop_operation_xyz
x,y,z
-x,1/2+y,1/2-z
-x,-y,-z
x,1/2-y,1/2+z
loop_
_atom_site_type_symbol
_atom_site_label
_atom_site_fract_x
_atom_site_fract_y
_atom_site_fract_z
Si Si1 0.667374 0.329745 0.660240
Si Si2 0.770775 0.915305 0.205733
Si Si3 0.176856 0.410637 0.016135
Si Si4 0.660363 0.546460 0.591525
Si Si5 0.664626 0.889973 0.625321
Si Si6 0.569582 0.358308 0.447376
O O1 0.455777 0.226958 0.743689
O O2 0.800907 0.469144 0.656154
O O3 0.510423 0.407205 0.657074
O O4 0.919998 0.219483 0.577945
O O5 0.082202 0.844145 0.139588
O O6 0.609353 0.021967 0.283874
O O7 0.966562 0.563047 0.076283
O O8 0.309620 0.440386 0.933701
O O9 0.406918 0.314992 0.990474
O O10 0.636096 0.703950 0.626993
O O11 0.525425 0.577714 0.577284
O O12 0.000000 0.500000 0.500000
O O13 0.500000 0.500000 0.500000
#
# Coordination Sequence:
#
# PCOD9251365 Si02
#       6
#     4   4   4   4   4   4
#     4  11  21  40  62  92 123 169 212 256 331 386
#     4  11  23  37  65  93 129 165 215 279 316 388
#     4   9  18  37  64  87 124 163 209 254 321 387
#     4  11  20  37  65  91 122 174 211 255 326 404
#     4   9  19  35  61  93 122 166 213 259 314 388
#     4  11  21  38  64  92 130 166 216 266 324 384
#
# _framework density 20.712029000000001
#
# number of rings (size 3 to 8) (size 9 to 14) (size 15 to 20)
#    0.000    1.667    5.000    1.000    0.000    2.667 
#    0.000    0.000    7.333    4.000    0.000    0.000 
#    0.000    0.000    0.000    0.000    0.000    0.000 
#
# Total GULP energy -133653.504111 kJ/mol
# GULP energy per Si atom -5568.896005 kJ/mol
# Density = 2.066489 g / cm^3
# Si number density = 20.712029 Si / 1000 Ang^3
#
#
#
# Elastic Constant Matrix: (Units=GPa)
#
#
# Indices 1 2 3 4 5 6 
#
# 1 79.9290 37.5050 20.8161 0.0000 -4.3795 0.0000
# 2 37.5050 77.4544 15.9344 0.0000 -1.3266 0.0000
# 3 20.8161 15.9344 63.7188 0.0000 -4.3726 0.0000
# 4 0.0000 0.0000 0.0000 32.8332 0.0000 7.2511
# 5 -4.3795 -1.3266 -4.3726 0.0000 35.0977 0.0000
# 6 0.0000 0.0000 0.0000 7.2511 0.0000 39.5520
#
#
#
# Elastic Compliance Matrix: (Units=1/GPa)
#
#
# Indices 1 2 3 4 5 6 
#
# 1 0.017037 -0.007486 -0.003598 0.000000 0.001395 0.000000
# 2 -0.007486 0.016900 -0.001817 0.000000 -0.000522 0.000000
# 3 -0.003598 -0.001817 0.017437 0.000000 0.001655 0.000000
# 4 0.000000 0.000000 0.000000 0.031742 0.000000 -0.005819
# 5 0.001395 -0.000522 0.001655 0.000000 0.028852 0.000000
# 6 0.000000 0.000000 0.000000 -0.005819 0.000000 0.026350
#
#
# Mechanical properties :
#
#
# Convention : Reuss Voigt Hill
#
# Bulk Modulus (GPa) = 39.10240 41.06812 40.08526
# Shear Modulus (GPa) = 28.96123 31.28635 30.12379
#
# Velocity S-wave (km/s) = 3.74342 3.89078 3.81781
# Velocity P-wave (km/s) = 6.13223 6.32894 6.23136
#
# Compressibility (1/GPa) = 0.02557388
#
# Stress axis : x y z
#
# Youngs Moduli (GPa) = 58.69559 59.17054 57.34838
#
# Poissons Ratio (x) = 0.44293 0.20635
# Poissons Ratio (y) = 0.43937 0.10418
# Poissons Ratio (z) = 0.21119 0.10749
#
# Static dielectric constant tensor:
#      x y z
#    x 1.735320 0.000000 0.024540 
#    y 0.000000 1.800120 0.000000 
#    z 0.024540 0.000000 1.761890 
# 
# From -- ./inp_files/79437.got.cif
#   From: 2010.05.17/outbox.cif.g08.bks.cpg/sg14_40_cif.got.tgz:79437.got - 2010.06.03 17:49:19.
