data_PCOD9251911
_publ_section_title
;
Structure prediction by ZEFSAII (Michael W. Deem and Ramdas Pophale) SiO2 
 PCOD9251911
Probable space group: P 21/C
;
_chemical_formula_sum "Si O2"
_cell_formula_units_Z 20
_cell_length_a 5.731451
_cell_length_b 14.265804
_cell_length_c 12.652855
_cell_angle_alpha 90.000000
_cell_angle_beta 49.907941
_cell_angle_gamma 90.000000
_cell_volume 791.437927
_symmetry_space_group_name_H-M "P 21/C"
_symmetry_group_IT_number 14
_symmetry_cell_setting 'monoclinic'
loop_
_space_group_symop_operation_xyz
x,y,z
-x,1/2+y,1/2-z
-x,-y,-z
x,1/2-y,1/2+z
loop_
_atom_site_type_symbol
_atom_site_label
_atom_site_fract_x
_atom_site_fract_y
_atom_site_fract_z
Si Si1 0.248157 0.048051 0.352816
Si Si2 0.242013 0.920705 0.079877
Si Si3 0.027901 0.702795 0.468479
Si Si4 0.881548 0.089494 0.256659
Si Si5 0.595409 0.344854 0.261955
O O1 0.403561 0.956600 0.253314
O O2 0.515400 0.099253 0.343206
O O3 0.000000 0.000000 0.500000
O O4 0.046047 0.100402 0.321819
O O5 0.270066 0.839108 0.158650
O O6 0.958481 0.842592 0.874806
O O7 0.044940 0.017115 0.800356
O O8 0.500000 0.000000 0.000000
O O9 0.234434 0.626966 0.468243
O O10 0.205985 0.796211 0.386361
O O11 0.733511 0.702265 0.628912
#
# Coordination Sequence:
#
# PCOD9251911 Si02
#       5
#     4   4   4   4   4
#     4  11  25  46  72 107 142 188 247 303 362 441
#     4  11  22  47  74  99 142 195 254 297 370 453
#     4  12  25  45  69 105 145 188 247 307 377 445
#     4  11  23  44  77  98 137 197 243 296 360 445
#     4  11  27  43  68 106 144 190 238 309 381 438
#
# _framework density 25.270461999999998
#
# number of rings (size 3 to 8) (size 9 to 14) (size 15 to 20)
#    0.000    0.800    4.000    3.600    2.800    3.200 
#    0.000    0.000    0.000    0.000    0.000    0.000 
#    0.000    0.000    0.000    0.000    0.000    0.000 
#
# Total GULP energy -111734.722479 kJ/mol
# GULP energy per Si atom -5586.736124 kJ/mol
# Density = 2.521295 g / cm^3
# Si number density = 25.270462 Si / 1000 Ang^3
#
#
#
# Elastic Constant Matrix: (Units=GPa)
#
#
# Indices 1 2 3 4 5 6 
#
# 1 159.1708 31.4948 38.2740 0.0000 -3.4487 0.0000
# 2 31.4948 87.9702 11.4077 0.0000 2.2703 0.0000
# 3 38.2740 11.4077 98.2748 0.0000 -5.3483 0.0000
# 4 0.0000 0.0000 0.0000 47.9849 0.0000 6.5467
# 5 -3.4487 2.2703 -5.3483 0.0000 39.0914 0.0000
# 6 0.0000 0.0000 0.0000 6.5467 0.0000 29.2444
#
#
#
# Elastic Compliance Matrix: (Units=1/GPa)
#
#
# Indices 1 2 3 4 5 6 
#
# 1 0.007370 -0.002315 -0.002578 0.000000 0.000432 0.000000
# 2 -0.002315 0.012297 -0.000580 0.000000 -0.000998 0.000000
# 3 -0.002578 -0.000580 0.011321 0.000000 0.001355 0.000000
# 4 0.000000 0.000000 0.000000 0.021496 0.000000 -0.004812
# 5 0.000432 -0.000998 0.001355 0.000000 0.025863 0.000000
# 6 0.000000 0.000000 0.000000 -0.004812 0.000000 0.035272
#
#
# Mechanical properties :
#
#
# Convention : Reuss Voigt Hill
#
# Bulk Modulus (GPa) = 49.89742 56.41876 53.15809
# Shear Modulus (GPa) = 38.09637 40.88010 39.48824
#
# Velocity S-wave (km/s) = 3.88692 4.02643 3.95729
# Velocity P-wave (km/s) = 6.31921 6.63254 6.47777
#
# Compressibility (1/GPa) = 0.02004112
#
# Stress axis : x y z
#
# Youngs Moduli (GPa) = 135.68576 81.31797 88.33413
#
# Poissons Ratio (x) = 0.18828 0.22773
# Poissons Ratio (y) = 0.31417 0.05124
# Poissons Ratio (z) = 0.34980 0.04717
#
# Static dielectric constant tensor:
#      x y z
#    x 2.119530 0.000000 -0.062870 
#    y 0.000000 2.000100 0.000000 
#    z -0.062870 0.000000 1.990500 
# 
# From -- ./inp_files/37493.got.cif
#   From: 2010.05.17/outbox.cif.g08.bks.cpg/sg14_19_cif.got.tgz:37493.got - 2010.06.03 17:49:19.
