data_PCOD9251015
_publ_section_title
;
Structure prediction by ZEFSAII (Michael W. Deem and Ramdas Pophale) SiO2 
 PCOD9251015
Probable space group: P 21/C
;
_chemical_formula_sum "Si O2"
_cell_formula_units_Z 20
_cell_length_a 7.396636
_cell_length_b 11.967368
_cell_length_c 9.587421
_cell_angle_alpha 90.000000
_cell_angle_beta 93.170432
_cell_angle_gamma 90.000000
_cell_volume 847.362943
_symmetry_space_group_name_H-M "P 21/C"
_symmetry_group_IT_number 14
_symmetry_cell_setting 'monoclinic'
loop_
_space_group_symop_operation_xyz
x,y,z
-x,1/2+y,1/2-z
-x,-y,-z
x,1/2-y,1/2+z
loop_
_atom_site_type_symbol
_atom_site_label
_atom_site_fract_x
_atom_site_fract_y
_atom_site_fract_z
Si Si1 0.425359 0.615585 0.938194
Si Si2 0.592223 0.845395 0.992779
Si Si3 0.733093 0.446692 0.368297
Si Si4 0.965426 0.368356 0.992751
Si Si5 0.085147 0.318633 0.305420
O O1 0.350482 0.594673 0.780676
O O2 0.303342 0.421478 0.615117
O O3 0.249850 0.648839 0.021298
O O4 0.500000 0.500000 0.000000
O O5 0.564197 0.717423 0.950313
O O6 0.392385 0.605519 0.515079
O O7 0.716038 0.853763 0.136388
O O8 0.938059 0.402178 0.372429
O O9 0.043760 0.321321 0.140838
O O10 0.000000 0.500000 0.000000
O O11 0.050553 0.303327 0.868042
#
# Coordination Sequence:
#
# PCOD9251015 Si02
#       5
#     4   4   4   4   4
#     4  11  25  43  71 100 144 181 233 291 354 424
#     4  11  24  43  73  99 136 185 233 287 353 418
#     4  10  25  45  66 105 136 180 231 291 347 426
#     4  11  26  47  69 107 144 189 237 299 358 430
#     4  11  25  46  72 102 143 184 238 294 356 427
#
# _framework density 23.602637999999999
#
# number of rings (size 3 to 8) (size 9 to 14) (size 15 to 20)
#    0.000    1.200    2.000    1.800    8.400    4.800 
#    0.000    0.000    0.000    0.000    0.000    0.000 
#    0.000    0.000    0.000    0.000    0.000    0.000 
#
# Total GULP energy -112015.350646 kJ/mol
# GULP energy per Si atom -5600.767532 kJ/mol
# Density = 2.354892 g / cm^3
# Si number density = 23.602638 Si / 1000 Ang^3
#
#
#
# Elastic Constant Matrix: (Units=GPa)
#
#
# Indices 1 2 3 4 5 6 
#
# 1 109.0368 29.8966 0.6062 0.0000 4.3747 0.0000
# 2 29.8966 170.7352 31.9242 0.0000 3.4389 0.0000
# 3 0.6062 31.9242 73.8152 0.0000 6.5998 0.0000
# 4 0.0000 0.0000 0.0000 32.5040 0.0000 -1.1665
# 5 4.3747 3.4389 6.5998 0.0000 36.2790 0.0000
# 6 0.0000 0.0000 0.0000 -1.1665 0.0000 34.8412
#
#
#
# Elastic Compliance Matrix: (Units=1/GPa)
#
#
# Indices 1 2 3 4 5 6 
#
# 1 0.009714 -0.001830 0.000814 0.000000 -0.001146 0.000000
# 2 -0.001830 0.006718 -0.002900 0.000000 0.000112 0.000000
# 3 0.000814 -0.002900 0.015024 0.000000 -0.002556 0.000000
# 4 0.000000 0.000000 0.000000 0.030802 0.000000 0.001031
# 5 -0.001146 0.000112 -0.002556 0.000000 0.028157 0.000000
# 6 0.000000 0.000000 0.000000 0.001031 0.000000 0.028736
#
#
# Mechanical properties :
#
#
# Convention : Reuss Voigt Hill
#
# Bulk Modulus (GPa) = 42.33131 53.16016 47.74573
# Shear Modulus (GPa) = 37.07610 40.13551 38.60581
#
# Velocity S-wave (km/s) = 3.96769 4.12815 4.04871
# Velocity P-wave (km/s) = 6.24211 6.73008 6.49069
#
# Compressibility (1/GPa) = 0.02362318
#
# Stress axis : x y z
#
# Youngs Moduli (GPa) = 102.93896 148.86406 66.56234
#
# Poissons Ratio (x) = 0.27245 -0.05420
# Poissons Ratio (y) = 0.18840 0.19304
# Poissons Ratio (z) = -0.08382 0.43174
#
# Static dielectric constant tensor:
#      x y z
#    x 1.954160 0.000000 -0.042490 
#    y 0.000000 1.587190 0.000000 
#    z -0.042490 0.000000 1.858080 
# 
# From -- ./inp_files/7925.got.cif
#   From: 2010.05.17/outbox.cif.g08.bks.cpg/sg14_4_cif.got.tgz:7925.got - 2010.06.03 17:49:19.
