data_PCOD9251415
_publ_section_title
;
Structure prediction by ZEFSAII (Michael W. Deem and Ramdas Pophale) SiO2 
 PCOD9251415
Probable space group: P 21/C
;
_chemical_formula_sum "Si O2"
_cell_formula_units_Z 28
_cell_length_a 14.644442
_cell_length_b 7.936337
_cell_length_c 19.610169
_cell_angle_alpha 90.000000
_cell_angle_beta 33.800071
_cell_angle_gamma 90.000000
_cell_volume 1267.887460
_symmetry_space_group_name_H-M "P 21/C"
_symmetry_group_IT_number 14
_symmetry_cell_setting 'monoclinic'
loop_
_space_group_symop_operation_xyz
x,y,z
-x,1/2+y,1/2-z
-x,-y,-z
x,1/2-y,1/2+z
loop_
_atom_site_type_symbol
_atom_site_label
_atom_site_fract_x
_atom_site_fract_y
_atom_site_fract_z
Si Si1 0.913619 0.758437 0.780509
Si Si2 0.395543 0.471609 0.995389
Si Si3 0.993221 0.457430 0.648908
Si Si4 0.668359 0.529752 0.351566
Si Si5 0.494206 0.242042 0.156877
Si Si6 0.312535 0.497296 0.371407
Si Si7 0.296127 0.693260 0.253204
O O1 0.007199 0.828660 0.787561
O O2 0.815906 0.915071 0.808648
O O3 0.012637 0.647556 0.664790
O O4 0.771013 0.626461 0.889849
O O5 0.377238 0.644260 0.965191
O O6 0.515645 0.357209 0.875749
O O7 0.500000 0.500000 0.000000
O O8 0.149714 0.420162 0.504934
O O9 0.826491 0.431312 0.710771
O O10 0.500000 0.500000 0.500000
O O11 0.632491 0.682404 0.322147
O O12 0.718814 0.372922 0.273234
O O13 0.407325 0.358658 0.267388
O O14 0.573064 0.077563 0.141595
O O15 0.264742 0.654632 0.351695
#
# Coordination Sequence:
#
# PCOD9251415 Si02
#       7
#     4   4   4   4   4   4   4
#     4  12  25  42  69 101 138 174 225 278 347 394
#     4  11  20  42  71  97 129 175 225 280 329 387
#     4  12  27  44  65  99 142 176 218 283 342 403
#     4  12  22  41  71 103 130 168 229 286 327 390
#     4  11  24  41  71  98 131 175 233 274 332 398
#     4  11  26  45  65  96 139 180 226 273 333 408
#     4  11  23  44  66  96 134 181 220 271 333 399
#
# _framework density 22.083981000000001
#
# number of rings (size 3 to 8) (size 9 to 14) (size 15 to 20)
#    0.000    0.571    4.286    3.857    6.000    0.000 
#    0.000    1.429    0.000    0.000    0.000    0.000 
#    0.000    0.000    0.000    0.000    0.000    0.000 
#
# Total GULP energy -156620.126480 kJ/mol
# GULP energy per Si atom -5593.575946 kJ/mol
# Density = 2.203372 g / cm^3
# Si number density = 22.083981 Si / 1000 Ang^3
#
#
#
# Elastic Constant Matrix: (Units=GPa)
#
#
# Indices 1 2 3 4 5 6 
#
# 1 67.4933 -8.2504 3.2313 0.0000 1.2333 0.0000
# 2 -8.2504 64.3703 6.8689 0.0000 5.1597 0.0000
# 3 3.2313 6.8689 54.3977 0.0000 2.5209 0.0000
# 4 0.0000 0.0000 0.0000 40.1096 0.0000 9.1081
# 5 1.2333 5.1597 2.5209 0.0000 22.0037 0.0000
# 6 0.0000 0.0000 0.0000 9.1081 0.0000 58.5224
#
#
#
# Elastic Compliance Matrix: (Units=1/GPa)
#
#
# Indices 1 2 3 4 5 6 
#
# 1 0.015156 0.002160 -0.001116 0.000000 -0.001228 0.000000
# 2 0.002160 0.016325 -0.002017 0.000000 -0.003718 0.000000
# 3 -0.001116 -0.002017 0.018779 0.000000 -0.001616 0.000000
# 4 0.000000 0.000000 0.000000 0.025845 0.000000 -0.004022
# 5 -0.001228 -0.003718 -0.001616 0.000000 0.046573 0.000000
# 6 0.000000 0.000000 0.000000 -0.004022 0.000000 0.017713
#
#
# Mechanical properties :
#
#
# Convention : Reuss Voigt Hill
#
# Bulk Modulus (GPa) = 20.69807 21.10676 20.90241
# Shear Modulus (GPa) = 31.55705 36.42126 33.98916
#
# Velocity S-wave (km/s) = 3.78426 4.06546 3.92738
# Velocity P-wave (km/s) = 5.33731 5.62277 5.48190
#
# Compressibility (1/GPa) = 0.04831369
#
# Stress axis : x y z
#
# Youngs Moduli (GPa) = 65.97950 61.25471 53.25078
#
# Poissons Ratio (x) = -0.13232 0.05944
# Poissons Ratio (y) = -0.14252 0.10743
# Poissons Ratio (z) = 0.07364 0.12358
#
# Static dielectric constant tensor:
#      x y z
#    x 1.789330 0.000000 0.029860 
#    y 0.000000 1.845830 0.000000 
#    z 0.029860 0.000000 1.813520 
# 
# From -- ./inp_files/68320.got.cif
#   From: 2010.05.17/outbox.cif.g08.bks.cpg/sg14_35_cif.got.tgz:68320.got - 2010.06.03 17:49:19.
