data_PCOD9251954
_publ_section_title
;
Structure prediction by ZEFSAII (Michael W. Deem and Ramdas Pophale) SiO2 
 PCOD9251954
Probable space group: P 21/C
;
_chemical_formula_sum "Si O2"
_cell_formula_units_Z 26
_cell_length_a 25.042692
_cell_length_b 7.768996
_cell_length_c 11.357150
_cell_angle_alpha 90.000000
_cell_angle_beta 152.625242
_cell_angle_gamma 90.000000
_cell_volume 1015.996867
_symmetry_space_group_name_H-M "P 21/C"
_symmetry_group_IT_number 14
_symmetry_cell_setting 'monoclinic'
loop_
_space_group_symop_operation_xyz
x,y,z
-x,1/2+y,1/2-z
-x,-y,-z
x,1/2-y,1/2+z
loop_
_atom_site_type_symbol
_atom_site_label
_atom_site_fract_x
_atom_site_fract_y
_atom_site_fract_z
Si Si1 0.028850 0.274257 0.778160
Si Si2 0.626644 0.371541 0.254878
Si Si3 0.162695 0.574094 0.002373
Si Si4 0.731327 0.598474 0.251427
Si Si5 0.500000 0.500000 0.500000
Si Si6 0.607484 0.534698 0.462266
Si Si7 0.179022 0.618529 0.785849
O O1 0.099173 0.438686 0.961520
O O2 0.933333 0.220322 0.686855
O O3 0.945909 0.331264 0.508780
O O4 0.134029 0.146699 0.952907
O O5 0.664960 0.493028 0.221743
O O6 0.544783 0.204566 0.076749
O O7 0.582247 0.485928 0.278563
O O8 0.748928 0.283161 0.532550
O O9 0.174707 0.502661 0.894582
O O10 0.290445 0.600212 0.299136
O O11 0.664914 0.776088 0.090278
O O12 0.750092 0.484605 0.172402
O O13 0.513914 0.521862 0.382231
#
# Coordination Sequence:
#
# PCOD9251954 Si02
#       7
#     4   4   4   4   2   4   4
#     4  11  23  39  68 110 154 210 255 307 392 481
#     4  12  27  49  81 110 155 205 265 338 401 481
#     4  11  23  42  66 108 152 204 256 319 390 480
#     4  11  28  46  73 120 162 206 267 325 402 496
#     4  12  28  54  80 114 148 206 276 334 416 472
#     4  11  27  49  78 112 154 201 265 335 407 480
#     4  12  23  44  72 105 161 210 257 326 391 481
#
# _framework density 25.590629
#
# number of rings (size 3 to 8) (size 9 to 14) (size 15 to 20)
#    0.000    0.615    4.615    2.308    4.308    4.923 
#    0.000    0.000    0.000    0.000    0.000    0.000 
#    0.000    0.000    0.000    0.000    0.000    0.000 
#
# Total GULP energy -144865.446430 kJ/mol
# GULP energy per Si atom -5571.747940 kJ/mol
# Density = 2.553238 g / cm^3
# Si number density = 25.590629 Si / 1000 Ang^3
#
#
#
# Elastic Constant Matrix: (Units=GPa)
#
#
# Indices 1 2 3 4 5 6 
#
# 1 204.5005 71.3942 31.6714 0.0000 -5.3307 0.0000
# 2 71.3942 130.6502 35.9190 0.0000 -0.2383 0.0000
# 3 31.6714 35.9190 96.6425 0.0000 22.3468 0.0000
# 4 0.0000 0.0000 0.0000 45.1829 0.0000 -3.1921
# 5 -5.3307 -0.2383 22.3468 0.0000 30.6515 0.0000
# 6 0.0000 0.0000 0.0000 -3.1921 0.0000 50.0884
#
#
#
# Elastic Compliance Matrix: (Units=1/GPa)
#
#
# Indices 1 2 3 4 5 6 
#
# 1 0.006210 -0.003005 -0.001398 0.000000 0.002076 0.000000
# 2 -0.003005 0.010193 -0.003249 0.000000 0.001925 0.000000
# 3 -0.001398 -0.003249 0.014524 0.000000 -0.010857 0.000000
# 4 0.000000 0.000000 0.000000 0.022232 0.000000 0.001417
# 5 0.002076 0.001925 -0.010857 0.000000 0.040916 0.000000
# 6 0.000000 0.000000 0.000000 0.001417 0.000000 0.020055
#
#
# Mechanical properties :
#
#
# Convention : Reuss Voigt Hill
#
# Bulk Modulus (GPa) = 64.01155 78.86249 71.43702
# Shear Modulus (GPa) = 37.13580 44.70514 40.92047
#
# Velocity S-wave (km/s) = 3.81353 4.18417 4.00314
# Velocity P-wave (km/s) = 6.66773 7.36389 7.02444
#
# Compressibility (1/GPa) = 0.01562218
#
# Stress axis : x y z
#
# Youngs Moduli (GPa) = 161.03676 98.10788 68.85392
#
# Poissons Ratio (x) = 0.29483 0.09627
# Poissons Ratio (y) = 0.48394 0.22368
# Poissons Ratio (z) = 0.22515 0.31872
#
# Static dielectric constant tensor:
#      x y z
#    x 2.024800 0.000000 0.009610 
#    y 0.000000 2.144730 0.000000 
#    z 0.009610 0.000000 2.085590 
# 
# From -- ./inp_files/35807.got.cif
#   From: 2010.05.17/outbox.cif.g08.bks.cpg/sg14_18_cif.got.tgz:35807.got - 2010.06.03 17:49:19.
