data_PCOD9251626
_publ_section_title
;
Structure prediction by ZEFSAII (Michael W. Deem and Ramdas Pophale) SiO2 
 PCOD9251626
Probable space group: P 21/C
;
_chemical_formula_sum "Si O2"
_cell_formula_units_Z 20
_cell_length_a 7.346742
_cell_length_b 6.567416
_cell_length_c 21.192057
_cell_angle_alpha 90.000000
_cell_angle_beta 58.884135
_cell_angle_gamma 90.000000
_cell_volume 875.385026
_symmetry_space_group_name_H-M "P 21/C"
_symmetry_group_IT_number 14
_symmetry_cell_setting 'monoclinic'
loop_
_space_group_symop_operation_xyz
x,y,z
-x,1/2+y,1/2-z
-x,-y,-z
x,1/2-y,1/2+z
loop_
_atom_site_type_symbol
_atom_site_label
_atom_site_fract_x
_atom_site_fract_y
_atom_site_fract_z
Si Si1 0.833843 0.603009 0.717376
Si Si2 0.949416 0.377896 0.572966
Si Si3 0.742731 0.247069 0.318060
Si Si4 0.707318 0.916181 0.427544
Si Si5 0.469824 0.148447 0.153752
O O1 0.924612 0.544605 0.633361
O O2 0.715754 0.403689 0.764857
O O3 0.670368 0.784521 0.760659
O O4 0.037173 0.631152 0.726578
O O5 0.713048 0.284506 0.611991
O O6 0.000000 0.500000 0.500000
O O7 0.120665 0.203671 0.560708
O O8 0.553022 0.407558 0.353231
O O9 0.778560 0.111795 0.374102
O O10 0.636782 0.753905 0.387392
O O11 0.500000 0.000000 0.500000
#
# Coordination Sequence:
#
# PCOD9251626 Si02
#       5
#     4   4   4   4   4
#     4  11  23  43  73 106 138 186 246 297 361 437
#     4  12  28  47  71 110 150 196 239 302 372 440
#     4  11  21  45  75 100 139 189 243 300 367 426
#     4  11  26  47  71 102 143 192 241 298 366 439
#     4  11  26  46  75 104 144 193 242 307 360 434
#
# _framework density 22.847087999999999
#
# number of rings (size 3 to 8) (size 9 to 14) (size 15 to 20)
#    0.000    0.800    4.000    2.400    5.600    2.400 
#    3.600    0.000    0.000    0.000    0.000    0.000 
#    0.000    0.000    0.000    0.000    0.000    0.000 
#
# Total GULP energy -111766.589160 kJ/mol
# GULP energy per Si atom -5588.329458 kJ/mol
# Density = 2.279509 g / cm^3
# Si number density = 22.847088 Si / 1000 Ang^3
#
#
#
# Elastic Constant Matrix: (Units=GPa)
#
#
# Indices 1 2 3 4 5 6 
#
# 1 129.3496 45.4502 36.0927 0.0000 -20.6243 0.0000
# 2 45.4502 118.5138 54.4883 0.0000 7.0354 0.0000
# 3 36.0927 54.4883 138.5768 0.0000 -3.6531 0.0000
# 4 0.0000 0.0000 0.0000 35.6095 0.0000 -9.0693
# 5 -20.6243 7.0354 -3.6531 0.0000 31.8427 0.0000
# 6 0.0000 0.0000 0.0000 -9.0693 0.0000 21.1998
#
#
#
# Elastic Compliance Matrix: (Units=1/GPa)
#
#
# Indices 1 2 3 4 5 6 
#
# 1 0.010672 -0.004109 -0.000961 0.000000 0.007710 0.000000
# 2 -0.004109 0.012127 -0.003851 0.000000 -0.005782 0.000000
# 3 -0.000961 -0.003851 0.009014 0.000000 0.001263 0.000000
# 4 0.000000 0.000000 0.000000 0.031516 0.000000 0.013483
# 5 0.007710 -0.005782 0.001263 0.000000 0.037820 0.000000
# 6 0.000000 0.000000 0.000000 0.013483 0.000000 0.052938
#
#
# Mechanical properties :
#
#
# Convention : Reuss Voigt Hill
#
# Bulk Modulus (GPa) = 71.56810 73.16693 72.36751
# Shear Modulus (GPa) = 28.31486 34.42434 31.36960
#
# Velocity S-wave (km/s) = 3.52422 3.88587 3.70945
# Velocity P-wave (km/s) = 6.92481 7.22686 7.07744
#
# Compressibility (1/GPa) = 0.01397271
#
# Stress axis : x y z
#
# Youngs Moduli (GPa) = 93.70256 82.45929 110.94049
#
# Poissons Ratio (x) = 0.33880 0.10659
# Poissons Ratio (y) = 0.38499 0.42720
# Poissons Ratio (z) = 0.09003 0.31753
#
# Static dielectric constant tensor:
#      x y z
#    x 1.876790 0.000000 -0.017590 
#    y 0.000000 1.974410 0.000000 
#    z -0.017590 0.000000 1.947120 
# 
# From -- ./inp_files/71572.got.cif
#   From: 2010.05.17/outbox.cif.g08.bks.cpg/sg14_36_cif.got.tgz:71572.got - 2010.06.03 17:49:19.
