data_PCOD9251448
_publ_section_title
;
Structure prediction by ZEFSAII (Michael W. Deem and Ramdas Pophale) SiO2 
 PCOD9251448
Probable space group: P 21/C
;
_chemical_formula_sum "Si O2"
_cell_formula_units_Z 24
_cell_length_a 9.776648
_cell_length_b 23.740657
_cell_length_c 5.027798
_cell_angle_alpha 90.000000
_cell_angle_beta 71.526450
_cell_angle_gamma 90.000000
_cell_volume 1106.838222
_symmetry_space_group_name_H-M "P 21/C"
_symmetry_group_IT_number 14
_symmetry_cell_setting 'monoclinic'
loop_
_space_group_symop_operation_xyz
x,y,z
-x,1/2+y,1/2-z
-x,-y,-z
x,1/2-y,1/2+z
loop_
_atom_site_type_symbol
_atom_site_label
_atom_site_fract_x
_atom_site_fract_y
_atom_site_fract_z
Si Si1 0.229213 0.713032 0.659069
Si Si2 0.014442 0.862118 0.518357
Si Si3 0.741745 0.575659 0.235851
Si Si4 0.722116 0.385171 0.748619
Si Si5 0.451688 0.437975 0.135438
Si Si6 0.892100 0.471204 0.361229
O O1 0.263805 0.761657 0.425151
O O2 0.301059 0.658514 0.478128
O O3 0.063195 0.691803 0.813557
O O4 0.853283 0.873014 0.721216
O O5 0.134648 0.866923 0.676672
O O6 0.042004 0.916461 0.316238
O O7 0.616249 0.566948 0.530618
O O8 0.833285 0.517740 0.197621
O O9 0.672165 0.581539 0.991895
O O10 0.758260 0.445789 0.603367
O O11 0.586755 0.395895 0.019200
O O12 0.500000 0.500000 0.000000
O O13 0.000000 0.500000 0.500000
#
# Coordination Sequence:
#
# PCOD9251448 Si02
#       6
#     4   4   4   4   4   4
#     4  11  24  44  72  99 123 159 226 298 337 378
#     4  11  24  40  69  97 126 171 229 272 330 389
#     4  12  25  40  61  93 142 179 210 256 324 386
#     4  11  24  40  68  98 130 174 227 266 326 394
#     4  12  26  40  60  95 144 182 213 253 318 394
#     4  11  21  36  61  97 136 177 219 264 309 393
#
# _framework density 21.683387
#
# number of rings (size 3 to 8) (size 9 to 14) (size 15 to 20)
#    0.000    0.667    5.000    3.000    7.000    0.000 
#    0.000    0.000    0.000    6.000    0.000    0.000 
#    0.000    0.000    0.000    0.000    0.000    0.000 
#
# Total GULP energy -134009.776227 kJ/mol
# GULP energy per Si atom -5583.740676 kJ/mol
# Density = 2.163403 g / cm^3
# Si number density = 21.683387 Si / 1000 Ang^3
#
#
#
# Elastic Constant Matrix: (Units=GPa)
#
#
# Indices 1 2 3 4 5 6 
#
# 1 58.7965 1.8287 -6.7581 0.0000 4.2459 0.0000
# 2 1.8287 27.5164 2.9084 0.0000 -0.6277 0.0000
# 3 -6.7581 2.9084 73.4686 0.0000 -1.6466 0.0000
# 4 0.0000 0.0000 0.0000 49.7047 0.0000 0.2265
# 5 4.2459 -0.6277 -1.6466 0.0000 41.8467 0.0000
# 6 0.0000 0.0000 0.0000 0.2265 0.0000 12.2522
#
#
#
# Elastic Compliance Matrix: (Units=1/GPa)
#
#
# Indices 1 2 3 4 5 6 
#
# 1 0.017360 -0.001363 0.001612 0.000000 -0.001718 0.000000
# 2 -0.001363 0.036612 -0.001561 0.000000 0.000626 0.000000
# 3 0.001612 -0.001561 0.013829 0.000000 0.000357 0.000000
# 4 0.000000 0.000000 0.000000 0.020121 0.000000 -0.000372
# 5 -0.001718 0.000626 0.000357 0.000000 0.024095 0.000000
# 6 0.000000 0.000000 0.000000 -0.000372 0.000000 0.081625
#
#
# Mechanical properties :
#
#
# Convention : Reuss Voigt Hill
#
# Bulk Modulus (GPa) = 15.34275 17.30437 16.32356
# Shear Modulus (GPa) = 22.93685 31.54756 27.24221
#
# Velocity S-wave (km/s) = 3.25592 3.81848 3.54837
# Velocity P-wave (km/s) = 4.60716 5.23821 4.93278
#
# Compressibility (1/GPa) = 0.06517737
#
# Stress axis : x y z
#
# Youngs Moduli (GPa) = 57.60492 27.31363 72.30991
#
# Poissons Ratio (x) = 0.03724 -0.11659
# Poissons Ratio (y) = 0.07853 0.11286
# Poissons Ratio (z) = -0.09288 0.04263
#
# Static dielectric constant tensor:
#      x y z
#    x 1.852220 0.000000 -0.057380 
#    y 0.000000 1.822190 0.000000 
#    z -0.057380 0.000000 1.871820 
# 
# From -- ./inp_files/1600.got.cif
#   From: 2010.05.17/outbox.cif.g08.bks.cpg/sg14_1_cif.got.tgz:1600.got - 2010.06.03 17:49:19.
