data_PCOD9251932
_publ_section_title
;
Structure prediction by ZEFSAII (Michael W. Deem and Ramdas Pophale) SiO2 
 PCOD9251932
Probable space group: P 21/C
;
_chemical_formula_sum "Si O2"
_cell_formula_units_Z 28
_cell_length_a 14.281753
_cell_length_b 5.632458
_cell_length_c 19.766111
_cell_angle_alpha 90.000000
_cell_angle_beta 121.739189
_cell_angle_gamma 90.000000
_cell_volume 1352.229048
_symmetry_space_group_name_H-M "P 21/C"
_symmetry_group_IT_number 14
_symmetry_cell_setting 'monoclinic'
loop_
_space_group_symop_operation_xyz
x,y,z
-x,1/2+y,1/2-z
-x,-y,-z
x,1/2-y,1/2+z
loop_
_atom_site_type_symbol
_atom_site_label
_atom_site_fract_x
_atom_site_fract_y
_atom_site_fract_z
Si Si1 0.261019 0.468542 0.386174
Si Si2 0.332999 0.793760 0.145209
Si Si3 0.431110 0.388913 0.789934
Si Si4 0.849094 0.483525 0.516519
Si Si5 0.243002 0.486694 0.227918
Si Si6 0.385355 0.541309 0.918915
Si Si7 0.933320 0.706330 0.937375
O O1 0.177210 0.462219 0.416537
O O2 0.211239 0.524797 0.293391
O O3 0.316477 0.204478 0.405260
O O4 0.337677 0.704038 0.425027
O O5 0.437990 0.640526 0.162990
O O6 0.263420 0.695976 0.182307
O O7 0.390758 0.021413 0.201470
O O8 0.249539 0.826657 0.052071
O O9 0.359587 0.152317 0.775008
O O10 0.402470 0.552327 0.843841
O O11 0.852672 0.700170 0.465406
O O12 0.970194 0.376948 0.552441
O O13 0.144709 0.345822 0.155132
O O14 0.500000 0.500000 0.000000
O O15 0.000000 0.500000 0.000000
#
# Coordination Sequence:
#
# PCOD9251932 Si02
#       7
#     4   4   4   4   4   4   4
#     4  11  26  45  70 100 145 181 233 289 353 416
#     4  12  21  39  66  96 138 174 233 278 338 416
#     4  11  23  37  65  98 134 180 229 272 346 409
#     4  11  26  44  69 104 130 182 238 289 350 418
#     4  11  23  44  65  98 138 178 224 292 344 415
#     4  11  24  43  67 101 145 189 228 283 349 418
#     4  11  24  45  71  94 133 178 233 293 348 411
#
# _framework density 20.706551000000001
#
# number of rings (size 3 to 8) (size 9 to 14) (size 15 to 20)
#    0.000    0.857    5.714    1.286    2.000    3.429 
#    2.571    0.000    0.000    0.000    0.000    0.000 
#    0.000    0.000    0.000    0.000    0.000    0.000 
#
# Total GULP energy -156115.245848 kJ/mol
# GULP energy per Si atom -5575.544495 kJ/mol
# Density = 2.065942 g / cm^3
# Si number density = 20.706551 Si / 1000 Ang^3
#
#
#
# Elastic Constant Matrix: (Units=GPa)
#
#
# Indices 1 2 3 4 5 6 
#
# 1 113.7806 19.7837 58.7027 0.0000 -21.8597 0.0000
# 2 19.7837 43.5565 5.3897 0.0000 -0.1759 0.0000
# 3 58.7027 5.3897 111.6142 0.0000 -15.7583 0.0000
# 4 0.0000 0.0000 0.0000 30.2566 0.0000 0.2357
# 5 -21.8597 -0.1759 -15.7583 0.0000 39.2064 0.0000
# 6 0.0000 0.0000 0.0000 0.2357 0.0000 14.2487
#
#
#
# Elastic Compliance Matrix: (Units=1/GPa)
#
#
# Indices 1 2 3 4 5 6 
#
# 1 0.014061 -0.005575 -0.006385 0.000000 0.005248 0.000000
# 2 -0.005575 0.025312 0.001365 0.000000 -0.002446 0.000000
# 3 -0.006385 0.001365 0.012457 0.000000 0.001453 0.000000
# 4 0.000000 0.000000 0.000000 0.033055 0.000000 -0.000547
# 5 0.005248 -0.002446 0.001453 0.000000 0.029005 0.000000
# 6 0.000000 0.000000 0.000000 -0.000547 0.000000 0.070191
#
#
# Mechanical properties :
#
#
# Convention : Reuss Voigt Hill
#
# Bulk Modulus (GPa) = 32.63863 48.52263 40.58063
# Shear Modulus (GPa) = 23.20344 29.08066 26.14205
#
# Velocity S-wave (km/s) = 3.35114 3.75162 3.55702
# Velocity P-wave (km/s) = 5.54709 6.50004 6.04238
#
# Compressibility (1/GPa) = 0.03063854
#
# Stress axis : x y z
#
# Youngs Moduli (GPa) = 71.11996 39.50653 80.27741
#
# Poissons Ratio (x) = 0.22026 0.51257
# Poissons Ratio (y) = 0.39651 -0.10954
# Poissons Ratio (z) = 0.45410 -0.05391
#
# Static dielectric constant tensor:
#      x y z
#    x 1.684460 0.000000 -0.054250 
#    y 0.000000 1.889560 0.000000 
#    z -0.054250 0.000000 1.685110 
# 
# From -- ./inp_files/58664.got.cif
#   From: 2010.05.17/outbox.cif.g08.bks.cpg/sg14_30_cif.got.tgz:58664.got - 2010.06.03 17:49:19.
