data_PCOD9251306
_publ_section_title
;
Structure prediction by ZEFSAII (Michael W. Deem and Ramdas Pophale) SiO2 
 PCOD9251306
Probable space group: P 21/C
;
_chemical_formula_sum "Si O2"
_cell_formula_units_Z 32
_cell_length_a 17.218426
_cell_length_b 10.694502
_cell_length_c 14.563019
_cell_angle_alpha 90.000000
_cell_angle_beta 148.714804
_cell_angle_gamma 90.000000
_cell_volume 1392.587039
_symmetry_space_group_name_H-M "P 21/C"
_symmetry_group_IT_number 14
_symmetry_cell_setting 'monoclinic'
loop_
_space_group_symop_operation_xyz
x,y,z
-x,1/2+y,1/2-z
-x,-y,-z
x,1/2-y,1/2+z
loop_
_atom_site_type_symbol
_atom_site_label
_atom_site_fract_x
_atom_site_fract_y
_atom_site_fract_z
Si Si1 0.844080 0.629795 0.369127
Si Si2 0.838534 0.803181 0.671034
Si Si3 0.140286 0.931277 0.966598
Si Si4 0.063442 0.453525 0.209047
Si Si5 0.657165 0.821863 0.299570
Si Si6 0.282696 0.592434 0.185471
Si Si7 0.846925 0.276900 0.782337
Si Si8 0.650677 0.250328 0.417873
O O1 0.797425 0.612525 0.216416
O O2 0.848384 0.497917 0.425201
O O3 0.729761 0.717108 0.308851
O O4 0.004384 0.702252 0.537918
O O5 0.826011 0.662002 0.697307
O O6 0.759272 0.832198 0.495410
O O7 0.015796 0.823861 0.836922
O O8 0.077296 0.032924 0.832276
O O9 0.289413 0.874151 0.074442
O O10 0.107562 0.583394 0.206299
O O11 0.894167 0.427976 0.010827
O O12 0.499037 0.780271 0.179506
O O13 0.652677 0.952936 0.240176
O O14 0.273958 0.692301 0.259801
O O15 0.359393 0.649633 0.172825
O O16 0.771509 0.214557 0.617520
#
# Coordination Sequence:
#
# PCOD9251306 Si02
#       8
#     4   4   4   4   4   4   4   4
#     4  12  23  40  67  98 126 159 216 270 317 372
#     4  12  23  40  66  96 125 164 210 271 321 368
#     4  11  22  40  62  93 129 162 207 261 320 374
#     4  11  19  38  67  96 124 154 212 274 310 363
#     4  12  27  42  63  96 130 174 211 256 321 380
#     4  12  22  43  70  92 128 164 218 266 310 379
#     4  11  23  41  72  99 118 167 220 267 315 366
#     4  11  27  43  62  93 134 173 207 255 321 386
#
# _framework density 22.978815000000001
#
# number of rings (size 3 to 8) (size 9 to 14) (size 15 to 20)
#    0.000    0.500    6.250    3.000    1.750    1.500 
#    0.000    0.625    0.000    0.000    0.000    0.000 
#    0.000    0.000    0.000    0.000    0.000    0.000 
#
# Total GULP energy -178978.802762 kJ/mol
# GULP energy per Si atom -5593.087586 kJ/mol
# Density = 2.292651 g / cm^3
# Si number density = 22.978815 Si / 1000 Ang^3
#
#
#
# Elastic Constant Matrix: (Units=GPa)
#
#
# Indices 1 2 3 4 5 6 
#
# 1 122.4510 12.4109 24.6267 0.0000 4.9089 0.0000
# 2 12.4109 59.4945 3.8675 0.0000 8.6127 0.0000
# 3 24.6267 3.8675 10.9363 0.0000 7.0121 0.0000
# 4 0.0000 0.0000 0.0000 12.0759 0.0000 -9.6761
# 5 4.9089 8.6127 7.0121 0.0000 30.0671 0.0000
# 6 0.0000 0.0000 0.0000 -9.6761 0.0000 40.6335
#
#
#
# Elastic Compliance Matrix: (Units=1/GPa)
#
#
# Indices 1 2 3 4 5 6 
#
# 1 0.016217 -0.001807 -0.040582 0.000000 0.007334 0.000000
# 2 -0.001807 0.017852 0.000994 0.000000 -0.005050 0.000000
# 3 -0.040582 0.000994 0.209774 0.000000 -0.042581 0.000000
# 4 0.000000 0.000000 0.000000 0.102336 0.000000 0.024369
# 5 0.007334 -0.005050 -0.042581 0.000000 0.043439 0.000000
# 6 0.000000 0.000000 0.000000 0.024369 0.000000 0.030413
#
#
# Mechanical properties :
#
#
# Convention : Reuss Voigt Hill
#
# Bulk Modulus (GPa) = 6.20918 30.52134 18.36526
# Shear Modulus (GPa) = 8.98463 26.68708 17.83586
#
# Velocity S-wave (km/s) = 1.97951 3.41160 2.78904
# Velocity P-wave (km/s) = 2.81649 5.36935 4.28733
#
# Compressibility (1/GPa) = 0.16105191
#
# Stress axis : x y z
#
# Youngs Moduli (GPa) = 61.66236 56.01709 4.76704
#
# Poissons Ratio (x) = 0.10121 0.19346
# Poissons Ratio (y) = 0.11141 -0.00474
# Poissons Ratio (z) = 2.50240 -0.05566
#
# Static dielectric constant tensor:
#      x y z
#    x 1.879520 0.000000 -0.047920 
#    y 0.000000 1.908230 0.000000 
#    z -0.047920 0.000000 1.873020 
# 
# From -- ./inp_files/49018.got.cif
#   From: 2010.05.17/outbox.cif.g08.bks.cpg/sg14_25_cif.got.tgz:49018.got - 2010.06.03 17:49:19.
