data_PCOD9251004
_publ_section_title
;
Structure prediction by ZEFSAII (Michael W. Deem and Ramdas Pophale) SiO2 
 PCOD9251004
Probable space group: P 21/C
;
_chemical_formula_sum "Si O2"
_cell_formula_units_Z 28
_cell_length_a 11.760126
_cell_length_b 9.376987
_cell_length_c 17.942554
_cell_angle_alpha 90.000000
_cell_angle_beta 34.791605
_cell_angle_gamma 90.000000
_cell_volume 1128.979816
_symmetry_space_group_name_H-M "P 21/C"
_symmetry_group_IT_number 14
_symmetry_cell_setting 'monoclinic'
loop_
_space_group_symop_operation_xyz
x,y,z
-x,1/2+y,1/2-z
-x,-y,-z
x,1/2-y,1/2+z
loop_
_atom_site_type_symbol
_atom_site_label
_atom_site_fract_x
_atom_site_fract_y
_atom_site_fract_z
Si Si1 0.079934 0.811782 0.365823
Si Si2 0.165939 0.927852 0.698245
Si Si3 0.165550 0.417611 0.741084
Si Si4 0.613418 0.670989 0.105519
Si Si5 0.968521 0.184311 0.952467
Si Si6 0.554931 0.809261 0.460586
Si Si7 0.673891 0.963898 0.149804
O O1 0.849210 0.858995 0.483857
O O2 0.117213 0.768865 0.430004
O O3 0.110995 0.675188 0.295976
O O4 0.203788 0.944445 0.269771
O O5 0.330201 0.844916 0.559444
O O6 0.970250 0.960190 0.756222
O O7 0.287111 0.071370 0.652018
O O8 0.040277 0.299148 0.854409
O O9 0.365748 0.341226 0.607871
O O10 0.486885 0.555166 0.218524
O O11 0.587111 0.826858 0.155343
O O12 0.559438 0.677167 0.047733
O O13 0.160300 0.100540 0.882668
O O14 0.799486 0.067082 0.026579
#
# Coordination Sequence:
#
# PCOD9251004 Si02
#       7
#     4   4   4   4   4   4   4
#     4  11  24  46  69 101 148 181 242 299 351 418
#     4  11  24  46  70  99 144 191 238 290 361 430
#     4  12  24  43  73 105 140 192 240 296 352 424
#     4  11  23  45  70 109 138 188 238 299 352 429
#     4  10  25  45  70  99 143 195 234 295 362 422
#     4  11  26  43  75  99 144 189 240 292 366 422
#     4  10  25  44  72  99 140 186 241 286 367 417
#
# _framework density 24.801151999999998
#
# number of rings (size 3 to 8) (size 9 to 14) (size 15 to 20)
#    0.000    1.143    2.857    1.286   12.000    1.714 
#    7.714    0.000    0.000    0.000    0.000    0.000 
#    0.000    0.000    0.000    0.000    0.000    0.000 
#
# Total GULP energy -157011.585153 kJ/mol
# GULP energy per Si atom -5607.556613 kJ/mol
# Density = 2.474470 g / cm^3
# Si number density = 24.801152 Si / 1000 Ang^3
#
#
#
# Elastic Constant Matrix: (Units=GPa)
#
#
# Indices 1 2 3 4 5 6 
#
# 1 30.0063 19.5313 16.8181 0.0000 -3.2341 0.0000
# 2 19.5313 127.6731 56.4238 0.0000 18.5372 0.0000
# 3 16.8181 56.4238 76.0818 0.0000 9.3100 0.0000
# 4 0.0000 0.0000 0.0000 67.9843 0.0000 -0.6674
# 5 -3.2341 18.5372 9.3100 0.0000 42.8244 0.0000
# 6 0.0000 0.0000 0.0000 -0.6674 0.0000 23.8994
#
#
#
# Elastic Compliance Matrix: (Units=1/GPa)
#
#
# Indices 1 2 3 4 5 6 
#
# 1 0.040429 -0.004179 -0.006609 0.000000 0.006299 0.000000
# 2 -0.004179 0.012541 -0.007884 0.000000 -0.004030 0.000000
# 3 -0.006609 -0.007884 0.020644 0.000000 -0.001574 0.000000
# 4 0.000000 0.000000 0.000000 0.014713 0.000000 0.000411
# 5 0.006299 -0.004030 -0.001574 0.000000 0.025914 0.000000
# 6 0.000000 0.000000 0.000000 0.000411 0.000000 0.041853
#
#
# Mechanical properties :
#
#
# Convention : Reuss Voigt Hill
#
# Bulk Modulus (GPa) = 27.56955 46.58972 37.07963
# Shear Modulus (GPa) = 24.32754 36.34081 30.33418
#
# Velocity S-wave (km/s) = 3.13534 3.83206 3.50107
# Velocity P-wave (km/s) = 4.92417 6.19723 5.59701
#
# Compressibility (1/GPa) = 0.03627190
#
# Stress axis : x y z
#
# Youngs Moduli (GPa) = 24.73453 79.73774 48.43992
#
# Poissons Ratio (x) = 0.33320 0.32013
# Poissons Ratio (y) = 0.10336 0.38189
# Poissons Ratio (z) = 0.16346 0.62864
#
# Static dielectric constant tensor:
#      x y z
#    x 1.911040 0.000000 -0.011100 
#    y 0.000000 1.957880 0.000000 
#    z -0.011100 0.000000 1.994980 
# 
# From -- ./inp_files/68162.got.cif
#   From: 2010.05.17/outbox.cif.g08.bks.cpg/sg14_35_cif.got.tgz:68162.got - 2010.06.03 17:49:19.
