data_PCOD9251813
_publ_section_title
;
Structure prediction by ZEFSAII (Michael W. Deem and Ramdas Pophale) SiO2 
 PCOD9251813
Probable space group: P 21/C
;
_chemical_formula_sum "Si O2"
_cell_formula_units_Z 26
_cell_length_a 11.290381
_cell_length_b 7.504399
_cell_length_c 26.248928
_cell_angle_alpha 90.000000
_cell_angle_beta 152.620264
_cell_angle_gamma 90.000000
_cell_volume 1022.788998
_symmetry_space_group_name_H-M "P 21/C"
_symmetry_group_IT_number 14
_symmetry_cell_setting 'monoclinic'
loop_
_space_group_symop_operation_xyz
x,y,z
-x,1/2+y,1/2-z
-x,-y,-z
x,1/2-y,1/2+z
loop_
_atom_site_type_symbol
_atom_site_label
_atom_site_fract_x
_atom_site_fract_y
_atom_site_fract_z
Si Si1 0.895750 0.787016 0.768385
Si Si2 0.918579 0.211735 0.774185
Si Si3 0.066648 0.506631 0.908604
Si Si4 0.367485 0.282708 0.093598
Si Si5 0.000000 0.500000 0.500000
Si Si6 0.542159 0.522658 0.771512
Si Si7 0.373250 0.712166 0.618446
O O1 0.609060 0.708121 0.670535
O O2 0.966721 0.744971 0.737555
O O3 0.080891 0.675726 0.876954
O O4 0.910129 0.999856 0.782428
O O5 0.622407 0.280077 0.662285
O O6 0.064317 0.332409 0.871248
O O7 0.798941 0.515882 0.836500
O O8 0.279446 0.467323 0.032759
O O9 0.129751 0.150653 0.005697
O O10 0.461228 0.327338 0.186488
O O11 0.914717 0.319934 0.507750
O O12 0.328144 0.544965 0.645222
O O13 0.538670 0.353371 0.806416
#
# Coordination Sequence:
#
# PCOD9251813 Si02
#       7
#     4   4   4   4   2   4   4
#     4  11  25  47  79  98 151 199 255 303 376 438
#     4  12  25  51  74 106 147 205 251 312 370 451
#     4  11  25  45  72 110 143 195 247 315 369 451
#     4  12  26  44  74 107 152 191 247 307 382 453
#     4  12  26  40  70 114 146 186 244 306 372 460
#     4  11  22  43  67 104 143 188 231 301 378 443
#     4  11  23  42  71 102 141 195 238 307 376 448
#
# _framework density 25.420691000000001
#
# number of rings (size 3 to 8) (size 9 to 14) (size 15 to 20)
#    0.000    0.615    4.615    4.154    0.000    3.077 
#    0.000    0.769    0.000    0.000    0.000    0.000 
#    0.000    0.000    0.000    0.000    0.000    0.000 
#
# Total GULP energy -145150.523264 kJ/mol
# GULP energy per Si atom -5582.712433 kJ/mol
# Density = 2.536283 g / cm^3
# Si number density = 25.420691 Si / 1000 Ang^3
#
#
#
# Elastic Constant Matrix: (Units=GPa)
#
#
# Indices 1 2 3 4 5 6 
#
# 1 217.3268 38.7188 44.4524 0.0000 -2.9658 0.0000
# 2 38.7188 149.2543 24.8568 0.0000 1.2565 0.0000
# 3 44.4524 24.8568 104.8563 0.0000 -17.5477 0.0000
# 4 0.0000 0.0000 0.0000 41.1875 0.0000 -2.0421
# 5 -2.9658 1.2565 -17.5477 0.0000 31.2442 0.0000
# 6 0.0000 0.0000 0.0000 -2.0421 0.0000 39.8564
#
#
#
# Elastic Compliance Matrix: (Units=1/GPa)
#
#
# Indices 1 2 3 4 5 6 
#
# 1 0.005194 -0.000997 -0.002071 0.000000 -0.000630 0.000000
# 2 -0.000997 0.007218 -0.001493 0.000000 -0.001223 0.000000
# 3 -0.002071 -0.001493 0.011861 0.000000 0.006525 0.000000
# 4 0.000000 0.000000 0.000000 0.024341 0.000000 0.001247
# 5 -0.000630 -0.001223 0.006525 0.000000 0.035660 0.000000
# 6 0.000000 0.000000 0.000000 0.001247 0.000000 0.025154
#
#
# Mechanical properties :
#
#
# Convention : Reuss Voigt Hill
#
# Bulk Modulus (GPa) = 66.00652 76.38814 71.19733
# Shear Modulus (GPa) = 40.45322 46.68490 43.56906
#
# Velocity S-wave (km/s) = 3.99350 4.29008 4.14444
# Velocity P-wave (km/s) = 6.87649 7.39287 7.13935
#
# Compressibility (1/GPa) = 0.01515002
#
# Stress axis : x y z
#
# Youngs Moduli (GPa) = 192.52871 138.55016 84.31227
#
# Poissons Ratio (x) = 0.13816 0.17461
# Poissons Ratio (y) = 0.19199 0.12587
# Poissons Ratio (z) = 0.39872 0.20685
#
# Static dielectric constant tensor:
#      x y z
#    x 1.942180 0.000000 -0.039320 
#    y 0.000000 2.489880 0.000000 
#    z -0.039320 0.000000 2.071890 
# 
# From -- ./inp_files/77065.got.cif
#   From: 2010.05.17/outbox.cif.g08.bks.cpg/sg14_39_cif.got.tgz:77065.got - 2010.06.03 17:49:19.
