data_PCOD9251253
_publ_section_title
;
Structure prediction by ZEFSAII (Michael W. Deem and Ramdas Pophale) SiO2 
 PCOD9251253
Probable space group: P 21/C
;
_chemical_formula_sum "Si O2"
_cell_formula_units_Z 18
_cell_length_a 9.676386
_cell_length_b 8.093407
_cell_length_c 22.656345
_cell_angle_alpha 90.000000
_cell_angle_beta 22.267039
_cell_angle_gamma 90.000000
_cell_volume 672.335973
_symmetry_space_group_name_H-M "P 21/C"
_symmetry_group_IT_number 14
_symmetry_cell_setting 'monoclinic'
loop_
_space_group_symop_operation_xyz
x,y,z
-x,1/2+y,1/2-z
-x,-y,-z
x,1/2-y,1/2+z
loop_
_atom_site_type_symbol
_atom_site_label
_atom_site_fract_x
_atom_site_fract_y
_atom_site_fract_z
Si Si1 0.900472 0.638035 0.589340
Si Si2 0.472275 0.151879 0.968061
Si Si3 0.500000 0.500000 0.000000
Si Si4 0.356693 0.736120 0.717512
Si Si5 0.490605 0.414993 0.138253
O O1 0.497067 0.685798 0.725249
O O2 0.827198 0.601335 0.687153
O O3 0.000000 0.500000 0.500000
O O4 0.196727 0.782723 0.472388
O O5 0.671045 0.319580 0.910126
O O6 0.059955 0.217568 0.124868
O O7 0.589002 0.102033 0.855509
O O8 0.500000 0.000000 0.000000
O O9 0.400176 0.415973 0.104644
O O10 0.605714 0.894569 0.603662
#
# Coordination Sequence:
#
# PCOD9251253 Si02
#       5
#     4   4   2   4   4
#     4  12  26  48  82 122 161 221 275 349 428 501
#     4  11  27  49  77 110 163 210 277 334 413 494
#     4  10  28  48  78 116 158 222 272 336 416 484
#     4  11  26  49  73 114 161 207 276 338 413 500
#     4  11  26  47  78 114 167 210 277 345 416 503
#
# _framework density 26.772331000000001
#
# number of rings (size 3 to 8) (size 9 to 14) (size 15 to 20)
#    0.000    0.889    0.000    4.667   12.444    7.111 
#    0.000    0.000    0.000    0.000    0.000    0.000 
#    0.000    0.000    0.000    0.000    0.000    0.000 
#
# Total GULP energy -100201.250633 kJ/mol
# GULP energy per Si atom -5566.736146 kJ/mol
# Density = 2.671140 g / cm^3
# Si number density = 26.772331 Si / 1000 Ang^3
#
#
#
# Elastic Constant Matrix: (Units=GPa)
#
#
# Indices 1 2 3 4 5 6 
#
# 1 157.6152 43.1140 81.4175 0.0000 40.8599 0.0000
# 2 43.1140 93.2914 33.5002 0.0000 6.1908 0.0000
# 3 81.4175 33.5002 130.1663 0.0000 22.9478 0.0000
# 4 0.0000 0.0000 0.0000 29.9956 0.0000 7.0260
# 5 40.8599 6.1908 22.9478 0.0000 48.1019 0.0000
# 6 0.0000 0.0000 0.0000 7.0260 0.0000 59.6917
#
#
#
# Elastic Compliance Matrix: (Units=1/GPa)
#
#
# Indices 1 2 3 4 5 6 
#
# 1 0.011760 -0.003054 -0.005326 0.000000 -0.007056 0.000000
# 2 -0.003054 0.012604 -0.001643 0.000000 0.001756 0.000000
# 3 -0.005326 -0.001643 0.011575 0.000000 -0.000787 0.000000
# 4 0.000000 0.000000 0.000000 0.034283 0.000000 -0.004035
# 5 -0.007056 0.001756 -0.000787 0.000000 0.026932 0.000000
# 6 0.000000 0.000000 0.000000 -0.004035 0.000000 0.017228
#
#
# Mechanical properties :
#
#
# Convention : Reuss Voigt Hill
#
# Bulk Modulus (GPa) = 62.91982 77.45961 70.18972
# Shear Modulus (GPa) = 35.78400 42.42725 39.10563
#
# Velocity S-wave (km/s) = 3.65993 3.98520 3.82602
# Velocity P-wave (km/s) = 6.43529 7.08317 6.76699
#
# Compressibility (1/GPa) = 0.01589324
#
# Stress axis : x y z
#
# Youngs Moduli (GPa) = 85.03146 79.33949 86.39025
#
# Poissons Ratio (x) = 0.24232 0.46011
# Poissons Ratio (y) = 0.25970 0.14194
# Poissons Ratio (z) = 0.45288 0.13036
#
# Static dielectric constant tensor:
#      x y z
#    x 2.100660 0.000000 -0.035990 
#    y 0.000000 1.753500 0.000000 
#    z -0.035990 0.000000 2.233350 
# 
# From -- ./inp_files/76984.got.cif
#   From: 2010.05.17/outbox.cif.g08.bks.cpg/sg14_39_cif.got.tgz:76984.got - 2010.06.03 17:49:19.
