data_PCOD9251208
_publ_section_title
;
Structure prediction by ZEFSAII (Michael W. Deem and Ramdas Pophale) SiO2 
 PCOD9251208
Probable space group: P 21/C
;
_chemical_formula_sum "Si O2"
_cell_formula_units_Z 16
_cell_length_a 25.063911
_cell_length_b 4.900376
_cell_length_c 23.935438
_cell_angle_alpha 90.000000
_cell_angle_beta 167.877806
_cell_angle_gamma 90.000000
_cell_volume 617.352674
_symmetry_space_group_name_H-M "P 21/C"
_symmetry_group_IT_number 14
_symmetry_cell_setting 'monoclinic'
loop_
_space_group_symop_operation_xyz
x,y,z
-x,1/2+y,1/2-z
-x,-y,-z
x,1/2-y,1/2+z
loop_
_atom_site_type_symbol
_atom_site_label
_atom_site_fract_x
_atom_site_fract_y
_atom_site_fract_z
Si Si1 0.099954 0.446905 0.699562
Si Si2 0.052407 0.606644 0.337743
Si Si3 0.428331 0.751284 0.465520
Si Si4 0.624912 0.130377 0.243006
O O1 0.083844 0.531459 0.748015
O O2 0.849333 0.317133 0.293359
O O3 0.850998 0.263605 0.437782
O O4 0.349549 0.258745 0.950994
O O5 0.107997 0.351932 0.354634
O O6 0.284718 0.779162 0.602930
O O7 0.500000 0.500000 0.500000
O O8 0.591457 0.682738 0.689354
O O9 0.500000 0.000000 0.500000
#
# Coordination Sequence:
#
# PCOD9251208 Si02
#       4
#     4   4   4   4
#     4  10  26  48  75 108 157 188 263 317 377 470
#     4  10  26  46  78 106 148 202 250 316 398 450
#     4  12  26  48  80 112 152 210 250 316 394 450
#     4  10  26  48  75 108 157 188 263 317 377 470
#
# _framework density 25.917116
#
# number of rings (size 3 to 8) (size 9 to 14) (size 15 to 20)
#    1.500    0.000    2.500    0.000    7.000    6.000 
#    0.000    0.000    0.000    0.000    0.000    0.000 
#    0.000    0.000    0.000    0.000    0.000    0.000 
#
# Total GULP energy -89255.533984 kJ/mol
# GULP energy per Si atom -5578.470874 kJ/mol
# Density = 2.585813 g / cm^3
# Si number density = 25.917116 Si / 1000 Ang^3
#
#
#
# Elastic Constant Matrix: (Units=GPa)
#
#
# Indices 1 2 3 4 5 6 
#
# 1 91.1993 24.4967 21.5181 0.0000 0.4050 0.0000
# 2 24.4967 142.2245 25.5391 0.0000 -1.5779 0.0000
# 3 21.5181 25.5391 115.2200 0.0000 17.8572 0.0000
# 4 0.0000 0.0000 0.0000 50.9086 0.0000 -11.1647
# 5 0.4050 -1.5779 17.8572 0.0000 40.5855 0.0000
# 6 0.0000 0.0000 0.0000 -11.1647 0.0000 43.7891
#
#
#
# Elastic Compliance Matrix: (Units=1/GPa)
#
#
# Indices 1 2 3 4 5 6 
#
# 1 0.011875 -0.001688 -0.001948 0.000000 0.000673 0.000000
# 2 -0.001688 0.007606 -0.001523 0.000000 0.000983 0.000000
# 3 -0.001948 -0.001523 0.010073 0.000000 -0.004472 0.000000
# 4 0.000000 0.000000 0.000000 0.020806 0.000000 0.005305
# 5 0.000673 0.000983 -0.004472 0.000000 0.026638 0.000000
# 6 0.000000 0.000000 0.000000 0.005305 0.000000 0.024189
#
#
# Mechanical properties :
#
#
# Convention : Reuss Voigt Hill
#
# Bulk Modulus (GPa) = 51.98349 54.63907 53.31128
# Shear Modulus (GPa) = 42.40190 45.52931 43.96561
#
# Velocity S-wave (km/s) = 4.04921 4.19588 4.12320
# Velocity P-wave (km/s) = 6.47785 6.67846 6.57892
#
# Compressibility (1/GPa) = 0.01923688
#
# Stress axis : x y z
#
# Youngs Moduli (GPa) = 84.21027 131.47030 99.27048
#
# Poissons Ratio (x) = 0.22194 0.19336
# Poissons Ratio (y) = 0.14216 0.15119
# Poissons Ratio (z) = 0.16403 0.20023
#
# Static dielectric constant tensor:
#      x y z
#    x 2.106610 0.000000 -0.095430 
#    y 0.000000 2.146780 0.000000 
#    z -0.095430 0.000000 2.079810 
# 
# From -- ./inp_files/70764.got.cif
#   From: 2010.05.17/outbox.cif.g08.bks.cpg/sg14_36_cif.got.tgz:70764.got - 2010.06.03 17:49:19.
