data_PCOD9251668
_publ_section_title
;
Structure prediction by ZEFSAII (Michael W. Deem and Ramdas Pophale) SiO2 
 PCOD9251668
Probable space group: P 21/C
;
_chemical_formula_sum "Si O2"
_cell_formula_units_Z 32
_cell_length_a 21.802441
_cell_length_b 8.505756
_cell_length_c 21.644565
_cell_angle_alpha 90.000000
_cell_angle_beta 158.423122
_cell_angle_gamma 90.000000
_cell_volume 1476.110144
_symmetry_space_group_name_H-M "P 21/C"
_symmetry_group_IT_number 14
_symmetry_cell_setting 'monoclinic'
loop_
_space_group_symop_operation_xyz
x,y,z
-x,1/2+y,1/2-z
-x,-y,-z
x,1/2-y,1/2+z
loop_
_atom_site_type_symbol
_atom_site_label
_atom_site_fract_x
_atom_site_fract_y
_atom_site_fract_z
Si Si1 0.065778 0.848782 0.235459
Si Si2 0.573428 0.922483 0.652516
Si Si3 0.254423 0.829143 0.574649
Si Si4 0.084795 0.926543 0.992651
Si Si5 0.290662 0.335679 0.841489
Si Si6 0.616545 0.288373 0.437670
Si Si7 0.819343 0.624374 0.069149
Si Si8 0.401180 0.154918 0.058624
O O1 0.228920 0.751623 0.372175
O O2 0.960589 0.747454 0.184640
O O3 0.126113 0.007143 0.325633
O O4 0.953133 0.906211 0.074769
O O5 0.619376 0.805991 0.639387
O O6 0.532452 0.819902 0.675318
O O7 0.736280 0.036504 0.808298
O O8 0.408433 0.025414 0.481224
O O9 0.117359 0.712481 0.473365
O O10 0.326511 0.766818 0.576812
O O11 0.402538 0.819816 0.762563
O O12 0.208526 0.008793 0.515205
O O13 0.903788 0.881828 0.851889
O O14 0.306158 0.198031 0.906706
O O15 0.607236 0.474974 0.428395
O O16 0.667329 0.726065 0.953096
#
# Coordination Sequence:
#
# PCOD9251668 Si02
#       8
#     4   4   4   4   4   4   4   4
#     4  11  22  37  63  93 135 176 212 274 336 403
#     4  11  25  47  70  97 133 177 235 275 327 404
#     4  11  25  38  65 102 136 172 219 274 344 404
#     4  12  23  43  70 101 129 175 225 281 335 398
#     4  11  24  47  71  94 132 180 231 279 330 391
#     4  11  25  41  64 100 138 176 217 278 339 400
#     4  11  22  38  60  97 138 175 218 267 341 408
#     4  12  23  41  65  95 138 178 220 273 335 397
#
# _framework density 21.678599999999999
#
# number of rings (size 3 to 8) (size 9 to 14) (size 15 to 20)
#    0.000    0.750    3.750    4.875    7.000    0.500 
#    0.000    0.000    0.000    1.500    0.000    0.000 
#    0.000    0.000    0.000    0.000    0.000    0.000 
#
# Total GULP energy -178496.814974 kJ/mol
# GULP energy per Si atom -5578.025468 kJ/mol
# Density = 2.162926 g / cm^3
# Si number density = 21.678600 Si / 1000 Ang^3
#
#
#
# Elastic Constant Matrix: (Units=GPa)
#
#
# Indices 1 2 3 4 5 6 
#
# 1 51.2349 3.1875 -16.0207 0.0000 19.2361 0.0000
# 2 3.1875 84.8703 8.9667 0.0000 15.5200 0.0000
# 3 -16.0207 8.9667 83.0905 0.0000 19.6009 0.0000
# 4 0.0000 0.0000 0.0000 28.1999 0.0000 2.7378
# 5 19.2361 15.5200 19.6009 0.0000 25.2986 0.0000
# 6 0.0000 0.0000 0.0000 2.7378 0.0000 19.6371
#
#
#
# Elastic Compliance Matrix: (Units=1/GPa)
#
#
# Indices 1 2 3 4 5 6 
#
# 1 0.047183 0.006277 0.021771 0.000000 -0.056595 0.000000
# 2 0.006277 0.014131 0.003495 0.000000 -0.016150 0.000000
# 3 0.021771 0.003495 0.024799 0.000000 -0.037911 0.000000
# 4 0.000000 0.000000 0.000000 0.035948 0.000000 -0.005012
# 5 -0.056595 -0.016150 -0.037911 0.000000 0.121841 0.000000
# 6 0.000000 0.000000 0.000000 -0.005012 0.000000 0.051623
#
#
# Mechanical properties :
#
#
# Convention : Reuss Voigt Hill
#
# Bulk Modulus (GPa) = 6.70245 23.49585 15.09915
# Shear Modulus (GPa) = 17.71970 29.49793 23.60882
#
# Velocity S-wave (km/s) = 2.86209 3.69276 3.30364
# Velocity P-wave (km/s) = 3.74440 5.38923 4.64027
#
# Compressibility (1/GPa) = 0.14919912
#
# Stress axis : x y z
#
# Youngs Moduli (GPa) = 21.19388 70.76665 40.32461
#
# Poissons Ratio (x) = -0.44422 -0.87790
# Poissons Ratio (y) = -0.13304 -0.14094
# Poissons Ratio (z) = -0.46141 -0.24734
#
# Static dielectric constant tensor:
#      x y z
#    x 1.801600 0.000000 -0.027380 
#    y 0.000000 1.795270 0.000000 
#    z -0.027380 0.000000 1.899900 
# 
# From -- ./inp_files/74920.got.cif
#   From: 2010.05.17/outbox.cif.g08.bks.cpg/sg14_38_cif.got.tgz:74920.got - 2010.06.03 17:49:19.
