data_PCOD9251710
_publ_section_title
;
Structure prediction by ZEFSAII (Michael W. Deem and Ramdas Pophale) SiO2 
 PCOD9251710
Probable space group: P 21/C
;
_chemical_formula_sum "Si O2"
_cell_formula_units_Z 32
_cell_length_a 12.120749
_cell_length_b 9.054122
_cell_length_c 18.513174
_cell_angle_alpha 90.000000
_cell_angle_beta 129.947630
_cell_angle_gamma 90.000000
_cell_volume 1557.555130
_symmetry_space_group_name_H-M "P 21/C"
_symmetry_group_IT_number 14
_symmetry_cell_setting 'monoclinic'
loop_
_space_group_symop_operation_xyz
x,y,z
-x,1/2+y,1/2-z
-x,-y,-z
x,1/2-y,1/2+z
loop_
_atom_site_type_symbol
_atom_site_label
_atom_site_fract_x
_atom_site_fract_y
_atom_site_fract_z
Si Si1 0.845539 0.284605 0.717203
Si Si2 0.362431 0.428583 0.980954
Si Si3 0.881130 0.935727 0.740766
Si Si4 0.588037 0.344749 0.882994
Si Si5 0.719966 0.792944 0.800370
Si Si6 0.359324 0.358480 0.574898
Si Si7 0.622653 0.098361 0.012590
Si Si8 0.325274 0.560980 0.231829
O O1 0.711086 0.304853 0.606062
O O2 0.794734 0.369375 0.767329
O O3 0.976009 0.368594 0.733790
O O4 0.881352 0.113715 0.747152
O O5 0.244396 0.403062 0.870484
O O6 0.500000 0.500000 0.000000
O O7 0.328225 0.541817 0.030755
O O8 0.389676 0.280138 0.036519
O O9 0.843572 0.854193 0.800126
O O10 0.423678 0.377451 0.789930
O O11 0.670315 0.348735 0.841639
O O12 0.569491 0.203750 0.926345
O O13 0.728129 0.826336 0.889040
O O14 0.698777 0.615191 0.786521
O O15 0.283848 0.478389 0.491879
O O16 0.516617 0.413793 0.667165
O O17 0.500000 0.000000 0.000000
#
# Coordination Sequence:
#
# PCOD9251710 Si02
#       8
#     4   4   4   4   4   4   4   4
#     4  12  27  46  67  96 130 178 220 273 334 393
#     4  12  22  41  68 102 128 172 226 270 323 393
#     4  12  28  45  69  93 133 176 223 273 334 395
#     4  11  22  39  66 100 135 168 216 276 330 385
#     4  11  23  41  64 100 137 173 215 271 333 390
#     4  11  24  37  68 103 135 170 217 276 331 382
#     4  12  23  42  69 102 132 171 224 275 321 389
#     4  11  23  41  64  98 141 170 215 271 336 387
#
# _framework density 20.545020000000001
#
# number of rings (size 3 to 8) (size 9 to 14) (size 15 to 20)
#    0.000    0.500    6.250    2.250    5.250    0.000 
#    0.000    2.500    0.000    0.000    0.000    0.000 
#    0.000    0.000    0.000    0.000    0.000    0.000 
#
# Total GULP energy -178651.154912 kJ/mol
# GULP energy per Si atom -5582.848591 kJ/mol
# Density = 2.049826 g / cm^3
# Si number density = 20.545020 Si / 1000 Ang^3
#
#
#
# Elastic Constant Matrix: (Units=GPa)
#
#
# Indices 1 2 3 4 5 6 
#
# 1 118.4807 -2.4381 11.9474 0.0000 -23.0847 0.0000
# 2 -2.4381 65.9929 -2.0612 0.0000 -9.5167 0.0000
# 3 11.9474 -2.0612 43.8344 0.0000 -21.5220 0.0000
# 4 0.0000 0.0000 0.0000 36.5346 0.0000 -5.2281
# 5 -23.0847 -9.5167 -21.5220 0.0000 33.5981 0.0000
# 6 0.0000 0.0000 0.0000 -5.2281 0.0000 25.2120
#
#
#
# Elastic Compliance Matrix: (Units=1/GPa)
#
#
# Indices 1 2 3 4 5 6 
#
# 1 0.009921 0.001583 0.001367 0.000000 0.008141 0.000000
# 2 0.001583 0.016624 0.004663 0.000000 0.008783 0.000000
# 3 0.001367 0.004663 0.034675 0.000000 0.024472 0.000000
# 4 0.000000 0.000000 0.000000 0.028208 0.000000 0.005849
# 5 0.008141 0.008783 0.024472 0.000000 0.053521 0.000000
# 6 0.000000 0.000000 0.000000 0.005849 0.000000 0.040877
#
#
# Mechanical properties :
#
#
# Convention : Reuss Voigt Hill
#
# Bulk Modulus (GPa) = 13.08102 27.02270 20.05186
# Shear Modulus (GPa) = 25.76236 33.79293 29.77764
#
# Velocity S-wave (km/s) = 3.54495 4.06004 3.81121
# Velocity P-wave (km/s) = 4.81003 5.92959 5.39891
#
# Compressibility (1/GPa) = 0.07644665
#
# Stress axis : x y z
#
# Youngs Moduli (GPa) = 100.79550 60.15443 28.83921
#
# Poissons Ratio (x) = -0.09524 -0.03944
# Poissons Ratio (y) = -0.15958 -0.13447
# Poissons Ratio (z) = -0.13784 -0.28048
#
# Static dielectric constant tensor:
#      x y z
#    x 1.740950 0.000000 -0.010730 
#    y 0.000000 1.897400 0.000000 
#    z -0.010730 0.000000 1.744360 
# 
# From -- ./inp_files/57288.got.cif
#   From: 2010.05.17/outbox.cif.g08.bks.cpg/sg14_29_cif.got.tgz:57288.got - 2010.06.03 17:49:19.
