data_PCOD9251172
_publ_section_title
;
Structure prediction by ZEFSAII (Michael W. Deem and Ramdas Pophale) SiO2 
 PCOD9251172
Probable space group: P 21/C
;
_chemical_formula_sum "Si O2"
_cell_formula_units_Z 24
_cell_length_a 18.688625
_cell_length_b 4.777928
_cell_length_c 15.319515
_cell_angle_alpha 90.000000
_cell_angle_beta 39.378507
_cell_angle_gamma 90.000000
_cell_volume 867.866516
_symmetry_space_group_name_H-M "P 21/C"
_symmetry_group_IT_number 14
_symmetry_cell_setting 'monoclinic'
loop_
_space_group_symop_operation_xyz
x,y,z
-x,1/2+y,1/2-z
-x,-y,-z
x,1/2-y,1/2+z
loop_
_atom_site_type_symbol
_atom_site_label
_atom_site_fract_x
_atom_site_fract_y
_atom_site_fract_z
Si Si1 0.700386 0.594802 0.307022
Si Si2 0.807980 0.039984 0.458410
Si Si3 0.553177 0.464237 0.157330
Si Si4 0.000000 0.000000 0.500000
Si Si5 0.195211 0.891117 0.862711
Si Si6 0.871035 0.942784 0.794600
Si Si7 0.500000 0.500000 0.000000
O O1 0.697973 0.264994 0.285768
O O2 0.758876 0.634586 0.344511
O O3 0.789570 0.775861 0.160824
O O4 0.582550 0.730627 0.403786
O O5 0.678145 0.955725 0.569915
O O6 0.806238 0.246133 0.542978
O O7 0.850643 0.243315 0.342613
O O8 0.879356 0.759724 0.370850
O O9 0.465970 0.644118 0.296765
O O10 0.533357 0.511313 0.074509
O O11 0.089957 0.734840 0.410182
O O12 0.969362 0.917662 0.631205
#
# Coordination Sequence:
#
# PCOD9251172 Si02
#       7
#     4   4   4   2   4   4   2
#     4  11  24  44  68 104 139 187 240 293 357 446
#     4  12  24  45  69  99 145 184 232 309 353 432
#     4  12  27  45  69 108 144 190 248 297 357 442
#     4  10  26  44  72 100 136 186 234 296 356 442
#     4  11  25  45  70 102 142 183 239 305 361 430
#     4  11  24  44  69 100 139 179 239 290 358 427
#     4  12  26  44  78 100 146 204 234 304 374 434
#
# _framework density 27.654019999999999
#
# number of rings (size 3 to 8) (size 9 to 14) (size 15 to 20)
#    0.000    0.667    1.667    6.000    0.000    8.667 
#    0.000    0.000    0.000    0.000    0.000    0.000 
#    0.000    0.000    0.000    0.000    0.000    0.000 
#
# Total GULP energy -133618.221140 kJ/mol
# GULP energy per Si atom -5567.425881 kJ/mol
# Density = 2.759108 g / cm^3
# Si number density = 27.654020 Si / 1000 Ang^3
#
#
#
# Elastic Constant Matrix: (Units=GPa)
#
#
# Indices 1 2 3 4 5 6 
#
# 1 66.4623 -11.2042 -2.1493 0.0000 22.0009 0.0000
# 2 -11.2042 134.4612 17.6374 0.0000 6.6792 0.0000
# 3 -2.1493 17.6374 76.8477 0.0000 22.0671 0.0000
# 4 0.0000 0.0000 0.0000 43.6491 0.0000 15.7507
# 5 22.0009 6.6792 22.0671 0.0000 53.6641 0.0000
# 6 0.0000 0.0000 0.0000 15.7507 0.0000 9.4373
#
#
#
# Elastic Compliance Matrix: (Units=1/GPa)
#
#
# Indices 1 2 3 4 5 6 
#
# 1 0.018321 0.001614 0.002672 0.000000 -0.008811 0.000000
# 2 0.001614 0.007813 -0.001450 0.000000 -0.001038 0.000000
# 3 0.002672 -0.001450 0.015515 0.000000 -0.007295 0.000000
# 4 0.000000 0.000000 0.000000 0.057598 0.000000 -0.096130
# 5 -0.008811 -0.001038 -0.007295 0.000000 0.025376 0.000000
# 6 0.000000 0.000000 0.000000 -0.096130 0.000000 0.266400
#
#
# Mechanical properties :
#
#
# Convention : Reuss Voigt Hill
#
# Bulk Modulus (GPa) = 21.13213 31.81545 26.47379
# Shear Modulus (GPa) = 12.46493 39.58261 26.02377
#
# Velocity S-wave (km/s) = 2.12538 3.78742 3.07098
# Velocity P-wave (km/s) = 3.69881 5.53678 4.70835
#
# Compressibility (1/GPa) = 0.04732130
#
# Stress axis : x y z
#
# Youngs Moduli (GPa) = 54.58139 127.98645 64.45349
#
# Poissons Ratio (x) = -0.20655 -0.17223
# Poissons Ratio (y) = -0.08808 0.09346
# Poissons Ratio (z) = -0.14585 0.18559
#
# Static dielectric constant tensor:
#      x y z
#    x 2.001330 0.000000 0.017010 
#    y 0.000000 2.078980 0.000000 
#    z 0.017010 0.000000 1.816580 
# 
# From -- ./inp_files/49628.got.cif
#   From: 2010.05.17/outbox.cif.g08.bks.cpg/sg14_25_cif.got.tgz:49628.got - 2010.06.03 17:49:19.
