data_PCOD9251480
_publ_section_title
;
Structure prediction by ZEFSAII (Michael W. Deem and Ramdas Pophale) SiO2 
 PCOD9251480
Probable space group: P 21/C
;
_chemical_formula_sum "Si O2"
_cell_formula_units_Z 32
_cell_length_a 10.410772
_cell_length_b 13.704638
_cell_length_c 9.300040
_cell_angle_alpha 90.000000
_cell_angle_beta 96.223171
_cell_angle_gamma 90.000000
_cell_volume 1319.072124
_symmetry_space_group_name_H-M "P 21/C"
_symmetry_group_IT_number 14
_symmetry_cell_setting 'monoclinic'
loop_
_space_group_symop_operation_xyz
x,y,z
-x,1/2+y,1/2-z
-x,-y,-z
x,1/2-y,1/2+z
loop_
_atom_site_type_symbol
_atom_site_label
_atom_site_fract_x
_atom_site_fract_y
_atom_site_fract_z
Si Si1 0.653532 0.454316 0.715727
Si Si2 0.809546 0.719916 0.168720
Si Si3 0.936591 0.533962 0.258622
Si Si4 0.828899 0.565063 0.553582
Si Si5 0.764126 0.078812 0.530541
Si Si6 0.428778 0.937163 0.238217
Si Si7 0.373588 0.293201 0.098882
Si Si8 0.643063 0.211283 0.015479
O O1 0.692926 0.531452 0.598780
O O2 0.498263 0.462136 0.706215
O O3 0.688401 0.348418 0.659374
O O4 0.731020 0.466369 0.872691
O O5 0.927524 0.645901 0.206745
O O6 0.849712 0.823191 0.103053
O O7 0.721196 0.738579 0.299453
O O8 0.718136 0.670621 0.039084
O O9 0.842689 0.538290 0.388183
O O10 0.892127 0.460629 0.126301
O O11 0.068973 0.499182 0.344505
O O12 0.657183 0.047958 0.633609
O O13 0.734263 0.194662 0.508189
O O14 0.553805 0.875877 0.304255
O O15 0.360376 0.865520 0.116231
O O16 0.494354 0.240822 0.032923
#
# Coordination Sequence:
#
# PCOD9251480 Si02
#       8
#     4   4   4   4   4   4   4   4
#     4  12  24  41  67 100 135 179 227 282 335 406
#     4  12  23  44  70 100 132 178 227 284 333 401
#     4  11  27  47  73  95 136 180 227 285 337 405
#     4  11  26  49  69 100 132 178 233 278 345 399
#     4  11  25  42  63 101 136 177 224 280 338 400
#     4  11  22  39  63  98 139 179 222 273 337 407
#     4  11  21  38  66  99 136 178 225 273 334 399
#     4  11  24  40  64  98 146 184 219 273 346 406
#
# _framework density 24.259477
#
# number of rings (size 3 to 8) (size 9 to 14) (size 15 to 20)
#    0.000    0.750    3.750    3.750    3.500    1.500 
#    0.000    2.500    0.000    0.000    0.000    0.000 
#    0.000    0.000    0.000    0.000    0.000    0.000 
#
# Total GULP energy -178869.185127 kJ/mol
# GULP energy per Si atom -5589.662035 kJ/mol
# Density = 2.420426 g / cm^3
# Si number density = 24.259477 Si / 1000 Ang^3
#
#
#
# Elastic Constant Matrix: (Units=GPa)
#
#
# Indices 1 2 3 4 5 6 
#
# 1 3.2318 -6.1876 2.5535 0.0000 2.6361 0.0000
# 2 -6.1876 104.2811 20.7808 0.0000 9.0737 0.0000
# 3 2.5535 20.7808 130.0713 0.0000 7.2740 0.0000
# 4 0.0000 0.0000 0.0000 27.8079 0.0000 0.6211
# 5 2.6361 9.0737 7.2740 0.0000 38.2325 0.0000
# 6 0.0000 0.0000 0.0000 0.6211 0.0000 26.9903
#
#
#
# Elastic Compliance Matrix: (Units=1/GPa)
#
#
# Indices 1 2 3 4 5 6 
#
# 1 0.398838 0.028584 -0.010592 0.000000 -0.032269 0.000000
# 2 0.028584 0.012118 -0.002250 0.000000 -0.004419 0.000000
# 3 -0.010592 -0.002250 0.008273 0.000000 -0.000310 0.000000
# 4 0.000000 0.000000 0.000000 0.035980 0.000000 -0.000828
# 5 -0.032269 -0.004419 -0.000310 0.000000 0.029488 0.000000
# 6 0.000000 0.000000 0.000000 -0.000828 0.000000 0.037069
#
#
# Mechanical properties :
#
#
# Convention : Reuss Voigt Hill
#
# Bulk Modulus (GPa) = 2.21871 30.20864 16.21368
# Shear Modulus (GPa) = 7.80615 33.30197 20.55406
#
# Velocity S-wave (km/s) = 1.79576 3.70907 2.91393
# Velocity P-wave (km/s) = 2.28391 5.55178 4.24491
#
# Compressibility (1/GPa) = 0.45071232
#
# Stress axis : x y z
#
# Youngs Moduli (GPa) = 2.50728 82.51930 120.87756
#
# Poissons Ratio (x) = -2.35871 1.28033
# Poissons Ratio (y) = -0.07167 0.27199
# Poissons Ratio (z) = 0.02656 0.18568
#
# Static dielectric constant tensor:
#      x y z
#    x 1.930660 0.000000 -0.035200 
#    y 0.000000 1.999430 0.000000 
#    z -0.035200 0.000000 1.924230 
# 
# From -- ./inp_files/13351.got.cif
#   From: 2010.05.17/outbox.cif.g08.bks.cpg/sg14_7_cif.got.tgz:13351.got - 2010.06.03 17:49:19.
