data_PCOD9251118
_publ_section_title
;
Structure prediction by ZEFSAII (Michael W. Deem and Ramdas Pophale) SiO2 
 PCOD9251118
Probable space group: P 21/C
;
_chemical_formula_sum "Si O2"
_cell_formula_units_Z 24
_cell_length_a 13.892933
_cell_length_b 13.083516
_cell_length_c 9.361358
_cell_angle_alpha 90.000000
_cell_angle_beta 148.411582
_cell_angle_gamma 90.000000
_cell_volume 891.320998
_symmetry_space_group_name_H-M "P 21/C"
_symmetry_group_IT_number 14
_symmetry_cell_setting 'monoclinic'
loop_
_space_group_symop_operation_xyz
x,y,z
-x,1/2+y,1/2-z
-x,-y,-z
x,1/2-y,1/2+z
loop_
_atom_site_type_symbol
_atom_site_label
_atom_site_fract_x
_atom_site_fract_y
_atom_site_fract_z
Si Si1 0.652378 0.709046 0.750784
Si Si2 0.684290 0.936918 0.732071
Si Si3 0.057159 0.519340 0.232126
Si Si4 0.731582 0.299259 0.614345
Si Si5 0.100077 0.244866 0.665378
Si Si6 0.852386 0.411374 0.211900
O O1 0.614391 0.820089 0.630544
O O2 0.459844 0.663871 0.561184
O O3 0.782681 0.719170 0.053498
O O4 0.892170 0.485757 0.129350
O O5 0.500000 0.000000 0.500000
O O6 0.785212 0.943115 0.012083
O O7 0.966359 0.841992 0.018225
O O8 0.167331 0.627582 0.372451
O O9 0.000000 0.500000 0.000000
O O10 0.784881 0.669332 0.792441
O O11 0.708514 0.183543 0.524165
O O12 0.893871 0.292953 0.939994
O O13 0.201862 0.512316 0.730570
#
# Coordination Sequence:
#
# PCOD9251118 Si02
#       6
#     4   4   4   4   4   4
#     4  12  25  46  79 111 151 213 263 328 402 479
#     4  12  24  48  75 111 154 209 272 322 402 486
#     4  12  27  46  77 117 157 207 269 332 400 479
#     4  10  26  47  77 110 158 199 268 325 402 463
#     4  10  26  46  74 111 155 201 264 319 406 474
#     4  10  25  48  78 107 162 215 257 328 412 474
#
# _framework density 26.926328000000002
#
# number of rings (size 3 to 8) (size 9 to 14) (size 15 to 20)
#    1.000    0.000    3.333    1.500    4.667    4.000 
#    0.000    0.833    0.000    0.000    0.000    0.000 
#    0.000    0.000    0.000    0.000    0.000    0.000 
#
# Total GULP energy -133906.537045 kJ/mol
# GULP energy per Si atom -5579.439044 kJ/mol
# Density = 2.686504 g / cm^3
# Si number density = 26.926328 Si / 1000 Ang^3
#
#
#
# Elastic Constant Matrix: (Units=GPa)
#
#
# Indices 1 2 3 4 5 6 
#
# 1 195.7268 37.0350 72.9528 0.0000 2.1807 0.0000
# 2 37.0350 132.2577 -19.9107 0.0000 6.2864 0.0000
# 3 72.9528 -19.9107 128.9721 0.0000 18.7646 0.0000
# 4 0.0000 0.0000 0.0000 24.9380 0.0000 -1.6578
# 5 2.1807 6.2864 18.7646 0.0000 52.7688 0.0000
# 6 0.0000 0.0000 0.0000 -1.6578 0.0000 47.8975
#
#
#
# Elastic Compliance Matrix: (Units=1/GPa)
#
#
# Indices 1 2 3 4 5 6 
#
# 1 0.007488 -0.002927 -0.004949 0.000000 0.001799 0.000000
# 2 -0.002927 0.008988 0.003355 0.000000 -0.002143 0.000000
# 3 -0.004949 0.003355 0.011705 0.000000 -0.004357 0.000000
# 4 0.000000 0.000000 0.000000 0.040192 0.000000 0.001391
# 5 0.001799 -0.002143 -0.004357 0.000000 0.020681 0.000000
# 6 0.000000 0.000000 0.000000 0.001391 0.000000 0.020926
#
#
# Mechanical properties :
#
#
# Convention : Reuss Voigt Hill
#
# Bulk Modulus (GPa) = 52.25268 70.79008 61.52138
# Shear Modulus (GPa) = 39.87205 49.57948 44.72577
#
# Velocity S-wave (km/s) = 3.85227 4.29569 4.08001
# Velocity P-wave (km/s) = 6.26375 7.13802 6.71513
#
# Compressibility (1/GPa) = 0.01913777
#
# Stress axis : x y z
#
# Youngs Moduli (GPa) = 133.55303 111.26391 85.43369
#
# Poissons Ratio (x) = 0.32570 0.42282
# Poissons Ratio (y) = 0.39095 -0.28664
# Poissons Ratio (z) = 0.66096 -0.37330
#
# Static dielectric constant tensor:
#      x y z
#    x 2.185150 0.000000 0.137640 
#    y 0.000000 2.319660 0.000000 
#    z 0.137640 0.000000 2.187310 
# 
# From -- ./inp_files/50479.got.cif
#   From: 2010.05.17/outbox.cif.g08.bks.cpg/sg14_26_cif.got.tgz:50479.got - 2010.06.03 17:49:19.
