data_PCOD9251759
_publ_section_title
;
Structure prediction by ZEFSAII (Michael W. Deem and Ramdas Pophale) SiO2 
 PCOD9251759
Probable space group: P 21/C
;
_chemical_formula_sum "Si O2"
_cell_formula_units_Z 28
_cell_length_a 28.174000
_cell_length_b 4.732215
_cell_length_c 8.404509
_cell_angle_alpha 90.000000
_cell_angle_beta 121.644350
_cell_angle_gamma 90.000000
_cell_volume 953.934850
_symmetry_space_group_name_H-M "P 21/C"
_symmetry_group_IT_number 14
_symmetry_cell_setting 'monoclinic'
loop_
_space_group_symop_operation_xyz
x,y,z
-x,1/2+y,1/2-z
-x,-y,-z
x,1/2-y,1/2+z
loop_
_atom_site_type_symbol
_atom_site_label
_atom_site_fract_x
_atom_site_fract_y
_atom_site_fract_z
Si Si1 0.154439 0.940947 0.298086
Si Si2 0.000000 0.000000 0.500000
Si Si3 0.769029 0.075756 0.299481
Si Si4 0.000000 0.500000 0.500000
Si Si5 0.304788 0.978740 0.111090
Si Si6 0.920887 0.045537 0.106832
Si Si7 0.462157 0.404284 0.672531
Si Si8 0.616464 0.532394 0.742857
O O1 0.188337 0.718134 0.250735
O O2 0.197979 0.080836 0.498691
O O3 0.113297 0.777384 0.349535
O O4 0.121859 0.098001 0.095852
O O5 0.994480 0.742112 0.617876
O O6 0.053662 0.148151 0.703411
O O7 0.734570 0.320667 0.330951
O O8 0.728250 0.924141 0.104369
O O9 0.042782 0.713963 0.474591
O O10 0.350202 0.740655 0.140595
O O11 0.337101 0.246084 0.235430
O O12 0.494112 0.665148 0.810386
O O13 0.419877 0.216059 0.699831
O O14 0.426312 0.544051 0.470572
#
# Coordination Sequence:
#
# PCOD9251759 Si02
#       8
#     4   2   4   2   4   4   4   4
#     4   9  20  42  74  99 143 180 232 280 369 424
#     4  12  26  44  72 102 142 182 234 284 342 400
#     4   9  20  40  72  96 136 174 225 296 356 415
#     4  12  26  44  72 102 142 182 234 284 342 400
#     4  11  22  41  68  96 130 168 237 286 347 406
#     4  11  22  41  72 105 142 186 234 286 344 433
#     4  12  24  41  62  95 142 182 225 274 338 404
#     4  12  24  41  68  99 131 182 229 282 338 406
#
# _framework density 29.352108999999999
#
# number of rings (size 3 to 8) (size 9 to 14) (size 15 to 20)
#    0.000    1.143    1.429    5.143    0.000    0.000 
#    0.000    0.000   47.143    0.000    0.000    0.000 
#    0.000    0.000    0.000    0.000    0.000    0.000 
#
# Total GULP energy -156049.909406 kJ/mol
# GULP energy per Si atom -5573.211050 kJ/mol
# Density = 2.928530 g / cm^3
# Si number density = 29.352109 Si / 1000 Ang^3
#
#
#
# Elastic Constant Matrix: (Units=GPa)
#
#
# Indices 1 2 3 4 5 6 
#
# 1 163.8982 44.4566 77.5159 0.0000 -29.8391 0.0000
# 2 44.4566 115.2805 -3.5487 0.0000 -12.4739 0.0000
# 3 77.5159 -3.5487 233.4872 0.0000 -2.6771 0.0000
# 4 0.0000 0.0000 0.0000 -0.3108 0.0000 -12.7914
# 5 -29.8391 -12.4739 -2.6771 0.0000 52.0152 0.0000
# 6 0.0000 0.0000 0.0000 -12.7914 0.0000 -32.7652
#
#
#
# Elastic Compliance Matrix: (Units=1/GPa)
#
#
# Indices 1 2 3 4 5 6 
#
# 1 0.009198 -0.003169 -0.003052 0.000000 0.004359 0.000000
# 2 -0.003169 0.010004 0.001212 0.000000 0.000643 0.000000
# 3 -0.003052 0.001212 0.005301 0.000000 -0.001187 0.000000
# 4 0.000000 0.000000 0.000000 0.213543 0.000000 -0.083366
# 5 0.004359 0.000643 -0.001187 0.000000 0.021819 0.000000
# 6 0.000000 0.000000 0.000000 -0.083366 0.000000 0.002026
#
#
# Mechanical properties :
#
#
# Convention : Reuss Voigt Hill
#
# Bulk Modulus (GPa) = 69.04483 83.27930 76.16207
# Shear Modulus (GPa) = 18.06769 30.07064 24.06916
#
# Velocity S-wave (km/s) = 2.48372 3.20422 2.86670
# Velocity P-wave (km/s) = 5.63908 6.49026 6.07958
#
# Compressibility (1/GPa) = 0.01448334
#
# Stress axis : x y z
#
# Youngs Moduli (GPa) = 108.71819 99.96382 188.64751
#
# Poissons Ratio (x) = 0.31682 0.57573
# Poissons Ratio (y) = 0.34457 -0.22857
# Poissons Ratio (z) = 0.33179 -0.12112
#
# Static dielectric constant tensor:
#      x y z
#    x 2.159860 0.000000 -0.327230 
#    y 0.000000 -0.896190 0.000000 
#    z -0.327230 0.000000 1.648400 
# 
# From -- ./inp_files/19869.got.cif
#   From: 2010.05.17/outbox.cif.g08.bks.cpg/sg14_10_cif.got.tgz:19869.got - 2010.06.03 17:49:19.
