data_PCOD9251385
_publ_section_title
;
Structure prediction by ZEFSAII (Michael W. Deem and Ramdas Pophale) SiO2 
 PCOD9251385
Probable space group: P 21/C
;
_chemical_formula_sum "Si O2"
_cell_formula_units_Z 20
_cell_length_a 18.148538
_cell_length_b 8.024917
_cell_length_c 11.324147
_cell_angle_alpha 90.000000
_cell_angle_beta 148.116315
_cell_angle_gamma 90.000000
_cell_volume 871.130597
_symmetry_space_group_name_H-M "P 21/C"
_symmetry_group_IT_number 14
_symmetry_cell_setting 'monoclinic'
loop_
_space_group_symop_operation_xyz
x,y,z
-x,1/2+y,1/2-z
-x,-y,-z
x,1/2-y,1/2+z
loop_
_atom_site_type_symbol
_atom_site_label
_atom_site_fract_x
_atom_site_fract_y
_atom_site_fract_z
Si Si1 0.685718 0.685758 0.970267
Si Si2 0.128840 0.916898 0.958896
Si Si3 0.612941 0.856927 0.633935
Si Si4 0.019330 0.313274 0.068047
Si Si5 0.878092 0.117451 0.684609
O O1 0.608212 0.708562 0.991380
O O2 0.826122 0.797885 0.168892
O O3 0.752546 0.500457 0.053521
O O4 0.610063 0.731242 0.743305
O O5 0.240949 0.045928 0.154505
O O6 0.182087 0.800217 0.926059
O O7 0.097007 0.764679 0.005004
O O8 0.976399 0.001091 0.733560
O O9 0.500000 0.000000 0.500000
O O10 0.000000 0.500000 0.000000
O O11 0.000657 0.175744 0.940202
#
# Coordination Sequence:
#
# PCOD9251385 Si02
#       5
#     4   4   4   4   4
#     4  11  25  47  71 102 139 185 238 296 350 422
#     4  11  21  39  65 102 143 180 229 290 357 423
#     4  12  27  50  70  98 144 192 244 288 340 421
#     4  11  21  36  70 106 144 177 225 294 368 424
#     4  11  20  39  69 103 144 177 225 299 366 419
#
# _framework density 22.958670000000001
#
# number of rings (size 3 to 8) (size 9 to 14) (size 15 to 20)
#    0.000    0.800    4.000    6.000    2.800    1.600 
#    3.600    2.000    0.000    0.000    0.000    0.000 
#    0.000    0.000    0.000    0.000    0.000    0.000 
#
# Total GULP energy -111361.262535 kJ/mol
# GULP energy per Si atom -5568.063127 kJ/mol
# Density = 2.290641 g / cm^3
# Si number density = 22.958670 Si / 1000 Ang^3
#
#
#
# Elastic Constant Matrix: (Units=GPa)
#
#
# Indices 1 2 3 4 5 6 
#
# 1 104.6658 29.3846 38.5157 0.0000 -19.4284 0.0000
# 2 29.3846 107.2225 7.2677 0.0000 -24.8639 0.0000
# 3 38.5157 7.2677 31.2365 0.0000 -8.9039 0.0000
# 4 0.0000 0.0000 0.0000 31.9366 0.0000 -12.4806
# 5 -19.4284 -24.8639 -8.9039 0.0000 23.7514 0.0000
# 6 0.0000 0.0000 0.0000 -12.4806 0.0000 34.2649
#
#
#
# Elastic Compliance Matrix: (Units=1/GPa)
#
#
# Indices 1 2 3 4 5 6 
#
# 1 0.019149 -0.002681 -0.021635 0.000000 0.004747 0.000000
# 2 -0.002681 0.012714 0.003937 0.000000 0.012593 0.000000
# 3 -0.021635 0.003937 0.060354 0.000000 0.009049 0.000000
# 4 0.000000 0.000000 0.000000 0.036509 0.000000 0.013298
# 5 0.004747 0.012593 0.009049 0.000000 0.062561 0.000000
# 6 0.000000 0.000000 0.000000 0.013298 0.000000 0.034028
#
#
# Mechanical properties :
#
#
# Convention : Reuss Voigt Hill
#
# Bulk Modulus (GPa) = 19.43257 43.71787 31.57522
# Shear Modulus (GPa) = 17.65367 29.18768 23.42068
#
# Velocity S-wave (km/s) = 2.77597 3.56942 3.19740
# Velocity P-wave (km/s) = 4.33096 6.00591 5.23585
#
# Compressibility (1/GPa) = 0.05146000
#
# Stress axis : x y z
#
# Youngs Moduli (GPa) = 52.22088 78.65108 16.56889
#
# Poissons Ratio (x) = 0.21083 0.35847
# Poissons Ratio (y) = 0.13998 -0.06523
# Poissons Ratio (z) = 1.12980 -0.30962
#
# Static dielectric constant tensor:
#      x y z
#    x 2.488880 0.000000 -0.205240 
#    y 0.000000 1.471720 0.000000 
#    z -0.205240 0.000000 1.940340 
# 
# From -- ./inp_files/27547.got.cif
#   From: 2010.05.17/outbox.cif.g08.bks.cpg/sg14_14_cif.got.tgz:27547.got - 2010.06.03 17:49:19.
