data_PCOD9251873
_publ_section_title
;
Structure prediction by ZEFSAII (Michael W. Deem and Ramdas Pophale) SiO2 
 PCOD9251873
Probable space group: P 21/C
;
_chemical_formula_sum "Si O2"
_cell_formula_units_Z 28
_cell_length_a 7.197463
_cell_length_b 17.599017
_cell_length_c 16.681046
_cell_angle_alpha 90.000000
_cell_angle_beta 41.465181
_cell_angle_gamma 90.000000
_cell_volume 1399.127232
_symmetry_space_group_name_H-M "P 21/C"
_symmetry_group_IT_number 14
_symmetry_cell_setting 'monoclinic'
loop_
_space_group_symop_operation_xyz
x,y,z
-x,1/2+y,1/2-z
-x,-y,-z
x,1/2-y,1/2+z
loop_
_atom_site_type_symbol
_atom_site_label
_atom_site_fract_x
_atom_site_fract_y
_atom_site_fract_z
Si Si1 0.237660 0.093768 0.706136
Si Si2 0.736310 0.825630 0.008111
Si Si3 0.890536 0.842264 0.423027
Si Si4 0.318562 0.031371 0.398870
Si Si5 0.507054 0.708688 0.758863
Si Si6 0.345862 0.616927 0.340883
Si Si7 0.663378 0.424387 0.468961
O O1 0.126300 0.114117 0.654895
O O2 0.335424 0.170670 0.718087
O O3 0.984657 0.063611 0.841688
O O4 0.485905 0.032435 0.624457
O O5 0.792980 0.744501 0.948852
O O6 0.020345 0.876541 0.917037
O O7 0.660821 0.808378 0.125172
O O8 0.480977 0.862674 0.042613
O O9 0.701503 0.890714 0.544630
O O10 0.208179 0.834025 0.350685
O O11 0.466905 0.055650 0.267669
O O12 0.000000 0.000000 0.500000
O O13 0.464122 0.798172 0.786207
O O14 0.357051 0.598601 0.431558
O O15 0.500000 0.500000 0.500000
#
# Coordination Sequence:
#
# PCOD9251873 Si02
#       7
#     4   4   4   4   4   4   4
#     4  12  25  43  71  98 135 179 226 280 346 406
#     4  11  23  47  71 101 136 178 234 285 340 413
#     4  11  24  46  69  98 137 176 226 284 346 409
#     4  12  26  45  67 101 139 181 224 286 345 415
#     4  11  22  45  72  98 133 179 231 283 341 412
#     4  11  26  46  70 101 137 182 230 282 351 408
#     4  12  27  43  69 103 138 182 231 286 344 412
#
# _framework density 20.012475999999999
#
# number of rings (size 3 to 8) (size 9 to 14) (size 15 to 20)
#    0.000    0.571    5.714    2.143    4.000    1.143 
#    5.143    0.000    0.000    0.000    0.000    0.000 
#    0.000    0.000    0.000    0.000    0.000    0.000 
#
# Total GULP energy -156519.071196 kJ/mol
# GULP energy per Si atom -5589.966828 kJ/mol
# Density = 1.996693 g / cm^3
# Si number density = 20.012476 Si / 1000 Ang^3
#
#
#
# Elastic Constant Matrix: (Units=GPa)
#
#
# Indices 1 2 3 4 5 6 
#
# 1 61.6198 23.5066 23.6045 0.0000 3.0655 0.0000
# 2 23.5066 58.6124 17.3596 0.0000 -5.5411 0.0000
# 3 23.6045 17.3596 101.9092 0.0000 1.9789 0.0000
# 4 0.0000 0.0000 0.0000 37.3308 0.0000 -0.1948
# 5 3.0655 -5.5411 1.9789 0.0000 39.3674 0.0000
# 6 0.0000 0.0000 0.0000 -0.1948 0.0000 28.7137
#
#
#
# Elastic Compliance Matrix: (Units=1/GPa)
#
#
# Indices 1 2 3 4 5 6 
#
# 1 0.020505 -0.007440 -0.003434 0.000000 -0.002471 0.000000
# 2 -0.007440 0.020956 -0.001917 0.000000 0.003625 0.000000
# 3 -0.003434 -0.001917 0.010945 0.000000 -0.000553 0.000000
# 4 0.000000 0.000000 0.000000 0.026789 0.000000 0.000182
# 5 -0.002471 0.003625 -0.000553 0.000000 0.026132 0.000000
# 6 0.000000 0.000000 0.000000 0.000182 0.000000 0.034828
#
#
# Mechanical properties :
#
#
# Convention : Reuss Voigt Hill
#
# Bulk Modulus (GPa) = 37.27997 39.00920 38.14459
# Shear Modulus (GPa) = 28.62407 31.59373 30.10890
#
# Velocity S-wave (km/s) = 3.78605 3.97760 3.88300
# Velocity P-wave (km/s) = 6.14663 6.37415 6.26142
#
# Compressibility (1/GPa) = 0.02682405
#
# Stress axis : x y z
#
# Youngs Moduli (GPa) = 48.76797 47.71999 91.36332
#
# Poissons Ratio (x) = 0.35505 0.31375
# Poissons Ratio (y) = 0.36284 0.17512
# Poissons Ratio (z) = 0.16747 0.09147
#
# Static dielectric constant tensor:
#      x y z
#    x 1.685980 0.000000 -0.025300 
#    y 0.000000 1.739190 0.000000 
#    z -0.025300 0.000000 1.713980 
# 
# From -- ./inp_files/38059.got.cif
#   From: 2010.05.17/outbox.cif.g08.bks.cpg/sg14_20_cif.got.tgz:38059.got - 2010.06.03 17:49:19.
