data_PCOD9251099
_publ_section_title
;
Structure prediction by ZEFSAII (Michael W. Deem and Ramdas Pophale) SiO2 
 PCOD9251099
Probable space group: P 21/C
;
_chemical_formula_sum "Si O2"
_cell_formula_units_Z 26
_cell_length_a 5.241162
_cell_length_b 20.790862
_cell_length_c 10.615475
_cell_angle_alpha 90.000000
_cell_angle_beta 63.597233
_cell_angle_gamma 90.000000
_cell_volume 1036.089746
_symmetry_space_group_name_H-M "P 21/C"
_symmetry_group_IT_number 14
_symmetry_cell_setting 'monoclinic'
loop_
_space_group_symop_operation_xyz
x,y,z
-x,1/2+y,1/2-z
-x,-y,-z
x,1/2-y,1/2+z
loop_
_atom_site_type_symbol
_atom_site_label
_atom_site_fract_x
_atom_site_fract_y
_atom_site_fract_z
Si Si1 0.773204 0.810174 0.739496
Si Si2 0.398490 0.898061 0.244080
Si Si3 0.232076 0.300279 0.459421
Si Si4 0.188785 0.570683 0.160131
Si Si5 0.500000 0.000000 0.000000
Si Si6 0.744904 0.390085 0.601466
Si Si7 0.231833 0.073882 0.587059
O O1 0.790895 0.788553 0.884381
O O2 0.828202 0.758193 0.620128
O O3 0.447743 0.834106 0.799064
O O4 0.988390 0.869788 0.671502
O O5 0.606133 0.907591 0.318666
O O6 0.070824 0.892637 0.359005
O O7 0.433591 0.961387 0.150167
O O8 0.476281 0.833969 0.148467
O O9 0.006794 0.356698 0.478443
O O10 0.126690 0.562006 0.322162
O O11 0.159102 0.502410 0.100389
O O12 0.522550 0.586603 0.068469
O O13 0.545793 0.067519 0.061029
#
# Coordination Sequence:
#
# PCOD9251099 Si02
#       7
#     4   4   4   4   2   4   4
#     4  11  26  51  76 105 154 213 265 326 391 476
#     4  12  26  45  78 116 156 200 258 331 398 471
#     4  11  28  49  75 111 150 206 274 318 396 473
#     4  10  25  47  74 115 154 206 254 320 405 476
#     4  12  22  46  78 112 154 190 260 330 404 470
#     4  11  24  47  78 110 150 204 256 333 396 473
#     4  11  26  45  79 118 162 194 253 330 404 476
#
# _framework density 25.094349999999999
#
# number of rings (size 3 to 8) (size 9 to 14) (size 15 to 20)
#    0.000    0.923    3.077    1.846    4.308    7.385 
#    2.769    0.000    0.000    0.000    0.000    0.000 
#    0.000    0.000    0.000    0.000    0.000    0.000 
#
# Total GULP energy -145068.792822 kJ/mol
# GULP energy per Si atom -5579.568955 kJ/mol
# Density = 2.503723 g / cm^3
# Si number density = 25.094350 Si / 1000 Ang^3
#
#
#
# Elastic Constant Matrix: (Units=GPa)
#
#
# Indices 1 2 3 4 5 6 
#
# 1 102.6737 33.2110 49.9354 0.0000 -10.6751 0.0000
# 2 33.2110 41.2609 40.6499 0.0000 1.7811 0.0000
# 3 49.9354 40.6499 97.0577 0.0000 15.9728 0.0000
# 4 0.0000 0.0000 0.0000 43.3580 0.0000 9.2837
# 5 -10.6751 1.7811 15.9728 0.0000 38.6753 0.0000
# 6 0.0000 0.0000 0.0000 9.2837 0.0000 23.3423
#
#
#
# Elastic Compliance Matrix: (Units=1/GPa)
#
#
# Indices 1 2 3 4 5 6 
#
# 1 0.015856 -0.006542 -0.006639 0.000000 0.007420 0.000000
# 2 -0.006542 0.045131 -0.015983 0.000000 0.002717 0.000000
# 3 -0.006639 -0.015983 0.022095 0.000000 -0.010222 0.000000
# 4 0.000000 0.000000 0.000000 0.025211 0.000000 -0.010027
# 5 0.007420 0.002717 -0.010222 0.000000 0.032001 0.000000
# 6 0.000000 0.000000 0.000000 -0.010027 0.000000 0.046829
#
#
# Mechanical properties :
#
#
# Convention : Reuss Voigt Hill
#
# Bulk Modulus (GPa) = 40.39791 54.28721 47.34256
# Shear Modulus (GPa) = 19.70822 28.88818 24.29820
#
# Velocity S-wave (km/s) = 2.80548 3.39659 3.11509
# Velocity P-wave (km/s) = 5.16020 6.08791 5.64315
#
# Compressibility (1/GPa) = 0.02475375
#
# Stress axis : x y z
#
# Youngs Moduli (GPa) = 63.06770 22.15772 45.25925
#
# Poissons Ratio (x) = 0.14496 0.30046
# Poissons Ratio (y) = 0.41261 0.72338
# Poissons Ratio (z) = 0.41869 0.35415
#
# Static dielectric constant tensor:
#      x y z
#    x 2.053900 0.000000 0.044610 
#    y 0.000000 1.891060 0.000000 
#    z 0.044610 0.000000 2.007330 
# 
# From -- ./inp_files/21473.got.cif
#   From: 2010.05.17/outbox.cif.g08.bks.cpg/sg14_11_cif.got.tgz:21473.got - 2010.06.03 17:49:19.
