data_PCOD9251459
_publ_section_title
;
Structure prediction by ZEFSAII (Michael W. Deem and Ramdas Pophale) SiO2 
 PCOD9251459
Probable space group: P 21/C
;
_chemical_formula_sum "Si O2"
_cell_formula_units_Z 28
_cell_length_a 12.231618
_cell_length_b 5.076354
_cell_length_c 22.696792
_cell_angle_alpha 90.000000
_cell_angle_beta 55.017406
_cell_angle_gamma 90.000000
_cell_volume 1154.668076
_symmetry_space_group_name_H-M "P 21/C"
_symmetry_group_IT_number 14
_symmetry_cell_setting 'monoclinic'
loop_
_space_group_symop_operation_xyz
x,y,z
-x,1/2+y,1/2-z
-x,-y,-z
x,1/2-y,1/2+z
loop_
_atom_site_type_symbol
_atom_site_label
_atom_site_fract_x
_atom_site_fract_y
_atom_site_fract_z
Si Si1 0.716895 0.362107 0.916876
Si Si2 0.160657 0.293888 0.206346
Si Si3 0.661760 0.890567 0.753282
Si Si4 0.042748 0.963867 0.137314
Si Si5 0.431159 0.254960 0.956902
Si Si6 0.392472 0.761912 0.889320
Si Si7 0.788520 0.112177 0.153182
O O1 0.788864 0.425801 0.832568
O O2 0.827955 0.204977 0.919220
O O3 0.574754 0.240205 0.944020
O O4 0.674361 0.629214 0.963691
O O5 0.289132 0.158769 0.194912
O O6 0.058509 0.290862 0.291742
O O7 0.093750 0.168822 0.170282
O O8 0.724287 0.669799 0.690614
O O9 0.504102 0.845656 0.806640
O O10 0.718307 0.171279 0.716678
O O11 0.946402 0.090170 0.118277
O O12 0.399269 0.977999 0.938175
O O13 0.427255 0.478544 0.906441
O O14 0.252615 0.792013 0.898845
#
# Coordination Sequence:
#
# PCOD9251459 Si02
#       7
#     4   4   4   4   4   4   4
#     4  11  25  44  65 101 130 174 224 283 330 402
#     4  11  21  37  66  97 131 163 211 275 343 385
#     4  11  22  39  67  99 131 172 216 281 334 394
#     4  11  23  38  65  98 135 170 212 277 340 408
#     4  11  27  44  71  94 131 180 228 275 330 388
#     4  12  23  45  65  96 133 179 225 272 323 402
#     4  11  25  40  65  99 136 174 219 269 339 401
#
# _framework density 24.249390999999999
#
# number of rings (size 3 to 8) (size 9 to 14) (size 15 to 20)
#    0.000    0.857    2.857    4.286    8.000    1.143 
#    0.000    1.429    0.000    0.000    0.000    0.000 
#    0.000    0.000    0.000    0.000    0.000    0.000 
#
# Total GULP energy -156671.416335 kJ/mol
# GULP energy per Si atom -5595.407726 kJ/mol
# Density = 2.419420 g / cm^3
# Si number density = 24.249391 Si / 1000 Ang^3
#
#
#
# Elastic Constant Matrix: (Units=GPa)
#
#
# Indices 1 2 3 4 5 6 
#
# 1 186.8057 23.9787 27.8104 0.0000 15.8593 0.0000
# 2 23.9787 58.5545 9.3090 0.0000 -7.5667 0.0000
# 3 27.8104 9.3090 50.0905 0.0000 -5.1951 0.0000
# 4 0.0000 0.0000 0.0000 40.6979 0.0000 -2.6705
# 5 15.8593 -7.5667 -5.1951 0.0000 39.8071 0.0000
# 6 0.0000 0.0000 0.0000 -2.6705 0.0000 33.2263
#
#
#
# Elastic Compliance Matrix: (Units=1/GPa)
#
#
# Indices 1 2 3 4 5 6 
#
# 1 0.006504 -0.002564 -0.003501 0.000000 -0.003535 0.000000
# 2 -0.002564 0.018959 -0.001643 0.000000 0.004411 0.000000
# 3 -0.003501 -0.001643 0.022632 0.000000 0.004036 0.000000
# 4 0.000000 0.000000 0.000000 0.024702 0.000000 0.001985
# 5 -0.003535 0.004411 0.004036 0.000000 0.027895 0.000000
# 6 0.000000 0.000000 0.000000 0.001985 0.000000 0.030256
#
#
# Mechanical properties :
#
#
# Convention : Reuss Voigt Hill
#
# Bulk Modulus (GPa) = 30.60007 46.40520 38.50264
# Shear Modulus (GPa) = 31.79561 38.36976 35.08268
#
# Velocity S-wave (km/s) = 3.62497 3.98213 3.80774
# Velocity P-wave (km/s) = 5.49243 6.34990 5.93667
#
# Compressibility (1/GPa) = 0.03267966
#
# Stress axis : x y z
#
# Youngs Moduli (GPa) = 153.76210 52.74533 44.18616
#
# Poissons Ratio (x) = 0.13521 0.15470
# Poissons Ratio (y) = 0.39417 0.07258
# Poissons Ratio (z) = 0.53833 0.08664
#
# Static dielectric constant tensor:
#      x y z
#    x 1.949980 0.000000 -0.012410 
#    y 0.000000 1.968750 0.000000 
#    z -0.012410 0.000000 1.961640 
# 
# From -- ./inp_files/66450.got.cif
#   From: 2010.05.17/outbox.cif.g08.bks.cpg/sg14_34_cif.got.tgz:66450.got - 2010.06.03 17:49:19.
