data_PCOD9251998
_publ_section_title
;
Structure prediction by ZEFSAII (Michael W. Deem and Ramdas Pophale) SiO2 
 PCOD9251998
Probable space group: P 21/C
;
_chemical_formula_sum "Si O2"
_cell_formula_units_Z 32
_cell_length_a 5.773584
_cell_length_b 27.351054
_cell_length_c 9.439097
_cell_angle_alpha 90.000000
_cell_angle_beta 109.371452
_cell_angle_gamma 90.000000
_cell_volume 1406.178236
_symmetry_space_group_name_H-M "P 21/C"
_symmetry_group_IT_number 14
_symmetry_cell_setting 'monoclinic'
loop_
_space_group_symop_operation_xyz
x,y,z
-x,1/2+y,1/2-z
-x,-y,-z
x,1/2-y,1/2+z
loop_
_atom_site_type_symbol
_atom_site_label
_atom_site_fract_x
_atom_site_fract_y
_atom_site_fract_z
Si Si1 0.507698 0.110558 0.412204
Si Si2 0.971964 0.978123 0.146223
Si Si3 0.520829 0.062882 0.689692
Si Si4 0.866112 0.282836 0.755129
Si Si5 0.304596 0.327826 0.645012
Si Si6 0.817632 0.027890 0.360199
Si Si7 0.257310 0.122941 0.837967
Si Si8 0.118774 0.685974 0.918542
O O1 0.399492 0.079246 0.517674
O O2 0.343468 0.123701 0.246980
O O3 0.733602 0.079301 0.398272
O O4 0.621769 0.159094 0.503879
O O5 0.199174 0.950982 0.266349
O O6 0.791726 0.931758 0.111720
O O7 0.923714 0.026605 0.226846
O O8 0.000000 0.000000 0.000000
O O9 0.494929 0.108097 0.792691
O O10 0.404520 0.010706 0.702793
O O11 0.580087 0.302542 0.696292
O O12 0.853398 0.227603 0.694745
O O13 0.074535 0.303752 0.685628
O O14 0.948988 0.292905 0.936638
O O15 0.258906 0.341370 0.472388
O O16 0.000000 0.000000 0.500000
O O17 0.070812 0.146453 0.685287
#
# Coordination Sequence:
#
# PCOD9251998 Si02
#       8
#     4   4   4   4   4   4   4   4
#     4  11  23  43  71 101 135 188 243 294 354 436
#     4  11  26  40  64  96 143 187 237 299 358 417
#     4  11  23  41  66  96 137 193 236 295 356 416
#     4  11  27  49  74 108 142 185 231 301 373 429
#     4  11  28  46  74 110 144 188 241 301 361 434
#     4  11  23  41  61  97 135 185 242 290 354 419
#     4  11  25  43  69 103 140 188 243 294 354 431
#     4  11  24  49  75 103 142 179 238 293 363 440
#
# _framework density 22.756717999999999
#
# number of rings (size 3 to 8) (size 9 to 14) (size 15 to 20)
#    0.000    1.000    2.500    2.625    5.250    9.000 
#    0.000    0.000    0.000    0.000    0.000    0.000 
#    0.000    0.000    0.000    0.000    0.000    0.000 
#
# Total GULP energy -178207.009344 kJ/mol
# GULP energy per Si atom -5568.969042 kJ/mol
# Density = 2.270492 g / cm^3
# Si number density = 22.756718 Si / 1000 Ang^3
#
#
#
# Elastic Constant Matrix: (Units=GPa)
#
#
# Indices 1 2 3 4 5 6 
#
# 1 64.2047 22.4475 16.9203 0.0000 -16.5017 0.0000
# 2 22.4475 76.9856 36.7369 0.0000 -10.8312 0.0000
# 3 16.9203 36.7369 130.6460 0.0000 -26.5113 0.0000
# 4 0.0000 0.0000 0.0000 48.6534 0.0000 -8.6615
# 5 -16.5017 -10.8312 -26.5113 0.0000 27.9278 0.0000
# 6 0.0000 0.0000 0.0000 -8.6615 0.0000 23.0056
#
#
#
# Elastic Compliance Matrix: (Units=1/GPa)
#
#
# Indices 1 2 3 4 5 6 
#
# 1 0.019725 -0.004691 0.000942 0.000000 0.010729 0.000000
# 2 -0.004691 0.016233 -0.004016 0.000000 -0.000288 0.000000
# 3 0.000942 -0.004016 0.010476 0.000000 0.008944 0.000000
# 4 0.000000 0.000000 0.000000 0.022030 0.000000 0.008294
# 5 0.010729 -0.000288 0.008944 0.000000 0.050525 0.000000
# 6 0.000000 0.000000 0.000000 0.008294 0.000000 0.046590
#
#
# Mechanical properties :
#
#
# Convention : Reuss Voigt Hill
#
# Bulk Modulus (GPa) = 32.35797 47.11621 39.73709
# Shear Modulus (GPa) = 26.12177 32.96613 29.54395
#
# Velocity S-wave (km/s) = 3.39170 3.81022 3.60703
# Velocity P-wave (km/s) = 5.43950 6.33295 5.90315
#
# Compressibility (1/GPa) = 0.03090429
#
# Stress axis : x y z
#
# Youngs Moduli (GPa) = 50.69758 61.60309 95.45217
#
# Poissons Ratio (x) = 0.28900 -0.08990
# Poissons Ratio (y) = 0.23784 0.38329
# Poissons Ratio (z) = -0.04775 0.24737
#
# Static dielectric constant tensor:
#      x y z
#    x 2.035550 0.000000 -0.023470 
#    y 0.000000 1.842550 0.000000 
#    z -0.023470 0.000000 1.849680 
# 
# From -- ./inp_files/6981.got.cif
#   From: 2010.05.17/outbox.cif.g08.bks.cpg/sg14_4_cif.got.tgz:6981.got - 2010.06.03 17:49:19.
