data_PCOD9251685
_publ_section_title
;
Structure prediction by ZEFSAII (Michael W. Deem and Ramdas Pophale) SiO2 
 PCOD9251685
Probable space group: P 21/C
;
_chemical_formula_sum "Si O2"
_cell_formula_units_Z 32
_cell_length_a 11.801567
_cell_length_b 13.544994
_cell_length_c 13.029586
_cell_angle_alpha 90.000000
_cell_angle_beta 143.012404
_cell_angle_gamma 90.000000
_cell_volume 1253.104637
_symmetry_space_group_name_H-M "P 21/C"
_symmetry_group_IT_number 14
_symmetry_cell_setting 'monoclinic'
loop_
_space_group_symop_operation_xyz
x,y,z
-x,1/2+y,1/2-z
-x,-y,-z
x,1/2-y,1/2+z
loop_
_atom_site_type_symbol
_atom_site_label
_atom_site_fract_x
_atom_site_fract_y
_atom_site_fract_z
Si Si1 0.835327 0.164928 0.004260
Si Si2 0.441152 0.226655 0.506867
Si Si3 0.774152 0.887524 0.288615
Si Si4 0.212364 0.837458 0.382550
Si Si5 0.448663 0.065706 0.669511
Si Si6 0.069150 0.270085 0.493661
Si Si7 0.415446 0.128712 0.160947
Si Si8 0.907072 0.992908 0.196219
O O1 0.782979 0.271571 0.011588
O O2 0.991907 0.163963 0.030072
O O3 0.901124 0.101551 0.148700
O O4 0.656362 0.112850 0.823991
O O5 0.303133 0.297444 0.339871
O O6 0.599659 0.180295 0.548010
O O7 0.358548 0.134717 0.514854
O O8 0.515585 0.307761 0.644327
O O9 0.631960 0.919651 0.274105
O O10 0.944844 0.840333 0.475109
O O11 0.837391 0.974242 0.260504
O O12 0.110967 0.942407 0.329837
O O13 0.051769 0.789180 0.193187
O O14 0.473457 0.946612 0.684623
O O15 0.287051 0.294388 0.630170
O O16 0.253375 0.063339 0.987449
#
# Coordination Sequence:
#
# PCOD9251685 Si02
#       8
#     4   4   4   4   4   4   4   4
#     4  11  22  38  64  90 120 159 200 249 299 348
#     4  11  22  38  63  90 118 156 206 244 293 360
#     4  11  22  40  63  85 125 159 196 248 300 351
#     4  11  22  38  63  90 118 156 206 244 293 360
#     4  11  22  38  64  90 120 159 200 249 299 348
#     4  11  22  40  63  85 125 159 196 248 300 351
#     4   9  22  37  60  91 118 156 207 240 292 363
#     4   9  22  37  60  91 118 156 207 240 292 363
#
# _framework density 25.536574999999999
#
# number of rings (size 3 to 8) (size 9 to 14) (size 15 to 20)
#    0.000    1.500    5.000    0.000    3.500    3.000 
#    0.000    1.250   11.000    0.000    0.000    0.000 
#    0.000    0.000    0.000    0.000    0.000    0.000 
#
# Total GULP energy -178912.564934 kJ/mol
# GULP energy per Si atom -5591.017654 kJ/mol
# Density = 2.547845 g / cm^3
# Si number density = 25.536575 Si / 1000 Ang^3
#
#
#
# Elastic Constant Matrix: (Units=GPa)
#
#
# Indices 1 2 3 4 5 6 
#
# 1 127.4987 25.8866 22.2305 0.0000 -2.4866 0.0000
# 2 25.8866 106.4477 10.3961 0.0000 -1.5249 0.0000
# 3 22.2305 10.3961 60.0090 0.0000 -2.2765 0.0000
# 4 0.0000 0.0000 0.0000 26.0101 0.0000 -17.8441
# 5 -2.4866 -1.5249 -2.2765 0.0000 30.4783 0.0000
# 6 0.0000 0.0000 0.0000 -17.8441 0.0000 29.6046
#
#
#
# Elastic Compliance Matrix: (Units=1/GPa)
#
#
# Indices 1 2 3 4 5 6 
#
# 1 0.008729 -0.001834 -0.002901 0.000000 0.000404 0.000000
# 2 -0.001834 0.009945 -0.001033 0.000000 0.000271 0.000000
# 3 -0.002901 -0.001033 0.017958 0.000000 0.001053 0.000000
# 4 0.000000 0.000000 0.000000 0.065554 0.000000 0.039513
# 5 0.000404 0.000271 0.001053 0.000000 0.032935 0.000000
# 6 0.000000 0.000000 0.000000 0.039513 0.000000 0.057595
#
#
# Mechanical properties :
#
#
# Convention : Reuss Voigt Hill
#
# Bulk Modulus (GPa) = 39.84646 45.66464 42.75555
# Shear Modulus (GPa) = 23.51647 32.91474 28.21560
#
# Velocity S-wave (km/s) = 3.03791 3.59406 3.32762
# Velocity P-wave (km/s) = 5.28609 5.92823 5.61634
#
# Compressibility (1/GPa) = 0.02509633
#
# Stress axis : x y z
#
# Youngs Moduli (GPa) = 114.55841 100.55283 55.68634
#
# Poissons Ratio (x) = 0.18439 0.16153
# Poissons Ratio (y) = 0.21007 0.05754
# Poissons Ratio (z) = 0.33231 0.10390
#
# Static dielectric constant tensor:
#      x y z
#    x 1.986470 0.000000 0.003140 
#    y 0.000000 2.040530 0.000000 
#    z 0.003140 0.000000 2.081090 
# 
# From -- ./inp_files/25261.got.cif
#   From: 2010.05.17/outbox.cif.g08.bks.cpg/sg14_13_cif.got.tgz:25261.got - 2010.06.03 17:49:19.
