data_PCOD9251666
_publ_section_title
;
Structure prediction by ZEFSAII (Michael W. Deem and Ramdas Pophale) SiO2 
 PCOD9251666
Probable space group: P 21/C
;
_chemical_formula_sum "Si O2"
_cell_formula_units_Z 20
_cell_length_a 10.083995
_cell_length_b 8.794197
_cell_length_c 8.211255
_cell_angle_alpha 90.000000
_cell_angle_beta 94.597490
_cell_angle_gamma 90.000000
_cell_volume 725.836340
_symmetry_space_group_name_H-M "P 21/C"
_symmetry_group_IT_number 14
_symmetry_cell_setting 'monoclinic'
loop_
_space_group_symop_operation_xyz
x,y,z
-x,1/2+y,1/2-z
-x,-y,-z
x,1/2-y,1/2+z
loop_
_atom_site_type_symbol
_atom_site_label
_atom_site_fract_x
_atom_site_fract_y
_atom_site_fract_z
Si Si1 0.377405 0.197870 0.278814
Si Si2 0.153120 0.100750 0.491938
Si Si3 0.650839 0.444526 0.784817
Si Si4 0.225007 0.536268 0.528700
Si Si5 0.001869 0.592180 0.729880
O O1 0.272841 0.183386 0.414234
O O2 0.383465 0.375562 0.237029
O O3 0.524697 0.144161 0.336976
O O4 0.320269 0.075926 0.141303
O O5 0.225687 0.955184 0.580122
O O6 0.074641 0.181468 0.632372
O O7 0.051131 0.050885 0.343386
O O8 0.690635 0.387844 0.607999
O O9 0.136740 0.633866 0.647760
O O10 0.110590 0.450037 0.411583
#
# Coordination Sequence:
#
# PCOD9251666 Si02
#       5
#     4   4   4   4   4
#     4  11  22  37  60  88 123 164 207 253 301 361
#     4   9  18  34  60  86 115 153 197 252 309 362
#     4  11  22  37  60  88 123 164 207 253 301 361
#     4   9  18  34  60  86 115 153 197 252 309 362
#     4   8  16  34  60  86 116 146 196 258 310 362
#
# _framework density 27.554417999999998
#
# number of rings (size 3 to 8) (size 9 to 14) (size 15 to 20)
#    0.000    2.400    0.000    2.400    0.000    0.000 
#    0.000    0.000    0.000  168.000    0.000    0.000 
#    0.000    0.000    0.000    0.000    0.000    0.000 
#
# Total GULP energy -111911.613178 kJ/mol
# GULP energy per Si atom -5595.580659 kJ/mol
# Density = 2.749170 g / cm^3
# Si number density = 27.554418 Si / 1000 Ang^3
#
#
#
# Elastic Constant Matrix: (Units=GPa)
#
#
# Indices 1 2 3 4 5 6 
#
# 1 168.2526 51.7603 41.6268 0.0000 -9.4416 0.0000
# 2 51.7603 80.2241 45.3154 0.0000 -7.1449 0.0000
# 3 41.6268 45.3154 126.7765 0.0000 -2.7497 0.0000
# 4 0.0000 0.0000 0.0000 35.4748 0.0000 3.2677
# 5 -9.4416 -7.1449 -2.7497 0.0000 51.8367 0.0000
# 6 0.0000 0.0000 0.0000 3.2677 0.0000 23.8840
#
#
#
# Elastic Compliance Matrix: (Units=1/GPa)
#
#
# Indices 1 2 3 4 5 6 
#
# 1 0.007527 -0.004265 -0.000931 0.000000 0.000734 0.000000
# 2 -0.004265 0.018216 -0.005079 0.000000 0.001465 0.000000
# 3 -0.000931 -0.005079 0.010002 0.000000 -0.000339 0.000000
# 4 0.000000 0.000000 0.000000 0.028549 0.000000 -0.003906
# 5 0.000734 0.001465 -0.000339 0.000000 0.019609 0.000000
# 6 0.000000 0.000000 0.000000 -0.003906 0.000000 0.042403
#
#
# Mechanical properties :
#
#
# Convention : Reuss Voigt Hill
#
# Bulk Modulus (GPa) = 65.81296 72.51756 69.16526
# Shear Modulus (GPa) = 32.91167 38.00915 35.46041
#
# Velocity S-wave (km/s) = 3.45979 3.71809 3.59126
# Velocity P-wave (km/s) = 6.31639 6.69382 6.50785
#
# Compressibility (1/GPa) = 0.01519458
#
# Stress axis : x y z
#
# Youngs Moduli (GPa) = 132.85367 54.89567 99.98279
#
# Poissons Ratio (x) = 0.23414 0.09309
# Poissons Ratio (y) = 0.56665 0.50782
# Poissons Ratio (z) = 0.12369 0.27882
#
# Static dielectric constant tensor:
#      x y z
#    x 2.104430 0.000000 -0.000980 
#    y 0.000000 2.107750 0.000000 
#    z -0.000980 0.000000 2.173190 
# 
# From -- ./inp_files/7659.got.cif
#   From: 2010.05.17/outbox.cif.g08.bks.cpg/sg14_4_cif.got.tgz:7659.got - 2010.06.03 17:49:19.
