data_PCOD9251114
_publ_section_title
;
Structure prediction by ZEFSAII (Michael W. Deem and Ramdas Pophale) SiO2 
 PCOD9251114
Probable space group: P 21/C
;
_chemical_formula_sum "Si O2"
_cell_formula_units_Z 20
_cell_length_a 5.152145
_cell_length_b 5.158201
_cell_length_c 29.580351
_cell_angle_alpha 90.000000
_cell_angle_beta 105.728095
_cell_angle_gamma 90.000000
_cell_volume 756.688257
_symmetry_space_group_name_H-M "P 21/C"
_symmetry_group_IT_number 14
_symmetry_cell_setting 'monoclinic'
loop_
_space_group_symop_operation_xyz
x,y,z
-x,1/2+y,1/2-z
-x,-y,-z
x,1/2-y,1/2+z
loop_
_atom_site_type_symbol
_atom_site_label
_atom_site_fract_x
_atom_site_fract_y
_atom_site_fract_z
Si Si1 0.289437 0.009613 0.874475
Si Si2 0.458874 0.825577 0.306808
Si Si3 0.356374 0.641178 0.056189
Si Si4 0.196919 0.678171 0.703455
Si Si5 0.148915 0.783767 0.452319
O O1 0.353382 0.744273 0.851169
O O2 0.150882 0.941275 0.915521
O O3 0.554679 0.165423 0.900544
O O4 0.096974 0.169875 0.832074
O O5 0.654847 0.586235 0.303799
O O6 0.216944 0.814896 0.258791
O O7 0.629206 0.083082 0.307085
O O8 0.621409 0.486951 0.052573
O O9 0.131693 0.434109 0.059267
O O10 0.237351 0.793568 0.007101
#
# Coordination Sequence:
#
# PCOD9251114 Si02
#       5
#     4   4   4   4   4
#     4  12  27  42  82 110 152 208 275 316 400 480
#     4  10  26  49  73 110 159 207 262 332 399 470
#     4  10  25  48  75 113 160 204 260 330 401 474
#     4  10  26  49  73 110 159 207 262 332 399 470
#     4  10  25  48  75 113 160 204 260 330 401 474
#
# _framework density 26.430965
#
# number of rings (size 3 to 8) (size 9 to 14) (size 15 to 20)
#    0.000    1.600    0.000    0.600   11.200    4.800 
#    0.000    6.000    0.000    3.600    0.000    0.000 
#    0.000    0.000    0.000    0.000    0.000    0.000 
#
# Total GULP energy -112393.823262 kJ/mol
# GULP energy per Si atom -5619.691163 kJ/mol
# Density = 2.637081 g / cm^3
# Si number density = 26.430965 Si / 1000 Ang^3
#
#
#
# Elastic Constant Matrix: (Units=GPa)
#
#
# Indices 1 2 3 4 5 6 
#
# 1 -147.2888 -70.9699 -31.9448 0.0000 -118.9782 0.0000
# 2 -70.9699 61.8757 11.2215 0.0000 -46.1416 0.0000
# 3 -31.9448 11.2215 174.8024 0.0000 -11.0223 0.0000
# 4 0.0000 0.0000 0.0000 0.3819 0.0000 18.6096
# 5 -118.9782 -46.1416 -11.0223 0.0000 -51.2804 0.0000
# 6 0.0000 0.0000 0.0000 18.6096 0.0000 35.3986
#
#
#
# Elastic Compliance Matrix: (Units=1/GPa)
#
#
# Indices 1 2 3 4 5 6 
#
# 1 0.008690 -0.003174 0.000691 0.000000 -0.017455 0.000000
# 2 -0.003174 0.011073 -0.001435 0.000000 -0.002290 0.000000
# 3 0.000691 -0.001435 0.005840 0.000000 -0.001568 0.000000
# 4 0.000000 0.000000 0.000000 -0.106366 0.000000 0.055918
# 5 -0.017455 -0.002290 -0.001568 0.000000 0.023395 0.000000
# 6 0.000000 0.000000 0.000000 0.055918 0.000000 -0.001147
#
#
# Mechanical properties :
#
#
# Convention : Reuss Voigt Hill
#
# Bulk Modulus (GPa) = 56.28428 -10.44411 22.92008
# Shear Modulus (GPa) = -111.71961 8.97217 -51.37372
#
# Velocity S-wave (km/s) = -6.50847 1.84443 -4.41352
# Velocity P-wave (km/s) = 5.92784 0.75886 4.15712
#
# Compressibility (1/GPa) = 0.01776695
#
# Stress axis : x y z
#
# Youngs Moduli (GPa) = 115.07041 90.30858 171.22213
#
# Poissons Ratio (x) = 0.28667 -0.11836
# Poissons Ratio (y) = 0.36528 0.24576
# Poissons Ratio (z) = -0.07955 0.12962
#
# Static dielectric constant tensor:
#      x y z
#    x 2.041640 0.000000 -0.022470 
#    y 0.000000 2.036950 0.000000 
#    z -0.022470 0.000000 2.067290 
# 
# From -- ./inp_files/75395.got.cif
#   From: 2010.05.17/outbox.cif.g08.bks.cpg/sg14_38_cif.got.tgz:75395.got - 2010.06.03 17:49:19.
