data_PCOD9251405
_publ_section_title
;
Structure prediction by ZEFSAII (Michael W. Deem and Ramdas Pophale) SiO2 
 PCOD9251405
Probable space group: P 21/C
;
_chemical_formula_sum "Si O2"
_cell_formula_units_Z 32
_cell_length_a 11.841020
_cell_length_b 17.360422
_cell_length_c 14.199397
_cell_angle_alpha 90.000000
_cell_angle_beta 147.721411
_cell_angle_gamma 90.000000
_cell_volume 1558.799256
_symmetry_space_group_name_H-M "P 21/C"
_symmetry_group_IT_number 14
_symmetry_cell_setting 'monoclinic'
loop_
_space_group_symop_operation_xyz
x,y,z
-x,1/2+y,1/2-z
-x,-y,-z
x,1/2-y,1/2+z
loop_
_atom_site_type_symbol
_atom_site_label
_atom_site_fract_x
_atom_site_fract_y
_atom_site_fract_z
Si Si1 0.250331 0.315170 0.450149
Si Si2 0.135771 0.914590 0.355198
Si Si3 0.999946 0.455415 0.902028
Si Si4 0.678174 0.416676 0.410058
Si Si5 0.829093 0.952825 0.750320
Si Si6 0.559534 0.090607 0.035572
Si Si7 0.587261 0.918238 0.769675
Si Si8 0.648528 0.861199 0.451230
O O1 0.393247 0.356028 0.471174
O O2 0.325837 0.351796 0.602267
O O3 0.284272 0.224693 0.477814
O O4 0.010160 0.340941 0.261184
O O5 0.355300 0.902126 0.564125
O O6 0.008233 0.978707 0.326840
O O7 0.170604 0.957792 0.280297
O O8 0.196664 0.400447 0.017203
O O9 0.788304 0.405814 0.745546
O O10 0.000000 0.500000 0.000000
O O11 0.593910 0.388229 0.450976
O O12 0.589847 0.503489 0.332603
O O13 0.931527 0.421893 0.588967
O O14 0.582406 0.367858 0.256916
O O15 0.738845 0.936738 0.788946
O O16 0.682820 0.911812 0.568922
O O17 0.500000 0.000000 0.000000
#
# Coordination Sequence:
#
# PCOD9251405 Si02
#       8
#     4   4   4   4   4   4   4   4
#     4  12  27  44  63 106 141 172 227 297 350 400
#     4  11  22  40  70  97 131 176 231 282 334 418
#     4  11  20  41  72  99 131 185 237 280 333 422
#     4  12  22  42  73  96 130 182 231 282 333 419
#     4  11  23  44  67  99 130 181 230 278 338 425
#     4  12  20  41  72  99 132 175 236 284 335 417
#     4  12  23  41  72 100 130 178 238 275 345 420
#     4  11  27  45  62 102 144 171 232 292 353 399
#
# _framework density 20.528621999999999
#
# number of rings (size 3 to 8) (size 9 to 14) (size 15 to 20)
#    0.000    0.500    8.750    2.250    0.000    2.000 
#    4.500    0.000    0.000    0.000    0.000    0.000 
#    0.000    0.000    0.000    0.000    0.000    0.000 
#
# Total GULP energy -179021.857667 kJ/mol
# GULP energy per Si atom -5594.433052 kJ/mol
# Density = 2.048190 g / cm^3
# Si number density = 20.528622 Si / 1000 Ang^3
#
#
#
# Elastic Constant Matrix: (Units=GPa)
#
#
# Indices 1 2 3 4 5 6 
#
# 1 95.9421 3.4442 29.6201 0.0000 -12.6381 0.0000
# 2 3.4442 56.0306 -8.9675 0.0000 -8.3393 0.0000
# 3 29.6201 -8.9675 105.6826 0.0000 -6.4637 0.0000
# 4 0.0000 0.0000 0.0000 21.2891 0.0000 -5.3143
# 5 -12.6381 -8.3393 -6.4637 0.0000 23.1372 0.0000
# 6 0.0000 0.0000 0.0000 -5.3143 0.0000 15.1500
#
#
#
# Elastic Compliance Matrix: (Units=1/GPa)
#
#
# Indices 1 2 3 4 5 6 
#
# 1 0.012132 -0.000404 -0.003091 0.000000 0.005617 0.000000
# 2 -0.000404 0.019320 0.002203 0.000000 0.007358 0.000000
# 3 -0.003091 0.002203 0.010643 0.000000 0.002079 0.000000
# 4 0.000000 0.000000 0.000000 0.051480 0.000000 0.018058
# 5 0.005617 0.007358 0.002079 0.000000 0.049522 0.000000
# 6 0.000000 0.000000 0.000000 0.018058 0.000000 0.072341
#
#
# Mechanical properties :
#
#
# Convention : Reuss Voigt Hill
#
# Bulk Modulus (GPa) = 25.31068 33.98323 29.64695
# Shear Modulus (GPa) = 21.62705 27.48582 24.55644
#
# Velocity S-wave (km/s) = 3.24930 3.66307 3.46237
# Velocity P-wave (km/s) = 5.14135 5.87204 5.51880
#
# Compressibility (1/GPa) = 0.03950902
#
# Stress axis : x y z
#
# Youngs Moduli (GPa) = 82.42880 51.76008 93.96156
#
# Poissons Ratio (x) = 0.02093 0.29043
# Poissons Ratio (y) = 0.03333 -0.20697
# Poissons Ratio (z) = 0.25478 -0.11401
#
# Static dielectric constant tensor:
#      x y z
#    x 1.759600 0.000000 0.020000 
#    y 0.000000 1.700740 0.000000 
#    z 0.020000 0.000000 1.778180 
# 
# From -- ./inp_files/45384.got.cif
#   From: 2010.05.17/outbox.cif.g08.bks.cpg/sg14_23_cif.got.tgz:45384.got - 2010.06.03 17:49:19.
