data_PCOD9251391
_publ_section_title
;
Structure prediction by ZEFSAII (Michael W. Deem and Ramdas Pophale) SiO2 
 PCOD9251391
Probable space group: P 21/C
;
_chemical_formula_sum "Si O2"
_cell_formula_units_Z 32
_cell_length_a 13.866636
_cell_length_b 15.761580
_cell_length_c 10.905631
_cell_angle_alpha 90.000000
_cell_angle_beta 30.886089
_cell_angle_gamma 90.000000
_cell_volume 1223.547316
_symmetry_space_group_name_H-M "P 21/C"
_symmetry_group_IT_number 14
_symmetry_cell_setting 'monoclinic'
loop_
_space_group_symop_operation_xyz
x,y,z
-x,1/2+y,1/2-z
-x,-y,-z
x,1/2-y,1/2+z
loop_
_atom_site_type_symbol
_atom_site_label
_atom_site_fract_x
_atom_site_fract_y
_atom_site_fract_z
Si Si1 0.111803 0.483974 0.145541
Si Si2 0.326026 0.897223 0.227807
Si Si3 0.263735 0.569929 0.517588
Si Si4 0.630727 0.599155 0.979577
Si Si5 0.503286 0.679941 0.876868
Si Si6 0.790788 0.715818 0.384818
Si Si7 0.282273 0.147545 0.274749
Si Si8 0.808799 0.264595 0.955665
O O1 0.222672 0.556095 0.952144
O O2 0.191246 0.462186 0.193065
O O3 0.169008 0.402393 0.999820
O O4 0.889555 0.491855 0.374221
O O5 0.244422 0.924451 0.185404
O O6 0.287561 0.800805 0.315221
O O7 0.548369 0.908266 0.965337
O O8 0.476619 0.559620 0.240075
O O9 0.222239 0.664592 0.513856
O O10 0.537538 0.614733 0.949186
O O11 0.698988 0.693599 0.946811
O O12 0.630497 0.658234 0.620270
O O13 0.604681 0.769978 0.800221
O O14 0.297417 0.697072 0.047172
O O15 0.850321 0.675195 0.191058
O O16 0.969863 0.719877 0.276812
#
# Coordination Sequence:
#
# PCOD9251391 Si02
#       8
#     4   4   4   4   4   4   4   4
#     4  12  24  43  63  98 135 170 212 264 335 389
#     4  12  24  41  68  98 131 170 212 268 331 386
#     4  12  23  40  64  97 133 164 216 273 324 378
#     4  11  23  39  63  95 127 175 211 266 321 385
#     4  11  21  40  63  96 127 163 227 266 313 377
#     4  11  21  38  65  95 124 166 223 266 321 375
#     4  11  20  40  65  94 131 167 212 272 324 374
#     4  12  22  39  65  94 128 167 214 271 320 377
#
# _framework density 26.153464
#
# number of rings (size 3 to 8) (size 9 to 14) (size 15 to 20)
#    0.000    0.500    7.500    2.250    0.000    2.000 
#    0.000    0.625    0.000    1.500    0.000    0.000 
#    0.000    0.000    0.000    0.000    0.000    0.000 
#
# Total GULP energy -179185.090332 kJ/mol
# GULP energy per Si atom -5599.534073 kJ/mol
# Density = 2.609394 g / cm^3
# Si number density = 26.153464 Si / 1000 Ang^3
#
#
#
# Elastic Constant Matrix: (Units=GPa)
#
#
# Indices 1 2 3 4 5 6 
#
# 1 154.2768 7.3154 23.7212 0.0000 -26.5182 0.0000
# 2 7.3154 36.8317 4.3299 0.0000 -1.4241 0.0000
# 3 23.7212 4.3299 74.5760 0.0000 -26.3064 0.0000
# 4 0.0000 0.0000 0.0000 34.9881 0.0000 -1.4635
# 5 -26.5182 -1.4241 -26.3064 0.0000 48.1619 0.0000
# 6 0.0000 0.0000 0.0000 -1.4635 0.0000 17.1708
#
#
#
# Elastic Compliance Matrix: (Units=1/GPa)
#
#
# Indices 1 2 3 4 5 6 
#
# 1 0.007284 -0.001192 -0.001047 0.000000 0.003404 0.000000
# 2 -0.001192 0.027532 -0.001441 0.000000 -0.000630 0.000000
# 3 -0.001047 -0.001441 0.016855 0.000000 0.008587 0.000000
# 4 0.000000 0.000000 0.000000 0.028683 0.000000 0.002445
# 5 0.003404 -0.000630 0.008587 0.000000 0.027309 0.000000
# 6 0.000000 0.000000 0.000000 0.002445 0.000000 0.058447
#
#
# Mechanical properties :
#
#
# Convention : Reuss Voigt Hill
#
# Bulk Modulus (GPa) = 22.56808 37.37972 29.97390
# Shear Modulus (GPa) = 26.56143 35.41867 30.99005
#
# Velocity S-wave (km/s) = 3.19030 3.68402 3.44602
# Velocity P-wave (km/s) = 4.71366 5.69381 5.22676
#
# Compressibility (1/GPa) = 0.04431038
#
# Stress axis : x y z
#
# Youngs Moduli (GPa) = 137.27906 36.32082 59.32949
#
# Poissons Ratio (x) = 0.04330 0.06213
# Poissons Ratio (y) = 0.16365 0.08552
# Poissons Ratio (z) = 0.14376 0.05235
#
# Static dielectric constant tensor:
#      x y z
#    x 2.076900 0.000000 0.009290 
#    y 0.000000 2.171470 0.000000 
#    z 0.009290 0.000000 2.067380 
# 
# From -- ./inp_files/33030.got.cif
#   From: 2010.05.17/outbox.cif.g08.bks.cpg/sg14_17_cif.got.tgz:33030.got - 2010.06.03 17:49:19.
