data_PCOD9251592
_publ_section_title
;
Structure prediction by ZEFSAII (Michael W. Deem and Ramdas Pophale) SiO2 
 PCOD9251592
Probable space group: P 21/C
;
_chemical_formula_sum "Si O2"
_cell_formula_units_Z 32
_cell_length_a 22.860631
_cell_length_b 11.285633
_cell_length_c 12.667535
_cell_angle_alpha 90.000000
_cell_angle_beta 154.556404
_cell_angle_gamma 90.000000
_cell_volume 1404.084087
_symmetry_space_group_name_H-M "P 21/C"
_symmetry_group_IT_number 14
_symmetry_cell_setting 'monoclinic'
loop_
_space_group_symop_operation_xyz
x,y,z
-x,1/2+y,1/2-z
-x,-y,-z
x,1/2-y,1/2+z
loop_
_atom_site_type_symbol
_atom_site_label
_atom_site_fract_x
_atom_site_fract_y
_atom_site_fract_z
Si Si1 0.657137 0.387011 0.562347
Si Si2 0.784741 0.831619 0.744388
Si Si3 0.843734 0.037933 0.984131
Si Si4 0.283674 0.122277 0.717903
Si Si5 0.950130 0.653199 0.324440
Si Si6 0.975517 0.414540 0.059136
Si Si7 0.422132 0.249668 0.763010
Si Si8 0.619182 0.018564 0.777570
O O1 0.649125 0.506128 0.621480
O O2 0.578109 0.277472 0.486513
O O3 0.595819 0.409425 0.346148
O O4 0.818799 0.377487 0.809736
O O5 0.786844 0.705908 0.808390
O O6 0.920069 0.869709 0.898869
O O7 0.665961 0.824611 0.464939
O O8 0.763902 0.932532 0.796276
O O9 0.744571 0.076284 0.917335
O O10 0.907361 0.121040 0.998194
O O11 0.973257 0.983027 0.255115
O O12 0.169177 0.098296 0.442267
O O13 0.393547 0.200976 0.833526
O O14 0.936711 0.795347 0.299950
O O15 0.000000 0.500000 0.000000
O O16 0.364437 0.382116 0.658852
O O17 0.500000 0.000000 0.500000
#
# Coordination Sequence:
#
# PCOD9251592 Si02
#       8
#     4   4   4   4   4   4   4   4
#     4  12  25  43  68 103 139 181 248 298 349 431
#     4  11  21  43  70  97 136 187 231 281 355 431
#     4  12  23  44  70 102 140 184 236 286 357 436
#     4  11  21  43  71  97 138 188 234 284 355 434
#     4  11  25  39  70 107 138 181 237 294 353 426
#     4  12  24  43  69 103 140 186 233 287 364 429
#     4  11  25  44  68 100 134 190 239 291 355 424
#     4  12  26  44  72 100 141 189 234 293 364 427
#
# _framework density 22.790656999999999
#
# number of rings (size 3 to 8) (size 9 to 14) (size 15 to 20)
#    0.000    0.500    6.250    3.000    1.750    0.000 
#    0.000    0.000    0.000    0.000    0.000    0.000 
#    0.000    0.000    0.000    0.000    0.000    0.000 
#
# Total GULP energy -178718.258200 kJ/mol
# GULP energy per Si atom -5584.945569 kJ/mol
# Density = 2.273878 g / cm^3
# Si number density = 22.790657 Si / 1000 Ang^3
#
#
#
# Elastic Constant Matrix: (Units=GPa)
#
#
# Indices 1 2 3 4 5 6 
#
# 1 130.3278 22.1220 15.0329 0.0000 10.2197 0.0000
# 2 22.1220 44.3359 -16.1640 0.0000 -0.4109 0.0000
# 3 15.0329 -16.1640 74.2098 0.0000 -1.1594 0.0000
# 4 0.0000 0.0000 0.0000 18.6783 0.0000 -2.5701
# 5 10.2197 -0.4109 -1.1594 0.0000 47.3569 0.0000
# 6 0.0000 0.0000 0.0000 -2.5701 0.0000 39.0454
#
#
#
# Elastic Compliance Matrix: (Units=1/GPa)
#
#
# Indices 1 2 3 4 5 6 
#
# 1 0.009176 -0.005744 -0.003143 0.000000 -0.002107 0.000000
# 2 -0.005744 0.028101 0.007310 0.000000 0.001662 0.000000
# 3 -0.003143 0.007310 0.015722 0.000000 0.001127 0.000000
# 4 0.000000 0.000000 0.000000 0.054027 0.000000 0.003556
# 5 -0.002107 0.001662 0.001127 0.000000 0.021613 0.000000
# 6 0.000000 0.000000 0.000000 0.003556 0.000000 0.025845
#
#
# Mechanical properties :
#
#
# Convention : Reuss Voigt Hill
#
# Bulk Modulus (GPa) = 20.06131 32.31727 26.18929
# Shear Modulus (GPa) = 28.69407 36.20829 32.45118
#
# Velocity S-wave (km/s) = 3.55213 3.99022 3.77753
# Velocity P-wave (km/s) = 5.06409 5.95315 5.52652
#
# Compressibility (1/GPa) = 0.04984721
#
# Stress axis : x y z
#
# Youngs Moduli (GPa) = 108.98486 35.58530 63.60578
#
# Poissons Ratio (x) = 0.20439 0.19989
# Poissons Ratio (y) = 0.62596 -0.46498
# Poissons Ratio (z) = 0.34250 -0.26014
#
# Static dielectric constant tensor:
#      x y z
#    x 1.982490 0.000000 0.099170 
#    y 0.000000 1.991370 0.000000 
#    z 0.099170 0.000000 1.920110 
# 
# From -- ./inp_files/35278.got.cif
#   From: 2010.05.17/outbox.cif.g08.bks.cpg/sg14_18_cif.got.tgz:35278.got - 2010.06.03 17:49:19.
