data_PCOD9251595
_publ_section_title
;
Structure prediction by ZEFSAII (Michael W. Deem and Ramdas Pophale) SiO2 
 PCOD9251595
Probable space group: P 21/C
;
_chemical_formula_sum "Si O2"
_cell_formula_units_Z 24
_cell_length_a 8.974329
_cell_length_b 9.158517
_cell_length_c 29.562188
_cell_angle_alpha 90.000000
_cell_angle_beta 149.147984
_cell_angle_gamma 90.000000
_cell_volume 1246.036475
_symmetry_space_group_name_H-M "P 21/C"
_symmetry_group_IT_number 14
_symmetry_cell_setting 'monoclinic'
loop_
_space_group_symop_operation_xyz
x,y,z
-x,1/2+y,1/2-z
-x,-y,-z
x,1/2-y,1/2+z
loop_
_atom_site_type_symbol
_atom_site_label
_atom_site_fract_x
_atom_site_fract_y
_atom_site_fract_z
Si Si1 0.787939 0.901831 0.073538
Si Si2 0.147897 0.610073 0.002651
Si Si3 0.779075 0.463407 0.735219
Si Si4 0.213537 0.260811 0.326230
Si Si5 0.109807 0.070409 0.076023
Si Si6 0.191447 0.070183 0.428683
O O1 0.835361 0.851944 0.139036
O O2 0.766188 0.739204 0.047382
O O3 0.996400 0.989975 0.092515
O O4 0.500000 0.000000 0.000000
O O5 0.493990 0.657509 0.096773
O O6 0.074384 0.521585 0.938868
O O7 0.000000 0.500000 0.000000
O O8 0.002202 0.766020 0.958049
O O9 0.763949 0.618011 0.706449
O O10 0.455828 0.426971 0.665671
O O11 0.933981 0.341076 0.744630
O O12 0.987767 0.455431 0.832813
O O13 0.000000 0.000000 0.000000
O O14 0.500000 0.000000 0.500000
#
# Coordination Sequence:
#
# PCOD9251595 Si02
#       6
#     4   4   4   4   4   4
#     4  11  21  43  71  99 137 182 235 279 353 426
#     4  12  25  45  71 100 141 186 236 294 355 411
#     4  11  26  44  68 101 141 178 240 284 354 421
#     4  11  25  47  68 105 136 190 234 289 358 423
#     4  12  24  44  70 103 138 184 232 291 347 421
#     4  11  23  44  68  99 138 182 229 288 348 416
#
# _framework density 19.261074000000001
#
# number of rings (size 3 to 8) (size 9 to 14) (size 15 to 20)
#    0.000    0.667    6.667    1.000    2.333    6.667 
#    0.000    0.000    0.000    0.000    0.000    0.000 
#    0.000    0.000    0.000    0.000    0.000    0.000 
#
# Total GULP energy -133620.830068 kJ/mol
# GULP energy per Si atom -5567.534586 kJ/mol
# Density = 1.921723 g / cm^3
# Si number density = 19.261074 Si / 1000 Ang^3
#
#
#
# Elastic Constant Matrix: (Units=GPa)
#
#
# Indices 1 2 3 4 5 6 
#
# 1 105.0437 56.9875 32.8528 0.0000 19.3607 0.0000
# 2 56.9875 166.0988 33.9550 0.0000 10.1915 0.0000
# 3 32.8528 33.9550 95.4213 0.0000 29.1896 0.0000
# 4 0.0000 0.0000 0.0000 31.5971 0.0000 2.5201
# 5 19.3607 10.1915 29.1896 0.0000 39.4212 0.0000
# 6 0.0000 0.0000 0.0000 2.5201 0.0000 54.3906
#
#
#
# Elastic Compliance Matrix: (Units=1/GPa)
#
#
# Indices 1 2 3 4 5 6 
#
# 1 0.012898 -0.003798 -0.001877 0.000000 -0.003963 0.000000
# 2 -0.003798 0.007611 -0.001770 0.000000 0.001209 0.000000
# 3 -0.001877 -0.001770 0.014653 0.000000 -0.009470 0.000000
# 4 0.000000 0.000000 0.000000 0.031766 0.000000 -0.001472
# 5 -0.003963 0.001209 -0.009470 0.000000 0.034013 0.000000
# 6 0.000000 0.000000 0.000000 -0.001472 0.000000 0.018454
#
#
# Mechanical properties :
#
#
# Convention : Reuss Voigt Hill
#
# Bulk Modulus (GPa) = 49.33114 68.23937 58.78525
# Shear Modulus (GPa) = 35.45005 41.26636 38.35820
#
# Velocity S-wave (km/s) = 4.29476 4.63371 4.46745
# Velocity P-wave (km/s) = 7.08948 8.00836 7.56289
#
# Compressibility (1/GPa) = 0.02027117
#
# Stress axis : x y z
#
# Youngs Moduli (GPa) = 77.53226 131.38046 68.24516
#
# Poissons Ratio (x) = 0.49903 0.12808
# Poissons Ratio (y) = 0.29450 0.12083
# Poissons Ratio (z) = 0.14551 0.23261
#
# Static dielectric constant tensor:
#      x y z
#    x 2.871220 0.000000 -0.021750 
#    y 0.000000 1.663920 0.000000 
#    z -0.021750 0.000000 1.659350 
# 
# From -- ./inp_files/79525.got.cif
#   From: 2010.05.17/outbox.cif.g08.bks.cpg/sg14_40_cif.got.tgz:79525.got - 2010.06.03 17:49:19.
