data_PCOD9251918
_publ_section_title
;
Structure prediction by ZEFSAII (Michael W. Deem and Ramdas Pophale) SiO2 
 PCOD9251918
Probable space group: P 21/C
;
_chemical_formula_sum "Si O2"
_cell_formula_units_Z 32
_cell_length_a 11.822867
_cell_length_b 16.319705
_cell_length_c 14.544405
_cell_angle_alpha 90.000000
_cell_angle_beta 29.991339
_cell_angle_gamma 90.000000
_cell_volume 1402.772825
_symmetry_space_group_name_H-M "P 21/C"
_symmetry_group_IT_number 14
_symmetry_cell_setting 'monoclinic'
loop_
_space_group_symop_operation_xyz
x,y,z
-x,1/2+y,1/2-z
-x,-y,-z
x,1/2-y,1/2+z
loop_
_atom_site_type_symbol
_atom_site_label
_atom_site_fract_x
_atom_site_fract_y
_atom_site_fract_z
Si Si1 0.400220 0.273855 0.987992
Si Si2 0.251406 0.646807 0.808283
Si Si3 0.457621 0.911907 0.483604
Si Si4 0.780683 0.858036 0.747479
Si Si5 0.962604 0.950371 0.789590
Si Si6 0.020495 0.114242 0.671571
Si Si7 0.784598 0.957718 0.105632
Si Si8 0.384621 0.468386 0.787434
O O1 0.538709 0.346888 0.937785
O O2 0.310807 0.220173 0.135803
O O3 0.185733 0.314061 0.088178
O O4 0.560831 0.216911 0.812835
O O5 0.343837 0.557488 0.771595
O O6 0.182575 0.645266 0.748809
O O7 0.019505 0.659528 0.028496
O O8 0.216408 0.916517 0.604204
O O9 0.655146 0.900735 0.269557
O O10 0.500000 0.000000 0.500000
O O11 0.612017 0.899764 0.793521
O O12 0.824419 0.922634 0.798656
O O13 0.960276 0.049670 0.793919
O O14 0.863856 0.917339 0.954685
O O15 0.167881 0.056288 0.500049
O O16 0.596921 0.023781 0.205065
O O17 0.000000 0.000000 0.000000
#
# Coordination Sequence:
#
# PCOD9251918 Si02
#       8
#     4   4   4   4   4   4   4   4
#     4  12  28  44  69 113 152 184 247 313 369 435
#     4  11  24  49  76 104 147 189 244 304 373 433
#     4  12  24  49  66  99 148 193 238 299 369 443
#     4  11  25  48  73 111 142 192 248 311 365 434
#     4  12  23  44  80  97 142 193 254 292 368 449
#     4  11  22  48  74 104 144 201 241 303 372 437
#     4  12  24  39  72 113 133 188 253 294 353 443
#     4  11  22  49  80 101 145 197 249 297 366 454
#
# _framework density 22.811961
#
# number of rings (size 3 to 8) (size 9 to 14) (size 15 to 20)
#    0.000    0.500    6.250    1.500    3.500    2.000 
#   15.750    0.000    0.000    0.000    0.000    0.000 
#    0.000    0.000    0.000    0.000    0.000    0.000 
#
# Total GULP energy -179106.899014 kJ/mol
# GULP energy per Si atom -5597.090594 kJ/mol
# Density = 2.276004 g / cm^3
# Si number density = 22.811961 Si / 1000 Ang^3
#
#
#
# Elastic Constant Matrix: (Units=GPa)
#
#
# Indices 1 2 3 4 5 6 
#
# 1 103.2374 21.8983 1.4147 0.0000 -12.4670 0.0000
# 2 21.8983 110.3296 16.1444 0.0000 -1.8563 0.0000
# 3 1.4147 16.1444 81.9973 0.0000 13.8449 0.0000
# 4 0.0000 0.0000 0.0000 31.2230 0.0000 1.5451
# 5 -12.4670 -1.8563 13.8449 0.0000 37.6177 0.0000
# 6 0.0000 0.0000 0.0000 1.5451 0.0000 30.8076
#
#
#
# Elastic Compliance Matrix: (Units=1/GPa)
#
#
# Indices 1 2 3 4 5 6 
#
# 1 0.010538 -0.001975 -0.000390 0.000000 0.003539 0.000000
# 2 -0.001975 0.009755 -0.001980 0.000000 0.000556 0.000000
# 3 -0.000390 -0.001980 0.013467 0.000000 -0.005184 0.000000
# 4 0.000000 0.000000 0.000000 0.032107 0.000000 -0.001610
# 5 0.003539 0.000556 -0.005184 0.000000 0.029691 0.000000
# 6 0.000000 0.000000 0.000000 -0.001610 0.000000 0.032540
#
#
# Mechanical properties :
#
#
# Convention : Reuss Voigt Hill
#
# Bulk Modulus (GPa) = 39.89027 41.60878 40.74953
# Shear Modulus (GPa) = 34.44784 37.00346 35.72565
#
# Velocity S-wave (km/s) = 3.89019 4.03191 3.96168
# Velocity P-wave (km/s) = 6.14024 6.32096 6.23126
#
# Compressibility (1/GPa) = 0.02506877
#
# Stress axis : x y z
#
# Youngs Moduli (GPa) = 94.89464 102.51294 74.25325
#
# Poissons Ratio (x) = 0.20245 0.02899
# Poissons Ratio (y) = 0.18741 0.14705
# Poissons Ratio (z) = 0.03705 0.20301
#
# Static dielectric constant tensor:
#      x y z
#    x 1.841500 0.000000 0.016770 
#    y 0.000000 1.854910 0.000000 
#    z 0.016770 0.000000 1.944450 
# 
# From -- ./inp_files/45378.got.cif
#   From: 2010.05.17/outbox.cif.g08.bks.cpg/sg14_23_cif.got.tgz:45378.got - 2010.06.03 17:49:19.
