data_PCOD9251096
_publ_section_title
;
Structure prediction by ZEFSAII (Michael W. Deem and Ramdas Pophale) SiO2 
 PCOD9251096
Probable space group: P 21/C
;
_chemical_formula_sum "Si O2"
_cell_formula_units_Z 32
_cell_length_a 14.206297
_cell_length_b 11.353900
_cell_length_c 16.920760
_cell_angle_alpha 90.000000
_cell_angle_beta 148.054349
_cell_angle_gamma 90.000000
_cell_volume 1444.094322
_symmetry_space_group_name_H-M "P 21/C"
_symmetry_group_IT_number 14
_symmetry_cell_setting 'monoclinic'
loop_
_space_group_symop_operation_xyz
x,y,z
-x,1/2+y,1/2-z
-x,-y,-z
x,1/2-y,1/2+z
loop_
_atom_site_type_symbol
_atom_site_label
_atom_site_fract_x
_atom_site_fract_y
_atom_site_fract_z
Si Si1 0.242665 0.884974 0.016521
Si Si2 0.092136 0.225663 0.755304
Si Si3 0.099494 0.363165 0.441392
Si Si4 0.360506 0.152302 0.668662
Si Si5 0.836484 0.962560 0.330679
Si Si6 0.694239 0.143365 0.655025
Si Si7 0.649142 0.932423 0.507946
Si Si8 0.358237 0.599333 0.422624
O O1 0.288197 0.923692 0.959486
O O2 0.091516 0.787619 0.899534
O O3 0.167942 0.003710 0.003517
O O4 0.426401 0.833155 0.181580
O O5 0.085491 0.164843 0.836979
O O6 0.136282 0.135161 0.717296
O O7 0.236978 0.329226 0.869342
O O8 0.243173 0.270814 0.578450
O O9 0.897947 0.345300 0.328678
O O10 0.310858 0.085433 0.713606
O O11 0.311661 0.075111 0.556862
O O12 0.789325 0.078656 0.248695
O O13 0.000000 0.000000 0.500000
O O14 0.558728 0.090802 0.622616
O O15 0.603156 0.263385 0.559113
O O16 0.699705 0.053388 0.585537
O O17 0.500000 0.500000 0.500000
#
# Coordination Sequence:
#
# PCOD9251096 Si02
#       8
#     4   4   4   4   4   4   4   4
#     4  12  25  45  73 107 150 198 243 309 373 451
#     4  11  24  45  76 108 147 192 246 302 375 450
#     4  11  24  46  74 106 147 192 252 299 375 449
#     4  11  28  46  68 108 147 190 246 315 366 434
#     4  12  27  43  72 107 146 183 246 307 371 436
#     4  11  23  44  78 101 141 195 249 303 365 454
#     4  10  25  47  74 105 143 196 250 304 372 445
#     4  12  24  43  72 104 142 193 243 294 377 442
#
# _framework density 22.159217000000002
#
# number of rings (size 3 to 8) (size 9 to 14) (size 15 to 20)
#    0.000    0.750    5.000    1.500    5.250    4.000 
#    2.250    1.250    0.000    0.000    0.000    0.000 
#    0.000    0.000    0.000    0.000    0.000    0.000 
#
# Total GULP energy -178943.637484 kJ/mol
# GULP energy per Si atom -5591.988671 kJ/mol
# Density = 2.210878 g / cm^3
# Si number density = 22.159217 Si / 1000 Ang^3
#
#
#
# Elastic Constant Matrix: (Units=GPa)
#
#
# Indices 1 2 3 4 5 6 
#
# 1 65.4699 19.8565 16.0896 0.0000 3.2941 0.0000
# 2 19.8565 98.4603 25.4954 0.0000 15.1191 0.0000
# 3 16.0896 25.4954 124.1733 0.0000 21.1616 0.0000
# 4 0.0000 0.0000 0.0000 36.9985 0.0000 3.5859
# 5 3.2941 15.1191 21.1616 0.0000 39.1858 0.0000
# 6 0.0000 0.0000 0.0000 3.5859 0.0000 13.8636
#
#
#
# Elastic Compliance Matrix: (Units=1/GPa)
#
#
# Indices 1 2 3 4 5 6 
#
# 1 0.016558 -0.003016 -0.001638 0.000000 0.000656 0.000000
# 2 -0.003016 0.011665 -0.001410 0.000000 -0.003486 0.000000
# 3 -0.001638 -0.001410 0.009294 0.000000 -0.004337 0.000000
# 4 0.000000 0.000000 0.000000 0.027723 0.000000 -0.007171
# 5 0.000656 -0.003486 -0.004337 0.000000 0.029151 0.000000
# 6 0.000000 0.000000 0.000000 -0.007171 0.000000 0.073986
#
#
# Mechanical properties :
#
#
# Convention : Reuss Voigt Hill
#
# Bulk Modulus (GPa) = 39.38714 45.66516 42.52615
# Shear Modulus (GPa) = 26.45925 33.12040 29.78982
#
# Velocity S-wave (km/s) = 3.45925 3.87027 3.67052
# Velocity P-wave (km/s) = 5.81106 6.37373 6.09889
#
# Compressibility (1/GPa) = 0.02538899
#
# Stress axis : x y z
#
# Youngs Moduli (GPa) = 60.39209 85.72644 107.59335
#
# Poissons Ratio (x) = 0.25855 0.17625
# Poissons Ratio (y) = 0.18214 0.15174
# Poissons Ratio (z) = 0.09893 0.12090
#
# Static dielectric constant tensor:
#      x y z
#    x 1.799610 0.000000 0.056640 
#    y 0.000000 1.975950 0.000000 
#    z 0.056640 0.000000 1.860540 
# 
# From -- ./inp_files/59405.got.cif
#   From: 2010.05.17/outbox.cif.g08.bks.cpg/sg14_30_cif.got.tgz:59405.got - 2010.06.03 17:49:19.
