data_PCOD9251124
_publ_section_title
;
Structure prediction by ZEFSAII (Michael W. Deem and Ramdas Pophale) SiO2 
 PCOD9251124
Probable space group: P 21/C
;
_chemical_formula_sum "Si O2"
_cell_formula_units_Z 20
_cell_length_a 8.577323
_cell_length_b 4.842640
_cell_length_c 23.000916
_cell_angle_alpha 90.000000
_cell_angle_beta 121.873953
_cell_angle_gamma 90.000000
_cell_volume 811.325484
_symmetry_space_group_name_H-M "P 21/C"
_symmetry_group_IT_number 14
_symmetry_cell_setting 'monoclinic'
loop_
_space_group_symop_operation_xyz
x,y,z
-x,1/2+y,1/2-z
-x,-y,-z
x,1/2-y,1/2+z
loop_
_atom_site_type_symbol
_atom_site_label
_atom_site_fract_x
_atom_site_fract_y
_atom_site_fract_z
Si Si1 0.665719 0.666220 0.503703
Si Si2 0.841496 0.597718 0.422851
Si Si3 0.863585 0.328129 0.084037
Si Si4 0.113432 0.488885 0.780293
Si Si5 0.372776 0.844776 0.225945
O O1 0.500000 0.500000 0.500000
O O2 0.676277 0.641430 0.436232
O O3 0.828973 0.496604 0.567958
O O4 0.709113 0.985620 0.523172
O O5 0.755663 0.417225 0.354302
O O6 0.000000 0.500000 0.500000
O O7 0.941080 0.856390 0.410282
O O8 0.850540 0.413262 0.147552
O O9 0.264245 0.569961 0.762784
O O10 0.931737 0.665872 0.728484
O O11 0.555613 0.033348 0.258329
#
# Coordination Sequence:
#
# PCOD9251124 Si02
#       5
#     4   4   4   4   4
#     4  11  25  42  70 103 141 184 242 304 363 421
#     4  10  25  49  73 103 145 198 245 293 365 451
#     4  11  24  44  70 100 137 191 244 296 354 441
#     4  12  25  46  75 101 144 193 248 291 363 450
#     4  12  29  47  74 111 150 190 240 317 374 428
#
# _framework density 24.651018000000001
#
# number of rings (size 3 to 8) (size 9 to 14) (size 15 to 20)
#    0.000    0.800    2.000    3.600    8.400    3.200 
#    0.000    0.000    0.000    0.000    0.000    0.000 
#    0.000    0.000    0.000    0.000    0.000    0.000 
#
# Total GULP energy -111709.691075 kJ/mol
# GULP energy per Si atom -5585.484554 kJ/mol
# Density = 2.459491 g / cm^3
# Si number density = 24.651018 Si / 1000 Ang^3
#
#
#
# Elastic Constant Matrix: (Units=GPa)
#
#
# Indices 1 2 3 4 5 6 
#
# 1 150.8264 4.5781 40.3138 0.0000 -38.1328 0.0000
# 2 4.5781 82.5182 8.4679 0.0000 -2.5256 0.0000
# 3 40.3138 8.4679 133.8579 0.0000 -33.1379 0.0000
# 4 0.0000 0.0000 0.0000 38.0740 0.0000 22.2438
# 5 -38.1328 -2.5256 -33.1379 0.0000 49.8719 0.0000
# 6 0.0000 0.0000 0.0000 22.2438 0.0000 36.7006
#
#
#
# Elastic Compliance Matrix: (Units=1/GPa)
#
#
# Indices 1 2 3 4 5 6 
#
# 1 0.008359 -0.000177 -0.001109 0.000000 0.005646 0.000000
# 2 -0.000177 0.012202 -0.000717 0.000000 0.000006 0.000000
# 3 -0.001109 -0.000717 0.009133 0.000000 0.005185 0.000000
# 4 0.000000 0.000000 0.000000 0.040663 0.000000 -0.024646
# 5 0.005646 0.000006 0.005185 0.000000 0.027814 0.000000
# 6 0.000000 0.000000 0.000000 -0.024646 0.000000 0.042185
#
#
# Mechanical properties :
#
#
# Convention : Reuss Voigt Hill
#
# Bulk Modulus (GPa) = 38.92705 52.65801 45.79253
# Shear Modulus (GPa) = 32.69562 45.85214 39.27388
#
# Velocity S-wave (km/s) = 3.64585 4.31751 3.99581
# Velocity P-wave (km/s) = 5.79210 6.80164 6.31707
#
# Compressibility (1/GPa) = 0.02568908
#
# Stress axis : x y z
#
# Youngs Moduli (GPa) = 119.62734 81.95287 109.48825
#
# Poissons Ratio (x) = 0.01452 0.12138
# Poissons Ratio (y) = 0.02120 0.07851
# Poissons Ratio (z) = 0.13262 0.05876
#
# Static dielectric constant tensor:
#      x y z
#    x 2.223290 0.000000 0.069680 
#    y 0.000000 1.940260 0.000000 
#    z 0.069680 0.000000 1.956820 
# 
# From -- ./inp_files/71553.got.cif
#   From: 2010.05.17/outbox.cif.g08.bks.cpg/sg14_36_cif.got.tgz:71553.got - 2010.06.03 17:49:19.
