data_PCOD9251061
_publ_section_title
;
Structure prediction by ZEFSAII (Michael W. Deem and Ramdas Pophale) SiO2 
 PCOD9251061
Probable space group: P 21/C
;
_chemical_formula_sum "Si O2"
_cell_formula_units_Z 32
_cell_length_a 14.697061
_cell_length_b 11.511574
_cell_length_c 8.554774
_cell_angle_alpha 90.000000
_cell_angle_beta 65.671239
_cell_angle_gamma 90.000000
_cell_volume 1318.820940
_symmetry_space_group_name_H-M "P 21/C"
_symmetry_group_IT_number 14
_symmetry_cell_setting 'monoclinic'
loop_
_space_group_symop_operation_xyz
x,y,z
-x,1/2+y,1/2-z
-x,-y,-z
x,1/2-y,1/2+z
loop_
_atom_site_type_symbol
_atom_site_label
_atom_site_fract_x
_atom_site_fract_y
_atom_site_fract_z
Si Si1 0.066304 0.188803 0.913105
Si Si2 0.232739 0.859715 0.739775
Si Si3 0.597583 0.333534 0.356345
Si Si4 0.935031 0.165827 0.703804
Si Si5 0.537217 0.695284 0.268954
Si Si6 0.693007 0.526164 0.080746
Si Si7 0.738142 0.802411 0.784815
Si Si8 0.168630 0.477192 0.568274
O O1 0.177060 0.207019 0.768476
O O2 0.993777 0.155618 0.825100
O O3 0.082387 0.097061 0.041579
O O4 0.016253 0.305777 0.015656
O O5 0.328237 0.775940 0.684577
O O6 0.141108 0.775476 0.755019
O O7 0.257951 0.954336 0.590756
O O8 0.210100 0.928118 0.916245
O O9 0.512493 0.296852 0.293694
O O10 0.547168 0.358050 0.558329
O O11 0.658763 0.438638 0.241372
O O12 0.872089 0.048140 0.753591
O O13 0.591167 0.599324 0.121929
O O14 0.626716 0.735473 0.321134
O O15 0.762338 0.621194 0.113309
O O16 0.750746 0.883983 0.926778
#
# Coordination Sequence:
#
# PCOD9251061 Si02
#       8
#     4   4   4   4   4   4   4   4
#     4  12  27  47  74 106 154 191 243 303 367 442
#     4  12  27  45  76 106 148 184 251 302 364 439
#     4  12  23  49  71 105 146 186 243 302 366 441
#     4  12  27  47  74 112 141 195 246 300 367 443
#     4  10  27  43  74 104 141 190 239 299 361 440
#     4  10  25  46  70 104 143 189 237 301 372 422
#     4  10  27  47  70 107 145 195 242 307 362 439
#     4  12  27  47  75 107 151 196 242 305 373 428
#
# _framework density 24.264097
#
# number of rings (size 3 to 8) (size 9 to 14) (size 15 to 20)
#    0.750    0.000    3.750    2.250    7.000    2.000 
#    0.000    0.000    0.000    0.000    0.000    0.000 
#    0.000    0.000    0.000    0.000    0.000    0.000 
#
# Total GULP energy -178966.118894 kJ/mol
# GULP energy per Si atom -5592.691215 kJ/mol
# Density = 2.420887 g / cm^3
# Si number density = 24.264097 Si / 1000 Ang^3
#
#
#
# Elastic Constant Matrix: (Units=GPa)
#
#
# Indices 1 2 3 4 5 6 
#
# 1 134.3931 26.9304 5.6255 0.0000 2.6188 0.0000
# 2 26.9304 76.6153 15.6100 0.0000 1.3839 0.0000
# 3 5.6255 15.6100 34.1537 0.0000 -7.6761 0.0000
# 4 0.0000 0.0000 0.0000 42.4887 0.0000 1.4153
# 5 2.6188 1.3839 -7.6761 0.0000 30.3464 0.0000
# 6 0.0000 0.0000 0.0000 1.4153 0.0000 36.5549
#
#
#
# Elastic Compliance Matrix: (Units=1/GPa)
#
#
# Indices 1 2 3 4 5 6 
#
# 1 0.008015 -0.002767 -0.000194 0.000000 -0.000615 0.000000
# 2 -0.002767 0.015523 -0.007151 0.000000 -0.002278 0.000000
# 3 -0.000194 -0.007151 0.034625 0.000000 0.009101 0.000000
# 4 0.000000 0.000000 0.000000 0.023566 0.000000 -0.000912
# 5 -0.000615 -0.002278 0.009101 0.000000 0.035412 0.000000
# 6 0.000000 0.000000 0.000000 -0.000912 0.000000 0.027391
#
#
# Mechanical properties :
#
#
# Convention : Reuss Voigt Hill
#
# Bulk Modulus (GPa) = 26.35720 37.94375 32.15048
# Shear Modulus (GPa) = 28.18444 35.01109 31.59776
#
# Velocity S-wave (km/s) = 3.41188 3.80270 3.61258
# Velocity P-wave (km/s) = 5.13882 5.91206 5.53895
#
# Compressibility (1/GPa) = 0.03794029
#
# Stress axis : x y z
#
# Youngs Moduli (GPa) = 124.76018 64.42091 28.88069
#
# Poissons Ratio (x) = 0.17824 0.00560
# Poissons Ratio (y) = 0.34519 0.20653
# Poissons Ratio (z) = 0.02417 0.46068
#
# Static dielectric constant tensor:
#      x y z
#    x 1.926450 0.000000 -0.001720 
#    y 0.000000 1.953420 0.000000 
#    z -0.001720 0.000000 1.907170 
# 
# From -- ./inp_files/15777.got.cif
#   From: 2010.05.17/outbox.cif.g08.bks.cpg/sg14_8_cif.got.tgz:15777.got - 2010.06.03 17:49:19.
