data_PCOD9251824
_publ_section_title
;
Structure prediction by ZEFSAII (Michael W. Deem and Ramdas Pophale) SiO2 
 PCOD9251824
Probable space group: P 21/C
;
_chemical_formula_sum "Si O2"
_cell_formula_units_Z 28
_cell_length_a 7.968973
_cell_length_b 5.787165
_cell_length_c 26.473061
_cell_angle_alpha 90.000000
_cell_angle_beta 87.504213
_cell_angle_gamma 90.000000
_cell_volume 1219.720224
_symmetry_space_group_name_H-M "P 21/C"
_symmetry_group_IT_number 14
_symmetry_cell_setting 'monoclinic'
loop_
_space_group_symop_operation_xyz
x,y,z
-x,1/2+y,1/2-z
-x,-y,-z
x,1/2-y,1/2+z
loop_
_atom_site_type_symbol
_atom_site_label
_atom_site_fract_x
_atom_site_fract_y
_atom_site_fract_z
Si Si1 0.222050 0.608813 0.727408
Si Si2 0.137490 0.527715 0.292698
Si Si3 0.337849 0.795665 0.630424
Si Si4 0.588008 0.248227 0.988794
Si Si5 0.011150 0.389119 0.130309
Si Si6 0.949184 0.252181 0.524000
Si Si7 0.690862 0.865571 0.668362
O O1 0.253580 0.866813 0.747827
O O2 0.302716 0.588062 0.671245
O O3 0.282741 0.450927 0.773438
O O4 0.018924 0.619597 0.724969
O O5 0.263298 0.403123 0.328801
O O6 0.033250 0.719511 0.324074
O O7 0.360132 0.739975 0.571211
O O8 0.509641 0.910543 0.648147
O O9 0.173449 0.955775 0.636534
O O10 0.500000 0.500000 0.000000
O O11 0.749330 0.249821 0.022753
O O12 0.500000 0.000000 0.000000
O O13 0.026269 0.251626 0.078565
O O14 0.839936 0.537712 0.131572
O O15 0.000000 0.500000 0.500000
O O16 0.000000 0.000000 0.500000
#
# Coordination Sequence:
#
# PCOD9251824 Si02
#       7
#     4   4   4   4   4   4   4
#     4  11  23  43  69 106 144 196 247 306 386 463
#     4  11  22  43  71 101 150 192 241 317 377 464
#     4  12  27  47  78 109 147 207 259 317 394 479
#     4  12  29  54  78 117 162 202 266 342 398 470
#     4  11  26  47  74 105 148 199 253 314 396 464
#     4  12  27  49  80 114 150 203 266 324 395 473
#     4  11  26  46  70 110 154 191 256 320 386 467
#
# _framework density 22.956081000000001
#
# number of rings (size 3 to 8) (size 9 to 14) (size 15 to 20)
#    0.000    0.571    4.286    2.571    8.000    0.000 
#    2.571    0.000    0.000    0.000    0.000    0.000 
#    0.000    0.000    0.000    0.000    0.000    0.000 
#
# Total GULP energy -156193.275954 kJ/mol
# GULP energy per Si atom -5578.331284 kJ/mol
# Density = 2.290383 g / cm^3
# Si number density = 22.956081 Si / 1000 Ang^3
#
#
#
# Elastic Constant Matrix: (Units=GPa)
#
#
# Indices 1 2 3 4 5 6 
#
# 1 138.3641 37.7697 12.4404 0.0000 14.0784 0.0000
# 2 37.7697 101.6455 25.4412 0.0000 -15.7264 0.0000
# 3 12.4404 25.4412 125.3766 0.0000 -12.5686 0.0000
# 4 0.0000 0.0000 0.0000 38.1909 0.0000 -8.5077
# 5 14.0784 -15.7264 -12.5686 0.0000 33.4880 0.0000
# 6 0.0000 0.0000 0.0000 -8.5077 0.0000 26.6703
#
#
#
# Elastic Compliance Matrix: (Units=1/GPa)
#
#
# Indices 1 2 3 4 5 6 
#
# 1 0.009015 -0.004108 -0.000659 0.000000 -0.005966 0.000000
# 2 -0.004108 0.012849 -0.001477 0.000000 0.007207 0.000000
# 3 -0.000659 -0.001477 0.008624 0.000000 0.002820 0.000000
# 4 0.000000 0.000000 0.000000 0.028187 0.000000 0.008992
# 5 -0.005966 0.007207 0.002820 0.000000 0.036813 0.000000
# 6 0.000000 0.000000 0.000000 0.008992 0.000000 0.040363
#
#
# Mechanical properties :
#
#
# Convention : Reuss Voigt Hill
#
# Bulk Modulus (GPa) = 55.55696 57.40986 56.48341
# Shear Modulus (GPa) = 32.39607 38.98550 35.69078
#
# Velocity S-wave (km/s) = 3.76070 4.12547 3.94730
# Velocity P-wave (km/s) = 6.56590 6.91054 6.74042
#
# Compressibility (1/GPa) = 0.01799954
#
# Stress axis : x y z
#
# Youngs Moduli (GPa) = 110.92603 77.82495 115.95782
#
# Poissons Ratio (x) = 0.31970 0.07642
# Poissons Ratio (y) = 0.45568 0.17130
# Poissons Ratio (z) = 0.07310 0.11497
#
# Static dielectric constant tensor:
#      x y z
#    x 1.861080 0.000000 -0.053340 
#    y 0.000000 2.082930 0.000000 
#    z -0.053340 0.000000 1.832860 
# 
# From -- ./inp_files/76069.got.cif
#   From: 2010.05.17/outbox.cif.g08.bks.cpg/sg14_39_cif.got.tgz:76069.got - 2010.06.03 17:49:19.
