data_PCOD9251235
_publ_section_title
;
Structure prediction by ZEFSAII (Michael W. Deem and Ramdas Pophale) SiO2 
 PCOD9251235
Probable space group: P 21/C
;
_chemical_formula_sum "Si O2"
_cell_formula_units_Z 14
_cell_length_a 13.423254
_cell_length_b 5.129146
_cell_length_c 9.604686
_cell_angle_alpha 90.000000
_cell_angle_beta 131.569843
_cell_angle_gamma 90.000000
_cell_volume 494.735681
_symmetry_space_group_name_H-M "P 21/C"
_symmetry_group_IT_number 14
_symmetry_cell_setting 'monoclinic'
loop_
_space_group_symop_operation_xyz
x,y,z
-x,1/2+y,1/2-z
-x,-y,-z
x,1/2-y,1/2+z
loop_
_atom_site_type_symbol
_atom_site_label
_atom_site_fract_x
_atom_site_fract_y
_atom_site_fract_z
Si Si1 0.712554 0.041486 0.731463
Si Si2 0.654720 0.657999 0.903386
Si Si3 0.916657 0.120321 0.708689
Si Si4 0.500000 0.000000 0.000000
O O1 0.860916 0.087354 0.813893
O O2 0.621766 0.284262 0.616768
O O3 0.707623 0.911383 0.875017
O O4 0.642272 0.816423 0.560840
O O5 0.530961 0.564480 0.700009
O O6 0.777738 0.453488 0.003647
O O7 0.980179 0.398127 0.740420
#
# Coordination Sequence:
#
# PCOD9251235 Si02
#       4
#     4   4   4   2
#     4  10  27  48  81 116 166 218 279 352 424 500
#     4  10  27  46  82 116 162 220 273 356 419 502
#     4  10  26  50  82 122 166 220 286 344 425 512
#     4  12  26  48  78 118 166 218 282 342 422 504
#
# _framework density 28.297937999999998
#
# number of rings (size 3 to 8) (size 9 to 14) (size 15 to 20)
#    1.714    0.000    0.000    0.857   12.000    4.571 
#    0.000    0.000    0.000    0.000    0.000    0.000 
#    0.000    0.000    0.000    0.000    0.000    0.000 
#
# Total GULP energy -78195.040380 kJ/mol
# GULP energy per Si atom -5585.360027 kJ/mol
# Density = 2.823353 g / cm^3
# Si number density = 28.297938 Si / 1000 Ang^3
#
#
#
# Elastic Constant Matrix: (Units=GPa)
#
#
# Indices 1 2 3 4 5 6 
#
# 1 174.5189 20.3775 12.4305 0.0000 -6.1361 0.0000
# 2 20.3775 147.3818 15.9774 0.0000 -20.3580 0.0000
# 3 12.4305 15.9774 137.8840 0.0000 -1.0790 0.0000
# 4 0.0000 0.0000 0.0000 64.4903 0.0000 6.5201
# 5 -6.1361 -20.3580 -1.0790 0.0000 46.3200 0.0000
# 6 0.0000 0.0000 0.0000 6.5201 0.0000 47.6372
#
#
#
# Elastic Compliance Matrix: (Units=1/GPa)
#
#
# Indices 1 2 3 4 5 6 
#
# 1 0.005859 -0.000699 -0.000444 0.000000 0.000459 0.000000
# 2 -0.000699 0.007399 -0.000770 0.000000 0.003141 0.000000
# 3 -0.000444 -0.000770 0.007380 0.000000 -0.000225 0.000000
# 4 0.000000 0.000000 0.000000 0.015724 0.000000 -0.002152
# 5 0.000459 0.003141 -0.000225 0.000000 0.023025 0.000000
# 6 0.000000 0.000000 0.000000 -0.002152 0.000000 0.021287
#
#
# Mechanical properties :
#
#
# Convention : Reuss Voigt Hill
#
# Bulk Modulus (GPa) = 59.47408 61.92840 60.70124
# Shear Modulus (GPa) = 55.49212 59.08944 57.29078
#
# Velocity S-wave (km/s) = 4.43312 4.57455 4.50439
# Velocity P-wave (km/s) = 6.87503 7.05932 6.96778
#
# Compressibility (1/GPa) = 0.01681405
#
# Stress axis : x y z
#
# Youngs Moduli (GPa) = 170.66739 135.15184 135.50298
#
# Poissons Ratio (x) = 0.09443 0.06012
# Poissons Ratio (y) = 0.11924 0.10431
# Poissons Ratio (z) = 0.07572 0.10404
#
# Static dielectric constant tensor:
#      x y z
#    x 2.123350 0.000000 -0.214380 
#    y 0.000000 1.794500 0.000000 
#    z -0.214380 0.000000 2.250540 
# 
# From -- ./inp_files/31050.got.cif
#   From: 2010.05.17/outbox.cif.g08.bks.cpg/sg14_16_cif.got.tgz:31050.got - 2010.06.03 17:49:19.
