data_PCOD9251207
_publ_section_title
;
Structure prediction by ZEFSAII (Michael W. Deem and Ramdas Pophale) SiO2 
 PCOD9251207
Probable space group: P 21/C
;
_chemical_formula_sum "Si O2"
_cell_formula_units_Z 20
_cell_length_a 5.053187
_cell_length_b 31.083119
_cell_length_c 5.345229
_cell_angle_alpha 90.000000
_cell_angle_beta 83.346532
_cell_angle_gamma 90.000000
_cell_volume 833.914340
_symmetry_space_group_name_H-M "P 21/C"
_symmetry_group_IT_number 14
_symmetry_cell_setting 'monoclinic'
loop_
_space_group_symop_operation_xyz
x,y,z
-x,1/2+y,1/2-z
-x,-y,-z
x,1/2-y,1/2+z
loop_
_atom_site_type_symbol
_atom_site_label
_atom_site_fract_x
_atom_site_fract_y
_atom_site_fract_z
Si Si1 0.579765 0.075631 0.050685
Si Si2 0.918363 0.777949 0.142635
Si Si3 0.125965 0.910339 0.466840
Si Si4 0.413388 0.836363 0.182869
Si Si5 0.261485 0.473246 0.909969
O O1 0.768295 0.075688 0.273752
O O2 0.499451 0.125236 0.014863
O O3 0.349665 0.041052 0.123342
O O4 0.739408 0.065687 0.783175
O O5 0.894987 0.755218 0.875693
O O6 0.682585 0.812077 0.219891
O O7 0.202981 0.801864 0.105434
O O8 0.817166 0.924736 0.479768
O O9 0.234646 0.862205 0.408661
O O10 0.500000 0.500000 0.000000
O O11 0.000000 0.500000 0.000000
#
# Coordination Sequence:
#
# PCOD9251207 Si02
#       5
#     4   4   4   4   4
#     4  10  26  46  75 104 144 196 252 284 374 418
#     4  12  28  45  74 111 144 184 236 299 378 417
#     4  10  26  46  75 104 144 196 252 284 374 418
#     4  10  28  46  78  98 154 186 246 294 348 462
#     4  12  26  47  74 109 152 190 246 315 358 421
#
# _framework density 23.983274999999999
#
# number of rings (size 3 to 8) (size 9 to 14) (size 15 to 20)
#    1.200    0.000    2.000    1.200   11.200    3.200 
#    0.000    0.000    0.000    0.000    0.000    0.000 
#    0.000    0.000    0.000    0.000    0.000    0.000 
#
# Total GULP energy -111557.028227 kJ/mol
# GULP energy per Si atom -5577.851411 kJ/mol
# Density = 2.392869 g / cm^3
# Si number density = 23.983275 Si / 1000 Ang^3
#
#
#
# Elastic Constant Matrix: (Units=GPa)
#
#
# Indices 1 2 3 4 5 6 
#
# 1 102.1985 8.6308 11.2984 0.0000 -6.9648 0.0000
# 2 8.6308 61.7161 20.5652 0.0000 -3.3685 0.0000
# 3 11.2984 20.5652 108.1323 0.0000 2.9547 0.0000
# 4 0.0000 0.0000 0.0000 24.3956 0.0000 -4.6924
# 5 -6.9648 -3.3685 2.9547 0.0000 31.0280 0.0000
# 6 0.0000 0.0000 0.0000 -4.6924 0.0000 60.1862
#
#
#
# Elastic Compliance Matrix: (Units=1/GPa)
#
#
# Indices 1 2 3 4 5 6 
#
# 1 0.010125 -0.000982 -0.000933 0.000000 0.002255 0.000000
# 2 -0.000982 0.017546 -0.003289 0.000000 0.001998 0.000000
# 3 -0.000933 -0.003289 0.010012 0.000000 -0.001520 0.000000
# 4 0.000000 0.000000 0.000000 0.041615 0.000000 0.003244
# 5 0.002255 0.001998 -0.001520 0.000000 0.033097 0.000000
# 6 0.000000 0.000000 0.000000 0.003244 0.000000 0.016868
#
#
# Mechanical properties :
#
#
# Convention : Reuss Voigt Hill
#
# Bulk Modulus (GPa) = 36.66325 39.22619 37.94472
# Shear Modulus (GPa) = 33.61089 38.55880 36.08485
#
# Velocity S-wave (km/s) = 3.74763 4.01401 3.88310
# Velocity P-wave (km/s) = 5.83494 6.15420 5.99669
#
# Compressibility (1/GPa) = 0.02727527
#
# Stress axis : x y z
#
# Youngs Moduli (GPa) = 98.76931 56.99465 99.87598
#
# Poissons Ratio (x) = 0.05597 0.09316
# Poissons Ratio (y) = 0.09699 0.32848
# Poissons Ratio (z) = 0.09213 0.18745
#
# Static dielectric constant tensor:
#      x y z
#    x 1.971390 0.000000 -0.003800 
#    y 0.000000 2.034700 0.000000 
#    z -0.003800 0.000000 1.891310 
# 
# From -- ./inp_files/712.got.cif
#   From: 2010.05.17/outbox.cif.g08.bks.cpg/sg14_1_cif.got.tgz:712.got - 2010.06.03 17:49:19.
