data_PCOD9251439
_publ_section_title
;
Structure prediction by ZEFSAII (Michael W. Deem and Ramdas Pophale) SiO2 
 PCOD9251439
Probable space group: P 21/C
;
_chemical_formula_sum "Si O2"
_cell_formula_units_Z 28
_cell_length_a 12.138130
_cell_length_b 9.252225
_cell_length_c 12.493638
_cell_angle_alpha 90.000000
_cell_angle_beta 63.611951
_cell_angle_gamma 90.000000
_cell_volume 1256.898247
_symmetry_space_group_name_H-M "P 21/C"
_symmetry_group_IT_number 14
_symmetry_cell_setting 'monoclinic'
loop_
_space_group_symop_operation_xyz
x,y,z
-x,1/2+y,1/2-z
-x,-y,-z
x,1/2-y,1/2+z
loop_
_atom_site_type_symbol
_atom_site_label
_atom_site_fract_x
_atom_site_fract_y
_atom_site_fract_z
Si Si1 0.268486 0.463771 0.955652
Si Si2 0.879656 0.841909 0.775668
Si Si3 0.243404 0.753033 0.335323
Si Si4 0.381428 0.523655 0.126297
Si Si5 0.989062 0.605898 0.864164
Si Si6 0.864405 0.988229 0.011326
Si Si7 0.312378 0.272629 0.294339
O O1 0.292667 0.604487 0.873535
O O2 0.352873 0.334614 0.871548
O O3 0.280773 0.494699 0.076326
O O4 0.127912 0.404983 0.006336
O O5 0.939272 0.689509 0.781082
O O6 0.751283 0.822799 0.770429
O O7 0.861361 0.928100 0.893724
O O8 0.972609 0.941932 0.671654
O O9 0.332119 0.665971 0.212861
O O10 0.206898 0.637430 0.441835
O O11 0.111792 0.805552 0.343260
O O12 0.397272 0.391986 0.203538
O O13 0.500000 0.500000 0.000000
O O14 0.794683 0.872725 0.113474
O O15 0.000000 0.000000 0.000000
#
# Coordination Sequence:
#
# PCOD9251439 Si02
#       7
#     4   4   4   4   4   4   4
#     4  12  24  43  68  99 136 176 220 277 343 404
#     4  12  23  35  61  95 137 178 213 260 326 406
#     4  11  25  40  64  99 133 176 220 270 340 403
#     4  11  27  50  69  94 133 178 236 289 328 392
#     4  12  23  37  62 103 145 172 210 271 335 415
#     4  11  21  36  55  89 135 174 211 256 326 401
#     4  11  22  42  63  92 126 174 221 272 338 388
#
# _framework density 22.277059999999999
#
# number of rings (size 3 to 8) (size 9 to 14) (size 15 to 20)
#    0.000    0.571    5.714    2.143    6.000    1.143 
#    0.000    0.714    0.000    0.000    0.000    0.000 
#    0.000    0.000    0.000    0.000    0.000    0.000 
#
# Total GULP energy -156256.348613 kJ/mol
# GULP energy per Si atom -5580.583879 kJ/mol
# Density = 2.222636 g / cm^3
# Si number density = 22.277060 Si / 1000 Ang^3
#
#
#
# Elastic Constant Matrix: (Units=GPa)
#
#
# Indices 1 2 3 4 5 6 
#
# 1 26.6630 -1.9491 -4.5945 0.0000 -5.5357 0.0000
# 2 -1.9491 125.1081 26.2770 0.0000 -14.0568 0.0000
# 3 -4.5945 26.2770 74.5578 0.0000 -21.5199 0.0000
# 4 0.0000 0.0000 0.0000 49.7529 0.0000 17.7972
# 5 -5.5357 -14.0568 -21.5199 0.0000 34.1953 0.0000
# 6 0.0000 0.0000 0.0000 17.7972 0.0000 10.1599
#
#
#
# Elastic Compliance Matrix: (Units=1/GPa)
#
#
# Indices 1 2 3 4 5 6 
#
# 1 0.040543 0.000680 0.005174 0.000000 0.010099 0.000000
# 2 0.000680 0.008756 -0.002412 0.000000 0.002192 0.000000
# 3 0.005174 -0.002412 0.017763 0.000000 0.011025 0.000000
# 4 0.000000 0.000000 0.000000 0.053829 0.000000 -0.094294
# 5 0.010099 0.002192 0.011025 0.000000 0.038718 0.000000
# 6 0.000000 0.000000 0.000000 -0.094294 0.000000 0.263601
#
#
# Mechanical properties :
#
#
# Convention : Reuss Voigt Hill
#
# Bulk Modulus (GPa) = 13.52334 29.53286 21.52810
# Shear Modulus (GPa) = 11.33846 32.59465 21.96656
#
# Velocity S-wave (km/s) = 2.25849 3.82926 3.14357
# Velocity P-wave (km/s) = 3.58954 5.73035 4.78130
#
# Compressibility (1/GPa) = 0.07394625
#
# Stress axis : x y z
#
# Youngs Moduli (GPa) = 24.66521 114.20135 56.29554
#
# Poissons Ratio (x) = -0.07762 -0.29125
# Poissons Ratio (y) = -0.01676 0.13576
# Poissons Ratio (z) = -0.12761 0.27540
#
# Static dielectric constant tensor:
#      x y z
#    x 1.941940 0.000000 0.030450 
#    y 0.000000 1.711190 0.000000 
#    z 0.030450 0.000000 1.879190 
# 
# From -- ./inp_files/46450.got.cif
#   From: 2010.05.17/outbox.cif.g08.bks.cpg/sg14_24_cif.got.tgz:46450.got - 2010.06.03 17:49:19.
