data_PCOD9251748
_publ_section_title
;
Structure prediction by ZEFSAII (Michael W. Deem and Ramdas Pophale) SiO2 
 PCOD9251748
Probable space group: P 21/C
;
_chemical_formula_sum "Si O2"
_cell_formula_units_Z 32
_cell_length_a 5.006639
_cell_length_b 23.242455
_cell_length_c 12.341625
_cell_angle_alpha 90.000000
_cell_angle_beta 63.503660
_cell_angle_gamma 90.000000
_cell_volume 1285.303343
_symmetry_space_group_name_H-M "P 21/C"
_symmetry_group_IT_number 14
_symmetry_cell_setting 'monoclinic'
loop_
_space_group_symop_operation_xyz
x,y,z
-x,1/2+y,1/2-z
-x,-y,-z
x,1/2-y,1/2+z
loop_
_atom_site_type_symbol
_atom_site_label
_atom_site_fract_x
_atom_site_fract_y
_atom_site_fract_z
Si Si1 0.893771 0.459698 0.291224
Si Si2 0.782067 0.775509 0.807152
Si Si3 0.330302 0.418364 0.031279
Si Si4 0.699878 0.901816 0.111070
Si Si5 0.910386 0.672294 0.067459
Si Si6 0.310239 0.065339 0.305432
Si Si7 0.218666 0.652251 0.373079
Si Si8 0.518882 0.162890 0.651887
O O1 0.588908 0.430950 0.389071
O O2 0.801800 0.521832 0.264352
O O3 0.035065 0.431608 0.155381
O O4 0.138919 0.448875 0.339483
O O5 0.481205 0.812320 0.886935
O O6 0.733652 0.708469 0.836177
O O7 0.816031 0.781383 0.670878
O O8 0.059147 0.804690 0.817144
O O9 0.541056 0.400144 0.090853
O O10 0.362775 0.458983 0.919978
O O11 0.329316 0.356732 0.968374
O O12 0.553121 0.852383 0.212462
O O13 0.953746 0.874238 0.991913
O O14 0.946615 0.614224 0.134570
O O15 0.178739 0.690925 0.944152
O O16 0.602313 0.099711 0.215032
#
# Coordination Sequence:
#
# PCOD9251748 Si02
#       8
#     4   4   4   4   4   4   4   4
#     4  11  22  41  66 100 122 176 208 262 330 380
#     4  11  26  40  68  88 123 170 218 251 330 367
#     4   9  20  39  61  94 127 156 209 269 315 369
#     4  11  25  41  63  94 136 163 216 262 319 377
#     4   9  21  42  61  93 123 163 207 269 308 375
#     4   9  21  41  69  90 134 162 219 260 322 377
#     4  11  25  46  59  95 128 173 213 269 303 390
#     4  11  23  39  65  91 129 164 210 268 315 384
#
# _framework density 24.896844999999999
#
# number of rings (size 3 to 8) (size 9 to 14) (size 15 to 20)
#    0.750    1.000    1.250    1.875    3.500    4.000 
#    0.000    3.125    0.000    0.000    0.000    0.000 
#    0.000    0.000    0.000    0.000    0.000    0.000 
#
# Total GULP energy -178319.826706 kJ/mol
# GULP energy per Si atom -5572.494585 kJ/mol
# Density = 2.484018 g / cm^3
# Si number density = 24.896845 Si / 1000 Ang^3
#
#
#
# Elastic Constant Matrix: (Units=GPa)
#
#
# Indices 1 2 3 4 5 6 
#
# 1 56.1636 3.2554 -4.7081 0.0000 -13.7724 0.0000
# 2 3.2554 47.1368 15.6779 0.0000 -7.8492 0.0000
# 3 -4.7081 15.6779 135.6599 0.0000 -36.4678 0.0000
# 4 0.0000 0.0000 0.0000 21.9034 0.0000 -2.7026
# 5 -13.7724 -7.8492 -36.4678 0.0000 28.0019 0.0000
# 6 0.0000 0.0000 0.0000 -2.7026 0.0000 17.5492
#
#
#
# Elastic Compliance Matrix: (Units=1/GPa)
#
#
# Indices 1 2 3 4 5 6 
#
# 1 0.022957 -0.000410 0.005922 0.000000 0.018888 0.000000
# 2 -0.000410 0.022429 -0.001493 0.000000 0.004141 0.000000
# 3 0.005922 -0.001493 0.012955 0.000000 0.019366 0.000000
# 4 0.000000 0.000000 0.000000 0.046539 0.000000 0.007167
# 5 0.018888 0.004141 0.019366 0.000000 0.071384 0.000000
# 6 0.000000 0.000000 0.000000 0.007167 0.000000 0.058087
#
#
# Mechanical properties :
#
#
# Convention : Reuss Voigt Hill
#
# Bulk Modulus (GPa) = 15.06502 29.71229 22.38866
# Shear Modulus (GPa) = 20.12555 28.47323 24.29939
#
# Velocity S-wave (km/s) = 2.84625 3.38546 3.12749
# Velocity P-wave (km/s) = 4.10678 5.21937 4.69614
#
# Compressibility (1/GPa) = 0.06637892
#
# Stress axis : x y z
#
# Youngs Moduli (GPa) = 43.55973 44.58442 77.18787
#
# Poissons Ratio (x) = 0.01827 -0.45707
# Poissons Ratio (y) = 0.01785 0.11525
# Poissons Ratio (z) = -0.25794 0.06657
#
# Static dielectric constant tensor:
#      x y z
#    x 2.063140 0.000000 0.047430 
#    y 0.000000 2.063820 0.000000 
#    z 0.047430 0.000000 2.031140 
# 
# From -- ./inp_files/38199.got.cif
#   From: 2010.05.17/outbox.cif.g08.bks.cpg/sg14_20_cif.got.tgz:38199.got - 2010.06.03 17:49:19.
