data_PCOD9251683
_publ_section_title
;
Structure prediction by ZEFSAII (Michael W. Deem and Ramdas Pophale) SiO2 
 PCOD9251683
Probable space group: P 21/C
;
_chemical_formula_sum "Si O2"
_cell_formula_units_Z 32
_cell_length_a 8.624924
_cell_length_b 26.026595
_cell_length_c 8.142850
_cell_angle_alpha 90.000000
_cell_angle_beta 46.148504
_cell_angle_gamma 90.000000
_cell_volume 1318.157667
_symmetry_space_group_name_H-M "P 21/C"
_symmetry_group_IT_number 14
_symmetry_cell_setting 'monoclinic'
loop_
_space_group_symop_operation_xyz
x,y,z
-x,1/2+y,1/2-z
-x,-y,-z
x,1/2-y,1/2+z
loop_
_atom_site_type_symbol
_atom_site_label
_atom_site_fract_x
_atom_site_fract_y
_atom_site_fract_z
Si Si1 0.074069 0.572346 0.387309
Si Si2 0.344261 0.001110 0.855370
Si Si3 0.415447 0.929072 0.115960
Si Si4 0.498319 0.799605 0.321749
Si Si5 0.851424 0.781770 0.569922
Si Si6 0.101456 0.857457 0.181811
Si Si7 0.738061 0.276517 0.680580
Si Si8 0.195185 0.138676 0.114952
O O1 0.297564 0.541054 0.246926
O O2 0.041265 0.601822 0.584610
O O3 0.872569 0.534684 0.500602
O O4 0.028739 0.614365 0.280444
O O5 0.542181 0.040199 0.744838
O O6 0.354691 0.968668 0.016130
O O7 0.229141 0.886874 0.232407
O O8 0.645750 0.901620 0.909467
O O9 0.628955 0.746373 0.212770
O O10 0.399856 0.801202 0.573639
O O11 0.320230 0.782660 0.320987
O O12 0.650956 0.844894 0.150586
O O13 0.843108 0.811904 0.746592
O O14 0.905719 0.824408 0.395270
O O15 0.019061 0.734759 0.440024
O O16 0.248139 0.815356 0.981547
#
# Coordination Sequence:
#
# PCOD9251683 Si02
#       8
#     4   4   4   4   4   4   4   4
#     4   9  19  34  63 100 116 158 215 264 325 369
#     4   8  16  36  68  90 120 162 201 268 329 382
#     4   9  18  38  64  94 120 164 212 256 330 387
#     4  12  25  42  62  90 130 179 222 262 311 367
#     4  12  25  42  61  89 140 177 213 260 319 376
#     4  11  22  38  62  96 126 171 215 262 312 377
#     4  12  25  42  62  90 130 179 222 262 311 367
#     4  11  22  38  62  96 126 171 215 262 312 377
#
# _framework density 24.276306999999999
#
# number of rings (size 3 to 8) (size 9 to 14) (size 15 to 20)
#    0.000    1.500    2.500    3.000    3.500    0.000 
#    0.000    0.000    0.000   28.500    0.000    0.000 
#    0.000    0.000    0.000    0.000    0.000    0.000 
#
# Total GULP energy -178592.694137 kJ/mol
# GULP energy per Si atom -5581.021692 kJ/mol
# Density = 2.422105 g / cm^3
# Si number density = 24.276307 Si / 1000 Ang^3
#
#
#
# Elastic Constant Matrix: (Units=GPa)
#
#
# Indices 1 2 3 4 5 6 
#
# 1 202.8697 164.3867 85.0142 0.0000 -16.6779 0.0000
# 2 164.3867 253.3871 118.1548 0.0000 -18.3177 0.0000
# 3 85.0142 118.1548 142.2167 0.0000 -1.0262 0.0000
# 4 0.0000 0.0000 0.0000 -3.1673 0.0000 8.8070
# 5 -16.6779 -18.3177 -1.0262 0.0000 28.1915 0.0000
# 6 0.0000 0.0000 0.0000 8.8070 0.0000 67.7596
#
#
#
# Elastic Compliance Matrix: (Units=1/GPa)
#
#
# Indices 1 2 3 4 5 6 
#
# 1 0.010609 -0.006157 -0.001211 0.000000 0.002232 0.000000
# 2 -0.006157 0.010498 -0.005020 0.000000 0.002996 0.000000
# 3 -0.001211 -0.005020 0.011900 0.000000 -0.003545 0.000000
# 4 0.000000 0.000000 0.000000 -0.231911 0.000000 0.030142
# 5 0.002232 0.002996 -0.003545 0.000000 0.038610 0.000000
# 6 0.000000 0.000000 0.000000 0.030142 0.000000 0.010840
#
#
# Mechanical properties :
#
#
# Convention : Reuss Voigt Hill
#
# Bulk Modulus (GPa) = 121.46707 148.17611 134.82159
# Shear Modulus (GPa) = -41.00557 33.95129 -3.52714
#
# Velocity S-wave (km/s) = -4.11435 3.74376 -1.20668
# Velocity P-wave (km/s) = 5.25104 8.93630 7.32908
#
# Compressibility (1/GPa) = 0.00823268
#
# Stress axis : x y z
#
# Youngs Moduli (GPa) = 94.26015 95.25410 84.03181
#
# Poissons Ratio (x) = 0.58646 0.10173
# Poissons Ratio (y) = 0.58034 0.42184
# Poissons Ratio (z) = 0.11411 0.47818
#
# Static dielectric constant tensor:
#      x y z
#    x 2.003530 0.000000 -0.021340 
#    y 0.000000 2.034330 0.000000 
#    z -0.021340 0.000000 1.895930 
# 
# From -- ./inp_files/11055.got.cif
#   From: 2010.05.17/outbox.cif.g08.bks.cpg/sg14_6_cif.got.tgz:11055.got - 2010.06.03 17:49:19.
