data_PCOD9251019
_publ_section_title
;
Structure prediction by ZEFSAII (Michael W. Deem and Ramdas Pophale) SiO2 
 PCOD9251019
Probable space group: P 21/C
;
_chemical_formula_sum "Si O2"
_cell_formula_units_Z 24
_cell_length_a 11.292955
_cell_length_b 11.577906
_cell_length_c 22.928053
_cell_angle_alpha 90.000000
_cell_angle_beta 157.105654
_cell_angle_gamma 90.000000
_cell_volume 1166.249005
_symmetry_space_group_name_H-M "P 21/C"
_symmetry_group_IT_number 14
_symmetry_cell_setting 'monoclinic'
loop_
_space_group_symop_operation_xyz
x,y,z
-x,1/2+y,1/2-z
-x,-y,-z
x,1/2-y,1/2+z
loop_
_atom_site_type_symbol
_atom_site_label
_atom_site_fract_x
_atom_site_fract_y
_atom_site_fract_z
Si Si1 0.528060 0.550020 0.314546
Si Si2 0.145178 0.487870 0.656201
Si Si3 0.132537 0.362024 0.867065
Si Si4 0.398577 0.315166 0.863115
Si Si5 0.937393 0.593729 0.831212
Si Si6 0.392990 0.779965 0.323668
O O1 0.631410 0.549580 0.294807
O O2 0.229024 0.474541 0.192025
O O3 0.481976 0.678063 0.319515
O O4 0.806034 0.493047 0.476864
O O5 0.194797 0.401237 0.731813
O O6 0.234756 0.615387 0.718261
O O7 0.327384 0.341226 0.898097
O O8 0.024053 0.493726 0.824376
O O9 0.840410 0.278899 0.736800
O O10 0.326574 0.330314 0.012551
O O11 0.293306 0.186826 0.799723
O O12 0.750286 0.343089 0.009941
#
# Coordination Sequence:
#
# PCOD9251019 Si02
#       6
#     4   4   4   4   4   4
#     4  10  25  45  67  98 134 175 225 272 328 401
#     4  11  24  44  69  97 135 176 221 276 332 388
#     4  11  24  43  70  97 137 173 226 270 335 397
#     4  12  25  42  69  98 138 176 220 279 330 394
#     4  11  25  44  64 101 133 175 224 269 336 388
#     4  11  22  44  69  98 129 178 218 276 334 394
#
# _framework density 20.578796000000001
#
# number of rings (size 3 to 8) (size 9 to 14) (size 15 to 20)
#    0.000    1.000    3.333    2.500    4.667    0.667 
#    0.000    4.167    0.000    0.000    0.000    0.000 
#    0.000    0.000    0.000    0.000    0.000    0.000 
#
# Total GULP energy -134259.410230 kJ/mol
# GULP energy per Si atom -5594.142093 kJ/mol
# Density = 2.053196 g / cm^3
# Si number density = 20.578796 Si / 1000 Ang^3
#
#
#
# Elastic Constant Matrix: (Units=GPa)
#
#
# Indices 1 2 3 4 5 6 
#
# 1 36.1875 41.7393 13.2831 0.0000 0.6841 0.0000
# 2 41.7393 125.2270 40.1764 0.0000 5.4643 0.0000
# 3 13.2831 40.1764 54.0442 0.0000 7.8222 0.0000
# 4 0.0000 0.0000 0.0000 37.1480 0.0000 7.3909
# 5 0.6841 5.4643 7.8222 0.0000 24.0317 0.0000
# 6 0.0000 0.0000 0.0000 7.3909 0.0000 16.9280
#
#
#
# Elastic Compliance Matrix: (Units=1/GPa)
#
#
# Indices 1 2 3 4 5 6 
#
# 1 0.045004 -0.015030 -0.000207 0.000000 0.002204 0.000000
# 2 -0.015030 0.015507 -0.007750 0.000000 -0.000575 0.000000
# 3 -0.000207 -0.007750 0.025249 0.000000 -0.006450 0.000000
# 4 0.000000 0.000000 0.000000 0.029480 0.000000 -0.012871
# 5 0.002204 -0.000575 -0.006450 0.000000 0.043779 0.000000
# 6 0.000000 0.000000 0.000000 -0.012871 0.000000 0.064693
#
#
# Mechanical properties :
#
#
# Convention : Reuss Voigt Hill
#
# Bulk Modulus (GPa) = 25.13457 45.09516 35.11486
# Shear Modulus (GPa) = 17.67098 23.63886 20.65492
#
# Velocity S-wave (km/s) = 2.93353 3.39292 3.17156
# Velocity P-wave (km/s) = 4.86975 6.10821 5.52380
#
# Compressibility (1/GPa) = 0.03978584
#
# Stress axis : x y z
#
# Youngs Moduli (GPa) = 22.22015 64.48780 39.60491
#
# Poissons Ratio (x) = 0.96926 0.00819
# Poissons Ratio (y) = 0.33397 0.30695
# Poissons Ratio (z) = 0.00460 0.49980
#
# Static dielectric constant tensor:
#      x y z
#    x 1.686950 0.000000 0.032360 
#    y 0.000000 1.715490 0.000000 
#    z 0.032360 0.000000 1.740070 
# 
# From -- ./inp_files/12358.got.cif
#   From: 2010.05.17/outbox.cif.g08.bks.cpg/sg14_7_cif.got.tgz:12358.got - 2010.06.03 17:49:19.
