data_PCOD9251651
_publ_section_title
;
Structure prediction by ZEFSAII (Michael W. Deem and Ramdas Pophale) SiO2 
 PCOD9251651
Probable space group: P 21/C
;
_chemical_formula_sum "Si O2"
_cell_formula_units_Z 28
_cell_length_a 11.141743
_cell_length_b 15.117262
_cell_length_c 8.541341
_cell_angle_alpha 90.000000
_cell_angle_beta 64.270103
_cell_angle_gamma 90.000000
_cell_volume 1296.000344
_symmetry_space_group_name_H-M "P 21/C"
_symmetry_group_IT_number 14
_symmetry_cell_setting 'monoclinic'
loop_
_space_group_symop_operation_xyz
x,y,z
-x,1/2+y,1/2-z
-x,-y,-z
x,1/2-y,1/2+z
loop_
_atom_site_type_symbol
_atom_site_label
_atom_site_fract_x
_atom_site_fract_y
_atom_site_fract_z
Si Si1 0.034488 0.139672 0.855183
Si Si2 0.092993 0.469184 0.606032
Si Si3 0.188573 0.559782 0.068470
Si Si4 0.949212 0.193938 0.586706
Si Si5 0.683774 0.302004 0.790758
Si Si6 0.686930 0.532667 0.272280
Si Si7 0.426509 0.640945 0.482701
O O1 0.047340 0.156482 0.663259
O O2 0.904646 0.074199 0.930910
O O3 0.017626 0.236859 0.933660
O O4 0.122468 0.088700 0.935408
O O5 0.187792 0.441899 0.691709
O O6 0.939689 0.459787 0.751029
O O7 0.121304 0.616753 0.968346
O O8 0.264784 0.483414 0.931821
O O9 0.295537 0.615498 0.105951
O O10 0.825994 0.250829 0.726034
O O11 0.648740 0.332818 0.635861
O O12 0.578250 0.229669 0.910752
O O13 0.570863 0.603976 0.353986
O O14 0.636326 0.439651 0.379171
#
# Coordination Sequence:
#
# PCOD9251651 Si02
#       7
#     4   4   4   4   4   4   4
#     4  11  22  35  63  96 130 160 209 255 325 366
#     4  11  23  39  62 100 135 163 199 269 327 387
#     4  12  23  37  71  96 128 163 215 258 324 376
#     4  12  19  37  62  97 119 162 214 260 300 379
#     4  12  20  39  70  95 115 165 224 269 291 378
#     4  11  24  43  61  97 133 171 200 272 318 379
#     4  11  24  42  69  88 128 169 227 256 310 366
#
# _framework density 21.604932999999999
#
# number of rings (size 3 to 8) (size 9 to 14) (size 15 to 20)
#    0.000    0.571    7.143    1.286    2.000    0.571 
#    0.000    2.857    3.143    0.000    0.000    0.000 
#    0.000    0.000    0.000    0.000    0.000    0.000 
#
# Total GULP energy -156253.255613 kJ/mol
# GULP energy per Si atom -5580.473415 kJ/mol
# Density = 2.155576 g / cm^3
# Si number density = 21.604933 Si / 1000 Ang^3
#
#
#
# Elastic Constant Matrix: (Units=GPa)
#
#
# Indices 1 2 3 4 5 6 
#
# 1 48.2213 31.6926 35.1106 0.0000 1.7454 0.0000
# 2 31.6926 68.0392 34.9953 0.0000 -4.6241 0.0000
# 3 35.1106 34.9953 82.6145 0.0000 12.6857 0.0000
# 4 0.0000 0.0000 0.0000 45.3593 0.0000 10.9681
# 5 1.7454 -4.6241 12.6857 0.0000 34.9096 0.0000
# 6 0.0000 0.0000 0.0000 10.9681 0.0000 27.1235
#
#
#
# Elastic Compliance Matrix: (Units=1/GPa)
#
#
# Indices 1 2 3 4 5 6 
#
# 1 0.035745 -0.011193 -0.010536 0.000000 0.000559 0.000000
# 2 -0.011193 0.023432 -0.006070 0.000000 0.005869 0.000000
# 3 -0.010536 -0.006070 0.020330 0.000000 -0.007665 0.000000
# 4 0.000000 0.000000 0.000000 0.024435 0.000000 -0.009881
# 5 0.000559 0.005869 -0.007665 0.000000 0.032180 0.000000
# 6 0.000000 0.000000 0.000000 -0.009881 0.000000 0.040864
#
#
# Mechanical properties :
#
#
# Convention : Reuss Voigt Hill
#
# Bulk Modulus (GPa) = 41.82415 44.71910 43.27162
# Shear Modulus (GPa) = 20.78519 27.95025 24.36772
#
# Velocity S-wave (km/s) = 3.10507 3.60070 3.36203
# Velocity P-wave (km/s) = 5.67943 6.16687 5.92816
#
# Compressibility (1/GPa) = 0.02390963
#
# Stress axis : x y z
#
# Youngs Moduli (GPa) = 27.97561 42.67658 49.18740
#
# Poissons Ratio (x) = 0.47768 0.51824
# Poissons Ratio (y) = 0.31313 0.29857
# Poissons Ratio (z) = 0.29475 0.25905
#
# Static dielectric constant tensor:
#      x y z
#    x 1.761100 0.000000 -0.013200 
#    y 0.000000 1.855110 0.000000 
#    z -0.013200 0.000000 1.842900 
# 
# From -- ./inp_files/13228.got.cif
#   From: 2010.05.17/outbox.cif.g08.bks.cpg/sg14_7_cif.got.tgz:13228.got - 2010.06.03 17:49:19.
