data_PCOD9251549
_publ_section_title
;
Structure prediction by ZEFSAII (Michael W. Deem and Ramdas Pophale) SiO2 
 PCOD9251549
Probable space group: P 21/C
;
_chemical_formula_sum "Si O2"
_cell_formula_units_Z 32
_cell_length_a 11.106180
_cell_length_b 8.481868
_cell_length_c 13.762838
_cell_angle_alpha 90.000000
_cell_angle_beta 78.769585
_cell_angle_gamma 90.000000
_cell_volume 1271.650180
_symmetry_space_group_name_H-M "P 21/C"
_symmetry_group_IT_number 14
_symmetry_cell_setting 'monoclinic'
loop_
_space_group_symop_operation_xyz
x,y,z
-x,1/2+y,1/2-z
-x,-y,-z
x,1/2-y,1/2+z
loop_
_atom_site_type_symbol
_atom_site_label
_atom_site_fract_x
_atom_site_fract_y
_atom_site_fract_z
Si Si1 0.924494 0.280809 0.989653
Si Si2 0.491697 0.100759 0.654607
Si Si3 0.794301 0.075142 0.869723
Si Si4 0.459680 0.738439 0.063733
Si Si5 0.255362 0.703478 0.812299
Si Si6 0.278619 0.309935 0.478542
Si Si7 0.115209 0.395304 0.098629
Si Si8 0.768370 0.577764 0.720079
O O1 0.801823 0.304549 0.072208
O O2 0.026811 0.273221 0.057042
O O3 0.902924 0.138601 0.920250
O O4 0.938052 0.434938 0.920953
O O5 0.519792 0.194985 0.551949
O O6 0.606210 0.138629 0.705675
O O7 0.362567 0.144359 0.722861
O O8 0.478249 0.918809 0.624645
O O9 0.673454 0.186588 0.901566
O O10 0.818894 0.094421 0.752086
O O11 0.756722 0.911210 0.921854
O O12 0.579139 0.843801 0.066792
O O13 0.243324 0.887594 0.785716
O O14 0.244596 0.134296 0.520613
O O15 0.208556 0.354449 0.390611
O O16 0.136737 0.382671 0.209234
#
# Coordination Sequence:
#
# PCOD9251549 Si02
#       8
#     4   4   4   4   4   4   4   4
#     4  11  24  49  73  95 130 187 234 279 345 404
#     4  11  22  38  70  99 133 184 225 266 335 418
#     4  12  24  44  68 103 141 178 222 287 344 407
#     4  11  21  41  68  95 143 180 218 273 344 406
#     4  12  24  43  71 100 139 182 225 276 345 403
#     4  12  26  42  68 106 138 176 227 287 339 411
#     4  11  26  48  73  97 134 182 236 285 338 409
#     4  12  24  45  67 102 141 175 226 284 341 404
#
# _framework density 25.164152999999999
#
# number of rings (size 3 to 8) (size 9 to 14) (size 15 to 20)
#    0.000    0.500    6.250    1.875    0.000    4.500 
#    2.250    0.000    0.000    0.000    0.000    0.000 
#    0.000    0.000    0.000    0.000    0.000    0.000 
#
# Total GULP energy -179170.787292 kJ/mol
# GULP energy per Si atom -5599.087103 kJ/mol
# Density = 2.510688 g / cm^3
# Si number density = 25.164153 Si / 1000 Ang^3
#
#
#
# Elastic Constant Matrix: (Units=GPa)
#
#
# Indices 1 2 3 4 5 6 
#
# 1 88.4074 5.7134 12.5425 0.0000 25.8646 0.0000
# 2 5.7134 57.2332 27.9269 0.0000 11.6639 0.0000
# 3 12.5425 27.9269 138.8446 0.0000 36.4590 0.0000
# 4 0.0000 0.0000 0.0000 32.6810 0.0000 3.8766
# 5 25.8646 11.6639 36.4590 0.0000 45.9009 0.0000
# 6 0.0000 0.0000 0.0000 3.8766 0.0000 28.0785
#
#
#
# Elastic Compliance Matrix: (Units=1/GPa)
#
#
# Indices 1 2 3 4 5 6 
#
# 1 0.013653 -0.000134 0.001017 0.000000 -0.008467 0.000000
# 2 -0.000134 0.019571 -0.003334 0.000000 -0.002250 0.000000
# 3 0.001017 -0.003334 0.009741 0.000000 -0.007463 0.000000
# 4 0.000000 0.000000 0.000000 0.031108 0.000000 -0.004295
# 5 -0.008467 -0.002250 -0.007463 0.000000 0.033057 0.000000
# 6 0.000000 0.000000 0.000000 -0.004295 0.000000 0.036207
#
#
# Mechanical properties :
#
#
# Convention : Reuss Voigt Hill
#
# Bulk Modulus (GPa) = 26.27174 41.87231 34.07202
# Shear Modulus (GPa) = 31.07043 37.21892 34.14467
#
# Velocity S-wave (km/s) = 3.51766 3.85001 3.68758
# Velocity P-wave (km/s) = 5.19243 6.03649 5.63030
#
# Compressibility (1/GPa) = 0.03806372
#
# Stress axis : x y z
#
# Youngs Moduli (GPa) = 73.24549 51.09635 102.66314
#
# Poissons Ratio (x) = 0.00682 -0.10439
# Poissons Ratio (y) = 0.00978 0.34223
# Poissons Ratio (z) = -0.07448 0.17033
#
# Static dielectric constant tensor:
#      x y z
#    x 2.103300 0.000000 -0.014720 
#    y 0.000000 1.968540 0.000000 
#    z -0.014720 0.000000 1.955500 
# 
# From -- ./inp_files/43728.got.cif
#   From: 2010.05.17/outbox.cif.g08.bks.cpg/sg14_22_cif.got.tgz:43728.got - 2010.06.03 17:49:19.
