data_PCOD9251856
_publ_section_title
;
Structure prediction by ZEFSAII (Michael W. Deem and Ramdas Pophale) SiO2 
 PCOD9251856
Probable space group: P 21/C
;
_chemical_formula_sum "Si O2"
_cell_formula_units_Z 28
_cell_length_a 7.402173
_cell_length_b 13.128102
_cell_length_c 14.651221
_cell_angle_alpha 90.000000
_cell_angle_beta 51.116636
_cell_angle_gamma 90.000000
_cell_volume 1108.286434
_symmetry_space_group_name_H-M "P 21/C"
_symmetry_group_IT_number 14
_symmetry_cell_setting 'monoclinic'
loop_
_space_group_symop_operation_xyz
x,y,z
-x,1/2+y,1/2-z
-x,-y,-z
x,1/2-y,1/2+z
loop_
_atom_site_type_symbol
_atom_site_label
_atom_site_fract_x
_atom_site_fract_y
_atom_site_fract_z
Si Si1 0.146380 0.163612 0.757557
Si Si2 0.375229 0.700807 0.847635
Si Si3 0.214817 0.399637 0.535228
Si Si4 0.195438 0.893858 0.982304
Si Si5 0.992722 0.120352 0.302118
Si Si6 0.068639 0.410132 0.080424
Si Si7 0.502463 0.203264 0.386013
O O1 0.409480 0.131748 0.691005
O O2 0.081758 0.150131 0.673235
O O3 0.970797 0.105615 0.877575
O O4 0.124667 0.280410 0.796545
O O5 0.431666 0.757527 0.735030
O O6 0.144748 0.636264 0.906985
O O7 0.340702 0.791420 0.930910
O O8 0.330393 0.500400 0.452987
O O9 0.381453 0.302965 0.469381
O O10 0.980020 0.388541 0.548198
O O11 0.129955 0.407672 0.665889
O O12 0.735268 0.160427 0.358198
O O13 0.972436 0.025660 0.375949
O O14 0.307264 0.384181 0.953762
#
# Coordination Sequence:
#
# PCOD9251856 Si02
#       7
#     4   4   4   4   4   4   4
#     4  12  25  45  75 107 145 193 248 300 373 432
#     4  12  25  47  73 103 155 188 244 312 361 440
#     4  11  22  44  77 105 144 193 247 302 370 437
#     4  11  23  44  72 110 146 190 250 302 364 446
#     4  12  26  48  74 110 147 199 248 303 380 448
#     4  12  26  50  71 106 152 196 243 310 374 437
#     4  12  22  48  73 104 154 190 234 322 366 431
#
# _framework density 25.264226000000001
#
# number of rings (size 3 to 8) (size 9 to 14) (size 15 to 20)
#    0.000    0.286    8.571    0.429    2.000    1.143 
#    2.571    3.571    0.000    0.000    0.000    0.000 
#    0.000    0.000    0.000    0.000    0.000    0.000 
#
# Total GULP energy -157046.459645 kJ/mol
# GULP energy per Si atom -5608.802130 kJ/mol
# Density = 2.520672 g / cm^3
# Si number density = 25.264226 Si / 1000 Ang^3
#
#
#
# Elastic Constant Matrix: (Units=GPa)
#
#
# Indices 1 2 3 4 5 6 
#
# 1 74.2166 39.0115 32.7061 0.0000 -23.8991 0.0000
# 2 39.0115 132.5078 24.1741 0.0000 -1.8398 0.0000
# 3 32.7061 24.1741 103.5986 0.0000 -7.3047 0.0000
# 4 0.0000 0.0000 0.0000 30.5121 0.0000 12.6923
# 5 -23.8991 -1.8398 -7.3047 0.0000 35.1863 0.0000
# 6 0.0000 0.0000 0.0000 12.6923 0.0000 22.2900
#
#
#
# Elastic Compliance Matrix: (Units=1/GPa)
#
#
# Indices 1 2 3 4 5 6 
#
# 1 0.023406 -0.005774 -0.005016 0.000000 0.014555 0.000000
# 2 -0.005774 0.009307 -0.000600 0.000000 -0.003560 0.000000
# 3 -0.005016 -0.000600 0.011299 0.000000 -0.001093 0.000000
# 4 0.000000 0.000000 0.000000 0.042946 0.000000 -0.024454
# 5 0.014555 -0.003560 -0.001093 0.000000 0.037893 0.000000
# 6 0.000000 0.000000 0.000000 -0.024454 0.000000 0.058788
#
#
# Mechanical properties :
#
#
# Convention : Reuss Voigt Hill
#
# Bulk Modulus (GPa) = 47.09656 55.78962 51.44309
# Shear Modulus (GPa) = 23.41963 31.89308 27.65636
#
# Velocity S-wave (km/s) = 3.04795 3.55686 3.31219
# Velocity P-wave (km/s) = 5.57393 6.24489 5.91893
#
# Compressibility (1/GPa) = 0.02123297
#
# Stress axis : x y z
#
# Youngs Moduli (GPa) = 42.72330 107.45041 88.50279
#
# Poissons Ratio (x) = 0.62041 0.44392
# Poissons Ratio (y) = 0.24668 0.05308
# Poissons Ratio (z) = 0.21429 0.06445
#
# Static dielectric constant tensor:
#      x y z
#    x 1.974120 0.000000 -0.012810 
#    y 0.000000 2.035350 0.000000 
#    z -0.012810 0.000000 1.955970 
# 
# From -- ./inp_files/55919.got.cif
#   From: 2010.05.17/outbox.cif.g08.bks.cpg/sg14_28_cif.got.tgz:55919.got - 2010.06.03 17:49:19.
