data_PCOD9251979
_publ_section_title
;
Structure prediction by ZEFSAII (Michael W. Deem and Ramdas Pophale) SiO2 
 PCOD9251979
Probable space group: P 21/C
;
_chemical_formula_sum "Si O2"
_cell_formula_units_Z 32
_cell_length_a 24.973947
_cell_length_b 12.847907
_cell_length_c 9.287243
_cell_angle_alpha 90.000000
_cell_angle_beta 150.671678
_cell_angle_gamma 90.000000
_cell_volume 1459.610907
_symmetry_space_group_name_H-M "P 21/C"
_symmetry_group_IT_number 14
_symmetry_cell_setting 'monoclinic'
loop_
_space_group_symop_operation_xyz
x,y,z
-x,1/2+y,1/2-z
-x,-y,-z
x,1/2-y,1/2+z
loop_
_atom_site_type_symbol
_atom_site_label
_atom_site_fract_x
_atom_site_fract_y
_atom_site_fract_z
Si Si1 0.944061 0.307599 0.749513
Si Si2 0.230940 0.397211 0.741375
Si Si3 0.423716 0.729698 0.050637
Si Si4 0.872166 0.506318 0.241750
Si Si5 0.239403 0.938231 0.028853
Si Si6 0.464438 0.121998 0.926260
Si Si7 0.231902 0.858857 0.712148
Si Si8 0.093999 0.302604 0.840513
O O1 0.872323 0.390456 0.668043
O O2 0.857423 0.230715 0.468927
O O3 0.024878 0.345097 0.813844
O O4 0.013842 0.242579 0.029225
O O5 0.153091 0.472827 0.652412
O O6 0.260487 0.455323 0.662391
O O7 0.166770 0.292104 0.563969
O O8 0.338447 0.377904 0.086315
O O9 0.507749 0.669348 0.351742
O O10 0.475303 0.801968 0.047718
O O11 0.336783 0.644015 0.789240
O O12 0.349188 0.806882 0.971622
O O13 0.835593 0.608340 0.068667
O O14 0.000000 0.500000 0.500000
O O15 0.805004 0.409691 0.024265
O O16 0.228172 0.941492 0.831431
O O17 0.500000 0.000000 0.000000
#
# Coordination Sequence:
#
# PCOD9251979 Si02
#       8
#     4   4   4   4   4   4   4   4
#     4  11  23  40  66  96 143 182 231 285 353 429
#     4  12  28  44  69 103 143 188 239 298 368 429
#     4  11  25  48  75 104 140 184 245 304 362 433
#     4  12  25  45  69 101 143 190 235 290 365 440
#     4  11  24  43  71 106 134 184 243 297 352 435
#     4  12  26  51  77 106 143 192 245 311 374 429
#     4  11  23  42  70 102 131 181 243 294 349 434
#     4  12  24  43  60  99 144 190 228 289 366 433
#
# _framework density 21.923651
#
# number of rings (size 3 to 8) (size 9 to 14) (size 15 to 20)
#    0.000    0.500    6.250    1.500    3.500    0.500 
#    0.000    1.250    0.000    0.000    0.000    0.000 
#    0.000    0.000    0.000    0.000    0.000    0.000 
#
# Total GULP energy -179030.379089 kJ/mol
# GULP energy per Si atom -5594.699347 kJ/mol
# Density = 2.187375 g / cm^3
# Si number density = 21.923651 Si / 1000 Ang^3
#
#
#
# Elastic Constant Matrix: (Units=GPa)
#
#
# Indices 1 2 3 4 5 6 
#
# 1 58.6116 12.2318 19.9374 0.0000 -2.1583 0.0000
# 2 12.2318 70.2960 17.6696 0.0000 1.6270 0.0000
# 3 19.9374 17.6696 76.8450 0.0000 4.3529 0.0000
# 4 0.0000 0.0000 0.0000 39.4150 0.0000 -16.6738
# 5 -2.1583 1.6270 4.3529 0.0000 29.6987 0.0000
# 6 0.0000 0.0000 0.0000 -16.6738 0.0000 36.3841
#
#
#
# Elastic Compliance Matrix: (Units=1/GPa)
#
#
# Indices 1 2 3 4 5 6 
#
# 1 0.019167 -0.002234 -0.004583 0.000000 0.002187 0.000000
# 2 -0.002234 0.015362 -0.002920 0.000000 -0.000576 0.000000
# 3 -0.004583 -0.002920 0.015008 0.000000 -0.002373 0.000000
# 4 0.000000 0.000000 0.000000 0.031472 0.000000 0.014423
# 5 0.002187 -0.000576 -0.002373 0.000000 0.034210 0.000000
# 6 0.000000 0.000000 0.000000 0.014423 0.000000 0.034094
#
#
# Mechanical properties :
#
#
# Convention : Reuss Voigt Hill
#
# Bulk Modulus (GPa) = 33.26356 33.93671 33.60013
# Shear Modulus (GPa) = 27.96294 31.49382 29.72838
#
# Velocity S-wave (km/s) = 3.57525 3.79426 3.68638
# Velocity P-wave (km/s) = 5.67878 5.89138 5.78606
#
# Compressibility (1/GPa) = 0.03006293
#
# Stress axis : x y z
#
# Youngs Moduli (GPa) = 52.17251 65.09757 66.63047
#
# Poissons Ratio (x) = 0.14541 0.30538
# Poissons Ratio (y) = 0.11654 0.19456
# Poissons Ratio (z) = 0.23912 0.19009
#
# Static dielectric constant tensor:
#      x y z
#    x 1.806310 0.000000 -0.023390 
#    y 0.000000 1.830640 0.000000 
#    z -0.023390 0.000000 1.789880 
# 
# From -- ./inp_files/19551.got.cif
#   From: 2010.05.17/outbox.cif.g08.bks.cpg/sg14_10_cif.got.tgz:19551.got - 2010.06.03 17:49:19.
