data_PCOD9251688
_publ_section_title
;
Structure prediction by ZEFSAII (Michael W. Deem and Ramdas Pophale) SiO2 
 PCOD9251688
Probable space group: P 21/C
;
_chemical_formula_sum "Si O2"
_cell_formula_units_Z 28
_cell_length_a 22.307236
_cell_length_b 7.768592
_cell_length_c 14.977170
_cell_angle_alpha 90.000000
_cell_angle_beta 151.536999
_cell_angle_gamma 90.000000
_cell_volume 1236.983247
_symmetry_space_group_name_H-M "P 21/C"
_symmetry_group_IT_number 14
_symmetry_cell_setting 'monoclinic'
loop_
_space_group_symop_operation_xyz
x,y,z
-x,1/2+y,1/2-z
-x,-y,-z
x,1/2-y,1/2+z
loop_
_atom_site_type_symbol
_atom_site_label
_atom_site_fract_x
_atom_site_fract_y
_atom_site_fract_z
Si Si1 0.422154 0.376536 0.963272
Si Si2 0.122929 0.007105 0.424607
Si Si3 0.573816 0.787655 0.864840
Si Si4 0.888261 0.344820 0.693134
Si Si5 0.669753 0.163001 0.040024
Si Si6 0.749423 0.841848 0.927126
Si Si7 0.614730 0.369307 0.663308
O O1 0.306588 0.327217 0.746532
O O2 0.500000 0.500000 0.000000
O O3 0.378605 0.369766 0.009169
O O4 0.543619 0.252614 0.138278
O O5 0.089644 0.847326 0.316650
O O6 0.259650 0.955404 0.638932
O O7 0.146410 0.196676 0.414774
O O8 0.018410 0.048405 0.362812
O O9 0.429073 0.767776 0.648040
O O10 0.640539 0.797599 0.855165
O O11 0.620311 0.965348 0.970786
O O12 0.807926 0.331316 0.678523
O O13 0.802391 0.466618 0.515514
O O14 0.653442 0.220125 0.120861
O O15 0.500000 0.500000 0.500000
#
# Coordination Sequence:
#
# PCOD9251688 Si02
#       7
#     4   4   4   4   4   4   4
#     4  12  23  39  64 102 137 169 217 283 343 405
#     4  12  23  45  68  88 134 176 232 275 338 402
#     4  11  22  38  63  96 138 167 216 279 337 402
#     4  11  26  42  67  95 125 185 228 270 333 408
#     4  11  23  39  62  99 131 171 225 271 341 404
#     4  11  23  43  67  98 134 173 223 280 340 398
#     4  12  22  40  65  95 128 172 214 277 347 390
#
# _framework density 22.635715000000001
#
# number of rings (size 3 to 8) (size 9 to 14) (size 15 to 20)
#    0.000    0.571    5.714    3.429    2.000    0.571 
#    0.000    0.000    0.000    1.714    0.000    0.000 
#    0.000    0.000    0.000    0.000    0.000    0.000 
#
# Total GULP energy -155948.833788 kJ/mol
# GULP energy per Si atom -5569.601207 kJ/mol
# Density = 2.258420 g / cm^3
# Si number density = 22.635715 Si / 1000 Ang^3
#
#
#
# Elastic Constant Matrix: (Units=GPa)
#
#
# Indices 1 2 3 4 5 6 
#
# 1 74.3663 -3.8676 -6.1252 0.0000 9.3445 0.0000
# 2 -3.8676 72.9070 -8.0846 0.0000 3.9807 0.0000
# 3 -6.1252 -8.0846 37.5235 0.0000 19.5008 0.0000
# 4 0.0000 0.0000 0.0000 31.0394 0.0000 14.5327
# 5 9.3445 3.9807 19.5008 0.0000 46.8113 0.0000
# 6 0.0000 0.0000 0.0000 14.5327 0.0000 26.3944
#
#
#
# Elastic Compliance Matrix: (Units=1/GPa)
#
#
# Indices 1 2 3 4 5 6 
#
# 1 0.014670 0.001689 0.005558 0.000000 -0.005387 0.000000
# 2 0.001689 0.014616 0.005419 0.000000 -0.003837 0.000000
# 3 0.005558 0.005419 0.037704 0.000000 -0.017277 0.000000
# 4 0.000000 0.000000 0.000000 0.043407 0.000000 -0.023900
# 5 -0.005387 -0.003837 -0.017277 0.000000 0.029961 0.000000
# 6 0.000000 0.000000 0.000000 -0.023900 0.000000 0.051046
#
#
# Mechanical properties :
#
#
# Convention : Reuss Voigt Hill
#
# Bulk Modulus (GPa) = 10.83173 16.51578 13.67376
# Shear Modulus (GPa) = 25.40063 34.37399 29.88731
#
# Velocity S-wave (km/s) = 3.35348 3.90111 3.63762
# Velocity P-wave (km/s) = 4.44861 5.25393 4.86795
#
# Compressibility (1/GPa) = 0.09232133
#
# Stress axis : x y z
#
# Youngs Moduli (GPa) = 68.16845 68.41761 26.52267
#
# Poissons Ratio (x) = -0.11554 -0.14742
# Poissons Ratio (y) = -0.11512 -0.14373
# Poissons Ratio (z) = -0.37890 -0.37076
#
# Static dielectric constant tensor:
#      x y z
#    x 1.999390 0.000000 -0.012700 
#    y 0.000000 1.877500 0.000000 
#    z -0.012700 0.000000 1.791670 
# 
# From -- ./inp_files/50282.got.cif
#   From: 2010.05.17/outbox.cif.g08.bks.cpg/sg14_26_cif.got.tgz:50282.got - 2010.06.03 17:49:19.
