data_PCOD9251315
_publ_section_title
;
Structure prediction by ZEFSAII (Michael W. Deem and Ramdas Pophale) SiO2 
 PCOD9251315
Probable space group: P 21/C
;
_chemical_formula_sum "Si O2"
_cell_formula_units_Z 24
_cell_length_a 6.489254
_cell_length_b 12.018663
_cell_length_c 15.398950
_cell_angle_alpha 90.000000
_cell_angle_beta 73.148602
_cell_angle_gamma 90.000000
_cell_volume 1149.426299
_symmetry_space_group_name_H-M "P 21/C"
_symmetry_group_IT_number 14
_symmetry_cell_setting 'monoclinic'
loop_
_space_group_symop_operation_xyz
x,y,z
-x,1/2+y,1/2-z
-x,-y,-z
x,1/2-y,1/2+z
loop_
_atom_site_type_symbol
_atom_site_label
_atom_site_fract_x
_atom_site_fract_y
_atom_site_fract_z
Si Si1 0.093969 0.820403 0.471384
Si Si2 0.314780 0.313439 0.867247
Si Si3 0.434577 0.910809 0.132950
Si Si4 0.215986 0.922764 0.969496
Si Si5 0.894098 0.012300 0.685889
Si Si6 0.661813 0.444591 0.911950
O O1 0.157233 0.696675 0.436333
O O2 0.149362 0.917363 0.396861
O O3 0.217959 0.853001 0.544085
O O4 0.843056 0.818750 0.529381
O O5 0.414060 0.190698 0.852838
O O6 0.180394 0.382686 0.812070
O O7 0.520531 0.389819 0.856006
O O8 0.321398 0.899683 0.051935
O O9 0.239652 0.931918 0.222175
O O10 0.598481 0.013844 0.105321
O O11 0.000000 0.000000 0.000000
O O12 0.152530 0.016421 0.655888
O O13 0.500000 0.500000 0.000000
#
# Coordination Sequence:
#
# PCOD9251315 Si02
#       6
#     4   4   4   4   4   4
#     4  11  21  40  68  96 124 172 221 271 321 393
#     4  11  21  42  67  94 133 170 215 273 331 381
#     4  11  26  44  63 100 134 175 218 267 323 397
#     4  11  24  45  67  89 136 183 217 253 334 396
#     4  11  25  39  65 106 128 161 228 275 324 381
#     4  11  19  40  64  92 131 169 210 270 335 380
#
# _framework density 20.879984
#
# number of rings (size 3 to 8) (size 9 to 14) (size 15 to 20)
#    0.000    1.000    6.667    1.000    2.333    1.333 
#    0.000    0.000    0.000    0.000    0.000    0.000 
#    0.000    0.000    0.000    0.000    0.000    0.000 
#
# Total GULP energy -133801.391986 kJ/mol
# GULP energy per Si atom -5575.057999 kJ/mol
# Density = 2.083246 g / cm^3
# Si number density = 20.879984 Si / 1000 Ang^3
#
#
#
# Elastic Constant Matrix: (Units=GPa)
#
#
# Indices 1 2 3 4 5 6 
#
# 1 83.7358 24.0474 17.4677 0.0000 -29.7190 0.0000
# 2 24.0474 104.5359 23.5735 0.0000 -24.7947 0.0000
# 3 17.4677 23.5735 79.3538 0.0000 -39.9031 0.0000
# 4 0.0000 0.0000 0.0000 15.7131 0.0000 -15.5834
# 5 -29.7190 -24.7947 -39.9031 0.0000 30.6608 0.0000
# 6 0.0000 0.0000 0.0000 -15.5834 0.0000 34.8042
#
#
#
# Elastic Compliance Matrix: (Units=1/GPa)
#
#
# Indices 1 2 3 4 5 6 
#
# 1 0.026334 0.002162 0.021053 0.000000 0.054673 0.000000
# 2 0.002162 0.012413 0.005609 0.000000 0.019433 0.000000
# 3 0.021053 0.005609 0.054528 0.000000 0.095907 0.000000
# 4 0.000000 0.000000 0.000000 0.114473 0.000000 0.051254
# 5 0.054673 0.019433 0.095907 0.000000 0.226141 0.000000
# 6 0.000000 0.000000 0.000000 0.051254 0.000000 0.051681
#
#
# Mechanical properties :
#
#
# Convention : Reuss Voigt Hill
#
# Bulk Modulus (GPa) = 6.62588 44.20030 25.41309
# Shear Modulus (GPa) = 10.45524 29.73807 20.09665
#
# Velocity S-wave (km/s) = 2.24013 3.77800 3.10576
# Velocity P-wave (km/s) = 3.14183 6.34395 5.00584
#
# Compressibility (1/GPa) = 0.15092340
#
# Stress axis : x y z
#
# Youngs Moduli (GPa) = 37.97425 80.55875 18.33911
#
# Poissons Ratio (x) = -0.17420 -0.38610
# Poissons Ratio (y) = -0.08211 -0.10286
# Poissons Ratio (z) = -0.79948 -0.45182
#
# Static dielectric constant tensor:
#      x y z
#    x 1.796730 0.000000 -0.002020 
#    y 0.000000 1.806230 0.000000 
#    z -0.002020 0.000000 1.728100 
# 
# From -- ./inp_files/52935.got.cif
#   From: 2010.05.17/outbox.cif.g08.bks.cpg/sg14_27_cif.got.tgz:52935.got - 2010.06.03 17:49:19.
