data_PCOD9251297
_publ_section_title
;
Structure prediction by ZEFSAII (Michael W. Deem and Ramdas Pophale) SiO2 
 PCOD9251297
Probable space group: P 21/C
;
_chemical_formula_sum "Si O2"
_cell_formula_units_Z 28
_cell_length_a 13.574083
_cell_length_b 16.807226
_cell_length_c 7.065517
_cell_angle_alpha 90.000000
_cell_angle_beta 54.356201
_cell_angle_gamma 90.000000
_cell_volume 1309.956818
_symmetry_space_group_name_H-M "P 21/C"
_symmetry_group_IT_number 14
_symmetry_cell_setting 'monoclinic'
loop_
_space_group_symop_operation_xyz
x,y,z
-x,1/2+y,1/2-z
-x,-y,-z
x,1/2-y,1/2+z
loop_
_atom_site_type_symbol
_atom_site_label
_atom_site_fract_x
_atom_site_fract_y
_atom_site_fract_z
Si Si1 0.779538 0.253123 0.928263
Si Si2 0.813455 0.966153 0.612590
Si Si3 0.536158 0.411362 0.900761
Si Si4 0.592272 0.256682 0.389753
Si Si5 0.802593 0.427974 0.761608
Si Si6 0.555316 0.587506 0.408044
Si Si7 0.927635 0.094254 0.760141
O O1 0.628317 0.233489 0.099153
O O2 0.816878 0.345173 0.858618
O O3 0.878488 0.183714 0.821992
O O4 0.745538 0.258205 0.213078
O O5 0.694819 0.918593 0.811610
O O6 0.934924 0.914334 0.461717
O O7 0.787536 0.004437 0.435326
O O8 0.845221 0.039202 0.716391
O O9 0.516486 0.324125 0.011996
O O10 0.682587 0.417637 0.764285
O O11 0.461279 0.401836 0.794547
O O12 0.500000 0.500000 0.000000
O O13 0.524737 0.339819 0.425439
O O14 0.909990 0.438967 0.492357
O O15 0.500000 0.500000 0.500000
#
# Coordination Sequence:
#
# PCOD9251297 Si02
#       7
#     4   4   4   4   4   4   4
#     4  11  19  37  65  90 117 162 213 261 308 373
#     4  11  25  41  65  92 133 167 213 262 324 385
#     4  11  22  37  62  93 127 162 209 267 319 389
#     4  11  22  37  62  95 126 162 214 270 315 388
#     4  11  21  39  68  94 123 166 214 262 320 384
#     4  12  23  39  65  97 129 170 207 265 339 385
#     4  11  23  43  62  94 128 166 223 264 304 383
#
# _framework density 21.374752000000001
#
# number of rings (size 3 to 8) (size 9 to 14) (size 15 to 20)
#    0.000    0.857    5.714    3.857    2.000    0.000 
#    0.000    1.429    0.000    0.000    0.000    0.000 
#    0.000    0.000    0.000    0.000    0.000    0.000 
#
# Total GULP energy -155881.088203 kJ/mol
# GULP energy per Si atom -5567.181722 kJ/mol
# Density = 2.132610 g / cm^3
# Si number density = 21.374752 Si / 1000 Ang^3
#
#
#
# Elastic Constant Matrix: (Units=GPa)
#
#
# Indices 1 2 3 4 5 6 
#
# 1 87.2805 34.6197 28.7601 0.0000 -2.9055 0.0000
# 2 34.6197 130.8069 41.6768 0.0000 -23.3666 0.0000
# 3 28.7601 41.6768 88.0264 0.0000 0.7830 0.0000
# 4 0.0000 0.0000 0.0000 43.8657 0.0000 5.7751
# 5 -2.9055 -23.3666 0.7830 0.0000 37.4732 0.0000
# 6 0.0000 0.0000 0.0000 5.7751 0.0000 39.3980
#
#
#
# Elastic Compliance Matrix: (Units=1/GPa)
#
#
# Indices 1 2 3 4 5 6 
#
# 1 0.013539 -0.002679 -0.003150 0.000000 -0.000555 0.000000
# 2 -0.002679 0.010943 -0.004365 0.000000 0.006707 0.000000
# 3 -0.003150 -0.004365 0.014485 0.000000 -0.003269 0.000000
# 4 0.000000 0.000000 0.000000 0.023245 0.000000 -0.003407
# 5 -0.000555 0.006707 -0.003269 0.000000 0.030893 0.000000
# 6 0.000000 0.000000 0.000000 -0.003407 0.000000 0.025881
#
#
# Mechanical properties :
#
#
# Convention : Reuss Voigt Hill
#
# Bulk Modulus (GPa) = 53.82546 57.35858 55.59202
# Shear Modulus (GPa) = 34.34777 37.55119 35.94948
#
# Velocity S-wave (km/s) = 4.01300 4.19597 4.10551
# Velocity P-wave (km/s) = 6.83438 7.09703 6.96694
#
# Compressibility (1/GPa) = 0.01857857
#
# Stress axis : x y z
#
# Youngs Moduli (GPa) = 73.85810 91.38436 69.03470
#
# Poissons Ratio (x) = 0.24479 0.21749
# Poissons Ratio (y) = 0.19784 0.30137
# Poissons Ratio (z) = 0.23269 0.39893
#
# Static dielectric constant tensor:
#      x y z
#    x 2.571630 0.000000 -0.181110 
#    y 0.000000 1.711340 0.000000 
#    z -0.181110 0.000000 2.466450 
# 
# From -- ./inp_files/16203.got.cif
#   From: 2010.05.17/outbox.cif.g08.bks.cpg/sg14_9_cif.got.tgz:16203.got - 2010.06.03 17:49:19.
