data_PCOD9251821
_publ_section_title
;
Structure prediction by ZEFSAII (Michael W. Deem and Ramdas Pophale) SiO2 
 PCOD9251821
Probable space group: P 21/C
;
_chemical_formula_sum "Si O2"
_cell_formula_units_Z 22
_cell_length_a 15.582506
_cell_length_b 7.439787
_cell_length_c 17.829588
_cell_angle_alpha 90.000000
_cell_angle_beta 23.579055
_cell_angle_gamma 90.000000
_cell_volume 826.826384
_symmetry_space_group_name_H-M "P 21/C"
_symmetry_group_IT_number 14
_symmetry_cell_setting 'monoclinic'
loop_
_space_group_symop_operation_xyz
x,y,z
-x,1/2+y,1/2-z
-x,-y,-z
x,1/2-y,1/2+z
loop_
_atom_site_type_symbol
_atom_site_label
_atom_site_fract_x
_atom_site_fract_y
_atom_site_fract_z
Si Si1 0.702677 0.761502 0.328754
Si Si2 0.920047 0.347828 0.676699
Si Si3 0.651981 0.235509 0.018121
Si Si4 0.618663 0.000710 0.181859
Si Si5 0.000000 0.500000 0.000000
Si Si6 0.364715 0.832222 0.221180
O O1 0.518319 0.762460 0.412907
O O2 0.572956 0.674969 0.502488
O O3 0.787389 0.964726 0.274402
O O4 0.898820 0.639295 0.147808
O O5 0.840031 0.212385 0.674448
O O6 0.166865 0.392703 0.468963
O O7 0.871048 0.264878 0.797135
O O8 0.646693 0.057012 0.072875
O O9 0.587907 0.389805 0.127944
O O10 0.616022 0.174471 0.236268
O O11 0.240369 0.496275 0.850405
#
# Coordination Sequence:
#
# PCOD9251821 Si02
#       6
#     4   4   4   4   2   4
#     4  11  22  45  72  94 131 178 234 267 329 405
#     4  11  22  48  73  91 127 188 231 263 332 420
#     4  11  26  43  66  99 133 177 217 285 342 396
#     4  12  24  43  69  97 136 173 221 282 344 395
#     4  12  24  36  66 106 126 164 224 284 314 386
#     4  11  22  43  70  97 130 176 226 275 328 400
#
# _framework density 26.607762000000001
#
# number of rings (size 3 to 8) (size 9 to 14) (size 15 to 20)
#    0.000    0.727    5.455    3.273    2.545    1.455 
#    6.545    0.000    0.000    0.000    0.000    0.000 
#    0.000    0.000    0.000    0.000    0.000    0.000 
#
# Total GULP energy -122915.485174 kJ/mol
# GULP energy per Si atom -5587.067508 kJ/mol
# Density = 2.654720 g / cm^3
# Si number density = 26.607762 Si / 1000 Ang^3
#
#
#
# Elastic Constant Matrix: (Units=GPa)
#
#
# Indices 1 2 3 4 5 6 
#
# 1 71.2903 22.9876 15.1227 0.0000 33.3237 0.0000
# 2 22.9876 85.6980 25.5253 0.0000 14.7680 0.0000
# 3 15.1227 25.5253 191.3264 0.0000 31.6063 0.0000
# 4 0.0000 0.0000 0.0000 47.6395 0.0000 11.8772
# 5 33.3237 14.7680 31.6063 0.0000 41.1451 0.0000
# 6 0.0000 0.0000 0.0000 11.8772 0.0000 53.1644
#
#
#
# Elastic Compliance Matrix: (Units=1/GPa)
#
#
# Indices 1 2 3 4 5 6 
#
# 1 0.023894 -0.003595 0.001804 0.000000 -0.019447 0.000000
# 2 -0.003595 0.013168 -0.001343 0.000000 -0.000783 0.000000
# 3 0.001804 -0.001343 0.006213 0.000000 -0.005752 0.000000
# 4 0.000000 0.000000 0.000000 0.022229 0.000000 -0.004966
# 5 -0.019447 -0.000783 -0.005752 0.000000 0.044754 0.000000
# 6 0.000000 0.000000 0.000000 -0.004966 0.000000 0.019919
#
#
# Mechanical properties :
#
#
# Convention : Reuss Voigt Hill
#
# Bulk Modulus (GPa) = 27.02279 52.84288 39.93283
# Shear Modulus (GPa) = 33.60597 47.36840 40.48719
#
# Velocity S-wave (km/s) = 3.55775 4.22388 3.90504
# Velocity P-wave (km/s) = 5.20142 6.60993 5.94752
#
# Compressibility (1/GPa) = 0.03700580
#
# Stress axis : x y z
#
# Youngs Moduli (GPa) = 41.85119 75.94011 160.94085
#
# Poissons Ratio (x) = 0.27303 -0.29027
# Poissons Ratio (y) = 0.15047 0.21620
# Poissons Ratio (z) = -0.07548 0.10201
#
# Static dielectric constant tensor:
#      x y z
#    x 2.312500 0.000000 -0.337740 
#    y 0.000000 4.222700 0.000000 
#    z -0.337740 0.000000 3.592870 
# 
# From -- ./inp_files/69658.got.cif
#   From: 2010.05.17/outbox.cif.g08.bks.cpg/sg14_35_cif.got.tgz:69658.got - 2010.06.03 17:49:19.
