data_PCOD9251786
_publ_section_title
;
Structure prediction by ZEFSAII (Michael W. Deem and Ramdas Pophale) SiO2 
 PCOD9251786
Probable space group: P 21/C
;
_chemical_formula_sum "Si O2"
_cell_formula_units_Z 20
_cell_length_a 11.352255
_cell_length_b 7.287621
_cell_length_c 15.188195
_cell_angle_alpha 90.000000
_cell_angle_beta 50.103426
_cell_angle_gamma 90.000000
_cell_volume 964.016927
_symmetry_space_group_name_H-M "P 21/C"
_symmetry_group_IT_number 14
_symmetry_cell_setting 'monoclinic'
loop_
_space_group_symop_operation_xyz
x,y,z
-x,1/2+y,1/2-z
-x,-y,-z
x,1/2-y,1/2+z
loop_
_atom_site_type_symbol
_atom_site_label
_atom_site_fract_x
_atom_site_fract_y
_atom_site_fract_z
Si Si1 0.952477 0.820674 0.892234
Si Si2 0.646993 0.956013 0.115812
Si Si3 0.044056 0.272835 0.306069
Si Si4 0.837621 0.179578 0.556372
Si Si5 0.337897 0.368438 0.758233
O O1 0.983882 0.726405 0.784171
O O2 0.025307 0.717113 0.940100
O O3 0.772061 0.858484 0.993480
O O4 0.032047 0.020960 0.848815
O O5 0.616891 0.814808 0.209890
O O6 0.487731 0.026179 0.151245
O O7 0.732337 0.139216 0.108326
O O8 0.913042 0.165991 0.423870
O O9 0.208323 0.185627 0.250138
O O10 0.741529 0.007540 0.634907
#
# Coordination Sequence:
#
# PCOD9251786 Si02
#       5
#     4   4   4   4   4
#     4  11  23  42  64  98 127 161 215 264 305 378
#     4  11  23  40  64  93 130 165 209 258 315 373
#     4  11  23  39  66  95 126 164 214 259 312 370
#     4  11  22  42  68  91 122 169 214 261 314 365
#     4  12  22  40  67  91 127 172 206 257 320 369
#
# _framework density 20.746524999999998
#
# number of rings (size 3 to 8) (size 9 to 14) (size 15 to 20)
#    0.000    0.800    6.000    3.000    2.800    0.800 
#    0.000    0.000    0.000    6.000    0.000    0.000 
#    0.000    0.000    0.000    0.000    0.000    0.000 
#
# Total GULP energy -111829.277945 kJ/mol
# GULP energy per Si atom -5591.463897 kJ/mol
# Density = 2.069930 g / cm^3
# Si number density = 20.746525 Si / 1000 Ang^3
#
#
#
# Elastic Constant Matrix: (Units=GPa)
#
#
# Indices 1 2 3 4 5 6 
#
# 1 45.2989 3.1299 46.7030 0.0000 -4.2738 0.0000
# 2 3.1299 68.3109 17.1800 0.0000 -7.4124 0.0000
# 3 46.7030 17.1800 98.4024 0.0000 -14.2354 0.0000
# 4 0.0000 0.0000 0.0000 30.0420 0.0000 -4.3626
# 5 -4.2738 -7.4124 -14.2354 0.0000 40.0404 0.0000
# 6 0.0000 0.0000 0.0000 -4.3626 0.0000 22.8203
#
#
#
# Elastic Compliance Matrix: (Units=1/GPa)
#
#
# Indices 1 2 3 4 5 6 
#
# 1 0.044191 0.003213 -0.021892 0.000000 -0.002472 0.000000
# 2 0.003213 0.015696 -0.004001 0.000000 0.001826 0.000000
# 3 -0.021892 -0.004001 0.021934 0.000000 0.004721 0.000000
# 4 0.000000 0.000000 0.000000 0.034237 0.000000 0.006545
# 5 -0.002472 0.001826 0.004721 0.000000 0.026727 0.000000
# 6 0.000000 0.000000 0.000000 0.006545 0.000000 0.045072
#
#
# Mechanical properties :
#
#
# Convention : Reuss Voigt Hill
#
# Bulk Modulus (GPa) = 27.42677 38.44866 32.93772
# Shear Modulus (GPa) = 20.37721 28.24717 24.31219
#
# Velocity S-wave (km/s) = 3.13741 3.69390 3.42697
# Velocity P-wave (km/s) = 5.13547 6.06350 5.61868
#
# Compressibility (1/GPa) = 0.03646073
#
# Stress axis : x y z
#
# Youngs Moduli (GPa) = 22.62896 63.70988 45.59111
#
# Poissons Ratio (x) = -0.20469 0.99809
# Poissons Ratio (y) = -0.07270 0.18241
# Poissons Ratio (z) = 0.49540 0.25491
#
# Static dielectric constant tensor:
#      x y z
#    x 1.709050 0.000000 -0.027330 
#    y 0.000000 1.779560 0.000000 
#    z -0.027330 0.000000 1.738370 
# 
# From -- ./inp_files/54414.got.cif
#   From: 2010.05.17/outbox.cif.g08.bks.cpg/sg14_28_cif.got.tgz:54414.got - 2010.06.03 17:49:19.
