data_PCOD9251440
_publ_section_title
;
Structure prediction by ZEFSAII (Michael W. Deem and Ramdas Pophale) SiO2 
 PCOD9251440
Probable space group: P 21/C
;
_chemical_formula_sum "Si O2"
_cell_formula_units_Z 24
_cell_length_a 20.977194
_cell_length_b 9.206296
_cell_length_c 10.050569
_cell_angle_alpha 90.000000
_cell_angle_beta 44.711584
_cell_angle_gamma 90.000000
_cell_volume 1365.559988
_symmetry_space_group_name_H-M "P 21/C"
_symmetry_group_IT_number 14
_symmetry_cell_setting 'monoclinic'
loop_
_space_group_symop_operation_xyz
x,y,z
-x,1/2+y,1/2-z
-x,-y,-z
x,1/2-y,1/2+z
loop_
_atom_site_type_symbol
_atom_site_label
_atom_site_fract_x
_atom_site_fract_y
_atom_site_fract_z
Si Si1 0.767390 0.067062 0.403073
Si Si2 0.775858 0.215925 0.664814
Si Si3 0.948800 0.915749 0.192598
Si Si4 0.441402 0.577144 0.774504
Si Si5 0.568748 0.180745 0.000865
Si Si6 0.031150 0.904173 0.575077
O O1 0.780208 0.194522 0.497568
O O2 0.782116 0.130308 0.232646
O O3 0.662688 0.021062 0.570613
O O4 0.841886 0.946499 0.328286
O O5 0.862068 0.130237 0.591148
O O6 0.677012 0.157698 0.853192
O O7 0.977961 0.748495 0.156886
O O8 0.980281 0.999316 0.277397
O O9 0.000000 0.000000 0.000000
O O10 0.450604 0.677172 0.628318
O O11 0.454097 0.672075 0.887588
O O12 0.511891 0.448174 0.651123
O O13 0.000000 0.000000 0.500000
#
# Coordination Sequence:
#
# PCOD9251440 Si02
#       6
#     4   4   4   4   4   4
#     4   9  18  33  55  78 106 142 178 220 265 320
#     4   9  18  33  55  77 104 140 179 215 269 324
#     4  11  21  36  57  79 110 143 181 223 267 319
#     4   9  18  34  55  78 108 139 176 219 266 315
#     4   9  18  34  55  77 105 140 176 218 266 315
#     4  11  23  37  55  80 109 143 184 223 270 324
#
# _framework density 17.575208
#
# number of rings (size 3 to 8) (size 9 to 14) (size 15 to 20)
#    0.000    2.333    1.667    1.000    2.333    0.667 
#    3.000    0.000    3.667    0.000    0.000    0.000 
#    0.000    0.000    0.000    0.000    0.000    0.000 
#
# Total GULP energy -133664.891626 kJ/mol
# GULP energy per Si atom -5569.370484 kJ/mol
# Density = 1.753521 g / cm^3
# Si number density = 17.575208 Si / 1000 Ang^3
#
#
#
# Elastic Constant Matrix: (Units=GPa)
#
#
# Indices 1 2 3 4 5 6 
#
# 1 60.1857 32.5453 10.1798 0.0000 -1.5135 0.0000
# 2 32.5453 86.7881 24.5353 0.0000 0.7696 0.0000
# 3 10.1798 24.5353 54.9673 0.0000 4.9950 0.0000
# 4 0.0000 0.0000 0.0000 27.6547 0.0000 3.7383
# 5 -1.5135 0.7696 4.9950 0.0000 13.2713 0.0000
# 6 0.0000 0.0000 0.0000 3.7383 0.0000 24.3656
#
#
#
# Elastic Compliance Matrix: (Units=1/GPa)
#
#
# Indices 1 2 3 4 5 6 
#
# 1 0.020974 -0.007684 -0.000737 0.000000 0.003115 0.000000
# 2 -0.007684 0.016031 -0.005765 0.000000 0.000364 0.000000
# 3 -0.000737 -0.005765 0.021619 0.000000 -0.007887 0.000000
# 4 0.000000 0.000000 0.000000 0.036926 0.000000 -0.005665
# 5 0.003115 0.000364 -0.007887 0.000000 0.078653 0.000000
# 6 0.000000 0.000000 0.000000 -0.005665 0.000000 0.041911
#
#
# Mechanical properties :
#
#
# Convention : Reuss Voigt Hill
#
# Bulk Modulus (GPa) = 33.05843 37.38463 35.22153
# Shear Modulus (GPa) = 19.64094 22.03703 20.83898
#
# Velocity S-wave (km/s) = 3.34658 3.54484 3.44714
# Velocity P-wave (km/s) = 5.81235 6.17025 5.99397
#
# Compressibility (1/GPa) = 0.03024947
#
# Stress axis : x y z
#
# Youngs Moduli (GPa) = 47.67920 62.38098 46.25486
#
# Poissons Ratio (x) = 0.47935 0.03411
# Poissons Ratio (y) = 0.36637 0.26668
# Poissons Ratio (z) = 0.03516 0.35965
#
# Static dielectric constant tensor:
#      x y z
#    x 1.603550 0.000000 -0.002430 
#    y 0.000000 1.569290 0.000000 
#    z -0.002430 0.000000 1.613160 
# 
# From -- ./inp_files/15038.got.cif
#   From: 2010.05.17/outbox.cif.g08.bks.cpg/sg14_8_cif.got.tgz:15038.got - 2010.06.03 17:49:19.
