data_PCOD9251268
_publ_section_title
;
Structure prediction by ZEFSAII (Michael W. Deem and Ramdas Pophale) SiO2 
 PCOD9251268
Probable space group: P 21/C
;
_chemical_formula_sum "Si O2"
_cell_formula_units_Z 20
_cell_length_a 13.622089
_cell_length_b 8.496428
_cell_length_c 11.947749
_cell_angle_alpha 90.000000
_cell_angle_beta 147.168221
_cell_angle_gamma 90.000000
_cell_volume 749.730449
_symmetry_space_group_name_H-M "P 21/C"
_symmetry_group_IT_number 14
_symmetry_cell_setting 'monoclinic'
loop_
_space_group_symop_operation_xyz
x,y,z
-x,1/2+y,1/2-z
-x,-y,-z
x,1/2-y,1/2+z
loop_
_atom_site_type_symbol
_atom_site_label
_atom_site_fract_x
_atom_site_fract_y
_atom_site_fract_z
Si Si1 0.970997 0.357262 0.587263
Si Si2 0.576169 0.931406 0.233159
Si Si3 0.185030 0.167316 0.958651
Si Si4 0.687606 0.293376 0.673047
Si Si5 0.626564 0.627820 0.021028
O O1 0.857663 0.501442 0.528908
O O2 0.880687 0.269629 0.396118
O O3 0.007089 0.236140 0.725151
O O4 0.172674 0.416544 0.748943
O O5 0.728480 0.792114 0.372334
O O6 0.576916 0.974659 0.364656
O O7 0.648051 0.063833 0.220138
O O8 0.383529 0.857997 0.012529
O O9 0.328978 0.198303 0.994532
O O10 0.542536 0.156535 0.563084
#
# Coordination Sequence:
#
# PCOD9251268 Si02
#       5
#     4   4   4   4   4
#     4   9  18  33  56  77 106 149 176 226 269 323
#     4   8  21  35  53  86 107 140 190 223 266 332
#     4   8  18  36  51  79 113 134 186 223 263 325
#     4  11  18  37  60  73 117 145 176 234 267 322
#     4   8  21  33  54  80 106 142 184 215 276 322
#
# _framework density 26.676255000000001
#
# number of rings (size 3 to 8) (size 9 to 14) (size 15 to 20)
#    2.400    0.400    0.000    2.400    2.800    0.800 
#    0.000    9.000    0.000    0.000    0.000    0.000 
#    0.000    0.000    0.000    0.000    0.000    0.000 
#
# Total GULP energy -111665.087820 kJ/mol
# GULP energy per Si atom -5583.254391 kJ/mol
# Density = 2.661554 g / cm^3
# Si number density = 26.676255 Si / 1000 Ang^3
#
#
#
# Elastic Constant Matrix: (Units=GPa)
#
#
# Indices 1 2 3 4 5 6 
#
# 1 56.7348 7.3392 32.2316 0.0000 7.1284 0.0000
# 2 7.3392 72.4758 40.7891 0.0000 -12.8074 0.0000
# 3 32.2316 40.7891 212.9248 0.0000 -2.8610 0.0000
# 4 0.0000 0.0000 0.0000 42.5236 0.0000 -9.0576
# 5 7.1284 -12.8074 -2.8610 0.0000 36.0625 0.0000
# 6 0.0000 0.0000 0.0000 -9.0576 0.0000 36.7341
#
#
#
# Elastic Compliance Matrix: (Units=1/GPa)
#
#
# Indices 1 2 3 4 5 6 
#
# 1 0.019985 -0.001235 -0.002851 0.000000 -0.004615 0.000000
# 2 -0.001235 0.016608 -0.002915 0.000000 0.005911 0.000000
# 3 -0.002851 -0.002915 0.005686 0.000000 -0.000021 0.000000
# 4 0.000000 0.000000 0.000000 0.024820 0.000000 0.006120
# 5 -0.004615 0.005911 -0.000021 0.000000 0.030740 0.000000
# 6 0.000000 0.000000 0.000000 0.006120 0.000000 0.028732
#
#
# Mechanical properties :
#
#
# Convention : Reuss Voigt Hill
#
# Bulk Modulus (GPa) = 35.36374 55.87280 45.61827
# Shear Modulus (GPa) = 33.33385 40.51572 36.92479
#
# Velocity S-wave (km/s) = 3.53876 3.90140 3.72450
# Velocity P-wave (km/s) = 5.47563 6.42532 5.96939
#
# Compressibility (1/GPa) = 0.02827755
#
# Stress axis : x y z
#
# Youngs Moduli (GPa) = 50.03762 60.21203 175.86496
#
# Poissons Ratio (x) = 0.07436 0.50133
# Poissons Ratio (y) = 0.06179 0.51267
# Poissons Ratio (z) = 0.14264 0.17553
#
# Static dielectric constant tensor:
#      x y z
#    x 2.076640 0.000000 -0.005360 
#    y 0.000000 2.163010 0.000000 
#    z -0.005360 0.000000 2.090710 
# 
# From -- ./inp_files/48438.got.cif
#   From: 2010.05.17/outbox.cif.g08.bks.cpg/sg14_25_cif.got.tgz:48438.got - 2010.06.03 17:49:19.
