data_PCOD9251823
_publ_section_title
;
Structure prediction by ZEFSAII (Michael W. Deem and Ramdas Pophale) SiO2 
 PCOD9251823
Probable space group: P 21/C
;
_chemical_formula_sum "Si O2"
_cell_formula_units_Z 32
_cell_length_a 14.415794
_cell_length_b 13.307513
_cell_length_c 20.170908
_cell_angle_alpha 90.000000
_cell_angle_beta 19.529092
_cell_angle_gamma 90.000000
_cell_volume 1293.535586
_symmetry_space_group_name_H-M "P 21/C"
_symmetry_group_IT_number 14
_symmetry_cell_setting 'monoclinic'
loop_
_space_group_symop_operation_xyz
x,y,z
-x,1/2+y,1/2-z
-x,-y,-z
x,1/2-y,1/2+z
loop_
_atom_site_type_symbol
_atom_site_label
_atom_site_fract_x
_atom_site_fract_y
_atom_site_fract_z
Si Si1 0.154483 0.019982 0.784014
Si Si2 0.655612 0.647209 0.336072
Si Si3 0.615148 0.033394 0.771474
Si Si4 0.561930 0.068443 0.237193
Si Si5 0.213353 0.163275 0.110230
Si Si6 0.417727 0.667620 0.929425
Si Si7 0.352196 0.395835 0.016221
Si Si8 0.752005 0.294228 0.095955
O O1 0.353669 0.101011 0.687559
O O2 0.158824 0.059369 0.704942
O O3 0.333142 0.916731 0.668324
O O4 0.864162 0.018588 0.018718
O O5 0.689384 0.537855 0.281953
O O6 0.596275 0.640150 0.453505
O O7 0.453661 0.716341 0.428889
O O8 0.943843 0.708419 0.139841
O O9 0.786138 0.131391 0.635008
O O10 0.610168 0.961523 0.711285
O O11 0.321280 0.087983 0.981795
O O12 0.377449 0.051503 0.427134
O O13 0.640211 0.185775 0.188291
O O14 0.893733 0.141472 0.339463
O O15 0.265797 0.280998 0.062658
O O16 0.437437 0.662645 0.836233
#
# Coordination Sequence:
#
# PCOD9251823 Si02
#       8
#     4   4   4   4   4   4   4   4
#     4  11  24  44  74 100 141 181 231 292 356 409
#     4  11  23  45  72  97 135 194 227 285 357 420
#     4  12  26  44  69 102 141 186 232 285 362 416
#     4  12  24  45  71 105 141 180 236 294 342 419
#     4  11  25  43  68 102 144 177 240 289 340 436
#     4  11  22  43  71 101 136 189 229 287 359 408
#     4  11  24  43  68 103 140 177 228 294 350 411
#     4  11  23  45  69  98 142 178 233 290 345 425
#
# _framework density 24.738399000000001
#
# number of rings (size 3 to 8) (size 9 to 14) (size 15 to 20)
#    0.000    0.750    5.000    2.625    3.500    0.000 
#    0.000    5.000    0.000    0.000    0.000    0.000 
#    0.000    0.000    0.000    0.000    0.000    0.000 
#
# Total GULP energy -178867.055147 kJ/mol
# GULP energy per Si atom -5589.595473 kJ/mol
# Density = 2.468209 g / cm^3
# Si number density = 24.738399 Si / 1000 Ang^3
#
#
#
# Elastic Constant Matrix: (Units=GPa)
#
#
# Indices 1 2 3 4 5 6 
#
# 1 82.5392 23.2152 19.0329 0.0000 27.0526 0.0000
# 2 23.2152 118.6973 20.5557 0.0000 5.6717 0.0000
# 3 19.0329 20.5557 89.1406 0.0000 14.0632 0.0000
# 4 0.0000 0.0000 0.0000 41.2734 0.0000 1.8204
# 5 27.0526 5.6717 14.0632 0.0000 30.6686 0.0000
# 6 0.0000 0.0000 0.0000 1.8204 0.0000 36.3533
#
#
#
# Elastic Compliance Matrix: (Units=1/GPa)
#
#
# Indices 1 2 3 4 5 6 
#
# 1 0.017962 -0.002649 -0.000865 0.000000 -0.014958 0.000000
# 2 -0.002649 0.009182 -0.001781 0.000000 0.001455 0.000000
# 3 -0.000865 -0.001781 0.012549 0.000000 -0.004662 0.000000
# 4 0.000000 0.000000 0.000000 0.024282 0.000000 -0.001216
# 5 -0.014958 0.001455 -0.004662 0.000000 0.047670 0.000000
# 6 0.000000 0.000000 0.000000 -0.001216 0.000000 0.027569
#
#
# Mechanical properties :
#
#
# Convention : Reuss Voigt Hill
#
# Bulk Modulus (GPa) = 34.35932 46.22052 40.28992
# Shear Modulus (GPa) = 31.34693 36.83061 34.08877
#
# Velocity S-wave (km/s) = 3.56355 3.86269 3.71613
# Velocity P-wave (km/s) = 5.55437 6.21434 5.89360
#
# Compressibility (1/GPa) = 0.02910418
#
# Stress axis : x y z
#
# Youngs Moduli (GPa) = 55.67164 108.91127 79.68650
#
# Poissons Ratio (x) = 0.28847 0.06890
# Poissons Ratio (y) = 0.14746 0.14195
# Poissons Ratio (z) = 0.04813 0.19401
#
# Static dielectric constant tensor:
#      x y z
#    x 2.038430 0.000000 0.016240 
#    y 0.000000 2.000410 0.000000 
#    z 0.016240 0.000000 1.972000 
# 
# From -- ./inp_files/68689.got.cif
#   From: 2010.05.17/outbox.cif.g08.bks.cpg/sg14_35_cif.got.tgz:68689.got - 2010.06.03 17:49:19.
