data_PCOD9251662
_publ_section_title
;
Structure prediction by ZEFSAII (Michael W. Deem and Ramdas Pophale) SiO2 
 PCOD9251662
Probable space group: P 21/C
;
_chemical_formula_sum "Si O2"
_cell_formula_units_Z 20
_cell_length_a 9.665468
_cell_length_b 7.946028
_cell_length_c 28.477774
_cell_angle_alpha 90.000000
_cell_angle_beta 154.235120
_cell_angle_gamma 90.000000
_cell_volume 950.709504
_symmetry_space_group_name_H-M "P 21/C"
_symmetry_group_IT_number 14
_symmetry_cell_setting 'monoclinic'
loop_
_space_group_symop_operation_xyz
x,y,z
-x,1/2+y,1/2-z
-x,-y,-z
x,1/2-y,1/2+z
loop_
_atom_site_type_symbol
_atom_site_label
_atom_site_fract_x
_atom_site_fract_y
_atom_site_fract_z
Si Si1 0.148405 0.948670 0.654557
Si Si2 0.958077 0.085513 0.142615
Si Si3 0.332867 0.239822 0.433082
Si Si4 0.169881 0.756751 0.988937
Si Si5 0.420517 0.696826 0.664902
O O1 0.426853 0.021805 0.772223
O O2 0.057436 0.098559 0.590844
O O3 0.245490 0.787220 0.654538
O O4 0.850093 0.907211 0.596646
O O5 0.276000 0.181400 0.253732
O O6 0.908200 0.897471 0.144613
O O7 0.636197 0.191013 0.055944
O O8 0.943384 0.096090 0.081029
O O9 0.489977 0.205314 0.430643
O O10 0.207450 0.808496 0.053590
#
# Coordination Sequence:
#
# PCOD9251662 Si02
#       5
#     4   4   4   4   4
#     4  11  22  38  58  85 116 152 186 241 286 329
#     4   8  19  38  58  81 119 144 187 233 282 337
#     4   9  18  40  59  82 118 146 183 241 287 328
#     4   9  20  37  60  82 112 148 194 228 281 339
#     4  11  22  37  58  82 117 151 194 230 286 340
#
# _framework density 21.036922000000001
#
# number of rings (size 3 to 8) (size 9 to 14) (size 15 to 20)
#    1.200    1.200    0.000    2.400    0.000    1.600 
#    0.000   11.000    0.000    0.000    0.000    0.000 
#    0.000    0.000    0.000    0.000    0.000    0.000 
#
# Total GULP energy -111499.967833 kJ/mol
# GULP energy per Si atom -5574.998392 kJ/mol
# Density = 2.098904 g / cm^3
# Si number density = 21.036922 Si / 1000 Ang^3
#
#
#
# Elastic Constant Matrix: (Units=GPa)
#
#
# Indices 1 2 3 4 5 6 
#
# 1 46.0748 9.2974 9.8279 0.0000 -0.6778 0.0000
# 2 9.2974 46.7284 0.0192 0.0000 -4.2377 0.0000
# 3 9.8279 0.0192 41.6180 0.0000 -10.8898 0.0000
# 4 0.0000 0.0000 0.0000 26.9120 0.0000 19.6016
# 5 -0.6778 -4.2377 -10.8898 0.0000 38.0960 0.0000
# 6 0.0000 0.0000 0.0000 19.6016 0.0000 30.1409
#
#
#
# Elastic Compliance Matrix: (Units=1/GPa)
#
#
# Indices 1 2 3 4 5 6 
#
# 1 0.023986 -0.004941 -0.006154 0.000000 -0.001882 0.000000
# 2 -0.004941 0.022653 0.001937 0.000000 0.002986 0.000000
# 3 -0.006154 0.001937 0.027570 0.000000 0.007987 0.000000
# 4 0.000000 0.000000 0.000000 0.070600 0.000000 -0.045913
# 5 -0.001882 0.002986 0.007987 0.000000 0.028831 0.000000
# 6 0.000000 0.000000 0.000000 -0.045913 0.000000 0.063036
#
#
# Mechanical properties :
#
#
# Convention : Reuss Voigt Hill
#
# Bulk Modulus (GPa) = 17.89078 19.19003 18.54040
# Shear Modulus (GPa) = 18.27332 26.71490 22.49411
#
# Velocity S-wave (km/s) = 2.95045 3.56744 3.27351
# Velocity P-wave (km/s) = 4.48663 5.10986 4.80835
#
# Compressibility (1/GPa) = 0.05589471
#
# Stress axis : x y z
#
# Youngs Moduli (GPa) = 41.69128 44.14385 36.27083
#
# Poissons Ratio (x) = 0.21809 0.22322
# Poissons Ratio (y) = 0.20598 -0.07027
# Poissons Ratio (z) = 0.25658 -0.08553
#
# Static dielectric constant tensor:
#      x y z
#    x 1.766750 0.000000 0.045310 
#    y 0.000000 1.793560 0.000000 
#    z 0.045310 0.000000 1.759980 
# 
# From -- ./inp_files/46105.got.cif
#   From: 2010.05.17/outbox.cif.g08.bks.cpg/sg14_24_cif.got.tgz:46105.got - 2010.06.03 17:49:19.
