data_PCOD9251687
_publ_section_title
;
Structure prediction by ZEFSAII (Michael W. Deem and Ramdas Pophale) SiO2 
 PCOD9251687
Probable space group: P 21/C
;
_chemical_formula_sum "Si O2"
_cell_formula_units_Z 32
_cell_length_a 16.401352
_cell_length_b 20.442555
_cell_length_c 15.811873
_cell_angle_alpha 90.000000
_cell_angle_beta 162.112942
_cell_angle_gamma 90.000000
_cell_volume 1628.309188
_symmetry_space_group_name_H-M "P 21/C"
_symmetry_group_IT_number 14
_symmetry_cell_setting 'monoclinic'
loop_
_space_group_symop_operation_xyz
x,y,z
-x,1/2+y,1/2-z
-x,-y,-z
x,1/2-y,1/2+z
loop_
_atom_site_type_symbol
_atom_site_label
_atom_site_fract_x
_atom_site_fract_y
_atom_site_fract_z
Si Si1 0.605032 0.264863 0.947718
Si Si2 0.914015 0.192975 0.479042
Si Si3 0.605138 0.764851 0.947839
Si Si4 0.959451 0.931978 0.507743
Si Si5 0.433400 0.107780 0.585968
Si Si6 0.433490 0.607791 0.586055
Si Si7 0.914132 0.692967 0.479169
Si Si8 0.040640 0.568016 0.492340
O O1 0.499950 0.276514 0.749941
O O2 0.599171 0.186446 0.956032
O O3 0.391748 0.297768 0.799332
O O4 0.894186 0.293799 0.251794
O O5 0.970702 0.124945 0.489950
O O6 0.105683 0.206224 0.748064
O O7 0.999956 0.249997 0.499942
O O8 0.608125 0.202244 0.200519
O O9 0.599241 0.686434 0.956111
O O10 0.669096 0.918379 0.259133
O O11 0.163611 0.924631 0.787204
O O12 0.000000 0.000000 0.500000
O O13 0.499960 0.095394 0.749963
O O14 0.163500 0.075363 0.287106
O O15 0.668987 0.081599 0.759027
O O16 0.970823 0.624947 0.490056
O O17 0.000000 0.500000 0.500000
#
# Coordination Sequence:
#
# PCOD9251687 Si02
#       8
#     4   4   4   4   4   4   4   4
#     4  11  22  38  63  95 120 155 205 256 304 351
#     4  12  21  39  63  89 122 155 200 253 304 347
#     4  11  22  38  63  95 120 155 205 256 304 351
#     4  12  25  41  61  93 124 162 204 243 299 365
#     4  11  22  41  65  90 120 159 205 250 300 361
#     4  11  22  41  65  90 120 159 205 250 300 361
#     4  12  21  39  63  89 122 155 200 253 304 347
#     4  12  25  41  61  93 124 162 204 243 299 365
#
# _framework density 19.652287999999999
#
# number of rings (size 3 to 8) (size 9 to 14) (size 15 to 20)
#    0.000    0.500    5.000    4.500    0.000    4.000 
#    0.000    7.500    0.000    0.000    0.000    0.000 
#    0.000    0.000    0.000    0.000    0.000    0.000 
#
# Total GULP energy -179050.000336 kJ/mol
# GULP energy per Si atom -5595.312510 kJ/mol
# Density = 1.960756 g / cm^3
# Si number density = 19.652288 Si / 1000 Ang^3
#
#
#
# Elastic Constant Matrix: (Units=GPa)
#
#
# Indices 1 2 3 4 5 6 
#
# 1 51.9672 27.6474 -12.8021 0.0000 -9.2940 0.0000
# 2 27.6474 118.9288 -4.3162 0.0000 -12.9631 0.0000
# 3 -12.8021 -4.3162 78.9681 0.0000 -17.3926 0.0000
# 4 0.0000 0.0000 0.0000 2.0422 0.0000 5.0502
# 5 -9.2940 -12.9631 -17.3926 0.0000 47.1544 0.0000
# 6 0.0000 0.0000 0.0000 5.0502 0.0000 24.5759
#
#
#
# Elastic Compliance Matrix: (Units=1/GPa)
#
#
# Indices 1 2 3 4 5 6 
#
# 1 0.023895 -0.004823 0.004740 0.000000 0.005132 0.000000
# 2 -0.004823 0.009728 0.000141 0.000000 0.001776 0.000000
# 3 0.004740 0.000141 0.014861 0.000000 0.006454 0.000000
# 4 0.000000 0.000000 0.000000 0.995593 0.000000 -0.204587
# 5 0.005132 0.001776 0.006454 0.000000 0.025087 0.000000
# 6 0.000000 0.000000 0.000000 -0.204587 0.000000 0.082731
#
#
# Mechanical properties :
#
#
# Convention : Reuss Voigt Hill
#
# Bulk Modulus (GPa) = 20.57615 30.10250 25.33933
# Shear Modulus (GPa) = 4.28090 30.71016 17.49553
#
# Velocity S-wave (km/s) = 1.47751 3.95736 2.98695
# Velocity P-wave (km/s) = 3.66109 6.01928 4.98173
#
# Compressibility (1/GPa) = 0.04859995
#
# Stress axis : x y z
#
# Youngs Moduli (GPa) = 41.85039 102.79242 67.28965
#
# Poissons Ratio (x) = 0.49581 -0.31898
# Poissons Ratio (y) = 0.20186 -0.00948
# Poissons Ratio (z) = -0.19839 -0.01448
#
# Static dielectric constant tensor:
#      x y z
#    x 1.691130 0.000000 -0.033440 
#    y 0.000000 1.650510 0.000000 
#    z -0.033440 0.000000 1.736300 
# 
# From -- ./inp_files/47677.got.cif
#   From: 2010.05.17/outbox.cif.g08.bks.cpg/sg14_24_cif.got.tgz:47677.got - 2010.06.03 17:49:19.
