data_PCOD9251860
_publ_section_title
;
Structure prediction by ZEFSAII (Michael W. Deem and Ramdas Pophale) SiO2 
 PCOD9251860
Probable space group: P 21/C
;
_chemical_formula_sum "Si O2"
_cell_formula_units_Z 28
_cell_length_a 15.252975
_cell_length_b 10.761937
_cell_length_c 9.205343
_cell_angle_alpha 90.000000
_cell_angle_beta 120.240330
_cell_angle_gamma 90.000000
_cell_volume 1305.445565
_symmetry_space_group_name_H-M "P 21/C"
_symmetry_group_IT_number 14
_symmetry_cell_setting 'monoclinic'
loop_
_space_group_symop_operation_xyz
x,y,z
-x,1/2+y,1/2-z
-x,-y,-z
x,1/2-y,1/2+z
loop_
_atom_site_type_symbol
_atom_site_label
_atom_site_fract_x
_atom_site_fract_y
_atom_site_fract_z
Si Si1 0.262908 0.721868 0.730082
Si Si2 0.854816 0.383072 0.091529
Si Si3 0.063199 0.422702 0.173641
Si Si4 0.769438 0.782157 0.789495
Si Si5 0.707168 0.590145 0.953012
Si Si6 0.609910 0.047805 0.132741
Si Si7 0.236268 0.502390 0.492003
O O1 0.184258 0.811940 0.582723
O O2 0.208966 0.667570 0.826468
O O3 0.360029 0.806215 0.850290
O O4 0.278984 0.611047 0.629333
O O5 0.974523 0.370718 0.203276
O O6 0.818003 0.525165 0.043324
O O7 0.137205 0.307372 0.186315
O O8 0.132232 0.521865 0.317355
O O9 0.000000 0.500000 0.000000
O O10 0.698614 0.695264 0.826167
O O11 0.706393 0.845689 0.607483
O O12 0.794173 0.890882 0.924811
O O13 0.633842 0.487397 0.821751
O O14 0.684292 0.984964 0.073608
O O15 0.500000 0.000000 0.000000
#
# Coordination Sequence:
#
# PCOD9251860 Si02
#       7
#     4   4   4   4   4   4   4
#     4  11  24  45  71 105 144 189 240 306 361 435
#     4  11  24  40  69 100 150 194 244 292 356 435
#     4  12  25  41  67 106 149 201 251 291 357 433
#     4  12  23  42  71  98 153 195 237 301 361 430
#     4  11  22  45  68 102 144 189 240 298 363 438
#     4  11  25  53  78 102 141 189 244 312 381 438
#     4  12  25  45  70 106 147 189 245 309 368 433
#
# _framework density 21.448615
#
# number of rings (size 3 to 8) (size 9 to 14) (size 15 to 20)
#    0.000    0.571    7.143    0.857    2.000    1.714 
#    5.143    0.714    0.000    0.000    0.000    0.000 
#    0.000    0.000    0.000    0.000    0.000    0.000 
#
# Total GULP energy -156062.180250 kJ/mol
# GULP energy per Si atom -5573.649295 kJ/mol
# Density = 2.139980 g / cm^3
# Si number density = 21.448615 Si / 1000 Ang^3
#
#
#
# Elastic Constant Matrix: (Units=GPa)
#
#
# Indices 1 2 3 4 5 6 
#
# 1 65.9581 21.5402 54.8489 0.0000 11.4037 0.0000
# 2 21.5402 77.8385 40.3360 0.0000 -9.2091 0.0000
# 3 54.8489 40.3360 129.1820 0.0000 -15.3649 0.0000
# 4 0.0000 0.0000 0.0000 56.2029 0.0000 -15.1889
# 5 11.4037 -9.2091 -15.3649 0.0000 37.7771 0.0000
# 6 0.0000 0.0000 0.0000 -15.1889 0.0000 29.5558
#
#
#
# Elastic Compliance Matrix: (Units=1/GPa)
#
#
# Indices 1 2 3 4 5 6 
#
# 1 0.030254 -0.003093 -0.013719 0.000000 -0.015466 0.000000
# 2 -0.003093 0.015771 -0.003198 0.000000 0.003478 0.000000
# 3 -0.013719 -0.003198 0.015725 0.000000 0.009758 0.000000
# 4 0.000000 0.000000 0.000000 0.020662 0.000000 0.010618
# 5 -0.015466 0.003478 0.009758 0.000000 0.035956 0.000000
# 6 0.000000 0.000000 0.000000 0.010618 0.000000 0.039291
#
#
# Mechanical properties :
#
#
# Convention : Reuss Voigt Hill
#
# Bulk Modulus (GPa) = 46.01736 56.26987 51.14362
# Shear Modulus (GPa) = 24.39940 35.12405 29.76172
#
# Velocity S-wave (km/s) = 3.37645 4.05111 3.72907
# Velocity P-wave (km/s) = 6.05821 6.94072 6.51443
#
# Compressibility (1/GPa) = 0.02173093
#
# Stress axis : x y z
#
# Youngs Moduli (GPa) = 33.05382 63.40559 63.59266
#
# Poissons Ratio (x) = 0.19609 0.87244
# Poissons Ratio (y) = 0.10222 0.20336
# Poissons Ratio (z) = 0.45347 0.20276
#
# Static dielectric constant tensor:
#      x y z
#    x 1.781870 0.000000 -0.037210 
#    y 0.000000 1.907700 0.000000 
#    z -0.037210 0.000000 1.813740 
# 
# From -- ./inp_files/15633.got.cif
#   From: 2010.05.17/outbox.cif.g08.bks.cpg/sg14_8_cif.got.tgz:15633.got - 2010.06.03 17:49:19.
