data_PCOD9251054
_publ_section_title
;
Structure prediction by ZEFSAII (Michael W. Deem and Ramdas Pophale) SiO2 
 PCOD9251054
Probable space group: P 21/C
;
_chemical_formula_sum "Si O2"
_cell_formula_units_Z 30
_cell_length_a 29.228829
_cell_length_b 7.371608
_cell_length_c 10.304212
_cell_angle_alpha 90.000000
_cell_angle_beta 27.715957
_cell_angle_gamma 90.000000
_cell_volume 1032.581025
_symmetry_space_group_name_H-M "P 21/C"
_symmetry_group_IT_number 14
_symmetry_cell_setting 'monoclinic'
loop_
_space_group_symop_operation_xyz
x,y,z
-x,1/2+y,1/2-z
-x,-y,-z
x,1/2-y,1/2+z
loop_
_atom_site_type_symbol
_atom_site_label
_atom_site_fract_x
_atom_site_fract_y
_atom_site_fract_z
Si Si1 0.500000 0.000000 0.000000
Si Si2 0.381870 0.195588 0.678378
Si Si3 0.194160 0.089768 0.023936
Si Si4 0.139129 0.581813 0.322110
Si Si5 0.530667 0.181497 0.619985
Si Si6 0.038517 0.955064 0.578794
Si Si7 0.195107 0.441917 0.903773
Si Si8 0.300894 0.707000 0.106307
O O1 0.414691 0.157697 0.199284
O O2 0.555769 0.142594 0.971775
O O3 0.421516 0.289049 0.446275
O O4 0.439600 0.001806 0.528551
O O5 0.268091 0.150077 0.953168
O O6 0.083721 0.082123 0.353482
O O7 0.214625 0.229979 0.858388
O O8 0.234823 0.892882 0.881723
O O9 0.159046 0.475634 0.141734
O O10 0.241986 0.644922 0.126978
O O11 0.069970 0.753387 0.463886
O O12 0.071814 0.482700 0.598738
O O13 0.588442 0.159266 0.619966
O O14 0.107755 0.998253 0.528982
O O15 0.285175 0.578624 0.653758
#
# Coordination Sequence:
#
# PCOD9251054 Si02
#       8
#     2   4   4   4   4   4   4   4
#     4  12  24  46  76 108 146 196 240 308 378 450
#     4  11  25  46  73 110 150 191 251 300 378 448
#     4  11  25  45  70 105 147 190 245 302 372 435
#     4  11  24  46  73 102 147 196 244 307 369 432
#     4  11  24  47  72 110 145 196 246 309 372 459
#     4  11  25  45  69 107 146 189 252 304 361 444
#     4  11  24  44  70 105 144 191 248 302 367 439
#     4  10  25  46  69 103 145 191 243 305 366 443
#
# _framework density 29.05341
#
# number of rings (size 3 to 8) (size 9 to 14) (size 15 to 20)
#    0.000    1.067    2.667    2.400    3.733    4.800 
#    4.800    0.000    0.000    0.000    0.000    0.000 
#    0.000    0.000    0.000    0.000    0.000    0.000 
#
# Total GULP energy -167845.663893 kJ/mol
# GULP energy per Si atom -5594.855463 kJ/mol
# Density = 2.898728 g / cm^3
# Si number density = 29.053410 Si / 1000 Ang^3
#
#
#
# Elastic Constant Matrix: (Units=GPa)
#
#
# Indices 1 2 3 4 5 6 
#
# 1 108.8482 31.0610 13.9706 0.0000 -8.1132 0.0000
# 2 31.0610 181.3125 15.8714 0.0000 -15.2740 0.0000
# 3 13.9706 15.8714 131.1448 0.0000 -27.3044 0.0000
# 4 0.0000 0.0000 0.0000 19.9821 0.0000 -20.2761
# 5 -8.1132 -15.2740 -27.3044 0.0000 47.8931 0.0000
# 6 0.0000 0.0000 0.0000 -20.2761 0.0000 51.2061
#
#
#
# Elastic Compliance Matrix: (Units=1/GPa)
#
#
# Indices 1 2 3 4 5 6 
#
# 1 0.009775 -0.001549 -0.000694 0.000000 0.000766 0.000000
# 2 -0.001549 0.005927 -0.000242 0.000000 0.001490 0.000000
# 3 -0.000694 -0.000242 0.008723 0.000000 0.004778 0.000000
# 4 0.000000 0.000000 0.000000 0.083658 0.000000 0.033126
# 5 0.000766 0.001490 0.004778 0.000000 0.024209 0.000000
# 6 0.000000 0.000000 0.000000 0.033126 0.000000 0.032646
#
#
# Mechanical properties :
#
#
# Convention : Reuss Voigt Hill
#
# Bulk Modulus (GPa) = 51.40184 60.34572 55.87378
# Shear Modulus (GPa) = 28.34534 47.84310 38.09422
#
# Velocity S-wave (km/s) = 3.12689 4.06239 3.62495
# Velocity P-wave (km/s) = 5.54682 6.54368 6.06576
#
# Compressibility (1/GPa) = 0.01945456
#
# Stress axis : x y z
#
# Youngs Moduli (GPa) = 102.29718 168.70619 114.63554
#
# Poissons Ratio (x) = 0.26138 0.07960
# Poissons Ratio (y) = 0.15849 0.02775
# Poissons Ratio (z) = 0.07103 0.04085
#
# Static dielectric constant tensor:
#      x y z
#    x 2.264620 0.000000 -0.004850 
#    y 0.000000 2.092190 0.000000 
#    z -0.004850 0.000000 2.174650 
# 
# From -- ./inp_files/36422.got.cif
#   From: 2010.05.17/outbox.cif.g08.bks.cpg/sg14_19_cif.got.tgz:36422.got - 2010.06.03 17:49:19.
