data_PCOD9251539
_publ_section_title
;
Structure prediction by ZEFSAII (Michael W. Deem and Ramdas Pophale) SiO2 
 PCOD9251539
Probable space group: P 21/C
;
_chemical_formula_sum "Si O2"
_cell_formula_units_Z 24
_cell_length_a 20.803631
_cell_length_b 9.090320
_cell_length_c 10.844956
_cell_angle_alpha 90.000000
_cell_angle_beta 26.186253
_cell_angle_gamma 90.000000
_cell_volume 905.046193
_symmetry_space_group_name_H-M "P 21/C"
_symmetry_group_IT_number 14
_symmetry_cell_setting 'monoclinic'
loop_
_space_group_symop_operation_xyz
x,y,z
-x,1/2+y,1/2-z
-x,-y,-z
x,1/2-y,1/2+z
loop_
_atom_site_type_symbol
_atom_site_label
_atom_site_fract_x
_atom_site_fract_y
_atom_site_fract_z
Si Si1 0.200364 0.191865 0.249216
Si Si2 0.058017 0.332207 0.293473
Si Si3 0.314661 0.845965 0.810887
Si Si4 0.536099 0.974849 0.245987
Si Si5 0.123429 0.064250 0.028254
Si Si6 0.710155 0.487395 0.215330
O O1 0.061700 0.247795 0.415261
O O2 0.246314 0.330678 0.254378
O O3 0.178174 0.044527 0.368616
O O4 0.339140 0.144675 0.932652
O O5 0.032816 0.200678 0.239975
O O6 0.948428 0.462257 0.452123
O O7 0.222416 0.401856 0.001448
O O8 0.394908 0.902171 0.547539
O O9 0.284015 0.675098 0.846516
O O10 0.412800 0.883984 0.761405
O O11 0.177004 0.955050 0.042208
O O12 0.562083 0.993123 0.053057
#
# Coordination Sequence:
#
# PCOD9251539 Si02
#       6
#     4   4   4   4   4   4
#     4   9  21  41  60  93 126 165 211 266 317 374
#     4  11  21  42  61  94 131 169 215 266 320 383
#     4  11  21  41  65  93 129 169 217 262 322 382
#     4   9  22  40  65  92 128 164 212 271 314 380
#     4  11  22  37  67  90 129 174 211 263 321 384
#     4   9  22  39  64  92 125 169 215 259 325 378
#
# _framework density 26.517984999999999
#
# number of rings (size 3 to 8) (size 9 to 14) (size 15 to 20)
#    1.000    1.000    1.667    1.500    2.333    1.333 
#    0.000   17.500    0.000    0.000    0.000    0.000 
#    0.000    0.000    0.000    0.000    0.000    0.000 
#
# Total GULP energy -133646.482586 kJ/mol
# GULP energy per Si atom -5568.603441 kJ/mol
# Density = 2.645763 g / cm^3
# Si number density = 26.517985 Si / 1000 Ang^3
#
#
#
# Elastic Constant Matrix: (Units=GPa)
#
#
# Indices 1 2 3 4 5 6 
#
# 1 43.9497 37.1583 -6.7238 0.0000 -1.0661 0.0000
# 2 37.1583 205.0067 30.7240 0.0000 -9.3049 0.0000
# 3 -6.7238 30.7240 63.4385 0.0000 10.8128 0.0000
# 4 0.0000 0.0000 0.0000 30.1550 0.0000 1.7077
# 5 -1.0661 -9.3049 10.8128 0.0000 24.6716 0.0000
# 6 0.0000 0.0000 0.0000 1.7077 0.0000 40.5331
#
#
#
# Elastic Compliance Matrix: (Units=1/GPa)
#
#
# Indices 1 2 3 4 5 6 
#
# 1 0.029254 -0.006545 0.006999 0.000000 -0.004272 0.000000
# 2 -0.006545 0.006993 -0.004844 0.000000 0.004478 0.000000
# 3 0.006999 -0.004844 0.020654 0.000000 -0.010576 0.000000
# 4 0.000000 0.000000 0.000000 0.033241 0.000000 -0.001401
# 5 -0.004272 0.004478 -0.010576 0.000000 0.046672 0.000000
# 6 0.000000 0.000000 0.000000 -0.001401 0.000000 0.024730
#
#
# Mechanical properties :
#
#
# Convention : Reuss Voigt Hill
#
# Bulk Modulus (GPa) = 20.78128 48.30134 34.54131
# Shear Modulus (GPa) = 26.82898 35.82104 31.32501
#
# Velocity S-wave (km/s) = 3.18422 3.67934 3.44070
# Velocity P-wave (km/s) = 4.62306 6.02529 5.37014
#
# Compressibility (1/GPa) = 0.04812023
#
# Stress axis : x y z
#
# Youngs Moduli (GPa) = 34.18323 142.99187 48.41750
#
# Poissons Ratio (x) = 0.93591 -0.33885
# Poissons Ratio (y) = 0.22374 0.23453
# Poissons Ratio (z) = -0.23923 0.69264
#
# Static dielectric constant tensor:
#      x y z
#    x 2.249070 0.000000 -0.028440 
#    y 0.000000 1.968530 0.000000 
#    z -0.028440 0.000000 2.372960 
# 
# From -- ./inp_files/35679.got.cif
#   From: 2010.05.17/outbox.cif.g08.bks.cpg/sg14_18_cif.got.tgz:35679.got - 2010.06.03 17:49:19.
