data_PCOD9251863
_publ_section_title
;
Structure prediction by ZEFSAII (Michael W. Deem and Ramdas Pophale) SiO2 
 PCOD9251863
Probable space group: P 21/C
;
_chemical_formula_sum "Si O2"
_cell_formula_units_Z 28
_cell_length_a 12.744952
_cell_length_b 5.212334
_cell_length_c 21.048665
_cell_angle_alpha 90.000000
_cell_angle_beta 121.367238
_cell_angle_gamma 90.000000
_cell_volume 1193.921724
_symmetry_space_group_name_H-M "P 21/C"
_symmetry_group_IT_number 14
_symmetry_cell_setting 'monoclinic'
loop_
_space_group_symop_operation_xyz
x,y,z
-x,1/2+y,1/2-z
-x,-y,-z
x,1/2-y,1/2+z
loop_
_atom_site_type_symbol
_atom_site_label
_atom_site_fract_x
_atom_site_fract_y
_atom_site_fract_z
Si Si1 0.437113 0.778272 0.522325
Si Si2 0.856377 0.994977 0.843211
Si Si3 0.960375 0.781577 0.201981
Si Si4 0.634480 0.234043 0.231328
Si Si5 0.122615 0.002978 0.577456
Si Si6 0.303610 0.001317 0.880581
Si Si7 0.622149 0.528506 0.866065
O O1 0.557582 0.605075 0.571125
O O2 0.317119 0.692959 0.444270
O O3 0.398262 0.841310 0.581564
O O4 0.500000 0.000000 0.500000
O O5 0.718608 0.014425 0.770685
O O6 0.850431 0.206074 0.897685
O O7 0.960610 0.121234 0.832516
O O8 0.890098 0.704192 0.868981
O O9 0.813832 0.817203 0.147429
O O10 0.996280 0.493090 0.232070
O O11 0.495014 0.288957 0.168442
O O12 0.625856 0.081223 0.295101
O O13 0.702598 0.108449 0.192775
O O14 0.240557 0.128832 0.580073
O O15 0.000000 0.000000 0.500000
#
# Coordination Sequence:
#
# PCOD9251863 Si02
#       7
#     4   4   4   4   4   4   4
#     4  11  25  46  68 105 144 191 241 303 370 438
#     4  11  25  46  71 105 142 184 246 301 358 432
#     4  12  27  45  76 107 142 195 240 302 377 430
#     4  11  22  45  69 109 134 190 239 310 347 434
#     4  11  26  47  70 103 146 191 239 297 363 440
#     4  11  26  45  71 104 149 187 247 304 362 446
#     4  11  24  41  74 101 139 185 238 293 366 421
#
# _framework density 23.452124999999999
#
# number of rings (size 3 to 8) (size 9 to 14) (size 15 to 20)
#    0.000    0.857    2.857    3.000    8.000    2.286 
#    0.000    0.000    0.000    0.000    0.000    0.000 
#    0.000    0.000    0.000    0.000    0.000    0.000 
#
# Total GULP energy -156223.308106 kJ/mol
# GULP energy per Si atom -5579.403861 kJ/mol
# Density = 2.339875 g / cm^3
# Si number density = 23.452125 Si / 1000 Ang^3
#
#
#
# Elastic Constant Matrix: (Units=GPa)
#
#
# Indices 1 2 3 4 5 6 
#
# 1 98.6787 -6.9593 33.9053 0.0000 21.3735 0.0000
# 2 -6.9593 57.4063 25.7358 0.0000 1.1062 0.0000
# 3 33.9053 25.7358 84.5878 0.0000 21.2543 0.0000
# 4 0.0000 0.0000 0.0000 28.2531 0.0000 5.4576
# 5 21.3735 1.1062 21.2543 0.0000 32.1534 0.0000
# 6 0.0000 0.0000 0.0000 5.4576 0.0000 26.7138
#
#
#
# Elastic Compliance Matrix: (Units=1/GPa)
#
#
# Indices 1 2 3 4 5 6 
#
# 1 0.013429 0.004071 -0.005208 0.000000 -0.005624 0.000000
# 2 0.004071 0.021851 -0.008887 0.000000 0.002417 0.000000
# 3 -0.005208 -0.008887 0.018787 0.000000 -0.008651 0.000000
# 4 0.000000 0.000000 0.000000 0.036849 0.000000 -0.007528
# 5 -0.005624 0.002417 -0.008651 0.000000 0.040475 0.000000
# 6 0.000000 0.000000 0.000000 -0.007528 0.000000 0.038972
#
#
# Mechanical properties :
#
#
# Convention : Reuss Voigt Hill
#
# Bulk Modulus (GPa) = 29.39584 38.44849 33.92217
# Shear Modulus (GPa) = 24.78318 29.95678 27.36998
#
# Velocity S-wave (km/s) = 3.25431 3.57789 3.41993
# Velocity P-wave (km/s) = 5.16549 5.78779 5.48547
#
# Compressibility (1/GPa) = 0.03401842
#
# Stress axis : x y z
#
# Youngs Moduli (GPa) = 74.46797 45.76478 53.22745
#
# Poissons Ratio (x) = -0.18632 0.27722
# Poissons Ratio (y) = -0.30317 0.47304
# Poissons Ratio (z) = 0.38784 0.40672
#
# Static dielectric constant tensor:
#      x y z
#    x 1.938110 0.000000 0.016350 
#    y 0.000000 2.085630 0.000000 
#    z 0.016350 0.000000 1.645680 
# 
# From -- ./inp_files/66409.got.cif
#   From: 2010.05.17/outbox.cif.g08.bks.cpg/sg14_34_cif.got.tgz:66409.got - 2010.06.03 17:49:19.
