data_PCOD9251078
_publ_section_title
;
Structure prediction by ZEFSAII (Michael W. Deem and Ramdas Pophale) SiO2 
 PCOD9251078
Probable space group: P 21/C
;
_chemical_formula_sum "Si O2"
_cell_formula_units_Z 32
_cell_length_a 9.446261
_cell_length_b 15.025199
_cell_length_c 13.423098
_cell_angle_alpha 90.000000
_cell_angle_beta 41.087843
_cell_angle_gamma 90.000000
_cell_volume 1252.104644
_symmetry_space_group_name_H-M "P 21/C"
_symmetry_group_IT_number 14
_symmetry_cell_setting 'monoclinic'
loop_
_space_group_symop_operation_xyz
x,y,z
-x,1/2+y,1/2-z
-x,-y,-z
x,1/2-y,1/2+z
loop_
_atom_site_type_symbol
_atom_site_label
_atom_site_fract_x
_atom_site_fract_y
_atom_site_fract_z
Si Si1 0.945919 0.360467 0.737030
Si Si2 0.512112 0.873973 0.346822
Si Si3 0.502617 0.929020 0.604542
Si Si4 0.944741 0.676285 0.876336
Si Si5 0.585928 0.542969 0.290666
Si Si6 0.685364 0.630989 0.546606
Si Si7 0.406428 0.695015 0.528485
Si Si8 0.965811 0.111535 0.451612
O O1 0.112242 0.430789 0.606452
O O2 0.086189 0.284368 0.604908
O O3 0.985679 0.342650 0.831705
O O4 0.707754 0.377102 0.826026
O O5 0.554305 0.965391 0.385031
O O6 0.679985 0.854909 0.170161
O O7 0.461867 0.783261 0.432976
O O8 0.714830 0.093471 0.579529
O O9 0.740852 0.885480 0.454554
O O10 0.505484 0.924621 0.724259
O O11 0.156083 0.676544 0.692076
O O12 0.992801 0.658120 0.966148
O O13 0.507618 0.616337 0.410477
O O14 0.490684 0.449939 0.368857
O O15 0.846917 0.538872 0.154493
O O16 0.535040 0.701575 0.563478
#
# Coordination Sequence:
#
# PCOD9251078 Si02
#       8
#     4   4   4   4   4   4   4   4
#     4  12  27  46  78 115 157 202 261 317 393 465
#     4  11  26  47  76 117 159 201 255 325 399 455
#     4  10  28  51  74 118 162 200 249 330 394 459
#     4  11  27  46  80 107 152 207 260 321 377 464
#     4  10  25  46  80 112 154 203 268 313 383 466
#     4  11  26  47  79 113 155 205 260 326 380 469
#     4  12  24  46  82 114 142 208 265 316 376 464
#     4  11  24  46  72 112 151 203 260 317 373 472
#
# _framework density 25.556968000000001
#
# number of rings (size 3 to 8) (size 9 to 14) (size 15 to 20)
#    0.000    1.000    3.750    0.375    8.750    4.000 
#    0.000    3.750    0.000    0.000    0.000    0.000 
#    0.000    0.000    0.000    0.000    0.000    0.000 
#
# Total GULP energy -178351.329800 kJ/mol
# GULP energy per Si atom -5573.479056 kJ/mol
# Density = 2.549880 g / cm^3
# Si number density = 25.556968 Si / 1000 Ang^3
#
#
#
# Elastic Constant Matrix: (Units=GPa)
#
#
# Indices 1 2 3 4 5 6 
#
# 1 149.3869 58.0648 60.2572 0.0000 -2.0512 0.0000
# 2 58.0648 101.0662 61.1953 0.0000 4.6382 0.0000
# 3 60.2572 61.1953 195.6391 0.0000 -17.5641 0.0000
# 4 0.0000 0.0000 0.0000 45.6973 0.0000 4.7624
# 5 -2.0512 4.6382 -17.5641 0.0000 47.1523 0.0000
# 6 0.0000 0.0000 0.0000 4.7624 0.0000 30.9972
#
#
#
# Elastic Compliance Matrix: (Units=1/GPa)
#
#
# Indices 1 2 3 4 5 6 
#
# 1 0.008928 -0.004311 -0.001374 0.000000 0.000300 0.000000
# 2 -0.004311 0.014633 -0.003513 0.000000 -0.002935 0.000000
# 3 -0.001374 -0.003513 0.006890 0.000000 0.002852 0.000000
# 4 0.000000 0.000000 0.000000 0.022239 0.000000 -0.003417
# 5 0.000300 -0.002935 0.002852 0.000000 0.022572 0.000000
# 6 0.000000 0.000000 0.000000 -0.003417 0.000000 0.032786
#
#
# Mechanical properties :
#
#
# Convention : Reuss Voigt Hill
#
# Bulk Modulus (GPa) = 82.95889 89.45853 86.20871
# Shear Modulus (GPa) = 38.32503 42.54101 40.43302
#
# Velocity S-wave (km/s) = 3.87666 4.08432 3.98184
# Velocity P-wave (km/s) = 7.25044 7.57112 7.41251
#
# Compressibility (1/GPa) = 0.01205416
#
# Stress axis : x y z
#
# Youngs Moduli (GPa) = 112.00485 68.33849 145.14473
#
# Poissons Ratio (x) = 0.29461 0.19949
# Poissons Ratio (y) = 0.48285 0.50988
# Poissons Ratio (z) = 0.15395 0.24007
#
# Static dielectric constant tensor:
#      x y z
#    x 2.003080 0.000000 -0.001870 
#    y 0.000000 2.310120 0.000000 
#    z -0.001870 0.000000 2.159110 
# 
# From -- ./inp_files/47450.got.cif
#   From: 2010.05.17/outbox.cif.g08.bks.cpg/sg14_24_cif.got.tgz:47450.got - 2010.06.03 17:49:19.
