data_PCOD9251809
_publ_section_title
;
Structure prediction by ZEFSAII (Michael W. Deem and Ramdas Pophale) SiO2 
 PCOD9251809
Probable space group: P 21/C
;
_chemical_formula_sum "Si O2"
_cell_formula_units_Z 32
_cell_length_a 20.336532
_cell_length_b 7.852673
_cell_length_c 10.444341
_cell_angle_alpha 90.000000
_cell_angle_beta 130.901218
_cell_angle_gamma 90.000000
_cell_volume 1260.680582
_symmetry_space_group_name_H-M "P 21/C"
_symmetry_group_IT_number 14
_symmetry_cell_setting 'monoclinic'
loop_
_space_group_symop_operation_xyz
x,y,z
-x,1/2+y,1/2-z
-x,-y,-z
x,1/2-y,1/2+z
loop_
_atom_site_type_symbol
_atom_site_label
_atom_site_fract_x
_atom_site_fract_y
_atom_site_fract_z
Si Si1 0.161037 0.028484 0.435189
Si Si2 0.678917 0.766192 0.304108
Si Si3 0.647109 0.275456 0.132625
Si Si4 0.183244 0.851274 0.023254
Si Si5 0.027137 0.937787 0.676094
Si Si6 0.083801 0.600445 0.635064
Si Si7 0.636692 0.579565 0.499836
Si Si8 0.431459 0.585413 0.230395
O O1 0.223062 0.164568 0.574421
O O2 0.062079 0.043404 0.359025
O O3 0.202483 0.837126 0.491086
O O4 0.151375 0.040575 0.270362
O O5 0.670412 0.623100 0.401965
O O6 0.649714 0.767430 0.118923
O O7 0.619693 0.917370 0.290480
O O8 0.726427 0.388832 0.288368
O O9 0.589634 0.223475 0.183845
O O10 0.679157 0.092936 0.112721
O O11 0.598168 0.358153 0.949248
O O12 0.119119 0.806315 0.057847
O O13 0.122508 0.983337 0.862803
O O14 0.051508 0.740877 0.692717
O O15 0.000000 0.000000 0.500000
O O16 0.000000 0.500000 0.500000
O O17 0.533690 0.548211 0.360863
#
# Coordination Sequence:
#
# PCOD9251809 Si02
#       8
#     4   4   4   4   4   4   4   4
#     4  11  22  43  64  99 136 181 231 290 347 412
#     4  11  24  44  70  99 149 186 239 304 364 430
#     4  11  24  42  71 108 140 190 244 299 361 437
#     4  11  22  43  69 100 138 180 240 284 347 417
#     4  11  24  40  70  97 137 185 233 291 343 418
#     4  11  23  41  66  95 134 176 232 281 341 408
#     4  11  23  44  71 105 143 189 238 303 370 437
#     4  11  22  43  71 105 144 188 239 299 372 440
#
# _framework density 25.383115
#
# number of rings (size 3 to 8) (size 9 to 14) (size 15 to 20)
#    0.000    1.000    5.000    3.750    1.750    2.000 
#    0.000    6.250    0.000    0.000    0.000    0.000 
#    0.000    0.000    0.000    0.000    0.000    0.000 
#
# Total GULP energy -178474.580007 kJ/mol
# GULP energy per Si atom -5577.330625 kJ/mol
# Density = 2.532534 g / cm^3
# Si number density = 25.383115 Si / 1000 Ang^3
#
#
#
# Elastic Constant Matrix: (Units=GPa)
#
#
# Indices 1 2 3 4 5 6 
#
# 1 87.0545 28.0810 53.5343 0.0000 -14.1641 0.0000
# 2 28.0810 36.0365 34.5427 0.0000 -8.1806 0.0000
# 3 53.5343 34.5427 165.3343 0.0000 -4.5614 0.0000
# 4 0.0000 0.0000 0.0000 46.1023 0.0000 -6.8546
# 5 -14.1641 -8.1806 -4.5614 0.0000 30.3169 0.0000
# 6 0.0000 0.0000 0.0000 -6.8546 0.0000 30.8266
#
#
#
# Elastic Compliance Matrix: (Units=1/GPa)
#
#
# Indices 1 2 3 4 5 6 
#
# 1 0.017452 -0.008929 -0.003642 0.000000 0.005197 0.000000
# 2 -0.008929 0.041483 -0.005605 0.000000 0.006179 0.000000
# 3 -0.003642 -0.005605 0.008345 0.000000 -0.001959 0.000000
# 4 0.000000 0.000000 0.000000 0.022433 0.000000 0.004988
# 5 0.005197 0.006179 -0.001959 0.000000 0.036785 0.000000
# 6 0.000000 0.000000 0.000000 0.004988 0.000000 0.033549
#
#
# Mechanical properties :
#
#
# Convention : Reuss Voigt Hill
#
# Bulk Modulus (GPa) = 32.33369 57.86014 45.09691
# Shear Modulus (GPa) = 24.18871 32.93366 28.56119
#
# Velocity S-wave (km/s) = 3.09033 3.60594 3.35805
# Velocity P-wave (km/s) = 5.04970 6.33887 5.73065
#
# Compressibility (1/GPa) = 0.03092750
#
# Stress axis : x y z
#
# Youngs Moduli (GPa) = 57.29857 24.10638 119.83602
#
# Poissons Ratio (x) = 0.21524 0.43646
# Poissons Ratio (y) = 0.51160 0.67172
# Poissons Ratio (z) = 0.20869 0.13512
#
# Static dielectric constant tensor:
#      x y z
#    x 1.929600 0.000000 0.423530 
#    y 0.000000 2.103940 0.000000 
#    z 0.423530 0.000000 -7.013070 
# 
# From -- ./inp_files/35755.got.cif
#   From: 2010.05.17/outbox.cif.g08.bks.cpg/sg14_18_cif.got.tgz:35755.got - 2010.06.03 17:49:19.
