data_PCOD9251922
_publ_section_title
;
Structure prediction by ZEFSAII (Michael W. Deem and Ramdas Pophale) SiO2 
 PCOD9251922
Probable space group: P 21/C
;
_chemical_formula_sum "Si O2"
_cell_formula_units_Z 26
_cell_length_a 11.784519
_cell_length_b 7.228134
_cell_length_c 15.075682
_cell_angle_alpha 90.000000
_cell_angle_beta 125.154136
_cell_angle_gamma 90.000000
_cell_volume 1049.927050
_symmetry_space_group_name_H-M "P 21/C"
_symmetry_group_IT_number 14
_symmetry_cell_setting 'monoclinic'
loop_
_space_group_symop_operation_xyz
x,y,z
-x,1/2+y,1/2-z
-x,-y,-z
x,1/2-y,1/2+z
loop_
_atom_site_type_symbol
_atom_site_label
_atom_site_fract_x
_atom_site_fract_y
_atom_site_fract_z
Si Si1 0.808891 0.184528 0.494996
Si Si2 0.214057 0.829283 0.822163
Si Si3 0.499108 0.674713 0.676873
Si Si4 0.932268 0.819922 0.600672
Si Si5 0.000000 0.000000 0.000000
Si Si6 0.302054 0.244728 0.880845
Si Si7 0.506115 0.253349 0.127751
O O1 0.832214 0.230050 0.609341
O O2 0.647379 0.223276 0.402886
O O3 0.860333 0.974760 0.507365
O O4 0.902745 0.321532 0.480031
O O5 0.334689 0.715029 0.827700
O O6 0.088138 0.865966 0.699476
O O7 0.282668 0.023755 0.878837
O O8 0.625129 0.773312 0.681063
O O9 0.528598 0.660466 0.793802
O O10 0.486136 0.467286 0.633493
O O11 0.846081 0.818756 0.655084
O O12 0.928093 0.622503 0.550237
O O13 0.408991 0.311935 0.003669
#
# Coordination Sequence:
#
# PCOD9251922 Si02
#       7
#     4   4   4   4   2   4   4
#     4  12  25  47  75 108 153 199 254 315 379 461
#     4  11  22  49  72 108 155 199 252 311 381 453
#     4  11  24  45  74 110 145 197 259 313 384 463
#     4  12  27  45  79 110 149 205 251 310 387 456
#     4  12  26  50  68 108 156 194 254 324 370 438
#     4  11  23  50  74 108 159 196 245 331 383 442
#     4  11  23  44  76 104 149 206 249 317 381 448
#
# _framework density 24.763627
#
# number of rings (size 3 to 8) (size 9 to 14) (size 15 to 20)
#    0.000    0.615    4.615    3.231    2.154    1.846 
#   13.846    0.000    0.000    0.000    0.000    0.000 
#    0.000    0.000    0.000    0.000    0.000    0.000 
#
# Total GULP energy -145210.199893 kJ/mol
# GULP energy per Si atom -5585.007688 kJ/mol
# Density = 2.470726 g / cm^3
# Si number density = 24.763627 Si / 1000 Ang^3
#
#
#
# Elastic Constant Matrix: (Units=GPa)
#
#
# Indices 1 2 3 4 5 6 
#
# 1 169.8070 12.1023 41.4851 0.0000 -12.2836 0.0000
# 2 12.1023 64.1542 3.5548 0.0000 -1.0958 0.0000
# 3 41.4851 3.5548 51.5666 0.0000 -3.4010 0.0000
# 4 0.0000 0.0000 0.0000 43.3051 0.0000 -3.5832
# 5 -12.2836 -1.0958 -3.4010 0.0000 33.0577 0.0000
# 6 0.0000 0.0000 0.0000 -3.5832 0.0000 27.4426
#
#
#
# Elastic Compliance Matrix: (Units=1/GPa)
#
#
# Indices 1 2 3 4 5 6 
#
# 1 0.007553 -0.001063 -0.005860 0.000000 0.002169 0.000000
# 2 -0.001063 0.015802 -0.000227 0.000000 0.000105 0.000000
# 3 -0.005860 -0.000227 0.024142 0.000000 0.000299 0.000000
# 4 0.000000 0.000000 0.000000 0.023344 0.000000 0.003048
# 5 0.002169 0.000105 0.000299 0.000000 0.031090 0.000000
# 6 0.000000 0.000000 0.000000 0.003048 0.000000 0.036838
#
#
# Mechanical properties :
#
#
# Convention : Reuss Voigt Hill
#
# Bulk Modulus (GPa) = 30.12325 44.42358 37.27342
# Shear Modulus (GPa) = 30.46234 35.98680 33.22457
#
# Velocity S-wave (km/s) = 3.51112 3.81624 3.66685
# Velocity P-wave (km/s) = 5.35051 6.11524 5.74562
#
# Compressibility (1/GPa) = 0.03319695
#
# Stress axis : x y z
#
# Youngs Moduli (GPa) = 132.39056 63.28161 41.42086
#
# Poissons Ratio (x) = 0.06728 0.24274
# Poissons Ratio (y) = 0.14075 0.00941
# Poissons Ratio (z) = 0.77586 0.01437
#
# Static dielectric constant tensor:
#      x y z
#    x 1.988720 0.000000 -0.000960 
#    y 0.000000 1.983460 0.000000 
#    z -0.000960 0.000000 1.887000 
# 
# From -- ./inp_files/44143.got.cif
#   From: 2010.05.17/outbox.cif.g08.bks.cpg/sg14_23_cif.got.tgz:44143.got - 2010.06.03 17:49:19.
