data_PCOD9251878
_publ_section_title
;
Structure prediction by ZEFSAII (Michael W. Deem and Ramdas Pophale) SiO2 
 PCOD9251878
Probable space group: P 21/C
;
_chemical_formula_sum "Si O2"
_cell_formula_units_Z 28
_cell_length_a 19.575600
_cell_length_b 10.258946
_cell_length_c 8.786048
_cell_angle_alpha 90.000000
_cell_angle_beta 49.264681
_cell_angle_gamma 90.000000
_cell_volume 1336.986896
_symmetry_space_group_name_H-M "P 21/C"
_symmetry_group_IT_number 14
_symmetry_cell_setting 'monoclinic'
loop_
_space_group_symop_operation_xyz
x,y,z
-x,1/2+y,1/2-z
-x,-y,-z
x,1/2-y,1/2+z
loop_
_atom_site_type_symbol
_atom_site_label
_atom_site_fract_x
_atom_site_fract_y
_atom_site_fract_z
Si Si1 0.860841 0.333472 0.084659
Si Si2 0.081417 0.922925 0.806558
Si Si3 0.259144 0.014601 0.653873
Si Si4 0.244546 0.512037 0.529688
Si Si5 0.632579 0.765607 0.093355
Si Si6 0.682305 0.280907 0.137322
Si Si7 0.510511 0.650783 0.521207
O O1 0.892332 0.205786 0.132066
O O2 0.837322 0.446047 0.241445
O O3 0.768942 0.302941 0.121565
O O4 0.929362 0.377822 0.852655
O O5 0.167999 0.018638 0.687713
O O6 0.000000 0.000000 0.000000
O O7 0.227611 0.997372 0.873681
O O8 0.320532 0.141301 0.552140
O O9 0.311555 0.892432 0.501587
O O10 0.295184 0.381220 0.503029
O O11 0.308687 0.638578 0.447881
O O12 0.592949 0.711177 0.307579
O O13 0.543752 0.822177 0.142368
O O14 0.587634 0.289164 0.359488
O O15 0.500000 0.500000 0.500000
#
# Coordination Sequence:
#
# PCOD9251878 Si02
#       7
#     4   4   4   4   4   4   4
#     4  11  22  45  74 103 135 183 228 278 359 423
#     4  11  24  47  77 106 139 171 237 288 350 432
#     4  11  23  47  67  99 138 183 232 285 356 424
#     4  12  23  43  71  96 133 191 232 273 350 422
#     4  12  28  43  64 102 142 187 241 295 348 402
#     4  11  23  40  74  94 137 190 232 285 343 422
#     4  12  27  42  64 100 144 183 245 295 339 400
#
# _framework density 20.942612
#
# number of rings (size 3 to 8) (size 9 to 14) (size 15 to 20)
#    0.000    0.571    7.143    0.857    8.000    0.571 
#    5.143    1.429    0.000    0.000    0.000    0.000 
#    0.000    0.000    0.000    0.000    0.000    0.000 
#
# Total GULP energy -156349.633607 kJ/mol
# GULP energy per Si atom -5583.915486 kJ/mol
# Density = 2.089495 g / cm^3
# Si number density = 20.942612 Si / 1000 Ang^3
#
#
#
# Elastic Constant Matrix: (Units=GPa)
#
#
# Indices 1 2 3 4 5 6 
#
# 1 29.4690 18.2970 14.9299 0.0000 7.5798 0.0000
# 2 18.2970 127.3828 43.8776 0.0000 6.1710 0.0000
# 3 14.9299 43.8776 136.7717 0.0000 6.8869 0.0000
# 4 0.0000 0.0000 0.0000 41.5357 0.0000 -9.0564
# 5 7.5798 6.1710 6.8869 0.0000 33.7112 0.0000
# 6 0.0000 0.0000 0.0000 -9.0564 0.0000 25.5364
#
#
#
# Elastic Compliance Matrix: (Units=1/GPa)
#
#
# Indices 1 2 3 4 5 6 
#
# 1 0.039979 -0.004499 -0.002536 0.000000 -0.007647 0.000000
# 2 -0.004499 0.009369 -0.002505 0.000000 -0.000192 0.000000
# 3 -0.002536 -0.002505 0.008427 0.000000 -0.000693 0.000000
# 4 0.000000 0.000000 0.000000 0.026093 0.000000 0.009254
# 5 -0.007647 -0.000192 -0.000693 0.000000 0.031560 0.000000
# 6 0.000000 0.000000 0.000000 0.009254 0.000000 0.042442
#
#
# Mechanical properties :
#
#
# Convention : Reuss Voigt Hill
#
# Bulk Modulus (GPa) = 25.84258 49.75915 37.80086
# Shear Modulus (GPa) = 26.33715 34.59127 30.46421
#
# Velocity S-wave (km/s) = 3.55009 4.06854 3.81813
# Velocity P-wave (km/s) = 5.40099 6.77363 6.12588
#
# Compressibility (1/GPa) = 0.03869583
#
# Stress axis : x y z
#
# Youngs Moduli (GPa) = 25.01323 106.73949 118.67017
#
# Poissons Ratio (x) = 0.48017 0.30092
# Poissons Ratio (y) = 0.11252 0.29725
# Poissons Ratio (z) = 0.06343 0.26736
#
# Static dielectric constant tensor:
#      x y z
#    x 1.745970 0.000000 0.025530 
#    y 0.000000 1.732940 0.000000 
#    z 0.025530 0.000000 1.850830 
# 
# From -- ./inp_files/18720.got.cif
#   From: 2010.05.17/outbox.cif.g08.bks.cpg/sg14_10_cif.got.tgz:18720.got - 2010.06.03 17:49:19.
