data_PCOD9251655
_publ_section_title
;
Structure prediction by ZEFSAII (Michael W. Deem and Ramdas Pophale) SiO2 
 PCOD9251655
Probable space group: P 21/C
;
_chemical_formula_sum "Si O2"
_cell_formula_units_Z 20
_cell_length_a 6.702552
_cell_length_b 9.923706
_cell_length_c 13.422774
_cell_angle_alpha 90.000000
_cell_angle_beta 106.881533
_cell_angle_gamma 90.000000
_cell_volume 854.331060
_symmetry_space_group_name_H-M "P 21/C"
_symmetry_group_IT_number 14
_symmetry_cell_setting 'monoclinic'
loop_
_space_group_symop_operation_xyz
x,y,z
-x,1/2+y,1/2-z
-x,-y,-z
x,1/2-y,1/2+z
loop_
_atom_site_type_symbol
_atom_site_label
_atom_site_fract_x
_atom_site_fract_y
_atom_site_fract_z
Si Si1 0.938013 0.968605 0.702747
Si Si2 0.813875 0.811935 0.155243
Si Si3 0.510500 0.851594 0.954946
Si Si4 0.700404 0.091493 0.497578
Si Si5 0.518184 0.628589 0.222419
O O1 0.892025 0.034514 0.588504
O O2 0.096878 0.049631 0.793077
O O3 0.973774 0.808967 0.699384
O O4 0.710585 0.972336 0.725378
O O5 0.735727 0.803264 0.030443
O O6 0.611627 0.768341 0.190807
O O7 0.345558 0.743418 0.972309
O O8 0.492754 0.858632 0.834861
O O9 0.500000 0.000000 0.000000
O O10 0.677951 0.089704 0.374675
O O11 0.500000 0.000000 0.500000
#
# Coordination Sequence:
#
# PCOD9251655 Si02
#       5
#     4   4   4   4   4
#     4   9  19  39  60  79 119 149 192 233 287 338
#     4   9  21  38  58  85 115 150 187 241 278 344
#     4  11  22  36  60  87 116 147 195 236 283 337
#     4   9  18  38  59  79 112 153 188 237 277 338
#     4   8  20  38  59  83 115 145 196 235 281 335
#
# _framework density 23.410129999999999
#
# number of rings (size 3 to 8) (size 9 to 14) (size 15 to 20)
#    1.200    1.600    2.000    0.000    2.800    7.200 
#    0.000    3.000    4.400    0.000    0.000    0.000 
#    0.000    0.000    0.000    0.000    0.000    0.000 
#
# Total GULP energy -111591.685286 kJ/mol
# GULP energy per Si atom -5579.584264 kJ/mol
# Density = 2.335685 g / cm^3
# Si number density = 23.410130 Si / 1000 Ang^3
#
#
#
# Elastic Constant Matrix: (Units=GPa)
#
#
# Indices 1 2 3 4 5 6 
#
# 1 51.0221 10.0453 27.8639 0.0000 10.4170 0.0000
# 2 10.0453 104.9187 22.0483 0.0000 0.1360 0.0000
# 3 27.8639 22.0483 208.1756 0.0000 -4.1513 0.0000
# 4 0.0000 0.0000 0.0000 37.6660 0.0000 15.7136
# 5 10.4170 0.1360 -4.1513 0.0000 30.3970 0.0000
# 6 0.0000 0.0000 0.0000 15.7136 0.0000 14.3842
#
#
#
# Elastic Compliance Matrix: (Units=1/GPa)
#
#
# Indices 1 2 3 4 5 6 
#
# 1 0.023333 -0.001566 -0.003125 0.000000 -0.008416 0.000000
# 2 -0.001566 0.009854 -0.000826 0.000000 0.000380 0.000000
# 3 -0.003125 -0.000826 0.005345 0.000000 0.001805 0.000000
# 4 0.000000 0.000000 0.000000 0.048780 0.000000 -0.053288
# 5 -0.008416 0.000380 0.001805 0.000000 0.036027 0.000000
# 6 0.000000 0.000000 0.000000 -0.053288 0.000000 0.127734
#
#
# Mechanical properties :
#
#
# Convention : Reuss Voigt Hill
#
# Bulk Modulus (GPa) = 36.36786 53.78127 45.07457
# Shear Modulus (GPa) = 18.43152 36.76670 27.59911
#
# Velocity S-wave (km/s) = 2.80899 3.96731 3.43729
# Velocity P-wave (km/s) = 5.10777 6.63396 5.92025
#
# Compressibility (1/GPa) = 0.02749680
#
# Stress axis : x y z
#
# Youngs Moduli (GPa) = 42.85860 101.47806 187.07589
#
# Poissons Ratio (x) = 0.15895 0.58460
# Poissons Ratio (y) = 0.06713 0.15461
# Poissons Ratio (z) = 0.13393 0.08387
#
# Static dielectric constant tensor:
#      x y z
#    x 1.949970 0.000000 -0.000990 
#    y 0.000000 1.905340 0.000000 
#    z -0.000990 0.000000 1.874300 
# 
# From -- ./inp_files/23883.got.cif
#   From: 2010.05.17/outbox.cif.g08.bks.cpg/sg14_12_cif.got.tgz:23883.got - 2010.06.03 17:49:19.
