data_PCOD9251169
_publ_section_title
;
Structure prediction by ZEFSAII (Michael W. Deem and Ramdas Pophale) SiO2 
 PCOD9251169
Probable space group: P 21/C
;
_chemical_formula_sum "Si O2"
_cell_formula_units_Z 22
_cell_length_a 14.800032
_cell_length_b 9.554691
_cell_length_c 12.535687
_cell_angle_alpha 90.000000
_cell_angle_beta 30.422919
_cell_angle_gamma 90.000000
_cell_volume 897.641461
_symmetry_space_group_name_H-M "P 21/C"
_symmetry_group_IT_number 14
_symmetry_cell_setting 'monoclinic'
loop_
_space_group_symop_operation_xyz
x,y,z
-x,1/2+y,1/2-z
-x,-y,-z
x,1/2-y,1/2+z
loop_
_atom_site_type_symbol
_atom_site_label
_atom_site_fract_x
_atom_site_fract_y
_atom_site_fract_z
Si Si1 0.500000 0.000000 0.500000
Si Si2 0.624356 0.456910 0.113147
Si Si3 0.992333 0.542429 0.184864
Si Si4 0.479940 0.810069 0.889979
Si Si5 0.879789 0.209725 0.642031
Si Si6 0.814783 0.619376 0.576632
O O1 0.571448 0.986122 0.551209
O O2 0.291838 0.998151 0.756865
O O3 0.588530 0.291267 0.135865
O O4 0.509097 0.534154 0.320844
O O5 0.827087 0.492233 0.935289
O O6 0.926920 0.413562 0.179922
O O7 0.849752 0.589174 0.417311
O O8 0.049896 0.663271 0.044191
O O9 0.667383 0.744352 0.737409
O O10 0.334128 0.785592 0.130153
O O11 0.999986 0.336424 0.560430
#
# Coordination Sequence:
#
# PCOD9251169 Si02
#       6
#     2   4   4   4   4   4
#     4  10  26  44  70 108 142 190 240 304 360 430
#     4  11  24  46  73 107 147 194 243 304 367 438
#     4  11  25  47  72 105 151 193 245 305 365 447
#     4  11  24  47  72 108 146 197 242 301 365 437
#     4  11  24  45  73 107 145 197 242 304 372 434
#     4  11  24  48  70 109 144 196 245 300 370 436
#
# _framework density 24.508671
#
# number of rings (size 3 to 8) (size 9 to 14) (size 15 to 20)
#    0.000    1.091    3.636    2.182    2.545    4.364 
#    9.818    0.000    0.000    0.000    0.000    0.000 
#    0.000    0.000    0.000    0.000    0.000    0.000 
#
# Total GULP energy -122621.619681 kJ/mol
# GULP energy per Si atom -5573.709985 kJ/mol
# Density = 2.445289 g / cm^3
# Si number density = 24.508671 Si / 1000 Ang^3
#
#
#
# Elastic Constant Matrix: (Units=GPa)
#
#
# Indices 1 2 3 4 5 6 
#
# 1 99.2336 -7.9794 32.9255 0.0000 -0.2398 0.0000
# 2 -7.9794 38.9514 25.9475 0.0000 8.3698 0.0000
# 3 32.9255 25.9475 203.4889 0.0000 9.9278 0.0000
# 4 0.0000 0.0000 0.0000 33.4545 0.0000 -7.2732
# 5 -0.2398 8.3698 9.9278 0.0000 35.9126 0.0000
# 6 0.0000 0.0000 0.0000 -7.2732 0.0000 23.7433
#
#
#
# Elastic Compliance Matrix: (Units=1/GPa)
#
#
# Indices 1 2 3 4 5 6 
#
# 1 0.011144 0.003845 -0.002284 0.000000 -0.000190 0.000000
# 2 0.003845 0.030551 -0.004229 0.000000 -0.005926 0.000000
# 3 -0.002284 -0.004229 0.005855 0.000000 -0.000648 0.000000
# 4 0.000000 0.000000 0.000000 0.032024 0.000000 0.009810
# 5 -0.000190 -0.005926 -0.000648 0.000000 0.029404 0.000000
# 6 0.000000 0.000000 0.000000 0.009810 0.000000 0.045122
#
#
# Mechanical properties :
#
#
# Convention : Reuss Voigt Hill
#
# Bulk Modulus (GPa) = 23.68856 49.27347 36.48101
# Shear Modulus (GPa) = 28.81732 38.00742 33.41237
#
# Velocity S-wave (km/s) = 3.43272 3.94226 3.69628
# Velocity P-wave (km/s) = 5.03962 6.39297 5.75620
#
# Compressibility (1/GPa) = 0.04221447
#
# Stress axis : x y z
#
# Youngs Moduli (GPa) = 89.73550 32.73213 170.80257
#
# Poissons Ratio (x) = -0.12587 0.39014
# Poissons Ratio (y) = -0.34507 0.72228
# Poissons Ratio (z) = 0.20497 0.13842
#
# Static dielectric constant tensor:
#      x y z
#    x 1.469530 0.000000 0.100940 
#    y 0.000000 2.196240 0.000000 
#    z 0.100940 0.000000 1.903870 
# 
# From -- ./inp_files/32314.got.cif
#   From: 2010.05.17/outbox.cif.g08.bks.cpg/sg14_17_cif.got.tgz:32314.got - 2010.06.03 17:49:19.
