data_PCOD9251179
_publ_section_title
;
Structure prediction by ZEFSAII (Michael W. Deem and Ramdas Pophale) SiO2 
 PCOD9251179
Probable space group: P 21/C
;
_chemical_formula_sum "Si O2"
_cell_formula_units_Z 18
_cell_length_a 7.540382
_cell_length_b 11.001734
_cell_length_c 16.958442
_cell_angle_alpha 90.000000
_cell_angle_beta 32.720444
_cell_angle_gamma 90.000000
_cell_volume 760.446592
_symmetry_space_group_name_H-M "P 21/C"
_symmetry_group_IT_number 14
_symmetry_cell_setting 'monoclinic'
loop_
_space_group_symop_operation_xyz
x,y,z
-x,1/2+y,1/2-z
-x,-y,-z
x,1/2-y,1/2+z
loop_
_atom_site_type_symbol
_atom_site_label
_atom_site_fract_x
_atom_site_fract_y
_atom_site_fract_z
Si Si1 0.204562 0.881163 0.266556
Si Si2 0.453753 0.641287 0.100970
Si Si3 0.189484 0.759728 0.051858
Si Si4 0.520460 0.904444 0.306126
Si Si5 0.500000 0.000000 0.000000
O O1 0.380334 0.750218 0.189100
O O2 0.367777 0.945545 0.280721
O O3 0.822380 0.860715 0.428289
O O4 0.289473 0.947909 0.154128
O O5 0.219599 0.667485 0.114205
O O6 0.397720 0.517180 0.168297
O O7 0.847040 0.827322 0.172005
O O8 0.446248 0.867192 0.974856
O O9 0.268602 0.683377 0.944834
#
# Coordination Sequence:
#
# PCOD9251179 Si02
#       5
#     4   4   4   4   2
#     4  11  26  49  76 109 150 198 257 313 377 451
#     4  11  26  49  74 108 154 196 249 311 386 450
#     4  11  26  43  71 110 148 198 249 306 381 448
#     4  12  27  44  79 110 151 195 259 311 376 448
#     4  10  26  44  72  98 150 194 246 302 376 438
#
# _framework density 23.670297999999999
#
# number of rings (size 3 to 8) (size 9 to 14) (size 15 to 20)
#    0.000    0.889    0.000    5.333   15.556    0.889 
#    0.000    0.000    0.000    0.000    0.000    0.000 
#    0.000    0.000    0.000    0.000    0.000    0.000 
#
# Total GULP energy -100380.648912 kJ/mol
# GULP energy per Si atom -5576.702717 kJ/mol
# Density = 2.361642 g / cm^3
# Si number density = 23.670298 Si / 1000 Ang^3
#
#
#
# Elastic Constant Matrix: (Units=GPa)
#
#
# Indices 1 2 3 4 5 6 
#
# 1 63.5272 5.1683 -2.6495 0.0000 -1.5789 0.0000
# 2 5.1683 89.3416 83.7670 0.0000 -4.5212 0.0000
# 3 -2.6495 83.7670 -24.5989 0.0000 5.1081 0.0000
# 4 0.0000 0.0000 0.0000 39.9119 0.0000 9.5448
# 5 -1.5789 -4.5212 5.1081 0.0000 29.0138 0.0000
# 6 0.0000 0.0000 0.0000 9.5448 0.0000 18.5527
#
#
#
# Elastic Compliance Matrix: (Units=1/GPa)
#
#
# Indices 1 2 3 4 5 6 
#
# 1 0.015714 0.000125 -0.001046 0.000000 0.001059 0.000000
# 2 0.000125 0.002710 0.008977 0.000000 -0.001151 0.000000
# 3 -0.001046 0.008977 -0.009349 0.000000 0.002988 0.000000
# 4 0.000000 0.000000 0.000000 0.028570 0.000000 -0.014698
# 5 0.001059 -0.001151 0.002988 0.000000 0.033819 0.000000
# 6 0.000000 0.000000 0.000000 -0.014698 0.000000 0.061462
#
#
# Mechanical properties :
#
#
# Convention : Reuss Voigt Hill
#
# Bulk Modulus (GPa) = 39.70084 33.42682 36.56383
# Shear Modulus (GPa) = 39.93305 20.29462 30.11383
#
# Velocity S-wave (km/s) = 4.11183 2.93129 3.57069
# Velocity P-wave (km/s) = 6.27309 5.06055 5.69916
#
# Compressibility (1/GPa) = 0.02518838
#
# Stress axis : x y z
#
# Youngs Moduli (GPa) = 63.63838 368.94771 -106.96505
#
# Poissons Ratio (x) = -0.04623 -0.11188
# Poissons Ratio (y) = -0.00797 0.96025
# Poissons Ratio (z) = 0.06657 -3.31213
#
# Static dielectric constant tensor:
#      x y z
#    x 1.902860 0.000000 -0.029130 
#    y 0.000000 1.893650 0.000000 
#    z -0.029130 0.000000 1.857720 
# 
# From -- ./inp_files/7655.got.cif
#   From: 2010.05.17/outbox.cif.g08.bks.cpg/sg14_4_cif.got.tgz:7655.got - 2010.06.03 17:49:19.
