data_PCOD9251590
_publ_section_title
;
Structure prediction by ZEFSAII (Michael W. Deem and Ramdas Pophale) SiO2 
 PCOD9251590
Probable space group: P 21/C
;
_chemical_formula_sum "Si O2"
_cell_formula_units_Z 20
_cell_length_a 8.127297
_cell_length_b 12.290694
_cell_length_c 7.180166
_cell_angle_alpha 90.000000
_cell_angle_beta 91.026391
_cell_angle_gamma 90.000000
_cell_volume 717.112568
_symmetry_space_group_name_H-M "P 21/C"
_symmetry_group_IT_number 14
_symmetry_cell_setting 'monoclinic'
loop_
_space_group_symop_operation_xyz
x,y,z
-x,1/2+y,1/2-z
-x,-y,-z
x,1/2-y,1/2+z
loop_
_atom_site_type_symbol
_atom_site_label
_atom_site_fract_x
_atom_site_fract_y
_atom_site_fract_z
Si Si1 0.476195 0.828583 0.762996
Si Si2 0.067470 0.152615 0.119082
Si Si3 0.743603 0.983098 0.595967
Si Si4 0.246241 0.357076 0.252882
Si Si5 0.728295 0.159042 0.899376
O O1 0.582145 0.914735 0.653568
O O2 0.595620 0.721340 0.777420
O O3 0.315809 0.782607 0.655229
O O4 0.416217 0.872188 0.959681
O O5 0.205701 0.121801 0.966674
O O6 0.896160 0.140940 0.013037
O O7 0.104920 0.080250 0.299955
O O8 0.100795 0.276779 0.178414
O O9 0.752664 0.962457 0.376672
O O10 0.732473 0.094277 0.706773
#
# Coordination Sequence:
#
# PCOD9251590 Si02
#       5
#     4   4   4   4   4
#     4  11  22  44  65  94 135 171 218 273 331 383
#     4  11  22  42  68  96 135 173 218 268 330 386
#     4  11  24  45  69  94 135 178 220 262 336 396
#     4  11  21  43  70  89 134 184 207 264 340 391
#     4  12  25  42  67 103 128 170 227 280 316 390
#
# _framework density 27.889624000000001
#
# number of rings (size 3 to 8) (size 9 to 14) (size 15 to 20)
#    0.000    0.800    6.000    3.600    0.000    1.600 
#    3.600    0.000    0.000    0.000    0.000    0.000 
#    0.000    0.000    0.000    0.000    0.000    0.000 
#
# Total GULP energy -112284.288465 kJ/mol
# GULP energy per Si atom -5614.214423 kJ/mol
# Density = 2.782615 g / cm^3
# Si number density = 27.889624 Si / 1000 Ang^3
#
#
#
# Elastic Constant Matrix: (Units=GPa)
#
#
# Indices 1 2 3 4 5 6 
#
# 1 116.5632 34.8625 3.6853 0.0000 3.5250 0.0000
# 2 34.8625 72.5161 4.8441 0.0000 15.4933 0.0000
# 3 3.6853 4.8441 121.7606 0.0000 1.3956 0.0000
# 4 0.0000 0.0000 0.0000 41.1556 0.0000 3.9409
# 5 3.5250 15.4933 1.3956 0.0000 39.0349 0.0000
# 6 0.0000 0.0000 0.0000 3.9409 0.0000 25.0453
#
#
#
# Elastic Compliance Matrix: (Units=1/GPa)
#
#
# Indices 1 2 3 4 5 6 
#
# 1 0.010065 -0.005067 -0.000116 0.000000 0.001107 0.000000
# 2 -0.005067 0.017654 -0.000474 0.000000 -0.006532 0.000000
# 3 -0.000116 -0.000474 0.008236 0.000000 -0.000096 0.000000
# 4 0.000000 0.000000 0.000000 0.024670 0.000000 -0.003882
# 5 0.001107 -0.006532 -0.000096 0.000000 0.028114 0.000000
# 6 0.000000 0.000000 0.000000 -0.003882 0.000000 0.040538
#
#
# Mechanical properties :
#
#
# Convention : Reuss Voigt Hill
#
# Bulk Modulus (GPa) = 40.58396 44.18039 42.38218
# Shear Modulus (GPa) = 33.60101 38.87702 36.23901
#
# Velocity S-wave (km/s) = 3.47477 3.73763 3.60859
# Velocity P-wave (km/s) = 5.53912 5.87384 5.70894
#
# Compressibility (1/GPa) = 0.02464028
#
# Stress axis : x y z
#
# Youngs Moduli (GPa) = 99.35594 56.64583 121.41374
#
# Poissons Ratio (x) = 0.28705 0.01405
# Poissons Ratio (y) = 0.50348 0.05756
# Poissons Ratio (z) = 0.01150 0.02685
#
# Static dielectric constant tensor:
#      x y z
#    x 2.227230 0.000000 0.006660 
#    y 0.000000 2.134520 0.000000 
#    z 0.006660 0.000000 2.105630 
# 
# From -- ./inp_files/7956.got.cif
#   From: 2010.05.17/outbox.cif.g08.bks.cpg/sg14_4_cif.got.tgz:7956.got - 2010.06.03 17:49:19.
