data_PCOD9251140
_publ_section_title
;
Structure prediction by ZEFSAII (Michael W. Deem and Ramdas Pophale) SiO2 
 PCOD9251140
Probable space group: P 21/C
;
_chemical_formula_sum "Si O2"
_cell_formula_units_Z 20
_cell_length_a 16.212581
_cell_length_b 9.173569
_cell_length_c 15.924632
_cell_angle_alpha 90.000000
_cell_angle_beta 17.267018
_cell_angle_gamma 90.000000
_cell_volume 703.008696
_symmetry_space_group_name_H-M "P 21/C"
_symmetry_group_IT_number 14
_symmetry_cell_setting 'monoclinic'
loop_
_space_group_symop_operation_xyz
x,y,z
-x,1/2+y,1/2-z
-x,-y,-z
x,1/2-y,1/2+z
loop_
_atom_site_type_symbol
_atom_site_label
_atom_site_fract_x
_atom_site_fract_y
_atom_site_fract_z
Si Si1 0.796815 0.895472 0.394847
Si Si2 0.801495 0.414204 0.125832
Si Si3 0.525704 0.803178 0.304278
Si Si4 0.761797 0.469791 0.416851
Si Si5 0.584605 0.833560 0.427528
O O1 0.598564 0.038085 0.593058
O O2 0.101089 0.950331 0.123857
O O3 0.005799 0.072919 0.348749
O O4 0.788363 0.838068 0.308464
O O5 0.741841 0.297817 0.415953
O O6 0.333203 0.772475 0.200215
O O7 0.000000 0.500000 0.000000
O O8 0.477388 0.517531 0.646320
O O9 0.671877 0.723767 0.082585
O O10 0.692504 0.794486 0.229806
O O11 0.500000 0.000000 0.500000
#
# Coordination Sequence:
#
# PCOD9251140 Si02
#       5
#     4   4   4   4   4
#     4  11  26  49  83 121 170 233 293 365 458 536
#     4  12  25  49  83 122 163 226 290 357 441 541
#     4  11  25  50  78 123 171 225 291 372 442 543
#     4  12  26  47  83 119 167 220 289 359 436 531
#     4  10  25  52  84 124 174 228 290 372 449 537
#
# _framework density 28.449152000000002
#
# number of rings (size 3 to 8) (size 9 to 14) (size 15 to 20)
#    0.000    0.800    4.000    1.800    2.800    0.000 
#    0.000    1.000    0.000    0.000    0.000    0.000 
#    0.000    0.000    0.000    0.000    0.000    0.000 
#
# Total GULP energy -111692.857402 kJ/mol
# GULP energy per Si atom -5584.642870 kJ/mol
# Density = 2.838440 g / cm^3
# Si number density = 28.449152 Si / 1000 Ang^3
#
#
#
# Elastic Constant Matrix: (Units=GPa)
#
#
# Indices 1 2 3 4 5 6 
#
# 1 295.3306 71.8796 84.3145 0.0000 -22.2883 0.0000
# 2 71.8796 124.2300 63.3284 0.0000 -14.0073 0.0000
# 3 84.3145 63.3284 160.4668 0.0000 -41.2513 0.0000
# 4 0.0000 0.0000 0.0000 15.9061 0.0000 -1.7463
# 5 -22.2883 -14.0073 -41.2513 0.0000 58.8178 0.0000
# 6 0.0000 0.0000 0.0000 -1.7463 0.0000 56.3311
#
#
#
# Elastic Compliance Matrix: (Units=1/GPa)
#
#
# Indices 1 2 3 4 5 6 
#
# 1 0.004238 -0.001652 -0.001541 0.000000 0.000132 0.000000
# 2 -0.001652 0.010731 -0.003503 0.000000 -0.000527 0.000000
# 3 -0.001541 -0.003503 0.009832 0.000000 0.005477 0.000000
# 4 0.000000 0.000000 0.000000 0.063084 0.000000 0.001956
# 5 0.000132 -0.000527 0.005477 0.000000 0.020768 0.000000
# 6 0.000000 0.000000 0.000000 0.001956 0.000000 0.017813
#
#
# Mechanical properties :
#
#
# Convention : Reuss Voigt Hill
#
# Bulk Modulus (GPa) = 87.63923 113.23025 100.43474
# Shear Modulus (GPa) = 34.80444 50.24467 42.52456
#
# Velocity S-wave (km/s) = 3.50150 4.20708 3.87040
# Velocity P-wave (km/s) = 6.87166 7.96786 7.43998
#
# Compressibility (1/GPa) = 0.01141042
#
# Stress axis : x y z
#
# Youngs Moduli (GPa) = 235.96462 93.18437 101.70873
#
# Poissons Ratio (x) = 0.15391 0.15674
# Poissons Ratio (y) = 0.38973 0.35626
# Poissons Ratio (z) = 0.36363 0.32640
#
# Static dielectric constant tensor:
#      x y z
#    x 2.341210 0.000000 0.173820 
#    y 0.000000 2.319590 0.000000 
#    z 0.173820 0.000000 2.334160 
# 
# From -- ./inp_files/43936.got.cif
#   From: 2010.05.17/outbox.cif.g08.bks.cpg/sg14_22_cif.got.tgz:43936.got - 2010.06.03 17:49:19.
