data_PCOD9251543
_publ_section_title
;
Structure prediction by ZEFSAII (Michael W. Deem and Ramdas Pophale) SiO2 
 PCOD9251543
Probable space group: P 21/C
;
_chemical_formula_sum "Si O2"
_cell_formula_units_Z 24
_cell_length_a 5.020041
_cell_length_b 23.626702
_cell_length_c 8.385610
_cell_angle_alpha 90.000000
_cell_angle_beta 114.640774
_cell_angle_gamma 90.000000
_cell_volume 904.024229
_symmetry_space_group_name_H-M "P 21/C"
_symmetry_group_IT_number 14
_symmetry_cell_setting 'monoclinic'
loop_
_space_group_symop_operation_xyz
x,y,z
-x,1/2+y,1/2-z
-x,-y,-z
x,1/2-y,1/2+z
loop_
_atom_site_type_symbol
_atom_site_label
_atom_site_fract_x
_atom_site_fract_y
_atom_site_fract_z
Si Si1 0.448486 0.150191 0.093262
Si Si2 0.137024 0.191117 0.578121
Si Si3 0.079296 0.114971 0.282717
Si Si4 0.224227 0.989517 0.318522
Si Si5 0.398518 0.049943 0.852529
Si Si6 0.255578 0.736567 0.763982
O O1 0.206142 0.154139 0.171999
O O2 0.733580 0.116237 0.228143
O O3 0.351818 0.109706 0.927084
O O4 0.602165 0.210427 0.104295
O O5 0.200233 0.137408 0.481030
O O6 0.446269 0.210056 0.725857
O O7 0.903572 0.191921 0.661680
O O8 0.979721 0.235663 0.414669
O O9 0.159524 0.052965 0.243528
O O10 0.500000 0.000000 0.500000
O O11 0.339605 0.949071 0.208267
O O12 0.912915 0.967399 0.302660
O O13 0.500000 0.000000 0.000000
#
# Coordination Sequence:
#
# PCOD9251543 Si02
#       6
#     4   4   4   4   4   4
#     4  11  22  39  70  95 123 169 229 264 307 383
#     4  11  23  42  67  90 128 167 212 268 324 381
#     4  11  21  41  66  93 128 177 210 254 334 394
#     4  12  25  42  63  99 141 166 210 271 329 383
#     4  12  22  42  70  94 126 174 221 262 304 389
#     4  11  23  43  64  94 126 163 214 269 320 382
#
# _framework density 26.547958000000001
#
# number of rings (size 3 to 8) (size 9 to 14) (size 15 to 20)
#    0.000    0.667    3.333    7.000    0.000    0.000 
#    9.000    0.000    0.000    0.000    0.000    0.000 
#    0.000    0.000    0.000    0.000    0.000    0.000 
#
# Total GULP energy -134300.169712 kJ/mol
# GULP energy per Si atom -5595.840405 kJ/mol
# Density = 2.648753 g / cm^3
# Si number density = 26.547958 Si / 1000 Ang^3
#
#
#
# Elastic Constant Matrix: (Units=GPa)
#
#
# Indices 1 2 3 4 5 6 
#
# 1 153.2280 28.2603 16.7611 0.0000 8.3535 0.0000
# 2 28.2603 91.1713 20.9723 0.0000 -5.4795 0.0000
# 3 16.7611 20.9723 67.6885 0.0000 17.6584 0.0000
# 4 0.0000 0.0000 0.0000 40.2364 0.0000 -0.2728
# 5 8.3535 -5.4795 17.6584 0.0000 37.6978 0.0000
# 6 0.0000 0.0000 0.0000 -0.2728 0.0000 38.3212
#
#
#
# Elastic Compliance Matrix: (Units=1/GPa)
#
#
# Indices 1 2 3 4 5 6 
#
# 1 0.007079 -0.002130 -0.000687 0.000000 -0.001556 0.000000
# 2 -0.002130 0.012979 -0.004681 0.000000 0.004551 0.000000
# 3 -0.000687 -0.004681 0.018833 0.000000 -0.009350 0.000000
# 4 0.000000 0.000000 0.000000 0.024854 0.000000 0.000177
# 5 -0.001556 0.004551 -0.009350 0.000000 0.031913 0.000000
# 6 0.000000 0.000000 0.000000 0.000177 0.000000 0.026096
#
#
# Mechanical properties :
#
#
# Convention : Reuss Voigt Hill
#
# Bulk Modulus (GPa) = 41.84948 49.34168 45.59558
# Shear Modulus (GPa) = 34.55036 39.65735 37.10386
#
# Velocity S-wave (km/s) = 3.61145 3.86916 3.74253
# Velocity P-wave (km/s) = 5.76091 6.21183 5.99061
#
# Compressibility (1/GPa) = 0.02389516
#
# Stress axis : x y z
#
# Youngs Moduli (GPa) = 141.26235 77.04800 53.09725
#
# Poissons Ratio (x) = 0.16410 0.03648
# Poissons Ratio (y) = 0.30086 0.24856
# Poissons Ratio (z) = 0.09705 0.36068
#
# Static dielectric constant tensor:
#      x y z
#    x 1.963490 0.000000 0.013930 
#    y 0.000000 2.160050 0.000000 
#    z 0.013930 0.000000 2.152170 
# 
# From -- ./inp_files/6443.got.cif
#   From: 2010.05.17/outbox.cif.g08.bks.cpg/sg14_4_cif.got.tgz:6443.got - 2010.06.03 17:49:19.
