data_PCOD9251816
_publ_section_title
;
Structure prediction by ZEFSAII (Michael W. Deem and Ramdas Pophale) SiO2 
 PCOD9251816
Probable space group: P 21/C
;
_chemical_formula_sum "Si O2"
_cell_formula_units_Z 24
_cell_length_a 15.172700
_cell_length_b 5.433244
_cell_length_c 22.904575
_cell_angle_alpha 90.000000
_cell_angle_beta 152.952706
_cell_angle_gamma 90.000000
_cell_volume 858.606015
_symmetry_space_group_name_H-M "P 21/C"
_symmetry_group_IT_number 14
_symmetry_cell_setting 'monoclinic'
loop_
_space_group_symop_operation_xyz
x,y,z
-x,1/2+y,1/2-z
-x,-y,-z
x,1/2-y,1/2+z
loop_
_atom_site_type_symbol
_atom_site_label
_atom_site_fract_x
_atom_site_fract_y
_atom_site_fract_z
Si Si1 0.587570 0.610749 0.785760
Si Si2 0.013885 0.843928 0.586578
Si Si3 0.463826 0.255034 0.943766
Si Si4 0.085201 0.152043 0.147400
Si Si5 0.053190 0.313858 0.816508
Si Si6 0.675195 0.029269 0.969060
O O1 0.508300 0.381224 0.777368
O O2 0.515886 0.492189 0.682079
O O3 0.792293 0.667753 0.936345
O O4 0.121967 0.595949 0.633060
O O5 0.038099 0.846000 0.672174
O O6 0.082506 0.108141 0.606000
O O7 0.249390 0.295486 0.791390
O O8 0.613660 0.230804 0.979205
O O9 0.500000 0.500000 0.000000
O O10 0.500000 0.000000 0.000000
O O11 0.022985 0.934656 0.262374
O O12 0.869601 0.114548 0.048474
O O13 0.265218 0.216485 0.960583
#
# Coordination Sequence:
#
# PCOD9251816 Si02
#       6
#     4   4   4   4   4   4
#     4  12  22  44  72 114 142 185 257 298 349 447
#     4  11  22  43  69 105 142 187 233 306 347 424
#     4  12  31  48  68 107 149 189 245 303 357 448
#     4  11  24  46  70 104 140 183 245 285 363 428
#     4  11  24  37  66 108 135 184 244 280 357 441
#     4  11  27  46  77 102 147 195 238 296 379 411
#
# _framework density 27.952283000000001
#
# number of rings (size 3 to 8) (size 9 to 14) (size 15 to 20)
#    0.000    0.667    5.000    3.000   11.667    4.000 
#    0.000    1.667    0.000    0.000    0.000    0.000 
#    0.000    0.000    0.000    0.000    0.000    0.000 
#
# Total GULP energy -134272.821292 kJ/mol
# GULP energy per Si atom -5594.700887 kJ/mol
# Density = 2.788866 g / cm^3
# Si number density = 27.952283 Si / 1000 Ang^3
#
#
#
# Elastic Constant Matrix: (Units=GPa)
#
#
# Indices 1 2 3 4 5 6 
#
# 1 72.3268 20.6092 13.6149 0.0000 -3.7987 0.0000
# 2 20.6092 270.7066 110.7536 0.0000 -4.8787 0.0000
# 3 13.6149 110.7536 224.5184 0.0000 -2.3216 0.0000
# 4 0.0000 0.0000 0.0000 64.2390 0.0000 -4.7187
# 5 -3.7987 -4.8787 -2.3216 0.0000 43.6934 0.0000
# 6 0.0000 0.0000 0.0000 -4.7187 0.0000 22.6554
#
#
#
# Elastic Compliance Matrix: (Units=1/GPa)
#
#
# Indices 1 2 3 4 5 6 
#
# 1 0.014217 -0.000895 -0.000409 0.000000 0.001114 0.000000
# 2 -0.000895 0.004691 -0.002257 0.000000 0.000326 0.000000
# 3 -0.000409 -0.002257 0.005592 0.000000 0.000010 0.000000
# 4 0.000000 0.000000 0.000000 0.015809 0.000000 0.003293
# 5 0.001114 0.000326 0.000010 0.000000 0.023021 0.000000
# 6 0.000000 0.000000 0.000000 0.003293 0.000000 0.044825
#
#
# Mechanical properties :
#
#
# Convention : Reuss Voigt Hill
#
# Bulk Modulus (GPa) = 57.54115 95.27854 76.40985
# Shear Modulus (GPa) = 41.29890 54.28918 47.79404
#
# Velocity S-wave (km/s) = 3.84797 4.41183 4.13951
# Velocity P-wave (km/s) = 6.35395 7.75322 7.08820
#
# Compressibility (1/GPa) = 0.01737887
#
# Stress axis : x y z
#
# Youngs Moduli (GPa) = 70.33999 213.16291 178.82627
#
# Poissons Ratio (x) = 0.19075 0.07317
# Poissons Ratio (y) = 0.06294 0.40353
# Poissons Ratio (z) = 0.02878 0.48101
#
# Static dielectric constant tensor:
#      x y z
#    x 2.667420 0.000000 0.258880 
#    y 0.000000 2.267930 0.000000 
#    z 0.258880 0.000000 2.354310 
# 
# From -- ./inp_files/74078.got.cif
#   From: 2010.05.17/outbox.cif.g08.bks.cpg/sg14_38_cif.got.tgz:74078.got - 2010.06.03 17:49:19.
