data_PCOD9251044
_publ_section_title
;
Structure prediction by ZEFSAII (Michael W. Deem and Ramdas Pophale) SiO2 
 PCOD9251044
Probable space group: P 21/C
;
_chemical_formula_sum "Si O2"
_cell_formula_units_Z 18
_cell_length_a 7.303739
_cell_length_b 19.998284
_cell_length_c 4.853240
_cell_angle_alpha 90.000000
_cell_angle_beta 106.486601
_cell_angle_gamma 90.000000
_cell_volume 679.730537
_symmetry_space_group_name_H-M "P 21/C"
_symmetry_group_IT_number 14
_symmetry_cell_setting 'monoclinic'
loop_
_space_group_symop_operation_xyz
x,y,z
-x,1/2+y,1/2-z
-x,-y,-z
x,1/2-y,1/2+z
loop_
_atom_site_type_symbol
_atom_site_label
_atom_site_fract_x
_atom_site_fract_y
_atom_site_fract_z
Si Si1 0.357383 0.294715 0.949353
Si Si2 0.391550 0.617696 0.574286
Si Si3 0.802456 0.484216 0.148213
Si Si4 0.007666 0.615622 0.140517
Si Si5 0.500000 0.500000 0.500000
O O1 0.371246 0.227147 0.139619
O O2 0.525922 0.339668 0.146173
O O3 0.159032 0.330935 0.934189
O O4 0.332771 0.540894 0.661041
O O5 0.542176 0.583823 0.436870
O O6 0.200201 0.644684 0.358991
O O7 0.929687 0.548742 0.259555
O O8 0.672756 0.502061 0.832402
O O9 0.922060 0.418302 0.113607
#
# Coordination Sequence:
#
# PCOD9251044 Si02
#       5
#     4   4   4   4   2
#     4  12  33  51  75 107 157 219 268 317 377 469
#     4  10  25  45  77 110 158 189 256 313 399 460
#     4   9  23  42  77 124 148 194 242 333 408 465
#     4  11  25  45  80 114 155 197 259 323 397 466
#     4   8  22  38  78 114 156 182 240 316 404 470
#
# _framework density 26.481079000000001
#
# number of rings (size 3 to 8) (size 9 to 14) (size 15 to 20)
#    1.333    0.444    0.000    0.667   15.556    3.556 
#    0.000    0.000    0.000    0.000    0.000    0.000 
#    0.000    0.000    0.000    0.000    0.000    0.000 
#
# Total GULP energy -100543.256643 kJ/mol
# GULP energy per Si atom -5585.736480 kJ/mol
# Density = 2.642081 g / cm^3
# Si number density = 26.481079 Si / 1000 Ang^3
#
#
#
# Elastic Constant Matrix: (Units=GPa)
#
#
# Indices 1 2 3 4 5 6 
#
# 1 87.4705 -7.0048 17.2869 0.0000 -9.0763 0.0000
# 2 -7.0048 81.7978 -0.6784 0.0000 5.2180 0.0000
# 3 17.2869 -0.6784 113.8596 0.0000 11.7244 0.0000
# 4 0.0000 0.0000 0.0000 50.6944 0.0000 15.4907
# 5 -9.0763 5.2180 11.7244 0.0000 47.8476 0.0000
# 6 0.0000 0.0000 0.0000 15.4907 0.0000 42.1386
#
#
#
# Elastic Compliance Matrix: (Units=1/GPa)
#
#
# Indices 1 2 3 4 5 6 
#
# 1 0.012207 0.000853 -0.002131 0.000000 0.002745 0.000000
# 2 0.000853 0.012376 0.000068 0.000000 -0.001205 0.000000
# 3 -0.002131 0.000068 0.009386 0.000000 -0.002712 0.000000
# 4 0.000000 0.000000 0.000000 0.022222 0.000000 -0.008169
# 5 0.002745 -0.001205 -0.002712 0.000000 0.022216 0.000000
# 6 0.000000 0.000000 0.000000 -0.008169 0.000000 0.026734
#
#
# Mechanical properties :
#
#
# Convention : Reuss Voigt Hill
#
# Bulk Modulus (GPa) = 31.69738 33.59280 32.64509
# Shear Modulus (GPa) = 42.34527 46.37106 44.35816
#
# Velocity S-wave (km/s) = 4.00318 4.18916 4.09723
# Velocity P-wave (km/s) = 5.77608 6.00931 5.89385
#
# Compressibility (1/GPa) = 0.03154835
#
# Stress axis : x y z
#
# Youngs Moduli (GPa) = 81.92277 80.80355 106.54293
#
# Poissons Ratio (x) = -0.06889 0.22703
# Poissons Ratio (y) = -0.06984 -0.00728
# Poissons Ratio (z) = 0.17456 -0.00552
#
# Static dielectric constant tensor:
#      x y z
#    x 2.152510 0.000000 -0.036540 
#    y 0.000000 2.197740 0.000000 
#    z -0.036540 0.000000 2.094370 
# 
# From -- ./inp_files/1113.got.cif
#   From: 2010.05.17/outbox.cif.g08.bks.cpg/sg14_1_cif.got.tgz:1113.got - 2010.06.03 17:49:19.
