data_PCOD9251689
_publ_section_title
;
Structure prediction by ZEFSAII (Michael W. Deem and Ramdas Pophale) SiO2 
 PCOD9251689
Probable space group: P 21/C
;
_chemical_formula_sum "Si O2"
_cell_formula_units_Z 16
_cell_length_a 5.230917
_cell_length_b 7.668475
_cell_length_c 22.120675
_cell_angle_alpha 90.000000
_cell_angle_beta 118.241875
_cell_angle_gamma 90.000000
_cell_volume 781.700410
_symmetry_space_group_name_H-M "P 21/C"
_symmetry_group_IT_number 14
_symmetry_cell_setting 'monoclinic'
loop_
_space_group_symop_operation_xyz
x,y,z
-x,1/2+y,1/2-z
-x,-y,-z
x,1/2-y,1/2+z
loop_
_atom_site_type_symbol
_atom_site_label
_atom_site_fract_x
_atom_site_fract_y
_atom_site_fract_z
Si Si1 0.725956 0.147752 0.840695
Si Si2 0.137162 0.850807 0.840808
Si Si3 0.654640 0.500268 0.452347
Si Si4 0.824475 0.000720 0.287165
O O1 0.483510 0.084391 0.765799
O O2 0.815721 0.339981 0.832079
O O3 0.607592 0.149637 0.896179
O O4 0.973771 0.999155 0.861987
O O5 0.477395 0.849255 0.896422
O O6 0.013322 0.658452 0.832097
O O7 0.080292 0.914343 0.765962
O O8 0.500000 0.500000 0.500000
O O9 0.000000 0.500000 0.500000
#
# Coordination Sequence:
#
# PCOD9251689 Si02
#       4
#     4   4   4   4
#     4  11  22  39  69  99 139 174 217 291 334 415
#     4  11  22  39  69  99 139 174 217 291 334 415
#     4  11  24  46  68  92 134 191 232 268 332 397
#     4  11  22  38  64 108 136 169 226 276 370 393
#
# _framework density 20.468198999999998
#
# number of rings (size 3 to 8) (size 9 to 14) (size 15 to 20)
#    0.000    1.000    7.500    0.000    0.000    0.000 
#    0.000    2.500    0.000    0.000    0.000    0.000 
#    0.000    0.000    0.000    0.000    0.000    0.000 
#
# Total GULP energy -89163.177627 kJ/mol
# GULP energy per Si atom -5572.698602 kJ/mol
# Density = 2.042161 g / cm^3
# Si number density = 20.468199 Si / 1000 Ang^3
#
#
#
# Elastic Constant Matrix: (Units=GPa)
#
#
# Indices 1 2 3 4 5 6 
#
# 1 119.2999 62.0250 58.9867 0.0000 1.8161 0.0000
# 2 62.0250 176.3256 54.7258 0.0000 2.2544 0.0000
# 3 58.9867 54.7258 121.8779 0.0000 2.7667 0.0000
# 4 0.0000 0.0000 0.0000 0.5818 0.0000 0.0742
# 5 1.8161 2.2544 2.7667 0.0000 150.3276 0.0000
# 6 0.0000 0.0000 0.0000 0.0742 0.0000 41.2097
#
#
#
# Elastic Compliance Matrix: (Units=1/GPa)
#
#
# Indices 1 2 3 4 5 6 
#
# 1 0.012132 -0.002841 -0.004595 0.000000 -0.000019 0.000000
# 2 -0.002841 0.007255 -0.001882 0.000000 -0.000040 0.000000
# 3 -0.004595 -0.001882 0.011277 0.000000 -0.000124 0.000000
# 4 0.000000 0.000000 0.000000 1.719073 0.000000 -0.003093
# 5 -0.000019 -0.000040 -0.000124 0.000000 0.006655 0.000000
# 6 0.000000 0.000000 0.000000 -0.003093 0.000000 0.024272
#
#
# Mechanical properties :
#
#
# Convention : Reuss Voigt Hill
#
# Bulk Modulus (GPa) = 83.14449 85.44205 84.29327
# Shear Modulus (GPa) = 2.77268 54.54156 28.65712
#
# Velocity S-wave (km/s) = 1.16515 5.16767 3.74582
# Velocity P-wave (km/s) = 6.52070 8.80005 7.74469
#
# Compressibility (1/GPa) = 0.01202726
#
# Stress axis : x y z
#
# Youngs Moduli (GPa) = 82.42827 137.83082 88.67711
#
# Poissons Ratio (x) = 0.39158 0.40751
# Poissons Ratio (y) = 0.23418 0.16688
# Poissons Ratio (z) = 0.37880 0.25938
#
# Static dielectric constant tensor:
#      x y z
#    x 1.891520 0.000000 -0.000090 
#    y 0.000000 1.678150 0.000000 
#    z -0.000090 0.000000 1.754170 
# 
# From -- ./inp_files/52538.got.cif
#   From: 2010.05.17/outbox.cif.g08.bks.cpg/sg14_27_cif.got.tgz:52538.got - 2010.06.03 17:49:19.
