data_PCOD9251205
_publ_section_title
;
Structure prediction by ZEFSAII (Michael W. Deem and Ramdas Pophale) SiO2 
 PCOD9251205
Probable space group: P 21/C
;
_chemical_formula_sum "Si O2"
_cell_formula_units_Z 22
_cell_length_a 5.135681
_cell_length_b 13.448897
_cell_length_c 11.024311
_cell_angle_alpha 90.000000
_cell_angle_beta 90.578923
_cell_angle_gamma 90.000000
_cell_volume 761.401967
_symmetry_space_group_name_H-M "P 21/C"
_symmetry_group_IT_number 14
_symmetry_cell_setting 'monoclinic'
loop_
_space_group_symop_operation_xyz
x,y,z
-x,1/2+y,1/2-z
-x,-y,-z
x,1/2-y,1/2+z
loop_
_atom_site_type_symbol
_atom_site_label
_atom_site_fract_x
_atom_site_fract_y
_atom_site_fract_z
Si Si1 0.500000 0.000000 0.000000
Si Si2 0.247000 0.004596 0.367464
Si Si3 0.272736 0.492532 0.283236
Si Si4 0.512424 0.221481 0.842439
Si Si5 0.736688 0.807463 0.902078
Si Si6 0.106662 0.828801 0.515857
O O1 0.729372 0.047011 0.089112
O O2 0.293632 0.076020 0.072904
O O3 0.525594 0.034280 0.314051
O O4 0.292150 0.906189 0.446502
O O5 0.007091 0.975279 0.275334
O O6 0.115386 0.094072 0.440087
O O7 0.450656 0.397106 0.330456
O O8 0.382280 0.270788 0.725343
O O9 0.797793 0.265903 0.867080
O O10 0.404167 0.236333 0.977893
O O11 0.009315 0.751005 0.917988
#
# Coordination Sequence:
#
# PCOD9251205 Si02
#       6
#     2   4   4   4   4   4
#     4  10  26  46  74 110 162 212 260 328 416 492
#     4  11  26  47  77 111 154 202 273 340 392 479
#     4  11  25  49  73 111 158 205 263 332 405 483
#     4  11  25  46  74 108 156 205 262 329 400 487
#     4  11  25  48  74 112 154 206 268 328 411 488
#     4  11  26  43  79 110 150 208 269 332 405 475
#
# _framework density 28.894068000000001
#
# number of rings (size 3 to 8) (size 9 to 14) (size 15 to 20)
#    0.000    1.091    1.818    2.182   10.182    3.636 
#    3.273    0.000    0.000    0.000    0.000    0.000 
#    0.000    0.000    0.000    0.000    0.000    0.000 
#
# Total GULP energy -122601.999441 kJ/mol
# GULP energy per Si atom -5572.818156 kJ/mol
# Density = 2.882830 g / cm^3
# Si number density = 28.894068 Si / 1000 Ang^3
#
#
#
# Elastic Constant Matrix: (Units=GPa)
#
#
# Indices 1 2 3 4 5 6 
#
# 1 105.7611 36.2391 52.9099 0.0000 25.8856 0.0000
# 2 36.2391 151.4763 6.4438 0.0000 16.2684 0.0000
# 3 52.9099 6.4438 171.4589 0.0000 40.3519 0.0000
# 4 0.0000 0.0000 0.0000 33.7517 0.0000 7.7093
# 5 25.8856 16.2684 40.3519 0.0000 64.4986 0.0000
# 6 0.0000 0.0000 0.0000 7.7093 0.0000 41.1080
#
#
#
# Elastic Compliance Matrix: (Units=1/GPa)
#
#
# Indices 1 2 3 4 5 6 
#
# 1 0.012535 -0.002609 -0.003214 0.000000 -0.002362 0.000000
# 2 -0.002609 0.007333 0.000842 0.000000 -0.001330 0.000000
# 3 -0.003214 0.000842 0.007668 0.000000 -0.003720 0.000000
# 4 0.000000 0.000000 0.000000 0.030954 0.000000 -0.005805
# 5 -0.002362 -0.001330 -0.003720 0.000000 0.019115 0.000000
# 6 0.000000 0.000000 0.000000 -0.005805 0.000000 0.025415
#
#
# Mechanical properties :
#
#
# Convention : Reuss Voigt Hill
#
# Bulk Modulus (GPa) = 56.89951 68.87575 62.88763
# Shear Modulus (GPa) = 42.07381 50.07856 46.07619
#
# Velocity S-wave (km/s) = 3.82008 4.16766 3.99765
# Velocity P-wave (km/s) = 6.26040 6.85918 6.56661
#
# Compressibility (1/GPa) = 0.01757484
#
# Stress axis : x y z
#
# Youngs Moduli (GPa) = 79.77520 136.37511 130.41298
#
# Poissons Ratio (x) = 0.35574 0.41919
# Poissons Ratio (y) = 0.20809 -0.10984
# Poissons Ratio (z) = 0.25642 -0.11487
#
# Static dielectric constant tensor:
#      x y z
#    x 2.664990 0.000000 0.059420 
#    y 0.000000 2.031830 0.000000 
#    z 0.059420 0.000000 1.778020 
# 
# From -- ./inp_files/20891.got.cif
#   From: 2010.05.17/outbox.cif.g08.bks.cpg/sg14_11_cif.got.tgz:20891.got - 2010.06.03 17:49:19.
