data_PCOD9251215
_publ_section_title
;
Structure prediction by ZEFSAII (Michael W. Deem and Ramdas Pophale) SiO2 
 PCOD9251215
Probable space group: P 21/C
;
_chemical_formula_sum "Si O2"
_cell_formula_units_Z 22
_cell_length_a 11.234741
_cell_length_b 4.802082
_cell_length_c 26.213172
_cell_angle_alpha 90.000000
_cell_angle_beta 35.245500
_cell_angle_gamma 90.000000
_cell_volume 816.110615
_symmetry_space_group_name_H-M "P 21/C"
_symmetry_group_IT_number 14
_symmetry_cell_setting 'monoclinic'
loop_
_space_group_symop_operation_xyz
x,y,z
-x,1/2+y,1/2-z
-x,-y,-z
x,1/2-y,1/2+z
loop_
_atom_site_type_symbol
_atom_site_label
_atom_site_fract_x
_atom_site_fract_y
_atom_site_fract_z
Si Si1 0.155896 0.418927 0.324517
Si Si2 0.476710 0.891746 0.850171
Si Si3 0.037504 0.067410 0.569745
Si Si4 0.000000 0.500000 0.500000
Si Si5 0.487386 0.108239 0.420117
Si Si6 0.083709 0.794143 0.690683
O O1 0.371685 0.265196 0.242435
O O2 0.132062 0.744570 0.341966
O O3 0.019812 0.324787 0.323793
O O4 0.030139 0.255263 0.414091
O O5 0.499224 0.700302 0.892971
O O6 0.524228 0.193402 0.857745
O O7 0.248465 0.891877 0.908165
O O8 0.078106 0.224462 0.503980
O O9 0.254681 0.118434 0.522612
O O10 0.670180 0.178232 0.394662
O O11 0.014007 0.588890 0.760461
#
# Coordination Sequence:
#
# PCOD9251215 Si02
#       6
#     4   4   4   2   4   4
#     4  12  24  41  67 105 132 170 231 289 322 400
#     4  11  23  42  71  95 133 178 230 278 329 412
#     4  11  26  42  66  98 138 171 229 286 333 399
#     4  10  26  48  68  92 130 186 216 268 356 390
#     4  11  22  43  66  98 137 183 220 267 344 414
#     4  12  22  40  70  99 133 184 218 270 347 410
#
# _framework density 26.957128999999998
#
# number of rings (size 3 to 8) (size 9 to 14) (size 15 to 20)
#    0.000    0.727    3.636    4.364    0.000    9.455 
#    0.000    0.000    0.000    0.000    0.000    0.000 
#    0.000    0.000    0.000    0.000    0.000    0.000 
#
# Total GULP energy -122877.446975 kJ/mol
# GULP energy per Si atom -5585.338499 kJ/mol
# Density = 2.689577 g / cm^3
# Si number density = 26.957129 Si / 1000 Ang^3
#
#
#
# Elastic Constant Matrix: (Units=GPa)
#
#
# Indices 1 2 3 4 5 6 
#
# 1 96.4992 -16.4325 3.9038 0.0000 -32.2917 0.0000
# 2 -16.4325 143.2119 23.0904 0.0000 -15.9779 0.0000
# 3 3.9038 23.0904 108.6564 0.0000 -21.9381 0.0000
# 4 0.0000 0.0000 0.0000 41.4702 0.0000 6.2811
# 5 -32.2917 -15.9779 -21.9381 0.0000 49.5110 0.0000
# 6 0.0000 0.0000 0.0000 6.2811 0.0000 29.6450
#
#
#
# Elastic Compliance Matrix: (Units=1/GPa)
#
#
# Indices 1 2 3 4 5 6 
#
# 1 0.014354 0.002667 0.001078 0.000000 0.010700 0.000000
# 2 0.002667 0.007878 -0.000994 0.000000 0.003841 0.000000
# 3 0.001078 -0.000994 0.010382 0.000000 0.004982 0.000000
# 4 0.000000 0.000000 0.000000 0.024913 0.000000 -0.005278
# 5 0.010700 0.003841 0.004982 0.000000 0.030623 0.000000
# 6 0.000000 0.000000 0.000000 -0.005278 0.000000 0.034851
#
#
# Mechanical properties :
#
#
# Convention : Reuss Voigt Hill
#
# Bulk Modulus (GPa) = 26.23674 41.05453 33.64563
# Shear Modulus (GPa) = 38.40115 46.64564 42.52339
#
# Velocity S-wave (km/s) = 3.77838 4.16428 3.97602
# Velocity P-wave (km/s) = 5.36552 6.19550 5.79539
#
# Compressibility (1/GPa) = 0.03811449
#
# Stress axis : x y z
#
# Youngs Moduli (GPa) = 69.66735 126.94314 96.32200
#
# Poissons Ratio (x) = -0.33856 -0.10383
# Poissons Ratio (y) = -0.18580 0.09578
# Poissons Ratio (z) = -0.07510 0.12622
#
# Static dielectric constant tensor:
#      x y z
#    x 2.041860 0.000000 -0.020210 
#    y 0.000000 1.988100 0.000000 
#    z -0.020210 0.000000 2.095780 
# 
# From -- ./inp_files/42574.got.cif
#   From: 2010.05.17/outbox.cif.g08.bks.cpg/sg14_22_cif.got.tgz:42574.got - 2010.06.03 17:49:19.
