data_PCOD9251766
_publ_section_title
;
Structure prediction by ZEFSAII (Michael W. Deem and Ramdas Pophale) SiO2 
 PCOD9251766
Probable space group: P 21/C
;
_chemical_formula_sum "Si O2"
_cell_formula_units_Z 28
_cell_length_a 18.141634
_cell_length_b 10.979902
_cell_length_c 20.221468
_cell_angle_alpha 90.000000
_cell_angle_beta 160.305395
_cell_angle_gamma 90.000000
_cell_volume 1357.456625
_symmetry_space_group_name_H-M "P 21/C"
_symmetry_group_IT_number 14
_symmetry_cell_setting 'monoclinic'
loop_
_space_group_symop_operation_xyz
x,y,z
-x,1/2+y,1/2-z
-x,-y,-z
x,1/2-y,1/2+z
loop_
_atom_site_type_symbol
_atom_site_label
_atom_site_fract_x
_atom_site_fract_y
_atom_site_fract_z
Si Si1 0.920560 0.005566 0.587566
Si Si2 0.698725 0.272022 0.824004
Si Si3 0.766574 0.636040 0.546131
Si Si4 0.451479 0.526558 0.752637
Si Si5 0.489299 0.096663 0.430448
Si Si6 0.067036 0.750980 0.198368
Si Si7 0.037470 0.143367 0.022238
O O1 0.699388 0.960147 0.436720
O O2 0.039363 0.889668 0.655451
O O3 0.833600 0.115247 0.467967
O O4 0.092895 0.056095 0.785566
O O5 0.446570 0.307708 0.598437
O O6 0.673439 0.155666 0.851226
O O7 0.833925 0.219101 0.877207
O O8 0.664591 0.558498 0.399497
O O9 0.941103 0.727960 0.660845
O O10 0.466312 0.472964 0.840045
O O11 0.694614 0.187229 0.598889
O O12 0.264699 0.171153 0.250104
O O13 0.500000 0.000000 0.500000
O O14 0.941876 0.826420 0.036628
O O15 0.000000 0.000000 0.000000
#
# Coordination Sequence:
#
# PCOD9251766 Si02
#       7
#     4   4   4   4   4   4   4
#     4  11  27  42  68 104 136 187 219 288 357 401
#     4  11  25  44  68 101 143 174 230 287 347 412
#     4  11  24  42  69 101 138 177 232 283 340 406
#     4  11  22  41  70 101 137 177 231 285 340 406
#     4  12  24  40  69 106 132 176 232 288 340 404
#     4  12  24  44  71 100 138 181 233 278 347 416
#     4  12  24  46  71 102 135 179 228 289 343 407
#
# _framework density 20.626811
#
# number of rings (size 3 to 8) (size 9 to 14) (size 15 to 20)
#    0.000    0.571    7.143    0.000    2.000    5.143 
#    0.000    1.429    0.000    0.000    0.000    0.000 
#    0.000    0.000    0.000    0.000    0.000    0.000 
#
# Total GULP energy -156306.526406 kJ/mol
# GULP energy per Si atom -5582.375943 kJ/mol
# Density = 2.057986 g / cm^3
# Si number density = 20.626811 Si / 1000 Ang^3
#
#
#
# Elastic Constant Matrix: (Units=GPa)
#
#
# Indices 1 2 3 4 5 6 
#
# 1 55.3506 28.6760 31.1252 0.0000 11.8926 0.0000
# 2 28.6760 104.8801 31.7710 0.0000 14.2860 0.0000
# 3 31.1252 31.7710 129.1521 0.0000 25.4262 0.0000
# 4 0.0000 0.0000 0.0000 40.3352 0.0000 7.9751
# 5 11.8926 14.2860 25.4262 0.0000 31.7717 0.0000
# 6 0.0000 0.0000 0.0000 7.9751 0.0000 26.9896
#
#
#
# Elastic Compliance Matrix: (Units=1/GPa)
#
#
# Indices 1 2 3 4 5 6 
#
# 1 0.023432 -0.004775 -0.003761 0.000000 -0.003614 0.000000
# 2 -0.004775 0.011538 -0.001208 0.000000 -0.002433 0.000000
# 3 -0.003761 -0.001208 0.010164 0.000000 -0.006183 0.000000
# 4 0.000000 0.000000 0.000000 0.026331 0.000000 -0.007780
# 5 -0.003614 -0.002433 -0.006183 0.000000 0.038869 0.000000
# 6 0.000000 0.000000 0.000000 -0.007780 0.000000 0.039350
#
#
# Mechanical properties :
#
#
# Convention : Reuss Voigt Hill
#
# Bulk Modulus (GPa) = 38.99461 52.50302 45.74882
# Shear Modulus (GPa) = 28.13406 33.00667 30.57037
#
# Velocity S-wave (km/s) = 3.69718 4.00457 3.85394
# Velocity P-wave (km/s) = 6.09684 6.84771 6.48315
#
# Compressibility (1/GPa) = 0.02564457
#
# Stress axis : x y z
#
# Youngs Moduli (GPa) = 42.67687 86.67138 98.39037
#
# Poissons Ratio (x) = 0.41387 0.37003
# Poissons Ratio (y) = 0.20379 0.11889
# Poissons Ratio (z) = 0.16050 0.10473
#
# Static dielectric constant tensor:
#      x y z
#    x 1.772230 0.000000 0.034210 
#    y 0.000000 1.725500 0.000000 
#    z 0.034210 0.000000 1.751990 
# 
# From -- ./inp_files/69323.got.cif
#   From: 2010.05.17/outbox.cif.g08.bks.cpg/sg14_35_cif.got.tgz:69323.got - 2010.06.03 17:49:19.
