data_PCOD9251618
_publ_section_title
;
Structure prediction by ZEFSAII (Michael W. Deem and Ramdas Pophale) SiO2 
 PCOD9251618
Probable space group: P 21/C
;
_chemical_formula_sum "Si O2"
_cell_formula_units_Z 32
_cell_length_a 8.341764
_cell_length_b 30.188973
_cell_length_c 12.000000
_cell_angle_alpha 90.000000
_cell_angle_beta 33.057988
_cell_angle_gamma 90.000000
_cell_volume 1648.436924
_symmetry_space_group_name_H-M "P 21/C"
_symmetry_group_IT_number 14
_symmetry_cell_setting 'monoclinic'
loop_
_space_group_symop_operation_xyz
x,y,z
-x,1/2+y,1/2-z
-x,-y,-z
x,1/2-y,1/2+z
loop_
_atom_site_type_symbol
_atom_site_label
_atom_site_fract_x
_atom_site_fract_y
_atom_site_fract_z
Si Si1 0.859871 0.800504 0.268502
Si Si2 0.197398 0.382381 0.354550
Si Si3 0.658221 0.547166 0.909663
Si Si4 0.533305 0.413432 0.748594
Si Si5 0.643793 0.456659 0.467219
Si Si6 0.115487 0.165863 0.498064
Si Si7 0.436116 0.289813 0.619813
Si Si8 0.485173 0.132231 0.920353
O O1 0.761521 0.835789 0.232577
O O2 0.810961 0.822439 0.417495
O O3 0.668989 0.756258 0.370730
O O4 0.213859 0.791257 0.056416
O O5 0.355534 0.421882 0.192657
O O6 0.283871 0.380237 0.433152
O O7 0.851181 0.391907 0.548339
O O8 0.003895 0.540308 0.732712
O O9 0.500000 0.500000 0.000000
O O10 0.517485 0.572192 0.096156
O O11 0.525519 0.451976 0.662192
O O12 0.287361 0.377985 0.863067
O O13 0.500000 0.500000 0.500000
O O14 0.567097 0.411826 0.443056
O O15 0.236871 0.203071 0.345251
O O16 0.773516 0.154581 0.697312
O O17 0.372522 0.330350 0.571656
#
# Coordination Sequence:
#
# PCOD9251618 Si02
#       8
#     4   4   4   4   4   4   4   4
#     4  11  25  42  64  95 125 163 214 257 314 377
#     4  11  25  42  65  95 129 163 215 263 312 379
#     4  11  25  43  65  95 127 171 215 256 321 379
#     4  11  21  45  68  83 130 174 203 259 316 371
#     4  11  25  42  65  96 130 164 214 266 314 378
#     4  11  21  45  67  85 129 172 204 257 315 373
#     4  11  25  43  65  93 127 167 208 261 316 375
#     4  11  25  43  63  98 128 166 213 259 317 379
#
# _framework density 19.412329
#
# number of rings (size 3 to 8) (size 9 to 14) (size 15 to 20)
#    0.000    1.000    5.000    1.500    7.000    5.500 
#    0.000    0.000    0.000    0.000    0.000    0.000 
#    0.000    0.000    0.000    0.000    0.000    0.000 
#
# Total GULP energy -178728.898356 kJ/mol
# GULP energy per Si atom -5585.278074 kJ/mol
# Density = 1.936815 g / cm^3
# Si number density = 19.412329 Si / 1000 Ang^3
#
#
#
# Elastic Constant Matrix: (Units=GPa)
#
#
# Indices 1 2 3 4 5 6 
#
# 1 59.5455 11.7379 -6.4736 0.0000 3.7169 0.0000
# 2 11.7379 88.9601 3.7577 0.0000 -11.2100 0.0000
# 3 -6.4736 3.7577 66.1310 0.0000 13.8871 0.0000
# 4 0.0000 0.0000 0.0000 14.2525 0.0000 -39.5688
# 5 3.7169 -11.2100 13.8871 0.0000 11.6934 0.0000
# 6 0.0000 0.0000 0.0000 -39.5688 0.0000 -60.4105
#
#
#
# Elastic Compliance Matrix: (Units=1/GPa)
#
#
# Indices 1 2 3 4 5 6 
#
# 1 0.019622 -0.005166 0.006081 0.000000 -0.018411 0.000000
# 2 -0.005166 0.015183 -0.006355 0.000000 0.023744 0.000000
# 3 0.006081 -0.006355 0.023665 0.000000 -0.036129 0.000000
# 4 0.000000 0.000000 0.000000 0.024894 0.000000 -0.016306
# 5 -0.018411 0.023744 -0.036129 0.000000 0.157040 0.000000
# 6 0.000000 0.000000 0.000000 -0.016306 0.000000 -0.005873
#
#
# Mechanical properties :
#
#
# Convention : Reuss Voigt Hill
#
# Bulk Modulus (GPa) = 21.01265 25.85340 23.43303
# Shear Modulus (GPa) = 19.13695 6.81472 12.97584
#
# Velocity S-wave (km/s) = 3.14317 1.87567 2.58821
# Velocity P-wave (km/s) = 4.90108 4.24709 4.58576
#
# Compressibility (1/GPa) = 0.04759037
#
# Stress axis : x y z
#
# Youngs Moduli (GPa) = 50.96194 65.86280 42.25707
#
# Poissons Ratio (x) = 0.34024 -0.25695
# Poissons Ratio (y) = 0.26327 0.26853
# Poissons Ratio (z) = -0.30988 0.41853
#
# Static dielectric constant tensor:
#      x y z
#    x 1.711700 0.000000 0.029650 
#    y 0.000000 1.638670 0.000000 
#    z 0.029650 0.000000 1.673040 
# 
# From -- ./inp_files/27164.got.cif
#   From: 2010.05.17/outbox.cif.g08.bks.cpg/sg14_14_cif.got.tgz:27164.got - 2010.06.03 17:49:19.
