data_PCOD9251516
_publ_section_title
;
Structure prediction by ZEFSAII (Michael W. Deem and Ramdas Pophale) SiO2 
 PCOD9251516
Probable space group: P 21/C
;
_chemical_formula_sum "Si O2"
_cell_formula_units_Z 32
_cell_length_a 14.730825
_cell_length_b 7.166561
_cell_length_c 22.793269
_cell_angle_alpha 90.000000
_cell_angle_beta 29.257494
_cell_angle_gamma 90.000000
_cell_volume 1176.029580
_symmetry_space_group_name_H-M "P 21/C"
_symmetry_group_IT_number 14
_symmetry_cell_setting 'monoclinic'
loop_
_space_group_symop_operation_xyz
x,y,z
-x,1/2+y,1/2-z
-x,-y,-z
x,1/2-y,1/2+z
loop_
_atom_site_type_symbol
_atom_site_label
_atom_site_fract_x
_atom_site_fract_y
_atom_site_fract_z
Si Si1 0.949798 0.949069 0.323020
Si Si2 0.685285 0.313491 0.342688
Si Si3 0.384085 0.266383 0.932870
Si Si4 0.046405 0.361339 0.306155
Si Si5 0.545306 0.753342 0.914873
Si Si6 0.811859 0.623673 0.074113
Si Si7 0.446495 0.632222 0.352427
Si Si8 0.085419 0.790620 0.995191
O O1 0.095068 0.821831 0.277324
O O2 0.014277 0.963879 0.219108
O O3 0.752597 0.850565 0.441466
O O4 0.965159 0.154156 0.340353
O O5 0.592178 0.215368 0.339594
O O6 0.601740 0.234594 0.450308
O O7 0.618782 0.530821 0.376911
O O8 0.315861 0.344687 0.910215
O O9 0.363471 0.045956 0.932678
O O10 0.995183 0.392444 0.402444
O O11 0.268970 0.361430 0.179593
O O12 0.463769 0.719743 0.895702
O O13 0.655996 0.596149 0.212511
O O14 0.923871 0.436876 0.994453
O O15 0.945561 0.796433 0.018238
O O16 0.307143 0.675277 0.377121
#
# Coordination Sequence:
#
# PCOD9251516 Si02
#       8
#     4   4   4   4   4   4   4   4
#     4  11  23  38  65  95 127 164 204 258 317 379
#     4   9  19  35  60  90 120 159 199 252 306 374
#     4  11  23  41  64  91 127 164 213 256 312 371
#     4  11  21  40  64  93 128 163 204 259 312 374
#     4   9  17  35  62  89 116 158 210 243 304 373
#     4  11  24  44  63  92 125 170 215 257 311 368
#     4  11  23  40  67  91 122 167 213 264 306 369
#     4  11  24  41  67  92 127 166 214 260 306 375
#
# _framework density 27.210201000000001
#
# number of rings (size 3 to 8) (size 9 to 14) (size 15 to 20)
#    0.000    1.500    3.750    1.500    3.500    1.500 
#    0.000    3.125    0.000    0.000    0.000    0.000 
#    0.000    0.000    0.000    0.000    0.000    0.000 
#
# Total GULP energy -179074.544366 kJ/mol
# GULP energy per Si atom -5596.079511 kJ/mol
# Density = 2.714827 g / cm^3
# Si number density = 27.210201 Si / 1000 Ang^3
#
#
#
# Elastic Constant Matrix: (Units=GPa)
#
#
# Indices 1 2 3 4 5 6 
#
# 1 166.1895 30.9748 29.4262 0.0000 5.3788 0.0000
# 2 30.9748 53.5909 19.6372 0.0000 -1.7042 0.0000
# 3 29.4262 19.6372 87.0169 0.0000 -1.3719 0.0000
# 4 0.0000 0.0000 0.0000 28.0154 0.0000 -0.0600
# 5 5.3788 -1.7042 -1.3719 0.0000 47.0361 0.0000
# 6 0.0000 0.0000 0.0000 -0.0600 0.0000 41.1684
#
#
#
# Elastic Compliance Matrix: (Units=1/GPa)
#
#
# Indices 1 2 3 4 5 6 
#
# 1 0.006979 -0.003482 -0.001590 0.000000 -0.000971 0.000000
# 2 -0.003482 0.022097 -0.003792 0.000000 0.001088 0.000000
# 3 -0.001590 -0.003792 0.012892 0.000000 0.000420 0.000000
# 4 0.000000 0.000000 0.000000 0.035695 0.000000 0.000052
# 5 -0.000971 0.001088 0.000420 0.000000 0.021423 0.000000
# 6 0.000000 0.000000 0.000000 0.000052 0.000000 0.024291
#
#
# Mechanical properties :
#
#
# Convention : Reuss Voigt Hill
#
# Bulk Modulus (GPa) = 41.25354 51.87486 46.56420
# Shear Modulus (GPa) = 33.51583 38.36127 35.93855
#
# Velocity S-wave (km/s) = 3.51342 3.75882 3.63819
# Velocity P-wave (km/s) = 5.62608 6.15988 5.89902
#
# Compressibility (1/GPa) = 0.02424034
#
# Stress axis : x y z
#
# Youngs Moduli (GPa) = 143.28447 45.25587 77.56813
#
# Poissons Ratio (x) = 0.15759 0.12330
# Poissons Ratio (y) = 0.49895 0.29412
# Poissons Ratio (z) = 0.22776 0.17160
#
# Static dielectric constant tensor:
#      x y z
#    x 2.255130 0.000000 -0.065950 
#    y 0.000000 2.221750 0.000000 
#    z -0.065950 0.000000 2.091040 
# 
# From -- ./inp_files/73844.got.cif
#   From: 2010.05.17/outbox.cif.g08.bks.cpg/sg14_37_cif.got.tgz:73844.got - 2010.06.03 17:49:19.
