data_PCOD9251217
_publ_section_title
;
Structure prediction by ZEFSAII (Michael W. Deem and Ramdas Pophale) SiO2 
 PCOD9251217
Probable space group: P 21/C
;
_chemical_formula_sum "Si O2"
_cell_formula_units_Z 26
_cell_length_a 19.946087
_cell_length_b 9.763610
_cell_length_c 8.247837
_cell_angle_alpha 90.000000
_cell_angle_beta 46.586824
_cell_angle_gamma 90.000000
_cell_volume 1166.793469
_symmetry_space_group_name_H-M "P 21/C"
_symmetry_group_IT_number 14
_symmetry_cell_setting 'monoclinic'
loop_
_space_group_symop_operation_xyz
x,y,z
-x,1/2+y,1/2-z
-x,-y,-z
x,1/2-y,1/2+z
loop_
_atom_site_type_symbol
_atom_site_label
_atom_site_fract_x
_atom_site_fract_y
_atom_site_fract_z
Si Si1 0.547441 0.074202 0.192001
Si Si2 0.246162 0.194906 0.504517
Si Si3 0.754075 0.342624 0.445548
Si Si4 0.815804 0.422242 0.009753
Si Si5 0.546946 0.704988 0.840310
Si Si6 0.832670 0.571894 0.542753
Si Si7 0.000000 0.000000 0.000000
O O1 0.486555 0.134268 0.440329
O O2 0.511345 0.159194 0.099626
O O3 0.534848 0.911062 0.220822
O O4 0.653148 0.112861 0.054368
O O5 0.345666 0.260954 0.328410
O O6 0.168316 0.307246 0.589852
O O7 0.235756 0.067750 0.400144
O O8 0.229814 0.133164 0.709112
O O9 0.822519 0.364486 0.179840
O O10 0.758680 0.188165 0.500868
O O11 0.787249 0.440506 0.535265
O O12 0.910906 0.450004 0.758944
O O13 0.928860 0.536514 0.466457
#
# Coordination Sequence:
#
# PCOD9251217 Si02
#       7
#     4   4   4   4   4   4   2
#     4  11  26  43  69 106 142 196 240 306 346 436
#     4  11  23  43  70 104 144 197 239 301 368 433
#     4  12  25  48  71 108 148 199 235 305 375 438
#     4  11  26  44  77 104 146 191 244 305 369 440
#     4  11  25  42  69 103 147 190 249 296 353 429
#     4  11  24  45  74 103 149 185 247 299 372 436
#     4  10  26  48  72 112 132 186 238 306 352 442
#
# _framework density 22.283294000000001
#
# number of rings (size 3 to 8) (size 9 to 14) (size 15 to 20)
#    0.000    0.923    1.538    4.615    6.462    6.154 
#    0.000    0.000    0.000    0.000    0.000    0.000 
#    0.000    0.000    0.000    0.000    0.000    0.000 
#
# Total GULP energy -144990.637527 kJ/mol
# GULP energy per Si atom -5576.562982 kJ/mol
# Density = 2.223258 g / cm^3
# Si number density = 22.283294 Si / 1000 Ang^3
#
#
#
# Elastic Constant Matrix: (Units=GPa)
#
#
# Indices 1 2 3 4 5 6 
#
# 1 107.4028 33.6021 13.5469 0.0000 -1.0934 0.0000
# 2 33.6021 90.2731 -9.8982 0.0000 -10.6539 0.0000
# 3 13.5469 -9.8982 76.1290 0.0000 -2.7967 0.0000
# 4 0.0000 0.0000 0.0000 26.3724 0.0000 21.5984
# 5 -1.0934 -10.6539 -2.7967 0.0000 22.6791 0.0000
# 6 0.0000 0.0000 0.0000 21.5984 0.0000 19.6698
#
#
#
# Elastic Compliance Matrix: (Units=1/GPa)
#
#
# Indices 1 2 3 4 5 6 
#
# 1 0.011079 -0.004647 -0.002648 0.000000 -0.001976 0.000000
# 2 -0.004647 0.013910 0.002880 0.000000 0.006666 0.000000
# 3 -0.002648 0.002880 0.014090 0.000000 0.002963 0.000000
# 4 0.000000 0.000000 0.000000 0.376455 0.000000 -0.413366
# 5 -0.001976 0.006666 0.002963 0.000000 0.047495 0.000000
# 6 0.000000 0.000000 0.000000 -0.413366 0.000000 0.504735
#
#
# Mechanical properties :
#
#
# Convention : Reuss Voigt Hill
#
# Bulk Modulus (GPa) = 33.05962 38.70073 35.88017
# Shear Modulus (GPa) = 5.06752 29.51453 17.29102
#
# Velocity S-wave (km/s) = 1.50966 3.64334 2.78863
# Velocity P-wave (km/s) = 4.23167 5.92485 5.14834
#
# Compressibility (1/GPa) = 0.03024838
#
# Stress axis : x y z
#
# Youngs Moduli (GPa) = 90.26405 71.89169 70.97133
#
# Poissons Ratio (x) = 0.33410 0.18795
# Poissons Ratio (y) = 0.41948 -0.20442
# Poissons Ratio (z) = 0.23904 -0.20707
#
# Static dielectric constant tensor:
#      x y z
#    x 1.792580 0.000000 0.060060 
#    y 0.000000 1.863090 0.000000 
#    z 0.060060 0.000000 1.824590 
# 
# From -- ./inp_files/18585.got.cif
#   From: 2010.05.17/outbox.cif.g08.bks.cpg/sg14_10_cif.got.tgz:18585.got - 2010.06.03 17:49:19.
