data_PCOD9251077
_publ_section_title
;
Structure prediction by ZEFSAII (Michael W. Deem and Ramdas Pophale) SiO2 
 PCOD9251077
Probable space group: P 21/C
;
_chemical_formula_sum "Si O2"
_cell_formula_units_Z 18
_cell_length_a 11.691806
_cell_length_b 5.233512
_cell_length_c 17.213596
_cell_angle_alpha 90.000000
_cell_angle_beta 39.141896
_cell_angle_gamma 90.000000
_cell_volume 664.879704
_symmetry_space_group_name_H-M "P 21/C"
_symmetry_group_IT_number 14
_symmetry_cell_setting 'monoclinic'
loop_
_space_group_symop_operation_xyz
x,y,z
-x,1/2+y,1/2-z
-x,-y,-z
x,1/2-y,1/2+z
loop_
_atom_site_type_symbol
_atom_site_label
_atom_site_fract_x
_atom_site_fract_y
_atom_site_fract_z
Si Si1 0.319433 0.212787 0.929349
Si Si2 0.237917 0.189282 0.154009
Si Si3 0.985648 0.038745 0.401433
Si Si4 0.303503 0.702408 0.215657
Si Si5 0.000000 0.500000 0.500000
O O1 0.270055 0.173057 0.046675
O O2 0.217326 0.480955 0.972690
O O3 0.204649 0.016262 0.939511
O O4 0.531723 0.263791 0.812201
O O5 0.029716 0.127215 0.290516
O O6 0.300544 0.449465 0.164139
O O7 0.669737 0.052469 0.853745
O O8 0.065517 0.255475 0.411948
O O9 0.101314 0.768995 0.357548
#
# Coordination Sequence:
#
# PCOD9251077 Si02
#       5
#     4   4   4   4   2
#     4  12  26  47  79 110 162 207 263 331 395 483
#     4  10  25  46  77 118 152 203 267 326 392 467
#     4  10  27  45  76 113 157 206 260 323 398 471
#     4  10  25  48  76 115 152 203 268 324 395 465
#     4  12  28  50  70 118 156 214 264 324 420 470
#
# _framework density 27.072568
#
# number of rings (size 3 to 8) (size 9 to 14) (size 15 to 20)
#    1.333    0.000    0.000    3.333   12.444    0.000 
#    8.000    0.000    0.000    0.000    0.000    0.000 
#    0.000    0.000    0.000    0.000    0.000    0.000 
#
# Total GULP energy -100264.998897 kJ/mol
# GULP energy per Si atom -5570.277717 kJ/mol
# Density = 2.701095 g / cm^3
# Si number density = 27.072568 Si / 1000 Ang^3
#
#
#
# Elastic Constant Matrix: (Units=GPa)
#
#
# Indices 1 2 3 4 5 6 
#
# 1 140.6960 55.1002 49.9174 0.0000 -20.2117 0.0000
# 2 55.1002 173.9311 12.1821 0.0000 -18.3721 0.0000
# 3 49.9174 12.1821 114.6708 0.0000 -2.2457 0.0000
# 4 0.0000 0.0000 0.0000 -0.5207 0.0000 1.7923
# 5 -20.2117 -18.3721 -2.2457 0.0000 42.5114 0.0000
# 6 0.0000 0.0000 0.0000 1.7923 0.0000 39.1138
#
#
#
# Elastic Compliance Matrix: (Units=1/GPa)
#
#
# Indices 1 2 3 4 5 6 
#
# 1 0.010023 -0.002528 -0.004027 0.000000 0.003460 0.000000
# 2 -0.002528 0.006702 0.000422 0.000000 0.001717 0.000000
# 3 -0.004027 0.000422 0.010406 0.000000 -0.001183 0.000000
# 4 0.000000 0.000000 0.000000 -1.658761 0.000000 0.076008
# 5 0.003460 0.001717 -0.001183 0.000000 0.025848 0.000000
# 6 0.000000 0.000000 0.000000 0.076008 0.000000 0.022084
#
#
# Mechanical properties :
#
#
# Convention : Reuss Voigt Hill
#
# Bulk Modulus (GPa) = 67.27004 73.74414 70.50709
# Shear Modulus (GPa) = -3.19187 37.02744 16.91778
#
# Velocity S-wave (km/s) = -1.08700 3.70227 2.50252
# Velocity P-wave (km/s) = 4.82976 6.75087 5.86945
#
# Compressibility (1/GPa) = 0.01486546
#
# Stress axis : x y z
#
# Youngs Moduli (GPa) = 99.76806 149.20986 96.10220
#
# Poissons Ratio (x) = 0.37716 0.38700
# Poissons Ratio (y) = 0.25219 -0.04055
# Poissons Ratio (z) = 0.40176 -0.06296
#
# Static dielectric constant tensor:
#      x y z
#    x 2.021520 0.000000 -0.196090 
#    y 0.000000 1.805220 0.000000 
#    z -0.196090 0.000000 1.831210 
# 
# From -- ./inp_files/66142.got.cif
#   From: 2010.05.17/outbox.cif.g08.bks.cpg/sg14_34_cif.got.tgz:66142.got - 2010.06.03 17:49:19.
