data_PCOD9251611
_publ_section_title
;
Structure prediction by ZEFSAII (Michael W. Deem and Ramdas Pophale) SiO2 
 PCOD9251611
Probable space group: P 21/C
;
_chemical_formula_sum "Si O2"
_cell_formula_units_Z 28
_cell_length_a 21.323725
_cell_length_b 14.343139
_cell_length_c 8.971741
_cell_angle_alpha 90.000000
_cell_angle_beta 152.586321
_cell_angle_gamma 90.000000
_cell_volume 1263.369504
_symmetry_space_group_name_H-M "P 21/C"
_symmetry_group_IT_number 14
_symmetry_cell_setting 'monoclinic'
loop_
_space_group_symop_operation_xyz
x,y,z
-x,1/2+y,1/2-z
-x,-y,-z
x,1/2-y,1/2+z
loop_
_atom_site_type_symbol
_atom_site_label
_atom_site_fract_x
_atom_site_fract_y
_atom_site_fract_z
Si Si1 0.303746 0.855618 0.919110
Si Si2 0.571475 0.043133 0.298687
Si Si3 0.741424 0.749061 0.492549
Si Si4 0.936111 0.600267 0.322077
Si Si5 0.696659 0.568453 0.586849
Si Si6 0.786108 0.181084 0.606879
Si Si7 0.609130 0.842499 0.454054
O O1 0.246661 0.786864 0.922235
O O2 0.228649 0.841045 0.600664
O O3 0.297132 0.962479 0.956051
O O4 0.461355 0.834058 0.214800
O O5 0.678757 0.118026 0.470146
O O6 0.641896 0.952093 0.520854
O O7 0.454561 0.080425 0.162810
O O8 0.500000 0.000000 0.000000
O O9 0.867494 0.819772 0.783139
O O10 0.738661 0.852881 0.059515
O O11 0.614382 0.803774 0.297558
O O12 0.713272 0.723741 0.261895
O O13 0.000000 0.500000 0.500000
O O14 0.063693 0.653954 0.521731
O O15 0.806875 0.574792 0.950093
#
# Coordination Sequence:
#
# PCOD9251611 Si02
#       7
#     4   4   4   4   4   4   4
#     4  11  25  42  68 101 138 181 223 297 349 421
#     4  11  21  44  71 103 135 184 233 297 354 421
#     4  12  25  42  71 107 135 184 238 298 347 433
#     4  12  25  46  72  97 136 192 233 285 355 430
#     4  11  24  44  70 101 142 175 242 288 348 424
#     4  12  25  43  69  98 140 182 233 281 361 416
#     4  11  23  40  73 103 138 178 235 294 361 415
#
# _framework density 22.162955
#
# number of rings (size 3 to 8) (size 9 to 14) (size 15 to 20)
#    0.000    0.571    5.714    3.429    2.000    3.429 
#    2.571    0.714    0.000    0.000    0.000    0.000 
#    0.000    0.000    0.000    0.000    0.000    0.000 
#
# Total GULP energy -156461.063644 kJ/mol
# GULP energy per Si atom -5587.895130 kJ/mol
# Density = 2.211251 g / cm^3
# Si number density = 22.162955 Si / 1000 Ang^3
#
#
#
# Elastic Constant Matrix: (Units=GPa)
#
#
# Indices 1 2 3 4 5 6 
#
# 1 54.2237 59.1850 17.2971 0.0000 10.2382 0.0000
# 2 59.1850 171.6662 36.3636 0.0000 20.1948 0.0000
# 3 17.2971 36.3636 43.4230 0.0000 18.7237 0.0000
# 4 0.0000 0.0000 0.0000 37.4075 0.0000 8.3715
# 5 10.2382 20.1948 18.7237 0.0000 30.4557 0.0000
# 6 0.0000 0.0000 0.0000 8.3715 0.0000 44.3695
#
#
#
# Elastic Compliance Matrix: (Units=1/GPa)
#
#
# Indices 1 2 3 4 5 6 
#
# 1 0.030209 -0.009504 -0.003284 0.000000 -0.001835 0.000000
# 2 -0.009504 0.010117 -0.004316 0.000000 -0.000861 0.000000
# 3 -0.003284 -0.004316 0.035707 0.000000 -0.017987 0.000000
# 4 0.000000 0.000000 0.000000 0.027911 0.000000 -0.005266
# 5 -0.001835 -0.000861 -0.017987 0.000000 0.045080 0.000000
# 6 0.000000 0.000000 0.000000 -0.005266 0.000000 0.023532
#
#
# Mechanical properties :
#
#
# Convention : Reuss Voigt Hill
#
# Bulk Modulus (GPa) = 23.90782 55.00047 39.45414
# Shear Modulus (GPa) = 22.65466 32.87768 27.76617
#
# Velocity S-wave (km/s) = 3.20063 3.85574 3.54336
# Velocity P-wave (km/s) = 4.94666 6.68525 5.88056
#
# Compressibility (1/GPa) = 0.04182732
#
# Stress axis : x y z
#
# Youngs Moduli (GPa) = 33.10227 98.84080 28.00566
#
# Poissons Ratio (x) = 0.93936 0.09196
# Poissons Ratio (y) = 0.31460 0.12086
# Poissons Ratio (z) = 0.10870 0.42656
#
# Static dielectric constant tensor:
#      x y z
#    x 1.828850 0.000000 -0.043720 
#    y 0.000000 1.872000 0.000000 
#    z -0.043720 0.000000 1.835730 
# 
# From -- ./inp_files/19125.got.cif
#   From: 2010.05.17/outbox.cif.g08.bks.cpg/sg14_10_cif.got.tgz:19125.got - 2010.06.03 17:49:19.
