data_PCOD9251388
_publ_section_title
;
Structure prediction by ZEFSAII (Michael W. Deem and Ramdas Pophale) SiO2 
 PCOD9251388
Probable space group: P 21/C
;
_chemical_formula_sum "Si O2"
_cell_formula_units_Z 28
_cell_length_a 18.763935
_cell_length_b 8.935465
_cell_length_c 14.453979
_cell_angle_alpha 90.000000
_cell_angle_beta 31.311662
_cell_angle_gamma 90.000000
_cell_volume 1259.433901
_symmetry_space_group_name_H-M "P 21/C"
_symmetry_group_IT_number 14
_symmetry_cell_setting 'monoclinic'
loop_
_space_group_symop_operation_xyz
x,y,z
-x,1/2+y,1/2-z
-x,-y,-z
x,1/2-y,1/2+z
loop_
_atom_site_type_symbol
_atom_site_label
_atom_site_fract_x
_atom_site_fract_y
_atom_site_fract_z
Si Si1 0.288357 0.482419 0.500472
Si Si2 0.088673 0.376186 0.456928
Si Si3 0.317364 0.587441 0.944966
Si Si4 0.506774 0.341198 0.644870
Si Si5 0.612226 0.565268 0.806327
Si Si6 0.171891 0.318226 0.179959
Si Si7 0.066300 0.786164 0.202786
O O1 0.359892 0.552857 0.511043
O O2 0.379551 0.507582 0.305995
O O3 0.270960 0.306056 0.527605
O O4 0.142758 0.561997 0.648192
O O5 0.231001 0.444724 0.335190
O O6 0.129969 0.265892 0.328010
O O7 0.000000 0.500000 0.500000
O O8 0.011606 0.293975 0.625732
O O9 0.396202 0.464963 0.797795
O O10 0.420482 0.712726 0.870383
O O11 0.246576 0.479260 0.100165
O O12 0.191481 0.675150 0.036976
O O13 0.433423 0.238315 0.651629
O O14 0.500000 0.500000 0.000000
O O15 0.040418 0.323161 0.259249
#
# Coordination Sequence:
#
# PCOD9251388 Si02
#       7
#     4   4   4   4   4   4   4
#     4  11  24  42  71 101 141 191 236 299 363 432
#     4  12  25  43  74 104 138 189 246 296 355 439
#     4  11  20  39  71  97 138 189 235 298 355 433
#     4  11  22  42  68 101 136 183 241 286 364 427
#     4  12  25  43  71 106 143 188 244 294 357 441
#     4  12  22  43  69 101 142 185 239 299 367 424
#     4  11  24  43  69 106 143 189 241 299 368 435
#
# _framework density 22.232211
#
# number of rings (size 3 to 8) (size 9 to 14) (size 15 to 20)
#    0.000    0.571    5.714    2.571    2.000    0.571 
#    0.000    0.714    3.143    0.000    0.000    0.000 
#    0.000    0.000    0.000    0.000    0.000    0.000 
#
# Total GULP energy -156192.993436 kJ/mol
# GULP energy per Si atom -5578.321194 kJ/mol
# Density = 2.218161 g / cm^3
# Si number density = 22.232211 Si / 1000 Ang^3
#
#
#
# Elastic Constant Matrix: (Units=GPa)
#
#
# Indices 1 2 3 4 5 6 
#
# 1 67.2565 3.3424 22.2715 0.0000 -16.7397 0.0000
# 2 3.3424 91.8286 15.5990 0.0000 -8.8931 0.0000
# 3 22.2715 15.5990 99.7201 0.0000 -8.1153 0.0000
# 4 0.0000 0.0000 0.0000 33.3306 0.0000 -9.0786
# 5 -16.7397 -8.8931 -8.1153 0.0000 33.9689 0.0000
# 6 0.0000 0.0000 0.0000 -9.0786 0.0000 36.7721
#
#
#
# Elastic Compliance Matrix: (Units=1/GPa)
#
#
# Indices 1 2 3 4 5 6 
#
# 1 0.018035 0.000732 -0.003471 0.000000 0.008250 0.000000
# 2 0.000732 0.011440 -0.001713 0.000000 0.002946 0.000000
# 3 -0.003471 -0.001713 0.011112 0.000000 0.000496 0.000000
# 4 0.000000 0.000000 0.000000 0.032166 0.000000 0.007941
# 5 0.008250 0.002946 0.000496 0.000000 0.034394 0.000000
# 6 0.000000 0.000000 0.000000 0.007941 0.000000 0.029155
#
#
# Mechanical properties :
#
#
# Convention : Reuss Voigt Hill
#
# Bulk Modulus (GPa) = 31.56387 37.91456 34.73922
# Shear Modulus (GPa) = 32.09955 35.32047 33.71001
#
# Velocity S-wave (km/s) = 3.80390 3.99018 3.89815
# Velocity P-wave (km/s) = 5.78974 6.19029 5.99336
#
# Compressibility (1/GPa) = 0.03168179
#
# Stress axis : x y z
#
# Youngs Moduli (GPa) = 55.44825 87.41587 89.99584
#
# Poissons Ratio (x) = -0.06400 0.31238
# Poissons Ratio (y) = -0.04060 0.15418
# Poissons Ratio (z) = 0.19246 0.14976
#
# Static dielectric constant tensor:
#      x y z
#    x 1.857190 0.000000 0.002570 
#    y 0.000000 1.851090 0.000000 
#    z 0.002570 0.000000 1.936920 
# 
# From -- ./inp_files/50191.got.cif
#   From: 2010.05.17/outbox.cif.g08.bks.cpg/sg14_26_cif.got.tgz:50191.got - 2010.06.03 17:49:19.
