data_PCOD9251729
_publ_section_title
;
Structure prediction by ZEFSAII (Michael W. Deem and Ramdas Pophale) SiO2 
 PCOD9251729
Probable space group: P 21/C
;
_chemical_formula_sum "Si O2"
_cell_formula_units_Z 32
_cell_length_a 19.232072
_cell_length_b 11.690955
_cell_length_c 18.061485
_cell_angle_alpha 90.000000
_cell_angle_beta 157.801659
_cell_angle_gamma 90.000000
_cell_volume 1534.290307
_symmetry_space_group_name_H-M "P 21/C"
_symmetry_group_IT_number 14
_symmetry_cell_setting 'monoclinic'
loop_
_space_group_symop_operation_xyz
x,y,z
-x,1/2+y,1/2-z
-x,-y,-z
x,1/2-y,1/2+z
loop_
_atom_site_type_symbol
_atom_site_label
_atom_site_fract_x
_atom_site_fract_y
_atom_site_fract_z
Si Si1 0.058691 0.340410 0.493735
Si Si2 0.638917 0.136640 0.924857
Si Si3 0.144766 0.606685 0.559170
Si Si4 0.241801 0.622039 0.917171
Si Si5 0.870673 0.722956 0.184771
Si Si6 0.009246 0.479524 0.201542
Si Si7 0.532206 0.913098 0.401159
Si Si8 0.253656 0.349114 0.105866
O O1 0.122111 0.469536 0.538257
O O2 0.210149 0.247236 0.623066
O O3 0.976422 0.341957 0.494280
O O4 0.892021 0.318448 0.273023
O O5 0.562582 0.088818 0.772697
O O6 0.467862 0.122200 0.811985
O O7 0.667678 0.273856 0.949163
O O8 0.820925 0.066558 0.123535
O O9 0.362813 0.623152 0.785242
O O10 0.054269 0.659701 0.395944
O O11 0.119263 0.545146 0.852340
O O12 0.378393 0.538946 0.006826
O O13 0.906730 0.856050 0.231924
O O14 0.814770 0.699452 0.043362
O O15 0.701525 0.673795 0.065555
O O16 0.869140 0.537622 0.005901
#
# Coordination Sequence:
#
# PCOD9251729 Si02
#       8
#     4   4   4   4   4   4   4   4
#     4  11  22  42  67  89 126 168 199 253 308 371
#     4  11  24  35  62  93 123 161 199 258 308 357
#     4  11  24  43  62  91 129 164 200 250 316 362
#     4  12  21  38  62  93 126 159 203 253 307 365
#     4  11  23  39  63  90 125 161 203 259 302 361
#     4  12  21  38  62  90 127 154 203 257 308 354
#     4  11  23  37  60  93 126 158 205 249 308 366
#     4  11  22  40  63  95 118 160 210 250 304 365
#
# _framework density 20.856548
#
# number of rings (size 3 to 8) (size 9 to 14) (size 15 to 20)
#    0.000    0.750    6.250    3.000    3.500    1.500 
#    2.250    0.625    0.000    1.500    0.000    0.000 
#    0.000    0.000    0.000    0.000    0.000    0.000 
#
# Total GULP energy -178705.341843 kJ/mol
# GULP energy per Si atom -5584.541933 kJ/mol
# Density = 2.080908 g / cm^3
# Si number density = 20.856548 Si / 1000 Ang^3
#
#
#
# Elastic Constant Matrix: (Units=GPa)
#
#
# Indices 1 2 3 4 5 6 
#
# 1 36.5406 18.9304 17.0085 0.0000 18.2685 0.0000
# 2 18.9304 101.2776 29.5082 0.0000 27.1989 0.0000
# 3 17.0085 29.5082 103.2616 0.0000 39.4489 0.0000
# 4 0.0000 0.0000 0.0000 27.2487 0.0000 0.2394
# 5 18.2685 27.1989 39.4489 0.0000 24.7191 0.0000
# 6 0.0000 0.0000 0.0000 0.2394 0.0000 15.3775
#
#
#
# Elastic Compliance Matrix: (Units=1/GPa)
#
#
# Indices 1 2 3 4 5 6 
#
# 1 0.052777 0.004249 0.017369 0.000000 -0.071399 0.000000
# 2 0.004249 0.015367 0.006579 0.000000 -0.030548 0.000000
# 3 0.017369 0.006579 0.032313 0.000000 -0.071644 0.000000
# 4 0.000000 0.000000 0.000000 0.036704 0.000000 -0.000571
# 5 -0.071399 -0.030548 -0.071644 0.000000 0.241171 0.000000
# 6 0.000000 0.000000 0.000000 -0.000571 0.000000 0.065039
#
#
# Mechanical properties :
#
#
# Convention : Reuss Voigt Hill
#
# Bulk Modulus (GPa) = 6.37543 41.33046 23.85294
# Shear Modulus (GPa) = 11.38281 25.17791 18.28036
#
# Velocity S-wave (km/s) = 2.33870 3.47824 2.96375
# Velocity P-wave (km/s) = 3.21809 5.99920 4.81386
#
# Compressibility (1/GPa) = 0.15685217
#
# Stress axis : x y z
#
# Youngs Moduli (GPa) = 18.94781 65.07597 30.94698
#
# Poissons Ratio (x) = -0.27653 -0.53753
# Poissons Ratio (y) = -0.08051 -0.20361
# Poissons Ratio (z) = -0.32911 -0.42815
#
# Static dielectric constant tensor:
#      x y z
#    x 1.802560 0.000000 0.029980 
#    y 0.000000 1.746780 0.000000 
#    z 0.029980 0.000000 1.776360 
# 
# From -- ./inp_files/69937.got.cif
#   From: 2010.05.17/outbox.cif.g08.bks.cpg/sg14_35_cif.got.tgz:69937.got - 2010.06.03 17:49:19.
