data_PCOD9251843
_publ_section_title
;
Structure prediction by ZEFSAII (Michael W. Deem and Ramdas Pophale) SiO2 
 PCOD9251843
Probable space group: P 21/C
;
_chemical_formula_sum "Si O2"
_cell_formula_units_Z 28
_cell_length_a 13.120442
_cell_length_b 9.407571
_cell_length_c 19.643342
_cell_angle_alpha 90.000000
_cell_angle_beta 146.139845
_cell_angle_gamma 90.000000
_cell_volume 1350.912836
_symmetry_space_group_name_H-M "P 21/C"
_symmetry_group_IT_number 14
_symmetry_cell_setting 'monoclinic'
loop_
_space_group_symop_operation_xyz
x,y,z
-x,1/2+y,1/2-z
-x,-y,-z
x,1/2-y,1/2+z
loop_
_atom_site_type_symbol
_atom_site_label
_atom_site_fract_x
_atom_site_fract_y
_atom_site_fract_z
Si Si1 0.903807 0.472404 0.131685
Si Si2 0.644335 0.672704 0.256840
Si Si3 0.783336 0.472245 0.587843
Si Si4 0.430053 0.802940 0.499662
Si Si5 0.415803 0.632941 0.720755
Si Si6 0.368522 0.221187 0.529264
Si Si7 0.056772 0.786971 0.944897
O O1 0.935437 0.368164 0.085581
O O2 0.086412 0.498880 0.275547
O O3 0.758702 0.389741 0.099536
O O4 0.804035 0.617256 0.055077
O O5 0.551938 0.652825 0.131834
O O6 0.594214 0.536118 0.274608
O O7 0.556511 0.812304 0.241725
O O8 0.860200 0.684822 0.367618
O O9 0.626567 0.361219 0.521892
O O10 0.700261 0.618368 0.514979
O O11 0.899874 0.395930 0.592916
O O12 0.537393 0.821202 0.489688
O O13 0.487605 0.697704 0.831000
O O14 0.219075 0.690978 0.588566
#
# Coordination Sequence:
#
# PCOD9251843 Si02
#       7
#     4   4   4   4   4   4   4
#     4  11  22  44  69 103 137 177 237 291 337 408
#     4  12  25  49  73  96 140 190 227 289 355 412
#     4  11  23  42  70 101 142 180 237 288 341 416
#     4  11  23  45  68  99 144 181 229 292 351 399
#     4  12  25  46  69 105 142 180 237 284 348 431
#     4  12  24  40  72 105 136 184 232 288 348 414
#     4  11  25  48  71  98 144 188 222 291 360 405
#
# _framework density 20.726727
#
# number of rings (size 3 to 8) (size 9 to 14) (size 15 to 20)
#    0.000    0.571    4.286    5.571    2.000    0.000 
#    2.571    1.429    0.000    0.000    0.000    0.000 
#    0.000    0.000    0.000    0.000    0.000    0.000 
#
# Total GULP energy -156769.077546 kJ/mol
# GULP energy per Si atom -5598.895627 kJ/mol
# Density = 2.067955 g / cm^3
# Si number density = 20.726727 Si / 1000 Ang^3
#
#
#
# Elastic Constant Matrix: (Units=GPa)
#
#
# Indices 1 2 3 4 5 6 
#
# 1 73.8891 0.3000 13.9258 0.0000 -1.7739 0.0000
# 2 0.3000 104.2965 32.1207 0.0000 -0.1285 0.0000
# 3 13.9258 32.1207 108.9326 0.0000 -10.0224 0.0000
# 4 0.0000 0.0000 0.0000 13.6527 0.0000 -1.2427
# 5 -1.7739 -0.1285 -10.0224 0.0000 30.9262 0.0000
# 6 0.0000 0.0000 0.0000 -1.2427 0.0000 12.4815
#
#
#
# Elastic Compliance Matrix: (Units=1/GPa)
#
#
# Indices 1 2 3 4 5 6 
#
# 1 0.013898 0.000553 -0.001923 0.000000 0.000176 0.000000
# 2 0.000553 0.010597 -0.003286 0.000000 -0.000989 0.000000
# 3 -0.001923 -0.003286 0.010703 0.000000 0.003344 0.000000
# 4 0.000000 0.000000 0.000000 0.073916 0.000000 0.007359
# 5 0.000176 -0.000989 0.003344 0.000000 0.033425 0.000000
# 6 0.000000 0.000000 0.000000 0.007359 0.000000 0.080851
#
#
# Mechanical properties :
#
#
# Convention : Reuss Voigt Hill
#
# Bulk Modulus (GPa) = 38.63444 42.20126 40.41785
# Shear Modulus (GPa) = 20.71831 27.46353 24.09092
#
# Velocity S-wave (km/s) = 3.16507 3.64405 3.41297
# Velocity P-wave (km/s) = 5.66014 6.17336 5.92232
#
# Compressibility (1/GPa) = 0.02588364
#
# Stress axis : x y z
#
# Youngs Moduli (GPa) = 71.95127 94.36281 93.43462
#
# Poissons Ratio (x) = -0.05215 0.17972
# Poissons Ratio (y) = -0.03976 0.30707
# Poissons Ratio (z) = 0.13840 0.31012
#
# Static dielectric constant tensor:
#      x y z
#    x 1.757330 0.000000 -0.041680 
#    y 0.000000 1.754300 0.000000 
#    z -0.041680 0.000000 1.739950 
# 
# From -- ./inp_files/68377.got.cif
#   From: 2010.05.17/outbox.cif.g08.bks.cpg/sg14_35_cif.got.tgz:68377.got - 2010.06.03 17:49:19.
