data_PCOD9251754
_publ_section_title
;
Structure prediction by ZEFSAII (Michael W. Deem and Ramdas Pophale) SiO2 
 PCOD9251754
Probable space group: P 21/C
;
_chemical_formula_sum "Si O2"
_cell_formula_units_Z 28
_cell_length_a 14.666152
_cell_length_b 4.953972
_cell_length_c 16.475994
_cell_angle_alpha 90.000000
_cell_angle_beta 114.084693
_cell_angle_gamma 90.000000
_cell_volume 1092.861504
_symmetry_space_group_name_H-M "P 21/C"
_symmetry_group_IT_number 14
_symmetry_cell_setting 'monoclinic'
loop_
_space_group_symop_operation_xyz
x,y,z
-x,1/2+y,1/2-z
-x,-y,-z
x,1/2-y,1/2+z
loop_
_atom_site_type_symbol
_atom_site_label
_atom_site_fract_x
_atom_site_fract_y
_atom_site_fract_z
Si Si1 0.868236 0.633678 0.110689
Si Si2 0.780304 0.389075 0.509452
Si Si3 0.946964 0.589706 0.894398
Si Si4 0.484450 0.316178 0.300610
Si Si5 0.192673 0.900025 0.159774
Si Si6 0.314198 0.385218 0.840474
Si Si7 0.583536 0.291547 0.501405
O O1 0.805876 0.422518 0.032475
O O2 0.795911 0.669833 0.161188
O O3 0.975955 0.494218 0.149397
O O4 0.871966 0.924644 0.070242
O O5 0.759416 0.452292 0.409969
O O6 0.687039 0.456267 0.532246
O O7 0.900247 0.887225 0.870703
O O8 0.853573 0.393778 0.854220
O O9 0.000000 0.500000 0.000000
O O10 0.513752 0.598647 0.271051
O O11 0.379774 0.326194 0.312618
O O12 0.559064 0.217240 0.399459
O O13 0.277563 0.915586 0.256917
O O14 0.388102 0.541261 0.930221
O O15 0.500000 0.500000 0.500000
#
# Coordination Sequence:
#
# PCOD9251754 Si02
#       7
#     4   4   4   4   4   4   4
#     4  11  24  43  69  98 139 183 229 294 355 428
#     4  11  22  41  68 100 132 181 237 287 348 422
#     4  12  23  44  73 102 137 184 243 288 361 425
#     4  12  27  49  78 107 144 193 251 302 359 446
#     4  12  25  42  71 103 139 181 238 301 345 434
#     4  11  28  46  68 109 146 185 239 297 374 427
#     4  11  25  48  76 106 152 198 240 305 379 446
#
# _framework density 25.620815
#
# number of rings (size 3 to 8) (size 9 to 14) (size 15 to 20)
#    0.000    0.571    2.857    4.286    0.000   13.714 
#    0.000    0.000    0.000    0.000    0.000    0.000 
#    0.000    0.000    0.000    0.000    0.000    0.000 
#
# Total GULP energy -156560.859746 kJ/mol
# GULP energy per Si atom -5591.459277 kJ/mol
# Density = 2.556250 g / cm^3
# Si number density = 25.620815 Si / 1000 Ang^3
#
#
#
# Elastic Constant Matrix: (Units=GPa)
#
#
# Indices 1 2 3 4 5 6 
#
# 1 155.5792 13.6225 -14.0613 0.0000 -21.3167 0.0000
# 2 13.6225 75.2060 7.4229 0.0000 -10.5847 0.0000
# 3 -14.0613 7.4229 63.6408 0.0000 -6.9365 0.0000
# 4 0.0000 0.0000 0.0000 23.8279 0.0000 11.0815
# 5 -21.3167 -10.5847 -6.9365 0.0000 35.0592 0.0000
# 6 0.0000 0.0000 0.0000 11.0815 0.0000 40.4084
#
#
#
# Elastic Compliance Matrix: (Units=1/GPa)
#
#
# Indices 1 2 3 4 5 6 
#
# 1 0.007343 -0.000898 0.002232 0.000000 0.004635 0.000000
# 2 -0.000898 0.014085 -0.001469 0.000000 0.003416 0.000000
# 3 0.002232 -0.001469 0.016841 0.000000 0.004246 0.000000
# 4 0.000000 0.000000 0.000000 0.048103 0.000000 -0.013192
# 5 0.004635 0.003416 0.004246 0.000000 0.033213 0.000000
# 6 0.000000 0.000000 0.000000 -0.013192 0.000000 0.028365
#
#
# Mechanical properties :
#
#
# Convention : Reuss Voigt Hill
#
# Bulk Modulus (GPa) = 26.31606 34.26604 30.29105
# Shear Modulus (GPa) = 31.07809 39.02189 35.04999
#
# Velocity S-wave (km/s) = 3.48660 3.90687 3.70270
# Velocity P-wave (km/s) = 5.14802 5.80989 5.48894
#
# Compressibility (1/GPa) = 0.03799961
#
# Stress axis : x y z
#
# Youngs Moduli (GPa) = 136.18222 70.99643 59.38047
#
# Poissons Ratio (x) = 0.06376 -0.13256
# Poissons Ratio (y) = 0.12230 0.08723
# Poissons Ratio (z) = -0.30402 0.10429
#
# Static dielectric constant tensor:
#      x y z
#    x 2.104620 0.000000 -0.022840 
#    y 0.000000 1.973360 0.000000 
#    z -0.022840 0.000000 2.068040 
# 
# From -- ./inp_files/58656.got.cif
#   From: 2010.05.17/outbox.cif.g08.bks.cpg/sg14_30_cif.got.tgz:58656.got - 2010.06.03 17:49:19.
