data_PCOD9251927
_publ_section_title
;
Structure prediction by ZEFSAII (Michael W. Deem and Ramdas Pophale) SiO2 
 PCOD9251927
Probable space group: P 21/C
;
_chemical_formula_sum "Si O2"
_cell_formula_units_Z 32
_cell_length_a 10.721720
_cell_length_b 6.537173
_cell_length_c 23.067749
_cell_angle_alpha 90.000000
_cell_angle_beta 100.392119
_cell_angle_gamma 90.000000
_cell_volume 1590.290775
_symmetry_space_group_name_H-M "P 21/C"
_symmetry_group_IT_number 14
_symmetry_cell_setting 'monoclinic'
loop_
_space_group_symop_operation_xyz
x,y,z
-x,1/2+y,1/2-z
-x,-y,-z
x,1/2-y,1/2+z
loop_
_atom_site_type_symbol
_atom_site_label
_atom_site_fract_x
_atom_site_fract_y
_atom_site_fract_z
Si Si1 0.819571 0.678958 0.269064
Si Si2 0.708797 0.044981 0.470427
Si Si3 0.078988 0.652069 0.545801
Si Si4 0.737614 0.934314 0.153244
Si Si5 0.142738 0.366927 0.916027
Si Si6 0.891043 0.332060 0.194467
Si Si7 0.736227 0.838234 0.888224
Si Si8 0.476959 0.902203 0.061807
O O1 0.749035 0.790397 0.210188
O O2 0.849401 0.451510 0.248823
O O3 0.735588 0.697786 0.319568
O O4 0.960767 0.773405 0.288813
O O5 0.810842 0.228312 0.478062
O O6 0.577939 0.170355 0.450972
O O7 0.740227 0.928509 0.532880
O O8 0.738605 0.878128 0.422784
O O9 0.144861 0.494470 0.595538
O O10 0.000000 0.500000 0.500000
O O11 0.986180 0.828751 0.560503
O O12 0.831259 0.848999 0.111900
O O13 0.602396 0.919190 0.111231
O O14 0.793270 0.149184 0.177169
O O15 0.123934 0.525994 0.863101
O O16 0.624538 0.962833 0.910663
O O17 0.500000 0.000000 0.000000
#
# Coordination Sequence:
#
# PCOD9251927 Si02
#       8
#     4   4   4   4   4   4   4   4
#     4  11  24  43  67 100 133 178 225 277 352 409
#     4  11  24  42  67 100 135 176 219 280 343 411
#     4  11  23  36  62 101 138 167 214 270 348 413
#     4  11  25  44  67  97 131 180 230 281 339 403
#     4  11  23  37  68 102 133 176 216 276 348 411
#     4  11  23  41  69  98 135 175 222 283 339 416
#     4  11  25  43  66  98 137 182 225 288 339 408
#     4  11  26  47  69  97 138 184 236 289 340 406
#
# _framework density 20.122107
#
# number of rings (size 3 to 8) (size 9 to 14) (size 15 to 20)
#    0.000    1.000    2.500    3.375    7.000    6.000 
#    4.500    0.000    0.000    0.000    0.000    0.000 
#    0.000    0.000    0.000    0.000    0.000    0.000 
#
# Total GULP energy -178620.251360 kJ/mol
# GULP energy per Si atom -5581.882855 kJ/mol
# Density = 2.007631 g / cm^3
# Si number density = 20.122107 Si / 1000 Ang^3
#
#
#
# Elastic Constant Matrix: (Units=GPa)
#
#
# Indices 1 2 3 4 5 6 
#
# 1 87.0812 24.3966 55.6508 0.0000 10.1021 0.0000
# 2 24.3966 94.0426 39.9437 0.0000 1.9057 0.0000
# 3 55.6508 39.9437 137.5962 0.0000 3.0992 0.0000
# 4 0.0000 0.0000 0.0000 28.9100 0.0000 8.1757
# 5 10.1021 1.9057 3.0992 0.0000 33.0246 0.0000
# 6 0.0000 0.0000 0.0000 8.1757 0.0000 26.1477
#
#
#
# Elastic Compliance Matrix: (Units=1/GPa)
#
#
# Indices 1 2 3 4 5 6 
#
# 1 0.016280 -0.001575 -0.006030 0.000000 -0.004323 0.000000
# 2 -0.001575 0.012286 -0.002931 0.000000 0.000048 0.000000
# 3 -0.006030 -0.002931 0.010534 0.000000 0.001025 0.000000
# 4 0.000000 0.000000 0.000000 0.037945 0.000000 -0.011865
# 5 -0.004323 0.000048 0.001025 0.000000 0.031504 0.000000
# 6 0.000000 0.000000 0.000000 -0.011865 0.000000 0.041954
#
#
# Mechanical properties :
#
#
# Convention : Reuss Voigt Hill
#
# Bulk Modulus (GPa) = 55.46546 62.07803 58.77174
# Shear Modulus (GPa) = 28.15582 30.86503 29.51043
#
# Velocity S-wave (km/s) = 3.74471 3.92074 3.83373
# Velocity P-wave (km/s) = 6.80598 7.17035 6.99054
#
# Compressibility (1/GPa) = 0.01802924
#
# Stress axis : x y z
#
# Youngs Moduli (GPa) = 61.42627 81.39478 94.92956
#
# Poissons Ratio (x) = 0.12816 0.57241
# Poissons Ratio (y) = 0.09672 0.27822
# Poissons Ratio (z) = 0.37039 0.23855
#
# Static dielectric constant tensor:
#      x y z
#    x 1.744750 0.000000 0.038850 
#    y 0.000000 1.676310 0.000000 
#    z 0.038850 0.000000 1.742710 
# 
# From -- ./inp_files/72843.got.cif
#   From: 2010.05.17/outbox.cif.g08.bks.cpg/sg14_37_cif.got.tgz:72843.got - 2010.06.03 17:49:19.
