data_PCOD9251468
_publ_section_title
;
Structure prediction by ZEFSAII (Michael W. Deem and Ramdas Pophale) SiO2 
 PCOD9251468
Probable space group: P 21/C
;
_chemical_formula_sum "Si O2"
_cell_formula_units_Z 32
_cell_length_a 11.174949
_cell_length_b 12.572731
_cell_length_c 11.699825
_cell_angle_alpha 90.000000
_cell_angle_beta 112.328199
_cell_angle_gamma 90.000000
_cell_volume 1520.572041
_symmetry_space_group_name_H-M "P 21/C"
_symmetry_group_IT_number 14
_symmetry_cell_setting 'monoclinic'
loop_
_space_group_symop_operation_xyz
x,y,z
-x,1/2+y,1/2-z
-x,-y,-z
x,1/2-y,1/2+z
loop_
_atom_site_type_symbol
_atom_site_label
_atom_site_fract_x
_atom_site_fract_y
_atom_site_fract_z
Si Si1 0.365164 0.385560 0.127809
Si Si2 0.875835 0.478516 0.302516
Si Si3 0.462647 0.598444 0.121558
Si Si4 0.675576 0.899528 0.119995
Si Si5 0.261938 0.333423 0.872887
Si Si6 0.841182 0.068484 0.049285
Si Si7 0.763430 0.294704 0.103747
Si Si8 0.526111 0.181308 0.128347
O O1 0.462077 0.471789 0.108240
O O2 0.335926 0.408204 0.248068
O O3 0.428684 0.271414 0.138128
O O4 0.247211 0.380142 0.995525
O O5 0.813363 0.589284 0.238370
O O6 0.819706 0.445571 0.405874
O O7 0.843920 0.384320 0.200989
O O8 0.025862 0.507654 0.372592
O O9 0.587978 0.653594 0.113137
O O10 0.461418 0.609272 0.257112
O O11 0.331287 0.647905 0.022438
O O12 0.762667 0.792462 0.134269
O O13 0.734730 0.003681 0.083017
O O14 0.541457 0.873428 0.005129
O O15 0.841041 0.194113 0.079640
O O16 0.660313 0.237694 0.149467
#
# Coordination Sequence:
#
# PCOD9251468 Si02
#       8
#     4   4   4   4   4   4   4   4
#     4  11  21  38  59  99 135 173 224 273 336 411
#     4  11  26  49  72  94 136 185 232 286 336 399
#     4  12  21  37  65  98 132 173 223 273 347 403
#     4  11  24  42  64 102 138 174 229 277 344 407
#     4  11  22  41  67  97 132 184 221 276 343 408
#     4  11  28  47  70 101 134 184 229 287 339 398
#     4  12  23  44  67 103 134 173 228 278 344 414
#     4  11  22  37  64  99 140 176 210 280 345 404
#
# _framework density 21.044711
#
# number of rings (size 3 to 8) (size 9 to 14) (size 15 to 20)
#    0.000    0.750    5.000    3.375    3.500    4.000 
#    0.000    0.625    0.000    0.000    0.000    0.000 
#    0.000    0.000    0.000    0.000    0.000    0.000 
#
# Total GULP energy -178694.592400 kJ/mol
# GULP energy per Si atom -5584.206012 kJ/mol
# Density = 2.099681 g / cm^3
# Si number density = 21.044711 Si / 1000 Ang^3
#
#
#
# Elastic Constant Matrix: (Units=GPa)
#
#
# Indices 1 2 3 4 5 6 
#
# 1 36.1372 8.4047 24.6173 0.0000 -2.8190 0.0000
# 2 8.4047 118.9857 37.2856 0.0000 7.3770 0.0000
# 3 24.6173 37.2856 125.6911 0.0000 -12.8060 0.0000
# 4 0.0000 0.0000 0.0000 36.7475 0.0000 -1.7681
# 5 -2.8190 7.3770 -12.8060 0.0000 24.1201 0.0000
# 6 0.0000 0.0000 0.0000 -1.7681 0.0000 23.6326
#
#
#
# Elastic Compliance Matrix: (Units=1/GPa)
#
#
# Indices 1 2 3 4 5 6 
#
# 1 0.031953 -0.000391 -0.006078 0.000000 0.000627 0.000000
# 2 -0.000391 0.009766 -0.003308 0.000000 -0.004789 0.000000
# 3 -0.006078 -0.003308 0.010739 0.000000 0.006003 0.000000
# 4 0.000000 0.000000 0.000000 0.027311 0.000000 0.002043
# 5 0.000627 -0.004789 0.006003 0.000000 0.046184 0.000000
# 6 0.000000 0.000000 0.000000 0.002043 0.000000 0.042467
#
#
# Mechanical properties :
#
#
# Convention : Reuss Voigt Hill
#
# Bulk Modulus (GPa) = 30.39273 46.82546 38.60910
# Shear Modulus (GPa) = 25.13278 30.93381 28.03330
#
# Velocity S-wave (km/s) = 3.45955 3.83810 3.65373
# Velocity P-wave (km/s) = 5.51646 6.47612 6.01546
#
# Compressibility (1/GPa) = 0.03290260
#
# Stress axis : x y z
#
# Youngs Moduli (GPa) = 31.29616 102.40050 93.11450
#
# Poissons Ratio (x) = 0.04006 0.56597
# Poissons Ratio (y) = 0.01224 0.30804
# Poissons Ratio (z) = 0.19022 0.33876
#
# Static dielectric constant tensor:
#      x y z
#    x 1.747970 0.000000 0.010920 
#    y 0.000000 1.807910 0.000000 
#    z 0.010920 0.000000 1.797720 
# 
# From -- ./inp_files/29379.got.cif
#   From: 2010.05.17/outbox.cif.g08.bks.cpg/sg14_15_cif.got.tgz:29379.got - 2010.06.03 17:49:19.
