data_PCOD9251563
_publ_section_title
;
Structure prediction by ZEFSAII (Michael W. Deem and Ramdas Pophale) SiO2 
 PCOD9251563
Probable space group: P 21/C
;
_chemical_formula_sum "Si O2"
_cell_formula_units_Z 24
_cell_length_a 8.246653
_cell_length_b 9.952087
_cell_length_c 14.523556
_cell_angle_alpha 90.000000
_cell_angle_beta 90.502234
_cell_angle_gamma 90.000000
_cell_volume 1191.922899
_symmetry_space_group_name_H-M "P 21/C"
_symmetry_group_IT_number 14
_symmetry_cell_setting 'monoclinic'
loop_
_space_group_symop_operation_xyz
x,y,z
-x,1/2+y,1/2-z
-x,-y,-z
x,1/2-y,1/2+z
loop_
_atom_site_type_symbol
_atom_site_label
_atom_site_fract_x
_atom_site_fract_y
_atom_site_fract_z
Si Si1 0.383182 0.245486 0.785329
Si Si2 0.813012 0.992755 0.277315
Si Si3 0.173537 0.488699 0.842478
Si Si4 0.324802 0.770655 0.846088
Si Si5 0.331232 0.424850 0.027123
Si Si6 0.498592 0.660555 0.518257
O O1 0.312226 0.393663 0.799855
O O2 0.501024 0.241378 0.699040
O O3 0.488194 0.193142 0.873365
O O4 0.227996 0.149589 0.770568
O O5 0.739517 0.101214 0.207995
O O6 0.721729 0.980294 0.374650
O O7 0.996953 0.031299 0.300009
O O8 0.215270 0.643180 0.827503
O O9 0.195061 0.459367 0.950950
O O10 0.346781 0.792508 0.955355
O O11 0.500000 0.500000 0.000000
O O12 0.361740 0.263538 0.018856
O O13 0.500000 0.500000 0.500000
#
# Coordination Sequence:
#
# PCOD9251563 Si02
#       6
#     4   4   4   4   4   4
#     4  11  23  41  66  91 126 168 219 262 310 391
#     4  12  23  41  63  94 131 167 207 273 329 368
#     4  11  25  40  62  95 129 165 212 272 326 370
#     4  12  23  41  67  90 125 172 216 261 310 389
#     4  11  21  42  65  91 121 169 223 260 307 390
#     4  11  22  38  64  96 119 159 222 265 299 368
#
# _framework density 20.135531
#
# number of rings (size 3 to 8) (size 9 to 14) (size 15 to 20)
#    0.000    0.667    5.000    4.500    0.000    0.000 
#    0.000    0.000    0.000    3.000    0.000    0.000 
#    0.000    0.000    0.000    0.000    0.000    0.000 
#
# Total GULP energy -133902.893214 kJ/mol
# GULP energy per Si atom -5579.287217 kJ/mol
# Density = 2.008970 g / cm^3
# Si number density = 20.135531 Si / 1000 Ang^3
#
#
#
# Elastic Constant Matrix: (Units=GPa)
#
#
# Indices 1 2 3 4 5 6 
#
# 1 55.4083 -0.3794 10.4852 0.0000 19.8115 0.0000
# 2 -0.3794 81.8548 -13.9510 0.0000 4.6831 0.0000
# 3 10.4852 -13.9510 92.0231 0.0000 17.5971 0.0000
# 4 0.0000 0.0000 0.0000 21.1106 0.0000 7.2314
# 5 19.8115 4.6831 17.5971 0.0000 30.4164 0.0000
# 6 0.0000 0.0000 0.0000 7.2314 0.0000 26.1016
#
#
#
# Elastic Compliance Matrix: (Units=1/GPa)
#
#
# Indices 1 2 3 4 5 6 
#
# 1 0.023628 0.001103 0.000506 0.000000 -0.015852 0.000000
# 2 0.001103 0.012914 0.002642 0.000000 -0.004235 0.000000
# 3 0.000506 0.002642 0.012762 0.000000 -0.008120 0.000000
# 4 0.000000 0.000000 0.000000 0.052336 0.000000 -0.014500
# 5 -0.015852 -0.004235 -0.008120 0.000000 0.048552 0.000000
# 6 0.000000 0.000000 0.000000 -0.014500 0.000000 0.042329
#
#
# Mechanical properties :
#
#
# Convention : Reuss Voigt Hill
#
# Bulk Modulus (GPa) = 17.29888 24.62176 20.96032
# Shear Modulus (GPa) = 24.59556 31.06782 27.83169
#
# Velocity S-wave (km/s) = 3.49879 3.93228 3.72185
# Velocity P-wave (km/s) = 4.99319 5.73338 5.37604
#
# Compressibility (1/GPa) = 0.05780722
#
# Stress axis : x y z
#
# Youngs Moduli (GPa) = 42.32326 77.43239 78.35471
#
# Poissons Ratio (x) = -0.08539 -0.03968
# Poissons Ratio (y) = -0.04667 -0.20702
# Poissons Ratio (z) = -0.02143 -0.20459
#
# Static dielectric constant tensor:
#      x y z
#    x 1.677000 0.000000 0.018830 
#    y 0.000000 1.722290 0.000000 
#    z 0.018830 0.000000 1.747140 
# 
# From -- ./inp_files/39065.got.cif
#   From: 2010.05.17/outbox.cif.g08.bks.cpg/sg14_20_cif.got.tgz:39065.got - 2010.06.03 17:49:19.
