data_PCOD9251083
_publ_section_title
;
Structure prediction by ZEFSAII (Michael W. Deem and Ramdas Pophale) SiO2 
 PCOD9251083
Probable space group: P 21/C
;
_chemical_formula_sum "Si O2"
_cell_formula_units_Z 26
_cell_length_a 21.889428
_cell_length_b 9.288223
_cell_length_c 10.284960
_cell_angle_alpha 90.000000
_cell_angle_beta 153.479786
_cell_angle_gamma 90.000000
_cell_volume 933.693351
_symmetry_space_group_name_H-M "P 21/C"
_symmetry_group_IT_number 14
_symmetry_cell_setting 'monoclinic'
loop_
_space_group_symop_operation_xyz
x,y,z
-x,1/2+y,1/2-z
-x,-y,-z
x,1/2-y,1/2+z
loop_
_atom_site_type_symbol
_atom_site_label
_atom_site_fract_x
_atom_site_fract_y
_atom_site_fract_z
Si Si1 0.184899 0.063016 0.630339
Si Si2 0.271856 0.837989 0.177320
Si Si3 0.565132 0.872774 0.706246
Si Si4 0.000000 0.500000 0.500000
Si Si5 0.879359 0.211174 0.363342
Si Si6 0.645051 0.922905 0.289340
Si Si7 0.176977 0.102715 0.117975
O O1 0.327764 0.073987 0.983724
O O2 0.234616 0.019433 0.577400
O O3 0.144431 0.230134 0.541530
O O4 0.095294 0.955688 0.549318
O O5 0.428487 0.809184 0.513068
O O6 0.181399 0.767733 0.116923
O O7 0.226483 0.005843 0.093500
O O8 0.239984 0.784166 0.972762
O O9 0.622777 0.746522 0.724506
O O10 0.500000 0.000000 0.500000
O O11 0.011526 0.680809 0.491859
O O12 0.051227 0.470034 0.451973
O O13 0.703561 0.924242 0.546485
O O14 0.500000 0.000000 0.000000
#
# Coordination Sequence:
#
# PCOD9251083 Si02
#       7
#     4   4   4   2   4   4   4
#     4  11  24  41  69 108 146 195 243 303 377 450
#     4  11  24  44  72 106 152 196 245 307 370 456
#     4  11  22  38  65 106 154 198 243 294 367 459
#     4  10  26  52  70  98 136 192 252 326 360 448
#     4  11  26  47  75 105 143 197 252 309 386 430
#     4  11  24  39  69 107 149 192 240 300 373 455
#     4  10  25  47  69 103 149 183 252 311 367 445
#
# _framework density 27.846402000000001
#
# number of rings (size 3 to 8) (size 9 to 14) (size 15 to 20)
#    0.000    1.231    1.538    2.769   12.923    3.077 
#    5.538    0.000    0.000    0.000    0.000    0.000 
#    0.000    0.000    0.000    0.000    0.000    0.000 
#
# Total GULP energy -145265.617566 kJ/mol
# GULP energy per Si atom -5587.139137 kJ/mol
# Density = 2.778302 g / cm^3
# Si number density = 27.846402 Si / 1000 Ang^3
#
#
#
# Elastic Constant Matrix: (Units=GPa)
#
#
# Indices 1 2 3 4 5 6 
#
# 1 68.3778 23.4213 5.9502 0.0000 14.6645 0.0000
# 2 23.4213 158.8944 -0.2462 0.0000 7.5011 0.0000
# 3 5.9502 -0.2462 78.4004 0.0000 -5.4094 0.0000
# 4 0.0000 0.0000 0.0000 30.6074 0.0000 14.0543
# 5 14.6645 7.5011 -5.4094 0.0000 50.3093 0.0000
# 6 0.0000 0.0000 0.0000 14.0543 0.0000 56.3475
#
#
#
# Elastic Compliance Matrix: (Units=1/GPa)
#
#
# Indices 1 2 3 4 5 6 
#
# 1 0.016520 -0.002218 -0.001582 0.000000 -0.004655 0.000000
# 2 -0.002218 0.006636 0.000167 0.000000 -0.000325 0.000000
# 3 -0.001582 0.000167 0.013002 0.000000 0.001834 0.000000
# 4 0.000000 0.000000 0.000000 0.036898 0.000000 -0.009203
# 5 -0.004655 -0.000325 0.001834 0.000000 0.021480 0.000000
# 6 0.000000 0.000000 0.000000 -0.009203 0.000000 0.020042
#
#
# Mechanical properties :
#
#
# Convention : Reuss Voigt Hill
#
# Bulk Modulus (GPa) = 34.61120 40.43592 37.52356
# Shear Modulus (GPa) = 38.03002 45.88930 41.95966
#
# Velocity S-wave (km/s) = 3.69956 4.06389 3.88600
# Velocity P-wave (km/s) = 5.54123 6.04755 5.79992
#
# Compressibility (1/GPa) = 0.02889238
#
# Stress axis : x y z
#
# Youngs Moduli (GPa) = 60.53176 150.69312 76.91014
#
# Poissons Ratio (x) = 0.33421 0.12167
# Poissons Ratio (y) = 0.13425 -0.01282
# Poissons Ratio (z) = 0.09576 -0.02513
#
# Static dielectric constant tensor:
#      x y z
#    x 2.070210 0.000000 0.031980 
#    y 0.000000 2.244770 0.000000 
#    z 0.031980 0.000000 1.639820 
# 
# From -- ./inp_files/35794.got.cif
#   From: 2010.05.17/outbox.cif.g08.bks.cpg/sg14_18_cif.got.tgz:35794.got - 2010.06.03 17:49:19.
