data_PCOD9251693
_publ_section_title
;
Structure prediction by ZEFSAII (Michael W. Deem and Ramdas Pophale) SiO2 
 PCOD9251693
Probable space group: P 21/C
;
_chemical_formula_sum "Si O2"
_cell_formula_units_Z 32
_cell_length_a 11.461651
_cell_length_b 8.939106
_cell_length_c 28.834520
_cell_angle_alpha 90.000000
_cell_angle_beta 150.040952
_cell_angle_gamma 90.000000
_cell_volume 1475.318902
_symmetry_space_group_name_H-M "P 21/C"
_symmetry_group_IT_number 14
_symmetry_cell_setting 'monoclinic'
loop_
_space_group_symop_operation_xyz
x,y,z
-x,1/2+y,1/2-z
-x,-y,-z
x,1/2-y,1/2+z
loop_
_atom_site_type_symbol
_atom_site_label
_atom_site_fract_x
_atom_site_fract_y
_atom_site_fract_z
Si Si1 0.010209 0.417250 0.079741
Si Si2 0.129459 0.530449 0.613981
Si Si3 0.877568 0.703440 0.980228
Si Si4 0.959054 0.550524 0.266471
Si Si5 0.795678 0.321418 0.559641
Si Si6 0.326510 0.157754 0.848802
Si Si7 0.668795 0.313875 0.226560
Si Si8 0.584732 0.983550 0.215178
O O1 0.830484 0.349065 0.054886
O O2 0.004210 0.331280 0.028552
O O3 0.258071 0.408874 0.190914
O O4 0.965554 0.586078 0.048939
O O5 0.044526 0.363271 0.474155
O O6 0.262398 0.625137 0.699314
O O7 0.336116 0.474293 0.651881
O O8 0.975998 0.409302 0.588079
O O9 0.604153 0.672481 0.879402
O O10 0.118218 0.636892 0.359620
O O11 0.127423 0.465239 0.289175
O O12 0.786572 0.677611 0.187716
O O13 0.815487 0.417476 0.242221
O O14 0.531879 0.364260 0.456813
O O15 0.432386 0.128008 0.834148
O O16 0.708467 0.135948 0.240892
#
# Coordination Sequence:
#
# PCOD9251693 Si02
#       8
#     4   4   4   4   4   4   4   4
#     4  11  22  38  64  97 136 176 219 269 331 399
#     4  11  24  38  66 101 134 181 217 270 331 401
#     4  11  22  39  62  97 136 176 222 266 327 396
#     4  11  26  47  72  99 128 176 228 284 336 399
#     4  11  24  45  69 101 138 174 225 274 337 406
#     4  12  25  46  72  96 132 175 225 282 342 391
#     4  11  23  41  64  93 136 171 222 273 328 395
#     4  12  23  41  66  97 139 182 219 276 334 397
#
# _framework density 21.690224000000001
#
# number of rings (size 3 to 8) (size 9 to 14) (size 15 to 20)
#    0.000    0.750    3.750    4.125    0.000    2.500 
#    0.000    0.625    0.000    0.000    0.000    0.000 
#    0.000    0.000    0.000    0.000    0.000    0.000 
#
# Total GULP energy -178957.283144 kJ/mol
# GULP energy per Si atom -5592.415098 kJ/mol
# Density = 2.164086 g / cm^3
# Si number density = 21.690224 Si / 1000 Ang^3
#
#
#
# Elastic Constant Matrix: (Units=GPa)
#
#
# Indices 1 2 3 4 5 6 
#
# 1 61.3049 18.8738 14.9594 0.0000 8.6068 0.0000
# 2 18.8738 52.7715 -2.0071 0.0000 0.1717 0.0000
# 3 14.9594 -2.0071 108.6266 0.0000 0.5329 0.0000
# 4 0.0000 0.0000 0.0000 36.0606 0.0000 -1.9682
# 5 8.6068 0.1717 0.5329 0.0000 22.3648 0.0000
# 6 0.0000 0.0000 0.0000 -1.9682 0.0000 30.4586
#
#
#
# Elastic Compliance Matrix: (Units=1/GPa)
#
#
# Indices 1 2 3 4 5 6 
#
# 1 0.020373 -0.007372 -0.002904 0.000000 -0.007715 0.000000
# 2 -0.007372 0.021631 0.001402 0.000000 0.002638 0.000000
# 3 -0.002904 0.001402 0.009627 0.000000 0.000877 0.000000
# 4 0.000000 0.000000 0.000000 0.027829 0.000000 0.001798
# 5 -0.007715 0.002638 0.000877 0.000000 0.047641 0.000000
# 6 0.000000 0.000000 0.000000 0.001798 0.000000 0.032948
#
#
# Mechanical properties :
#
#
# Convention : Reuss Voigt Hill
#
# Bulk Modulus (GPa) = 29.51282 31.81725 30.66503
# Shear Modulus (GPa) = 26.44219 30.50192 28.47206
#
# Velocity S-wave (km/s) = 3.49533 3.75407 3.62701
# Velocity P-wave (km/s) = 5.47045 5.78718 5.63104
#
# Compressibility (1/GPa) = 0.03388358
#
# Stress axis : x y z
#
# Youngs Moduli (GPa) = 49.08416 46.23010 103.87046
#
# Poissons Ratio (x) = 0.34080 0.30164
# Poissons Ratio (y) = 0.36184 -0.14562
# Poissons Ratio (z) = 0.14254 -0.06481
#
# Static dielectric constant tensor:
#      x y z
#    x 1.781980 0.000000 0.002580 
#    y 0.000000 1.811680 0.000000 
#    z 0.002580 0.000000 1.768270 
# 
# From -- ./inp_files/80044.got.cif
#   From: 2010.05.17/outbox.cif.g08.bks.cpg/sg14_41_cif.got.tgz:80044.got - 2010.06.03 17:49:19.
