data_PCOD9251066
_publ_section_title
;
Structure prediction by ZEFSAII (Michael W. Deem and Ramdas Pophale) SiO2 
 PCOD9251066
Probable space group: P 21/C
;
_chemical_formula_sum "Si O2"
_cell_formula_units_Z 20
_cell_length_a 11.420855
_cell_length_b 7.642504
_cell_length_c 9.944902
_cell_angle_alpha 90.000000
_cell_angle_beta 110.522541
_cell_angle_gamma 90.000000
_cell_volume 812.940025
_symmetry_space_group_name_H-M "P 21/C"
_symmetry_group_IT_number 14
_symmetry_cell_setting 'monoclinic'
loop_
_space_group_symop_operation_xyz
x,y,z
-x,1/2+y,1/2-z
-x,-y,-z
x,1/2-y,1/2+z
loop_
_atom_site_type_symbol
_atom_site_label
_atom_site_fract_x
_atom_site_fract_y
_atom_site_fract_z
Si Si1 0.087214 0.583026 0.822565
Si Si2 0.969597 0.760328 0.020228
Si Si3 0.311899 0.277619 0.643350
Si Si4 0.536298 0.104755 0.881199
Si Si5 0.641954 0.039986 0.518373
O O1 0.045205 0.411377 0.889290
O O2 0.013291 0.605547 0.653160
O O3 0.234770 0.590428 0.848791
O O4 0.061442 0.724440 0.932032
O O5 0.835288 0.795116 0.896552
O O6 0.400877 0.158726 0.771208
O O7 0.382593 0.461492 0.665042
O O8 0.317843 0.152979 0.515221
O O9 0.617247 0.282116 0.923101
O O10 0.500000 0.000000 0.000000
O O11 0.500000 0.000000 0.500000
#
# Coordination Sequence:
#
# PCOD9251066 Si02
#       5
#     4   4   4   4   4
#     4  10  25  46  72 105 149 194 250 309 383 457
#     4  10  25  47  72 107 150 199 251 316 373 476
#     4  11  25  44  69 108 147 192 255 309 379 447
#     4  12  25  42  73 103 146 198 243 318 380 448
#     4  11  24  45  70 106 143 189 255 310 372 458
#
# _framework density 24.602060000000002
#
# number of rings (size 3 to 8) (size 9 to 14) (size 15 to 20)
#    0.000    1.200    4.000    0.000    5.600    5.600 
#    0.000    0.000    0.000    0.000    0.000    0.000 
#    0.000    0.000    0.000    0.000    0.000    0.000 
#
# Total GULP energy -111473.027334 kJ/mol
# GULP energy per Si atom -5573.651367 kJ/mol
# Density = 2.454607 g / cm^3
# Si number density = 24.602060 Si / 1000 Ang^3
#
#
#
# Elastic Constant Matrix: (Units=GPa)
#
#
# Indices 1 2 3 4 5 6 
#
# 1 143.7836 37.9350 54.7770 0.0000 13.1974 0.0000
# 2 37.9350 144.1572 29.0890 0.0000 6.8121 0.0000
# 3 54.7770 29.0890 96.4834 0.0000 34.9675 0.0000
# 4 0.0000 0.0000 0.0000 52.2770 0.0000 -2.9096
# 5 13.1974 6.8121 34.9675 0.0000 40.9776 0.0000
# 6 0.0000 0.0000 0.0000 -2.9096 0.0000 26.1402
#
#
#
# Elastic Compliance Matrix: (Units=1/GPa)
#
#
# Indices 1 2 3 4 5 6 
#
# 1 0.009260 -0.001410 -0.005554 0.000000 0.001991 0.000000
# 2 -0.001410 0.007628 -0.001743 0.000000 0.000674 0.000000
# 3 -0.005554 -0.001743 0.019240 0.000000 -0.014340 0.000000
# 4 0.000000 0.000000 0.000000 0.019248 0.000000 0.002142
# 5 0.001991 0.000674 -0.014340 0.000000 0.035887 0.000000
# 6 0.000000 0.000000 0.000000 0.002142 0.000000 0.038494
#
#
# Mechanical properties :
#
#
# Convention : Reuss Voigt Hill
#
# Bulk Modulus (GPa) = 53.43722 69.78066 61.60894
# Shear Modulus (GPa) = 32.59261 41.38718 36.98989
#
# Velocity S-wave (km/s) = 3.64372 4.10599 3.88174
# Velocity P-wave (km/s) = 6.28252 7.13472 6.72214
#
# Compressibility (1/GPa) = 0.01871355
#
# Stress axis : x y z
#
# Youngs Moduli (GPa) = 107.99165 131.09758 51.97465
#
# Poissons Ratio (x) = 0.18487 0.28865
# Poissons Ratio (y) = 0.15229 0.09061
# Poissons Ratio (z) = 0.59976 0.22854
#
# Static dielectric constant tensor:
#      x y z
#    x 2.034540 0.000000 -0.004770 
#    y 0.000000 1.928070 0.000000 
#    z -0.004770 0.000000 2.023260 
# 
# From -- ./inp_files/27881.got.cif
#   From: 2010.05.17/outbox.cif.g08.bks.cpg/sg14_14_cif.got.tgz:27881.got - 2010.06.03 17:49:19.
