data_PCOD9251402
_publ_section_title
;
Structure prediction by ZEFSAII (Michael W. Deem and Ramdas Pophale) SiO2 
 PCOD9251402
Probable space group: P 21/C
;
_chemical_formula_sum "Si O2"
_cell_formula_units_Z 26
_cell_length_a 11.927417
_cell_length_b 7.395526
_cell_length_c 25.865870
_cell_angle_alpha 90.000000
_cell_angle_beta 153.427507
_cell_angle_gamma 90.000000
_cell_volume 1020.634765
_symmetry_space_group_name_H-M "P 21/C"
_symmetry_group_IT_number 14
_symmetry_cell_setting 'monoclinic'
loop_
_space_group_symop_operation_xyz
x,y,z
-x,1/2+y,1/2-z
-x,-y,-z
x,1/2-y,1/2+z
loop_
_atom_site_type_symbol
_atom_site_label
_atom_site_fract_x
_atom_site_fract_y
_atom_site_fract_z
Si Si1 0.366028 0.051168 0.248684
Si Si2 0.657181 0.396187 0.656485
Si Si3 0.926288 0.766360 0.734915
Si Si4 0.853254 0.453150 0.571423
Si Si5 0.308032 0.480382 0.217322
Si Si6 0.254361 0.559170 0.007128
Si Si7 0.500000 0.500000 0.000000
O O1 0.328003 0.267257 0.238103
O O2 0.535351 0.995581 0.366750
O O3 0.090016 0.966262 0.138880
O O4 0.510416 0.017516 0.255323
O O5 0.815491 0.576144 0.707551
O O6 0.382752 0.416776 0.518545
O O7 0.627222 0.403435 0.705412
O O8 0.827783 0.243402 0.700339
O O9 0.039410 0.873983 0.830676
O O10 0.697406 0.866302 0.613238
O O11 0.756484 0.278575 0.499572
O O12 0.015246 0.509340 0.085196
O O13 0.312307 0.500230 0.973105
#
# Coordination Sequence:
#
# PCOD9251402 Si02
#       7
#     4   4   4   4   4   4   2
#     4  11  23  43  70  92 133 180 225 279 332 393
#     4  12  24  43  69  99 139 176 222 279 346 406
#     4  12  23  42  71  98 136 174 220 278 342 403
#     4  11  20  42  65  94 132 180 213 272 345 393
#     4  11  23  43  67  95 131 176 227 276 335 397
#     4  11  20  41  70  93 129 179 224 272 337 397
#     4  12  18  36  72  96 126 174 218 266 338 402
#
# _framework density 25.474343999999999
#
# number of rings (size 3 to 8) (size 9 to 14) (size 15 to 20)
#    0.000    0.615    9.231    0.923    0.000    0.615 
#    2.769    0.000    0.000    0.000    0.000    0.000 
#    0.000    0.000    0.000    0.000    0.000    0.000 
#
# Total GULP energy -145455.165293 kJ/mol
# GULP energy per Si atom -5594.429434 kJ/mol
# Density = 2.541636 g / cm^3
# Si number density = 25.474344 Si / 1000 Ang^3
#
#
#
# Elastic Constant Matrix: (Units=GPa)
#
#
# Indices 1 2 3 4 5 6 
#
# 1 164.9586 2.2875 61.0028 0.0000 20.6374 0.0000
# 2 2.2875 83.3025 36.9863 0.0000 8.4876 0.0000
# 3 61.0028 36.9863 132.9650 0.0000 30.0498 0.0000
# 4 0.0000 0.0000 0.0000 20.0957 0.0000 2.2729
# 5 20.6374 8.4876 30.0498 0.0000 44.0052 0.0000
# 6 0.0000 0.0000 0.0000 2.2729 0.0000 37.9873
#
#
#
# Elastic Compliance Matrix: (Units=1/GPa)
#
#
# Indices 1 2 3 4 5 6 
#
# 1 0.007533 0.001517 -0.003564 0.000000 -0.001392 0.000000
# 2 0.001517 0.014002 -0.004517 0.000000 -0.000328 0.000000
# 3 -0.003564 -0.004517 0.011633 0.000000 -0.005401 0.000000
# 4 0.000000 0.000000 0.000000 0.050101 0.000000 -0.002998
# 5 -0.001392 -0.000328 -0.005401 0.000000 0.027129 0.000000
# 6 0.000000 0.000000 0.000000 -0.002998 0.000000 0.026504
#
#
# Mechanical properties :
#
#
# Convention : Reuss Voigt Hill
#
# Bulk Modulus (GPa) = 49.89712 64.64215 57.26963
# Shear Modulus (GPa) = 31.90651 39.14761 35.52706
#
# Velocity S-wave (km/s) = 3.54290 3.92439 3.73851
# Velocity P-wave (km/s) = 6.03042 6.77974 6.41603
#
# Compressibility (1/GPa) = 0.02004124
#
# Stress axis : x y z
#
# Youngs Moduli (GPa) = 132.74835 71.42040 85.96417
#
# Poissons Ratio (x) = -0.10836 0.30633
# Poissons Ratio (y) = -0.20140 0.38828
# Poissons Ratio (z) = 0.47305 0.32259
#
# Static dielectric constant tensor:
#      x y z
#    x 1.977400 0.000000 0.007810 
#    y 0.000000 4.043190 0.000000 
#    z 0.007810 0.000000 2.043970 
# 
# From -- ./inp_files/73156.got.cif
#   From: 2010.05.17/outbox.cif.g08.bks.cpg/sg14_37_cif.got.tgz:73156.got - 2010.06.03 17:49:19.
