data_PCOD9251850
_publ_section_title
;
Structure prediction by ZEFSAII (Michael W. Deem and Ramdas Pophale) SiO2 
 PCOD9251850
Probable space group: P 21/C
;
_chemical_formula_sum "Si O2"
_cell_formula_units_Z 28
_cell_length_a 10.741902
_cell_length_b 6.607400
_cell_length_c 20.078122
_cell_angle_alpha 90.000000
_cell_angle_beta 116.551008
_cell_angle_gamma 90.000000
_cell_volume 1274.773638
_symmetry_space_group_name_H-M "P 21/C"
_symmetry_group_IT_number 14
_symmetry_cell_setting 'monoclinic'
loop_
_space_group_symop_operation_xyz
x,y,z
-x,1/2+y,1/2-z
-x,-y,-z
x,1/2-y,1/2+z
loop_
_atom_site_type_symbol
_atom_site_label
_atom_site_fract_x
_atom_site_fract_y
_atom_site_fract_z
Si Si1 0.795909 0.620754 0.637066
Si Si2 0.338384 0.034504 0.765131
Si Si3 0.860795 0.119276 0.951017
Si Si4 0.936339 0.128193 0.344585
Si Si5 0.144950 0.796172 0.406660
Si Si6 0.633701 0.622171 0.008147
Si Si7 0.624278 0.799455 0.859510
O O1 0.722705 0.669856 0.689390
O O2 0.828679 0.382522 0.638197
O O3 0.677701 0.667138 0.553065
O O4 0.944650 0.730821 0.659971
O O5 0.360707 0.161422 0.702758
O O6 0.214651 0.873904 0.724061
O O7 0.478870 0.920890 0.820232
O O8 0.906953 0.292418 0.911408
O O9 0.745986 0.967653 0.894255
O O10 0.821533 0.209166 0.012496
O O11 0.000000 0.000000 0.000000
O O12 0.994259 0.898580 0.361865
O O13 0.245677 0.986465 0.430259
O O14 0.500000 0.500000 0.000000
O O15 0.632387 0.663043 0.928758
#
# Coordination Sequence:
#
# PCOD9251850 Si02
#       7
#     4   4   4   4   4   4   4
#     4  11  26  47  73 107 141 191 243 307 358 432
#     4  12  29  46  70 102 156 193 239 292 372 447
#     4  12  21  43  76 103 142 182 243 304 356 422
#     4  11  25  44  71 107 141 194 236 297 365 438
#     4  11  22  44  72 108 137 179 246 301 365 413
#     4  11  25  45  77 103 139 184 247 302 360 429
#     4  12  27  48  70 109 146 198 238 302 371 437
#
# _framework density 21.964683999999998
#
# number of rings (size 3 to 8) (size 9 to 14) (size 15 to 20)
#    0.000    0.571    2.857    4.714    6.000    1.143 
#    2.571    0.000    0.000    0.000    0.000    0.000 
#    0.000    0.000    0.000    0.000    0.000    0.000 
#
# Total GULP energy -156380.274850 kJ/mol
# GULP energy per Si atom -5585.009816 kJ/mol
# Density = 2.191469 g / cm^3
# Si number density = 21.964684 Si / 1000 Ang^3
#
#
#
# Elastic Constant Matrix: (Units=GPa)
#
#
# Indices 1 2 3 4 5 6 
#
# 1 102.7698 22.0733 45.9848 0.0000 8.8525 0.0000
# 2 22.0733 68.7794 15.6444 0.0000 5.1384 0.0000
# 3 45.9848 15.6444 82.0335 0.0000 5.9226 0.0000
# 4 0.0000 0.0000 0.0000 31.3534 0.0000 2.1303
# 5 8.8525 5.1384 5.9226 0.0000 58.8660 0.0000
# 6 0.0000 0.0000 0.0000 2.1303 0.0000 29.7255
#
#
#
# Elastic Compliance Matrix: (Units=1/GPa)
#
#
# Indices 1 2 3 4 5 6 
#
# 1 0.013528 -0.002668 -0.006995 0.000000 -0.001098 0.000000
# 2 -0.002668 0.015789 -0.001455 0.000000 -0.000830 0.000000
# 3 -0.006995 -0.001455 0.016423 0.000000 -0.000473 0.000000
# 4 0.000000 0.000000 0.000000 0.032050 0.000000 -0.002297
# 5 -0.001098 -0.000830 -0.000473 0.000000 0.017273 0.000000
# 6 0.000000 0.000000 0.000000 -0.002297 0.000000 0.033806
#
#
# Mechanical properties :
#
#
# Convention : Reuss Voigt Hill
#
# Bulk Modulus (GPa) = 42.54936 46.77643 44.66290
# Shear Modulus (GPa) = 31.45817 35.31433 33.38625
#
# Velocity S-wave (km/s) = 3.78857 4.01406 3.90294
# Velocity P-wave (km/s) = 6.20898 6.54416 6.37877
#
# Compressibility (1/GPa) = 0.02350212
#
# Stress axis : x y z
#
# Youngs Moduli (GPa) = 73.91943 63.33652 60.88975
#
# Poissons Ratio (x) = 0.16901 0.42594
# Poissons Ratio (y) = 0.19725 0.08861
# Poissons Ratio (z) = 0.51709 0.09217
#
# Static dielectric constant tensor:
#      x y z
#    x 1.801470 0.000000 0.031130 
#    y 0.000000 1.844460 0.000000 
#    z 0.031130 0.000000 1.895490 
# 
# From -- ./inp_files/66566.got.cif
#   From: 2010.05.17/outbox.cif.g08.bks.cpg/sg14_34_cif.got.tgz:66566.got - 2010.06.03 17:49:19.
