data_PCOD9251302
_publ_section_title
;
Structure prediction by ZEFSAII (Michael W. Deem and Ramdas Pophale) SiO2 
 PCOD9251302
Probable space group: P 21/C
;
_chemical_formula_sum "Si O2"
_cell_formula_units_Z 24
_cell_length_a 15.808962
_cell_length_b 6.576683
_cell_length_c 21.764354
_cell_angle_alpha 90.000000
_cell_angle_beta 146.859910
_cell_angle_gamma 90.000000
_cell_volume 1237.073694
_symmetry_space_group_name_H-M "P 21/C"
_symmetry_group_IT_number 14
_symmetry_cell_setting 'monoclinic'
loop_
_space_group_symop_operation_xyz
x,y,z
-x,1/2+y,1/2-z
-x,-y,-z
x,1/2-y,1/2+z
loop_
_atom_site_type_symbol
_atom_site_label
_atom_site_fract_x
_atom_site_fract_y
_atom_site_fract_z
Si Si1 0.569369 0.042047 0.944746
Si Si2 0.669131 0.773316 0.785618
Si Si3 0.602073 0.194191 0.583360
Si Si4 0.136950 0.573056 0.670396
Si Si5 0.159677 0.608269 0.078508
Si Si6 0.216556 0.981000 0.036319
O O1 0.466671 0.203866 0.842571
O O2 0.706774 0.985963 0.982417
O O3 0.480050 0.840561 0.915302
O O4 0.624569 0.161001 0.038581
O O5 0.715991 0.567389 0.847592
O O6 0.805941 0.861328 0.825094
O O7 0.666137 0.934961 0.839630
O O8 0.763665 0.113376 0.708737
O O9 0.500000 0.000000 0.500000
O O10 0.188277 0.740961 0.652480
O O11 0.952282 0.584546 0.562461
O O12 0.175568 0.747714 0.028236
O O13 0.000000 0.500000 0.000000
#
# Coordination Sequence:
#
# PCOD9251302 Si02
#       6
#     4   4   4   4   4   4
#     4  11  26  43  62  95 125 166 218 262 321 376
#     4  11  21  38  65  91 128 165 202 253 322 388
#     4  11  24  46  66  80 124 181 218 256 315 389
#     4  11  21  41  64  91 124 168 216 251 307 387
#     4  11  19  38  63  92 128 167 195 250 328 380
#     4  11  25  38  62 104 129 153 216 272 316 375
#
# _framework density 19.400623
#
# number of rings (size 3 to 8) (size 9 to 14) (size 15 to 20)
#    0.000    1.000    6.667    1.000    2.333    1.333 
#    3.000    0.000    0.000    0.000    0.000    0.000 
#    0.000    0.000    0.000    0.000    0.000    0.000 
#
# Total GULP energy -133763.025521 kJ/mol
# GULP energy per Si atom -5573.459397 kJ/mol
# Density = 1.935647 g / cm^3
# Si number density = 19.400623 Si / 1000 Ang^3
#
#
#
# Elastic Constant Matrix: (Units=GPa)
#
#
# Indices 1 2 3 4 5 6 
#
# 1 99.6038 22.9942 13.0234 0.0000 -8.2453 0.0000
# 2 22.9942 84.1188 21.1580 0.0000 -5.6834 0.0000
# 3 13.0234 21.1580 72.8966 0.0000 -10.7818 0.0000
# 4 0.0000 0.0000 0.0000 32.2428 0.0000 -3.3266
# 5 -8.2453 -5.6834 -10.7818 0.0000 17.1847 0.0000
# 6 0.0000 0.0000 0.0000 -3.3266 0.0000 12.7937
#
#
#
# Elastic Compliance Matrix: (Units=1/GPa)
#
#
# Indices 1 2 3 4 5 6 
#
# 1 0.011055 -0.002591 -0.000623 0.000000 0.004057 0.000000
# 2 -0.002591 0.013501 -0.003284 0.000000 0.001161 0.000000
# 3 -0.000623 -0.003284 0.016069 0.000000 0.008697 0.000000
# 4 0.000000 0.000000 0.000000 0.031870 0.000000 0.008287
# 5 0.004057 0.001161 0.008697 0.000000 0.065978 0.000000
# 6 0.000000 0.000000 0.000000 0.008287 0.000000 0.080318
#
#
# Mechanical properties :
#
#
# Convention : Reuss Voigt Hill
#
# Bulk Modulus (GPa) = 36.19430 41.21893 38.70662
# Shear Modulus (GPa) = 20.74719 25.74047 23.24383
#
# Velocity S-wave (km/s) = 3.27373 3.64646 3.46511
# Velocity P-wave (km/s) = 5.74339 6.24669 6.00032
#
# Compressibility (1/GPa) = 0.02762866
#
# Stress axis : x y z
#
# Youngs Moduli (GPa) = 90.45488 74.07019 62.23250
#
# Poissons Ratio (x) = 0.19193 0.03877
# Poissons Ratio (y) = 0.23439 0.20436
# Poissons Ratio (z) = 0.05635 0.24323
#
# Static dielectric constant tensor:
#      x y z
#    x 1.664660 0.000000 0.014870 
#    y 0.000000 1.721260 0.000000 
#    z 0.014870 0.000000 1.716390 
# 
# From -- ./inp_files/67912.got.cif
#   From: 2010.05.17/outbox.cif.g08.bks.cpg/sg14_34_cif.got.tgz:67912.got - 2010.06.03 17:49:19.
