data_PCOD9251910
_publ_section_title
;
Structure prediction by ZEFSAII (Michael W. Deem and Ramdas Pophale) SiO2 
 PCOD9251910
Probable space group: P 21/C
;
_chemical_formula_sum "Si O2"
_cell_formula_units_Z 28
_cell_length_a 9.219134
_cell_length_b 23.623234
_cell_length_c 9.297912
_cell_angle_alpha 90.000000
_cell_angle_beta 148.460434
_cell_angle_gamma 90.000000
_cell_volume 1059.226980
_symmetry_space_group_name_H-M "P 21/C"
_symmetry_group_IT_number 14
_symmetry_cell_setting 'monoclinic'
loop_
_space_group_symop_operation_xyz
x,y,z
-x,1/2+y,1/2-z
-x,-y,-z
x,1/2-y,1/2+z
loop_
_atom_site_type_symbol
_atom_site_label
_atom_site_fract_x
_atom_site_fract_y
_atom_site_fract_z
Si Si1 0.789800 0.242873 0.784161
Si Si2 0.011268 0.177987 0.713547
Si Si3 0.073024 0.587477 0.523009
Si Si4 0.470166 0.854681 0.025259
Si Si5 0.375254 0.350669 0.022663
Si Si6 0.214104 0.567331 0.104618
Si Si7 0.799695 0.976898 0.047023
O O1 0.973894 0.201855 0.840890
O O2 0.705628 0.297367 0.618663
O O3 0.515104 0.209116 0.600962
O O4 0.939206 0.270502 0.045766
O O5 0.802865 0.126800 0.498488
O O6 0.307026 0.154772 0.913156
O O7 0.906998 0.570513 0.524867
O O8 0.386063 0.605054 0.824235
O O9 0.091500 0.533699 0.433851
O O10 0.909756 0.635357 0.296232
O O11 0.631596 0.859188 0.311333
O O12 0.283776 0.908336 0.821960
O O13 0.471168 0.528488 0.277771
O O14 0.937053 0.535765 0.818125
#
# Coordination Sequence:
#
# PCOD9251910 Si02
#       7
#     4   4   4   4   4   4   4
#     4  11  25  42  69 103 140 194 238 291 354 425
#     4  11  24  43  69 104 140 193 235 294 353 429
#     4  11  26  44  75 106 142 183 241 304 360 410
#     4  11  27  44  68 107 147 189 237 295 352 440
#     4  12  27  47  71 108 149 184 239 298 360 417
#     4  11  23  43  73 100 141 187 233 285 357 425
#     4  11  22  47  74 108 137 185 244 299 351 435
#
# _framework density 26.434370999999999
#
# number of rings (size 3 to 8) (size 9 to 14) (size 15 to 20)
#    0.000    0.857    2.857    3.429    8.000    2.286 
#    0.000    4.286    0.000    0.000    0.000    0.000 
#    0.000    0.000    0.000    0.000    0.000    0.000 
#
# Total GULP energy -157082.812424 kJ/mol
# GULP energy per Si atom -5610.100444 kJ/mol
# Density = 2.637420 g / cm^3
# Si number density = 26.434371 Si / 1000 Ang^3
#
#
#
# Elastic Constant Matrix: (Units=GPa)
#
#
# Indices 1 2 3 4 5 6 
#
# 1 100.2458 14.0805 33.6831 0.0000 -10.9838 0.0000
# 2 14.0805 57.8587 29.6165 0.0000 -3.9125 0.0000
# 3 33.6831 29.6165 107.8787 0.0000 -5.6866 0.0000
# 4 0.0000 0.0000 0.0000 46.4242 0.0000 -0.0784
# 5 -10.9838 -3.9125 -5.6866 0.0000 48.4358 0.0000
# 6 0.0000 0.0000 0.0000 -0.0784 0.0000 39.2966
#
#
#
# Elastic Compliance Matrix: (Units=1/GPa)
#
#
# Indices 1 2 3 4 5 6 
#
# 1 0.011418 -0.001009 -0.003176 0.000000 0.002135 0.000000
# 2 -0.001009 0.020245 -0.005201 0.000000 0.000796 0.000000
# 3 -0.003176 -0.005201 0.011701 0.000000 0.000234 0.000000
# 4 0.000000 0.000000 0.000000 0.021541 0.000000 0.000043
# 5 0.002135 0.000796 0.000234 0.000000 0.021222 0.000000
# 6 0.000000 0.000000 0.000000 0.000043 0.000000 0.025448
#
#
# Mechanical properties :
#
#
# Convention : Reuss Voigt Hill
#
# Bulk Modulus (GPa) = 40.66091 46.74928 43.70510
# Shear Modulus (GPa) = 36.08979 39.40487 37.74733
#
# Velocity S-wave (km/s) = 3.69895 3.86511 3.78294
# Velocity P-wave (km/s) = 5.80157 6.13532 5.97078
#
# Compressibility (1/GPa) = 0.02459365
#
# Stress axis : x y z
#
# Youngs Moduli (GPa) = 87.58007 49.39459 85.46003
#
# Poissons Ratio (x) = 0.04983 0.27139
# Poissons Ratio (y) = 0.08835 0.44448
# Poissons Ratio (z) = 0.27812 0.25690
#
# Static dielectric constant tensor:
#      x y z
#    x 2.044480 0.000000 -0.021310 
#    y 0.000000 2.125210 0.000000 
#    z -0.021310 0.000000 1.996300 
# 
# From -- ./inp_files/11203.got.cif
#   From: 2010.05.17/outbox.cif.g08.bks.cpg/sg14_6_cif.got.tgz:11203.got - 2010.06.03 17:49:19.
