data_PCOD9251657
_publ_section_title
;
Structure prediction by ZEFSAII (Michael W. Deem and Ramdas Pophale) SiO2 
 PCOD9251657
Probable space group: P 21/C
;
_chemical_formula_sum "Si O2"
_cell_formula_units_Z 24
_cell_length_a 13.971608
_cell_length_b 11.948683
_cell_length_c 16.598920
_cell_angle_alpha 90.000000
_cell_angle_beta 24.801410
_cell_angle_gamma 90.000000
_cell_volume 1162.389686
_symmetry_space_group_name_H-M "P 21/C"
_symmetry_group_IT_number 14
_symmetry_cell_setting 'monoclinic'
loop_
_space_group_symop_operation_xyz
x,y,z
-x,1/2+y,1/2-z
-x,-y,-z
x,1/2-y,1/2+z
loop_
_atom_site_type_symbol
_atom_site_label
_atom_site_fract_x
_atom_site_fract_y
_atom_site_fract_z
Si Si1 0.761014 0.530548 0.639788
Si Si2 0.253892 0.353716 0.513358
Si Si3 0.763623 0.543801 0.299854
Si Si4 0.413493 0.697712 0.171871
Si Si5 0.890043 0.195379 0.719000
Si Si6 0.598750 0.743494 0.862010
O O1 0.773670 0.556090 0.535708
O O2 0.604940 0.422204 0.774426
O O3 0.662357 0.643383 0.755352
O O4 0.000000 0.500000 0.500000
O O5 0.187844 0.407518 0.648759
O O6 0.502944 0.298544 0.335529
O O7 0.097507 0.249718 0.606596
O O8 0.500000 0.500000 0.500000
O O9 0.911852 0.433014 0.176390
O O10 0.762386 0.648273 0.239632
O O11 0.178465 0.732446 0.307404
O O12 0.587896 0.696397 0.962430
O O13 0.661368 0.211662 0.948901
#
# Coordination Sequence:
#
# PCOD9251657 Si02
#       6
#     4   4   4   4   4   4
#     4  12  22  38  61  89 129 158 198 253 300 352
#     4  11  22  36  62  95 114 162 200 244 316 343
#     4   9  18  39  62  81 117 156 201 247 286 359
#     4   9  21  40  58  84 124 154 204 248 286 363
#     4   9  19  39  63  83 117 156 204 245 293 354
#     4   8  19  37  61  82 115 160 198 240 298 349
#
# _framework density 20.647120000000001
#
# number of rings (size 3 to 8) (size 9 to 14) (size 15 to 20)
#    1.000    1.333    3.333    0.500    0.000    6.667 
#    0.000    2.500    0.000    0.000    0.000    0.000 
#    0.000    0.000    0.000    0.000    0.000    0.000 
#
# Total GULP energy -133679.814583 kJ/mol
# GULP energy per Si atom -5569.992274 kJ/mol
# Density = 2.060013 g / cm^3
# Si number density = 20.647120 Si / 1000 Ang^3
#
#
#
# Elastic Constant Matrix: (Units=GPa)
#
#
# Indices 1 2 3 4 5 6 
#
# 1 69.5988 -4.2687 -8.0412 0.0000 -7.5350 0.0000
# 2 -4.2687 102.2076 -3.1439 0.0000 6.0117 0.0000
# 3 -8.0412 -3.1439 16.6954 0.0000 0.3818 0.0000
# 4 0.0000 0.0000 0.0000 26.0845 0.0000 -10.4277
# 5 -7.5350 6.0117 0.3818 0.0000 14.1097 0.0000
# 6 0.0000 0.0000 0.0000 -10.4277 0.0000 36.1797
#
#
#
# Elastic Compliance Matrix: (Units=1/GPa)
#
#
# Indices 1 2 3 4 5 6 
#
# 1 0.016175 0.000427 0.007682 0.000000 0.008248 0.000000
# 2 0.000427 0.010113 0.002205 0.000000 -0.004141 0.000000
# 3 0.007682 0.002205 0.063979 0.000000 0.001432 0.000000
# 4 0.000000 0.000000 0.000000 0.043329 0.000000 0.012488
# 5 0.008248 -0.004141 0.001432 0.000000 0.077003 0.000000
# 6 0.000000 0.000000 0.000000 0.012488 0.000000 0.031239
#
#
# Mechanical properties :
#
#
# Convention : Reuss Voigt Hill
#
# Bulk Modulus (GPa) = 9.01759 17.51045 13.26402
# Shear Modulus (GPa) = 19.36658 28.87183 24.11921
#
# Velocity S-wave (km/s) = 3.06597 3.74350 3.42155
# Velocity P-wave (km/s) = 4.11224 5.21386 4.69547
#
# Compressibility (1/GPa) = 0.11089433
#
# Stress axis : x y z
#
# Youngs Moduli (GPa) = 61.82467 98.88074 15.63005
#
# Poissons Ratio (x) = -0.04219 -0.12007
# Poissons Ratio (y) = -0.02638 -0.03446
# Poissons Ratio (z) = -0.47495 -0.21800
#
# Static dielectric constant tensor:
#      x y z
#    x 1.692870 0.000000 -0.040210 
#    y 0.000000 1.742690 0.000000 
#    z -0.040210 0.000000 1.727940 
# 
# From -- ./inp_files/44247.got.cif
#   From: 2010.05.17/outbox.cif.g08.bks.cpg/sg14_23_cif.got.tgz:44247.got - 2010.06.03 17:49:19.
