data_PCOD9251243
_publ_section_title
;
Structure prediction by ZEFSAII (Michael W. Deem and Ramdas Pophale) SiO2 
 PCOD9251243
Probable space group: P 21/C
;
_chemical_formula_sum "Si O2"
_cell_formula_units_Z 32
_cell_length_a 14.319278
_cell_length_b 6.100418
_cell_length_c 19.422280
_cell_angle_alpha 90.000000
_cell_angle_beta 118.937338
_cell_angle_gamma 90.000000
_cell_volume 1484.783473
_symmetry_space_group_name_H-M "P 21/C"
_symmetry_group_IT_number 14
_symmetry_cell_setting 'monoclinic'
loop_
_space_group_symop_operation_xyz
x,y,z
-x,1/2+y,1/2-z
-x,-y,-z
x,1/2-y,1/2+z
loop_
_atom_site_type_symbol
_atom_site_label
_atom_site_fract_x
_atom_site_fract_y
_atom_site_fract_z
Si Si1 0.643520 0.184846 0.226823
Si Si2 0.393525 0.150253 0.895733
Si Si3 0.369311 0.728107 0.036595
Si Si4 0.763690 0.580613 0.265634
Si Si5 0.725398 0.896781 0.912274
Si Si6 0.237807 0.341993 0.943353
Si Si7 0.052472 0.177467 0.268744
Si Si8 0.441300 0.086951 0.682728
O O1 0.751971 0.316127 0.255164
O O2 0.565775 0.368398 0.232703
O O3 0.612528 0.084448 0.143146
O O4 0.624880 0.991549 0.275056
O O5 0.518042 0.193986 0.954890
O O6 0.330474 0.312096 0.817600
O O7 0.321304 0.172814 0.937709
O O8 0.418192 0.583499 0.115769
O O9 0.287242 0.883323 0.048659
O O10 0.300304 0.572414 0.962957
O O11 0.767322 0.608807 0.349712
O O12 0.870527 0.671895 0.270251
O O13 0.603602 0.815924 0.859984
O O14 0.778636 0.723537 0.983105
O O15 0.130212 0.337567 0.862528
O O16 0.996021 0.930295 0.246989
#
# Coordination Sequence:
#
# PCOD9251243 Si02
#       8
#     4   4   4   4   4   4   4   4
#     4  12  20  33  61  94 147 187 250 279 331 404
#     4  11  22  38  61  98 146 198 244 275 335 421
#     4  11  21  38  60  94 151 189 230 278 342 421
#     4  11  24  41  72 103 137 189 248 296 352 434
#     4  11  22  40  62  99 147 188 228 287 348 420
#     4  10  27  43  69 100 142 185 241 297 370 433
#     4  11  29  56  84 107 135 179 244 321 393 448
#     4  11  20  31  52  98 137 195 223 277 326 401
#
# _framework density 21.551964999999999
#
# number of rings (size 3 to 8) (size 9 to 14) (size 15 to 20)
#    0.000    1.000    5.000    1.875    5.250    1.500 
#    0.000    1.250    0.000    0.000    0.000    0.000 
#    0.000    0.000    0.000    0.000    0.000    0.000 
#
# Total GULP energy -178161.513951 kJ/mol
# GULP energy per Si atom -5567.547311 kJ/mol
# Density = 2.150291 g / cm^3
# Si number density = 21.551965 Si / 1000 Ang^3
#
#
#
# Elastic Constant Matrix: (Units=GPa)
#
#
# Indices 1 2 3 4 5 6 
#
# 1 59.5511 29.7369 34.8612 0.0000 2.1902 0.0000
# 2 29.7369 81.4625 31.2062 0.0000 4.2823 0.0000
# 3 34.8612 31.2062 115.3616 0.0000 -7.2249 0.0000
# 4 0.0000 0.0000 0.0000 41.0716 0.0000 -13.1074
# 5 2.1902 4.2823 -7.2249 0.0000 31.4150 0.0000
# 6 0.0000 0.0000 0.0000 -13.1074 0.0000 17.7505
#
#
#
# Elastic Compliance Matrix: (Units=1/GPa)
#
#
# Indices 1 2 3 4 5 6 
#
# 1 0.023180 -0.006275 -0.005433 0.000000 -0.002010 0.000000
# 2 -0.006275 0.015633 -0.002474 0.000000 -0.002263 0.000000
# 3 -0.005433 -0.002474 0.011186 0.000000 0.003289 0.000000
# 4 0.000000 0.000000 0.000000 0.031854 0.000000 0.023522
# 5 -0.002010 -0.002263 0.003289 0.000000 0.033037 0.000000
# 6 0.000000 0.000000 0.000000 0.023522 0.000000 0.073706
#
#
# Mechanical properties :
#
#
# Convention : Reuss Voigt Hill
#
# Bulk Modulus (GPa) = 46.22373 49.77597 47.99985
# Shear Modulus (GPa) = 22.30432 28.75214 25.52823
#
# Velocity S-wave (km/s) = 3.22049 3.65647 3.44539
# Velocity P-wave (km/s) = 5.94331 6.40096 6.17637
#
# Compressibility (1/GPa) = 0.02163391
#
# Stress axis : x y z
#
# Youngs Moduli (GPa) = 43.14036 63.96784 89.40048
#
# Poissons Ratio (x) = 0.40137 0.48575
# Poissons Ratio (y) = 0.27069 0.22121
# Poissons Ratio (z) = 0.23440 0.15828
#
# Static dielectric constant tensor:
#      x y z
#    x 1.794920 0.000000 -0.016300 
#    y 0.000000 1.928100 0.000000 
#    z -0.016300 0.000000 1.778460 
# 
# From -- ./inp_files/58642.got.cif
#   From: 2010.05.17/outbox.cif.g08.bks.cpg/sg14_30_cif.got.tgz:58642.got - 2010.06.03 17:49:19.
