data_PCOD9251697
_publ_section_title
;
Structure prediction by ZEFSAII (Michael W. Deem and Ramdas Pophale) SiO2 
 PCOD9251697
Probable space group: P 21/C
;
_chemical_formula_sum "Si O2"
_cell_formula_units_Z 24
_cell_length_a 6.647063
_cell_length_b 18.884119
_cell_length_c 10.291795
_cell_angle_alpha 90.000000
_cell_angle_beta 73.401503
_cell_angle_gamma 90.000000
_cell_volume 1238.034551
_symmetry_space_group_name_H-M "P 21/C"
_symmetry_group_IT_number 14
_symmetry_cell_setting 'monoclinic'
loop_
_space_group_symop_operation_xyz
x,y,z
-x,1/2+y,1/2-z
-x,-y,-z
x,1/2-y,1/2+z
loop_
_atom_site_type_symbol
_atom_site_label
_atom_site_fract_x
_atom_site_fract_y
_atom_site_fract_z
Si Si1 0.456308 0.981138 0.202966
Si Si2 0.839204 0.805535 0.556104
Si Si3 0.605422 0.377168 0.813242
Si Si4 0.024267 0.189499 0.174621
Si Si5 0.153338 0.567648 0.979432
Si Si6 0.182771 0.456766 0.533537
O O1 0.336985 0.944754 0.342528
O O2 0.534445 0.059687 0.230439
O O3 0.295180 0.992187 0.115444
O O4 0.650957 0.938272 0.109424
O O5 0.603376 0.837143 0.598993
O O6 0.883398 0.741148 0.451232
O O7 0.898217 0.789206 0.695647
O O8 0.001988 0.866322 0.482292
O O9 0.771437 0.321208 0.722819
O O10 0.733260 0.416837 0.904569
O O11 0.107288 0.111284 0.125124
O O12 0.000000 0.500000 0.000000
O O13 0.000000 0.500000 0.500000
#
# Coordination Sequence:
#
# PCOD9251697 Si02
#       6
#     4   4   4   4   4   4
#     4  11  22  38  66  99 126 168 217 269 338 387
#     4  11  26  44  65  95 135 179 222 275 342 399
#     4  11  22  43  68  92 135 170 217 279 334 389
#     4  11  25  45  63  96 134 176 226 277 328 410
#     4  11  23  40  68 101 130 168 224 279 332 397
#     4  11  23  40  66  95 131 174 218 278 330 397
#
# _framework density 19.385566000000001
#
# number of rings (size 3 to 8) (size 9 to 14) (size 15 to 20)
#    0.000    1.000    5.000    1.500    0.000    6.667 
#    0.000    0.000    0.000    0.000    0.000    0.000 
#    0.000    0.000    0.000    0.000    0.000    0.000 
#
# Total GULP energy -134054.205146 kJ/mol
# GULP energy per Si atom -5585.591881 kJ/mol
# Density = 1.934144 g / cm^3
# Si number density = 19.385566 Si / 1000 Ang^3
#
#
#
# Elastic Constant Matrix: (Units=GPa)
#
#
# Indices 1 2 3 4 5 6 
#
# 1 119.9503 26.0630 40.4341 0.0000 -5.0402 0.0000
# 2 26.0630 42.5874 35.6728 0.0000 3.1637 0.0000
# 3 40.4341 35.6728 121.0443 0.0000 -11.9943 0.0000
# 4 0.0000 0.0000 0.0000 49.8233 0.0000 -11.1023
# 5 -5.0402 3.1637 -11.9943 0.0000 28.2877 0.0000
# 6 0.0000 0.0000 0.0000 -11.1023 0.0000 19.5401
#
#
#
# Elastic Compliance Matrix: (Units=1/GPa)
#
#
# Indices 1 2 3 4 5 6 
#
# 1 0.010042 -0.004754 -0.001799 0.000000 0.001558 0.000000
# 2 -0.004754 0.035126 -0.009642 0.000000 -0.008864 0.000000
# 3 -0.001799 -0.009642 0.012296 0.000000 0.005971 0.000000
# 4 0.000000 0.000000 0.000000 0.022980 0.000000 0.013057
# 5 0.001558 -0.008864 0.005971 0.000000 0.039152 0.000000
# 6 0.000000 0.000000 0.000000 0.013057 0.000000 0.058596
#
#
# Mechanical properties :
#
#
# Convention : Reuss Voigt Hill
#
# Bulk Modulus (GPa) = 39.88420 54.21354 47.04887
# Shear Modulus (GPa) = 22.83744 31.62437 27.23091
#
# Velocity S-wave (km/s) = 3.43602 4.04336 3.75200
# Velocity P-wave (km/s) = 6.02996 7.05868 6.56451
#
# Compressibility (1/GPa) = 0.02507258
#
# Stress axis : x y z
#
# Youngs Moduli (GPa) = 99.58513 28.46919 81.33008
#
# Poissons Ratio (x) = 0.13535 0.14630
# Poissons Ratio (y) = 0.47347 0.78418
# Poissons Ratio (z) = 0.17913 0.27450
#
# Static dielectric constant tensor:
#      x y z
#    x 1.696080 0.000000 -0.015840 
#    y 0.000000 1.666570 0.000000 
#    z -0.015840 0.000000 1.706860 
# 
# From -- ./inp_files/21179.got.cif
#   From: 2010.05.17/outbox.cif.g08.bks.cpg/sg14_11_cif.got.tgz:21179.got - 2010.06.03 17:49:19.
