data_PCOD9251277
_publ_section_title
;
Structure prediction by ZEFSAII (Michael W. Deem and Ramdas Pophale) SiO2 
 PCOD9251277
Probable space group: P 21/C
;
_chemical_formula_sum "Si O2"
_cell_formula_units_Z 28
_cell_length_a 15.445112
_cell_length_b 11.047381
_cell_length_c 17.254685
_cell_angle_alpha 90.000000
_cell_angle_beta 26.645249
_cell_angle_gamma 90.000000
_cell_volume 1320.340916
_symmetry_space_group_name_H-M "P 21/C"
_symmetry_group_IT_number 14
_symmetry_cell_setting 'monoclinic'
loop_
_space_group_symop_operation_xyz
x,y,z
-x,1/2+y,1/2-z
-x,-y,-z
x,1/2-y,1/2+z
loop_
_atom_site_type_symbol
_atom_site_label
_atom_site_fract_x
_atom_site_fract_y
_atom_site_fract_z
Si Si1 0.510500 0.260884 0.755146
Si Si2 0.308770 0.697426 0.746675
Si Si3 0.555191 0.570599 0.335874
Si Si4 0.824108 0.325751 0.302583
Si Si5 0.187682 0.345117 0.115136
Si Si6 0.409584 0.903616 0.447692
Si Si7 0.669638 0.721990 0.849759
O O1 0.682940 0.271414 0.679941
O O2 0.486491 0.371983 0.714838
O O3 0.534932 0.144824 0.681222
O O4 0.316807 0.253414 0.960948
O O5 0.357454 0.561083 0.732964
O O6 0.139560 0.691834 0.818203
O O7 0.486788 0.747586 0.552044
O O8 0.350258 0.578390 0.545232
O O9 0.688495 0.665572 0.276519
O O10 0.742500 0.198050 0.400508
O O11 0.998865 0.365956 0.216006
O O12 0.161322 0.300032 0.224325
O O13 0.313965 0.466645 0.022412
O O14 0.594237 0.888859 0.356886
#
# Coordination Sequence:
#
# PCOD9251277 Si02
#       7
#     4   4   4   4   4   4   4
#     4   9  19  32  49  73  98 134 173 197 245 317
#     4   9  16  32  53  71 101 139 169 208 255 307
#     4   9  17  34  52  72 101 137 173 210 252 308
#     4   9  20  32  49  80 103 126 173 217 256 304
#     4  11  19  32  55  78 100 135 173 219 258 291
#     4   9  19  36  50  72 107 134 168 216 256 308
#     4   8  17  30  50  74  96 131 175 203 246 313
#
# _framework density 21.206643
#
# number of rings (size 3 to 8) (size 9 to 14) (size 15 to 20)
#    0.000    3.429    0.000    3.000    0.000    3.429 
#    0.000    8.571    0.000    0.000    0.000   36.000 
#    0.000    0.000    0.000    0.000    0.000    0.000 
#
# Total GULP energy -155986.655745 kJ/mol
# GULP energy per Si atom -5570.951991 kJ/mol
# Density = 2.115838 g / cm^3
# Si number density = 21.206643 Si / 1000 Ang^3
#
#
#
# Elastic Constant Matrix: (Units=GPa)
#
#
# Indices 1 2 3 4 5 6 
#
# 1 202.2481 33.7365 19.6621 0.0000 7.0554 0.0000
# 2 33.7365 72.3562 3.3994 0.0000 2.2752 0.0000
# 3 19.6621 3.3994 20.4365 0.0000 1.5551 0.0000
# 4 0.0000 0.0000 0.0000 8.0086 0.0000 5.9080
# 5 7.0554 2.2752 1.5551 0.0000 26.9793 0.0000
# 6 0.0000 0.0000 0.0000 5.9080 0.0000 23.3941
#
#
#
# Elastic Compliance Matrix: (Units=1/GPa)
#
#
# Indices 1 2 3 4 5 6 
#
# 1 0.005897 -0.002473 -0.005183 0.000000 -0.001035 0.000000
# 2 -0.002473 0.014996 -0.000068 0.000000 -0.000614 0.000000
# 3 -0.005183 -0.000068 0.054064 0.000000 -0.001755 0.000000
# 4 0.000000 0.000000 0.000000 0.153454 0.000000 -0.038754
# 5 -0.001035 -0.000614 -0.001755 0.000000 0.037489 0.000000
# 6 0.000000 0.000000 0.000000 -0.038754 0.000000 0.052533
#
#
# Mechanical properties :
#
#
# Convention : Reuss Voigt Hill
#
# Bulk Modulus (GPa) = 16.80461 45.40409 31.10435
# Shear Modulus (GPa) = 14.13551 27.55926 20.84738
#
# Velocity S-wave (km/s) = 2.58458 3.60885 3.13878
# Velocity P-wave (km/s) = 4.10465 6.23072 5.27589
#
# Compressibility (1/GPa) = 0.05950750
#
# Stress axis : x y z
#
# Youngs Moduli (GPa) = 169.57680 66.68322 18.49658
#
# Poissons Ratio (x) = 0.16494 0.09588
# Poissons Ratio (y) = 0.41944 0.00126
# Poissons Ratio (z) = 0.87899 0.00454
#
# Static dielectric constant tensor:
#      x y z
#    x 1.886250 0.000000 -0.013900 
#    y 0.000000 1.767770 0.000000 
#    z -0.013900 0.000000 1.802660 
# 
# From -- ./inp_files/59267.got.cif
#   From: 2010.05.17/outbox.cif.g08.bks.cpg/sg14_30_cif.got.tgz:59267.got - 2010.06.03 17:49:19.
