data_PCOD9251879
_publ_section_title
;
Structure prediction by ZEFSAII (Michael W. Deem and Ramdas Pophale) SiO2 
 PCOD9251879
Probable space group: P 21/C
;
_chemical_formula_sum "Si O2"
_cell_formula_units_Z 20
_cell_length_a 9.240648
_cell_length_b 10.821005
_cell_length_c 13.766274
_cell_angle_alpha 90.000000
_cell_angle_beta 30.213999
_cell_angle_gamma 90.000000
_cell_volume 692.713906
_symmetry_space_group_name_H-M "P 21/C"
_symmetry_group_IT_number 14
_symmetry_cell_setting 'monoclinic'
loop_
_space_group_symop_operation_xyz
x,y,z
-x,1/2+y,1/2-z
-x,-y,-z
x,1/2-y,1/2+z
loop_
_atom_site_type_symbol
_atom_site_label
_atom_site_fract_x
_atom_site_fract_y
_atom_site_fract_z
Si Si1 0.839759 0.098053 0.831027
Si Si2 0.150070 0.766716 0.915150
Si Si3 0.580696 0.607723 0.772052
Si Si4 0.309263 0.055924 0.263928
Si Si5 0.175364 0.640473 0.185891
O O1 0.806047 0.055945 0.738882
O O2 0.975421 0.978329 0.801431
O O3 0.980650 0.232842 0.760398
O O4 0.530110 0.115403 0.059171
O O5 0.919598 0.870492 0.081675
O O6 0.950962 0.646141 0.058610
O O7 0.244506 0.816218 0.754304
O O8 0.443052 0.727917 0.797995
O O9 0.477146 0.498532 0.759866
O O10 0.428467 0.603326 0.964922
#
# Coordination Sequence:
#
# PCOD9251879 Si02
#       5
#     4   4   4   4   4
#     4  11  23  42  79 105 146 199 259 291 381 455
#     4  12  25  44  73 107 149 193 250 306 371 439
#     4  12  25  44  73 107 149 193 250 306 371 439
#     4  11  22  45  74 103 145 208 254 294 369 471
#     4  12  24  44  74 112 146 194 250 312 366 454
#
# _framework density 28.871946000000001
#
# number of rings (size 3 to 8) (size 9 to 14) (size 15 to 20)
#    0.000    0.400    8.000    1.800    0.000    1.600 
#    0.000    4.000    0.000    9.600    0.000    0.000 
#    0.000    0.000    0.000    0.000    0.000    0.000 
#
# Total GULP energy -112083.445886 kJ/mol
# GULP energy per Si atom -5604.172294 kJ/mol
# Density = 2.880623 g / cm^3
# Si number density = 28.871946 Si / 1000 Ang^3
#
#
#
# Elastic Constant Matrix: (Units=GPa)
#
#
# Indices 1 2 3 4 5 6 
#
# 1 133.1781 62.8056 53.0005 0.0000 25.5330 0.0000
# 2 62.8056 175.9121 26.9733 0.0000 11.1618 0.0000
# 3 53.0005 26.9733 167.9296 0.0000 44.4567 0.0000
# 4 0.0000 0.0000 0.0000 40.6453 0.0000 7.1794
# 5 25.5330 11.1618 44.4567 0.0000 64.8953 0.0000
# 6 0.0000 0.0000 0.0000 7.1794 0.0000 68.2909
#
#
#
# Elastic Compliance Matrix: (Units=1/GPa)
#
#
# Indices 1 2 3 4 5 6 
#
# 1 0.010278 -0.003206 -0.002204 0.000000 -0.001983 0.000000
# 2 -0.003206 0.006838 -0.000133 0.000000 0.000176 0.000000
# 3 -0.002204 -0.000133 0.007862 0.000000 -0.004496 0.000000
# 4 0.000000 0.000000 0.000000 0.025069 0.000000 -0.002635
# 5 -0.001983 0.000176 -0.004496 0.000000 0.019239 0.000000
# 6 0.000000 0.000000 0.000000 -0.002635 0.000000 0.014920
#
#
# Mechanical properties :
#
#
# Convention : Reuss Voigt Hill
#
# Bulk Modulus (GPa) = 71.98324 84.73096 78.35710
# Shear Modulus (GPa) = 50.03847 57.04899 53.54373
#
# Velocity S-wave (km/s) = 4.16759 4.44997 4.31109
# Velocity P-wave (km/s) = 6.93862 7.47086 7.20965
#
# Compressibility (1/GPa) = 0.01389212
#
# Stress axis : x y z
#
# Youngs Moduli (GPa) = 97.29764 146.23228 127.19207
#
# Poissons Ratio (x) = 0.46878 0.28033
# Poissons Ratio (y) = 0.31191 0.01696
# Poissons Ratio (z) = 0.21445 0.01950
#
# Static dielectric constant tensor:
#      x y z
#    x 2.301760 0.000000 0.032010 
#    y 0.000000 2.467930 0.000000 
#    z 0.032010 0.000000 2.120040 
# 
# From -- ./inp_files/44209.got.cif
#   From: 2010.05.17/outbox.cif.g08.bks.cpg/sg14_23_cif.got.tgz:44209.got - 2010.06.03 17:49:19.
