data_PCOD9251942
_publ_section_title
;
Structure prediction by ZEFSAII (Michael W. Deem and Ramdas Pophale) SiO2 
 PCOD9251942
Probable space group: P 21/C
;
_chemical_formula_sum "Si O2"
_cell_formula_units_Z 20
_cell_length_a 17.202304
_cell_length_b 5.161126
_cell_length_c 11.999336
_cell_angle_alpha 90.000000
_cell_angle_beta 131.247683
_cell_angle_gamma 90.000000
_cell_volume 800.993538
_symmetry_space_group_name_H-M "P 21/C"
_symmetry_group_IT_number 14
_symmetry_cell_setting 'monoclinic'
loop_
_space_group_symop_operation_xyz
x,y,z
-x,1/2+y,1/2-z
-x,-y,-z
x,1/2-y,1/2+z
loop_
_atom_site_type_symbol
_atom_site_label
_atom_site_fract_x
_atom_site_fract_y
_atom_site_fract_z
Si Si1 0.324931 0.082954 0.668670
Si Si2 0.849422 0.263871 0.086297
Si Si3 0.593785 0.418151 0.165728
Si Si4 0.949143 0.603997 0.839004
Si Si5 0.804264 0.564863 0.320038
O O1 0.248823 0.955630 0.506467
O O2 0.406449 0.865106 0.781616
O O3 0.382691 0.360093 0.717934
O O4 0.239939 0.153804 0.683638
O O5 0.958404 0.397315 0.162400
O O6 0.862553 0.080320 0.204311
O O7 0.837724 0.078412 0.965293
O O8 0.697763 0.425143 0.188794
O O9 0.500000 0.500000 0.000000
O O10 0.895405 0.875830 0.821446
O O11 0.000000 0.500000 0.000000
#
# Coordination Sequence:
#
# PCOD9251942 Si02
#       5
#     4   4   4   4   4
#     4   9  19  36  58  93 125 162 205 259 328 378
#     4  11  23  39  58  91 130 173 216 271 321 389
#     4   9  17  34  64  97 121 160 212 259 325 396
#     4  12  22  39  60  88 129 174 221 264 316 393
#     4   9  21  38  58  93 126 163 212 262 330 380
#
# _framework density 24.968992
#
# number of rings (size 3 to 8) (size 9 to 14) (size 15 to 20)
#    1.200    0.800    2.000    2.400    0.000    0.000 
#    0.000    0.000    0.000    0.000   31.200    0.000 
#    0.000    0.000    0.000    0.200    0.000    0.000 
#
# Total GULP energy -111593.245680 kJ/mol
# GULP energy per Si atom -5579.662284 kJ/mol
# Density = 2.491216 g / cm^3
# Si number density = 24.968992 Si / 1000 Ang^3
#
#
#
# Elastic Constant Matrix: (Units=GPa)
#
#
# Indices 1 2 3 4 5 6 
#
# 1 53.9543 -0.5334 29.0729 0.0000 -12.2859 0.0000
# 2 -0.5334 121.0342 18.3350 0.0000 -0.3443 0.0000
# 3 29.0729 18.3350 94.5399 0.0000 16.4496 0.0000
# 4 0.0000 0.0000 0.0000 38.8159 0.0000 1.4436
# 5 -12.2859 -0.3443 16.4496 0.0000 37.3705 0.0000
# 6 0.0000 0.0000 0.0000 1.4436 0.0000 22.9933
#
#
#
# Elastic Compliance Matrix: (Units=1/GPa)
#
#
# Indices 1 2 3 4 5 6 
#
# 1 0.027967 0.001898 -0.011448 0.000000 0.014251 0.000000
# 2 0.001898 0.008667 -0.002585 0.000000 0.001842 0.000000
# 3 -0.011448 -0.002585 0.016524 0.000000 -0.011061 0.000000
# 4 0.000000 0.000000 0.000000 0.025823 0.000000 -0.001621
# 5 0.014251 0.001842 -0.011061 0.000000 0.036330 0.000000
# 6 0.000000 0.000000 0.000000 -0.001621 0.000000 0.043593
#
#
# Mechanical properties :
#
#
# Convention : Reuss Voigt Hill
#
# Bulk Modulus (GPa) = 34.61663 40.36415 37.49039
# Shear Modulus (GPa) = 25.93313 34.67951 30.30632
#
# Velocity S-wave (km/s) = 3.22625 3.73084 3.48768
# Velocity P-wave (km/s) = 5.26993 5.89574 5.59160
#
# Compressibility (1/GPa) = 0.02888785
#
# Stress axis : x y z
#
# Youngs Moduli (GPa) = 35.75665 115.37565 60.51803
#
# Poissons Ratio (x) = -0.21899 0.69282
# Poissons Ratio (y) = -0.06787 0.15644
# Poissons Ratio (z) = 0.40935 0.29826
#
# Static dielectric constant tensor:
#      x y z
#    x 2.048000 0.000000 -0.010540 
#    y 0.000000 2.144690 0.000000 
#    z -0.010540 0.000000 1.996170 
# 
# From -- ./inp_files/33427.got.cif
#   From: 2010.05.17/outbox.cif.g08.bks.cpg/sg14_17_cif.got.tgz:33427.got - 2010.06.03 17:49:19.
