data_PCOD9251770
_publ_section_title
;
Structure prediction by ZEFSAII (Michael W. Deem and Ramdas Pophale) SiO2 
 PCOD9251770
Probable space group: P 21/C
;
_chemical_formula_sum "Si O2"
_cell_formula_units_Z 32
_cell_length_a 9.103294
_cell_length_b 11.852145
_cell_length_c 13.960281
_cell_angle_alpha 90.000000
_cell_angle_beta 86.397663
_cell_angle_gamma 90.000000
_cell_volume 1503.248373
_symmetry_space_group_name_H-M "P 21/C"
_symmetry_group_IT_number 14
_symmetry_cell_setting 'monoclinic'
loop_
_space_group_symop_operation_xyz
x,y,z
-x,1/2+y,1/2-z
-x,-y,-z
x,1/2-y,1/2+z
loop_
_atom_site_type_symbol
_atom_site_label
_atom_site_fract_x
_atom_site_fract_y
_atom_site_fract_z
Si Si1 0.601306 0.981989 0.404279
Si Si2 0.534951 0.530991 0.291406
Si Si3 0.136281 0.915825 0.496277
Si Si4 0.731758 0.742514 0.346338
Si Si5 0.759208 0.352611 0.218800
Si Si6 0.229656 0.595687 0.340319
Si Si7 0.984263 0.682556 0.490189
Si Si8 0.075983 0.386555 0.299220
O O1 0.632445 0.848961 0.383979
O O2 0.500000 0.000000 0.500000
O O3 0.528327 0.037894 0.314208
O O4 0.750937 0.041741 0.429886
O O5 0.637561 0.634531 0.318862
O O6 0.630978 0.416740 0.281700
O O7 0.385326 0.537483 0.359718
O O8 0.216824 0.904405 0.389188
O O9 0.063893 0.796280 0.520741
O O10 0.000000 0.000000 0.500000
O O11 0.824278 0.791470 0.253501
O O12 0.852377 0.710423 0.422023
O O13 0.737088 0.218947 0.205307
O O14 0.912657 0.374205 0.265942
O O15 0.114544 0.617969 0.430116
O O16 0.145314 0.508527 0.274764
O O17 0.924122 0.624707 0.586980
#
# Coordination Sequence:
#
# PCOD9251770 Si02
#       8
#     4   4   4   4   4   4   4   4
#     4  12  25  45  72 109 151 193 255 312 377 447
#     4  12  27  44  75 103 156 192 234 310 391 437
#     4  11  22  41  71 105 140 184 253 312 359 424
#     4  12  26  48  71 114 152 194 257 312 363 462
#     4  11  25  46  71 109 145 193 247 307 372 451
#     4  11  25  48  67 106 152 185 248 308 369 454
#     4  11  26  46  74 108 146 196 249 316 368 450
#     4  12  25  46  79 103 148 201 249 306 384 430
#
# _framework density 21.287234999999999
#
# number of rings (size 3 to 8) (size 9 to 14) (size 15 to 20)
#    0.000    0.500    6.250    1.875    7.000    0.000 
#    0.000    2.500    0.000    0.000    0.000    0.000 
#    0.000    0.000    0.000    0.000    0.000    0.000 
#
# Total GULP energy -178944.090885 kJ/mol
# GULP energy per Si atom -5592.002840 kJ/mol
# Density = 2.123878 g / cm^3
# Si number density = 21.287235 Si / 1000 Ang^3
#
#
#
# Elastic Constant Matrix: (Units=GPa)
#
#
# Indices 1 2 3 4 5 6 
#
# 1 112.3861 33.2961 43.1212 0.0000 -12.6103 0.0000
# 2 33.2961 90.7095 55.0043 0.0000 -10.4614 0.0000
# 3 43.1212 55.0043 90.5617 0.0000 -10.7278 0.0000
# 4 0.0000 0.0000 0.0000 24.3335 0.0000 -4.1781
# 5 -12.6103 -10.4614 -10.7278 0.0000 24.8815 0.0000
# 6 0.0000 0.0000 0.0000 -4.1781 0.0000 30.4605
#
#
#
# Elastic Compliance Matrix: (Units=1/GPa)
#
#
# Indices 1 2 3 4 5 6 
#
# 1 0.011253 -0.001163 -0.004251 0.000000 0.003381 0.000000
# 2 -0.001163 0.017775 -0.009934 0.000000 0.002601 0.000000
# 3 -0.004251 -0.009934 0.019338 0.000000 0.002006 0.000000
# 4 0.000000 0.000000 0.000000 0.042087 0.000000 0.005773
# 5 0.003381 0.002601 0.002006 0.000000 0.043863 0.000000
# 6 0.000000 0.000000 0.000000 0.005773 0.000000 0.033621
#
#
# Mechanical properties :
#
#
# Convention : Reuss Voigt Hill
#
# Bulk Modulus (GPa) = 56.59567 61.83337 59.21452
# Shear Modulus (GPa) = 24.44719 26.75082 25.59901
#
# Velocity S-wave (km/s) = 3.39255 3.54879 3.47155
# Velocity P-wave (km/s) = 6.47999 6.77511 6.62919
#
# Compressibility (1/GPa) = 0.01766920
#
# Stress axis : x y z
#
# Youngs Moduli (GPa) = 88.86552 56.25956 51.71206
#
# Poissons Ratio (x) = 0.06541 0.21985
# Poissons Ratio (y) = 0.10331 0.51371
# Poissons Ratio (z) = 0.37781 0.55889
#
# Static dielectric constant tensor:
#      x y z
#    x 1.797710 0.000000 -0.032480 
#    y 0.000000 1.775980 0.000000 
#    z -0.032480 0.000000 1.739470 
# 
# From -- ./inp_files/40064.got.cif
#   From: 2010.05.17/outbox.cif.g08.bks.cpg/sg14_21_cif.got.tgz:40064.got - 2010.06.03 17:49:19.
