data_PCOD9251223
_publ_section_title
;
Structure prediction by ZEFSAII (Michael W. Deem and Ramdas Pophale) SiO2 
 PCOD9251223
Probable space group: P 21/C
;
_chemical_formula_sum "Si O2"
_cell_formula_units_Z 20
_cell_length_a 26.786251
_cell_length_b 5.813392
_cell_length_c 9.225817
_cell_angle_alpha 90.000000
_cell_angle_beta 145.170461
_cell_angle_gamma 90.000000
_cell_volume 820.515049
_symmetry_space_group_name_H-M "P 21/C"
_symmetry_group_IT_number 14
_symmetry_cell_setting 'monoclinic'
loop_
_space_group_symop_operation_xyz
x,y,z
-x,1/2+y,1/2-z
-x,-y,-z
x,1/2-y,1/2+z
loop_
_atom_site_type_symbol
_atom_site_label
_atom_site_fract_x
_atom_site_fract_y
_atom_site_fract_z
Si Si1 0.736384 0.418133 0.531106
Si Si2 0.111027 0.551598 0.604523
Si Si3 0.398268 0.972285 0.788686
Si Si4 0.056402 0.305905 0.215372
Si Si5 0.695196 0.731857 0.684255
O O1 0.812674 0.232842 0.689509
O O2 0.738372 0.605815 0.408894
O O3 0.745787 0.541470 0.708931
O O4 0.644012 0.282313 0.308289
O O5 0.097747 0.373085 0.702621
O O6 0.124302 0.419270 0.486543
O O7 0.017089 0.674277 0.366314
O O8 0.374307 0.090124 0.884340
O O9 0.348525 0.106332 0.541008
O O10 0.500000 0.000000 0.000000
O O11 0.000000 0.500000 0.000000
#
# Coordination Sequence:
#
# PCOD9251223 Si02
#       5
#     4   4   4   4   4
#     4  11  26  51  77 114 155 211 261 322 391 464
#     4  11  26  49  79 112 159 201 268 320 393 473
#     4  11  26  45  78 114 156 199 260 319 394 465
#     4  11  24  49  76 114 153 209 253 326 395 464
#     4  10  26  48  74 114 153 208 256 323 382 466
#
# _framework density 24.374932999999999
#
# number of rings (size 3 to 8) (size 9 to 14) (size 15 to 20)
#    0.000    1.200    2.000    1.200    5.600    9.600 
#    3.600    4.000    0.000    0.000    0.000    0.000 
#    0.000    0.000    0.000    0.000    0.000    0.000 
#
# Total GULP energy -112177.313613 kJ/mol
# GULP energy per Si atom -5608.865681 kJ/mol
# Density = 2.431945 g / cm^3
# Si number density = 24.374933 Si / 1000 Ang^3
#
#
#
# Elastic Constant Matrix: (Units=GPa)
#
#
# Indices 1 2 3 4 5 6 
#
# 1 182.5425 73.2916 45.7052 0.0000 9.4859 0.0000
# 2 73.2916 135.3756 49.3082 0.0000 23.8275 0.0000
# 3 45.7052 49.3082 93.4814 0.0000 20.1946 0.0000
# 4 0.0000 0.0000 0.0000 36.0698 0.0000 -6.1244
# 5 9.4859 23.8275 20.1946 0.0000 29.2571 0.0000
# 6 0.0000 0.0000 0.0000 -6.1244 0.0000 58.9738
#
#
#
# Elastic Compliance Matrix: (Units=1/GPa)
#
#
# Indices 1 2 3 4 5 6 
#
# 1 0.007333 -0.003537 -0.002149 0.000000 0.001986 0.000000
# 2 -0.003537 0.011472 -0.002998 0.000000 -0.006127 0.000000
# 3 -0.002149 -0.002998 0.014868 0.000000 -0.007124 0.000000
# 4 0.000000 0.000000 0.000000 0.028222 0.000000 0.002931
# 5 0.001986 -0.006127 -0.007124 0.000000 0.043443 0.000000
# 6 0.000000 0.000000 0.000000 0.002931 0.000000 0.017261
#
#
# Mechanical properties :
#
#
# Convention : Reuss Voigt Hill
#
# Bulk Modulus (GPa) = 61.32849 83.11215 72.22032
# Shear Modulus (GPa) = 34.38720 41.06646 37.72683
#
# Velocity S-wave (km/s) = 3.76008 4.10906 3.93844
# Velocity P-wave (km/s) = 6.63823 7.52887 7.09754
#
# Compressibility (1/GPa) = 0.01630563
#
# Stress axis : x y z
#
# Youngs Moduli (GPa) = 136.36784 87.16678 67.25659
#
# Poissons Ratio (x) = 0.30831 0.14452
# Poissons Ratio (y) = 0.48234 0.20166
# Poissons Ratio (z) = 0.29302 0.26135
#
# Static dielectric constant tensor:
#      x y z
#    x 1.916040 0.000000 0.040280 
#    y 0.000000 1.963120 0.000000 
#    z 0.040280 0.000000 1.958860 
# 
# From -- ./inp_files/36045.got.cif
#   From: 2010.05.17/outbox.cif.g08.bks.cpg/sg14_19_cif.got.tgz:36045.got - 2010.06.03 17:49:19.
