data_PCOD9251483
_publ_section_title
;
Structure prediction by ZEFSAII (Michael W. Deem and Ramdas Pophale) SiO2 
 PCOD9251483
Probable space group: P 21/C
;
_chemical_formula_sum "Si O2"
_cell_formula_units_Z 28
_cell_length_a 9.505806
_cell_length_b 14.411748
_cell_length_c 10.800317
_cell_angle_alpha 90.000000
_cell_angle_beta 119.787776
_cell_angle_gamma 90.000000
_cell_volume 1284.096071
_symmetry_space_group_name_H-M "P 21/C"
_symmetry_group_IT_number 14
_symmetry_cell_setting 'monoclinic'
loop_
_space_group_symop_operation_xyz
x,y,z
-x,1/2+y,1/2-z
-x,-y,-z
x,1/2-y,1/2+z
loop_
_atom_site_type_symbol
_atom_site_label
_atom_site_fract_x
_atom_site_fract_y
_atom_site_fract_z
Si Si1 0.037377 0.393881 0.497130
Si Si2 0.958663 0.551951 0.854903
Si Si3 0.627974 0.833668 0.228668
Si Si4 0.320645 0.816598 0.196290
Si Si5 0.991971 0.639039 0.250416
Si Si6 0.238667 0.705431 0.928617
Si Si7 0.269253 0.234646 0.981985
O O1 0.864963 0.349222 0.391018
O O2 0.000000 0.500000 0.500000
O O3 0.093947 0.355388 0.654359
O O4 0.171514 0.361003 0.460736
O O5 0.783940 0.600013 0.792768
O O6 0.966922 0.466613 0.762448
O O7 0.096749 0.628784 0.885989
O O8 0.000000 0.500000 0.000000
O O9 0.454419 0.879710 0.184791
O O10 0.643214 0.765526 0.354393
O O11 0.629379 0.781486 0.097909
O O12 0.348907 0.818583 0.357363
O O13 0.314242 0.727884 0.097426
O O14 0.870770 0.688246 0.102447
O O15 0.151338 0.700891 0.339642
#
# Coordination Sequence:
#
# PCOD9251483 Si02
#       7
#     4   4   4   4   4   4   4
#     4  11  22  41  67  91 125 172 221 261 316 396
#     4  12  23  40  71  99 130 170 230 270 321 393
#     4  12  24  41  64 102 132 169 215 274 333 381
#     4  11  23  41  65  94 140 169 214 271 334 378
#     4  11  21  38  69  97 120 168 229 269 306 379
#     4  11  22  44  67  96 132 182 220 263 324 400
#     4  12  21  42  67  92 128 172 220 260 319 393
#
# _framework density 21.805223000000002
#
# number of rings (size 3 to 8) (size 9 to 14) (size 15 to 20)
#    0.000    0.571    5.714    4.286    0.000    0.000 
#    0.000   10.000    0.000    0.000    0.000    0.000 
#    0.000    0.000    0.000    0.000    0.000    0.000 
#
# Total GULP energy -156163.563098 kJ/mol
# GULP energy per Si atom -5577.270111 kJ/mol
# Density = 2.175559 g / cm^3
# Si number density = 21.805223 Si / 1000 Ang^3
#
#
#
# Elastic Constant Matrix: (Units=GPa)
#
#
# Indices 1 2 3 4 5 6 
#
# 1 119.1599 18.1357 29.0615 0.0000 -29.8961 0.0000
# 2 18.1357 70.4927 16.7884 0.0000 -4.6123 0.0000
# 3 29.0615 16.7884 108.9202 0.0000 -22.7483 0.0000
# 4 0.0000 0.0000 0.0000 33.9939 0.0000 -10.5105
# 5 -29.8961 -4.6123 -22.7483 0.0000 34.6928 0.0000
# 6 0.0000 0.0000 0.0000 -10.5105 0.0000 7.7152
#
#
#
# Elastic Compliance Matrix: (Units=1/GPa)
#
#
# Indices 1 2 3 4 5 6 
#
# 1 0.011106 -0.002091 -0.000811 0.000000 0.008761 0.000000
# 2 -0.002091 0.015129 -0.002005 0.000000 -0.001105 0.000000
# 3 -0.000811 -0.002005 0.011013 0.000000 0.006256 0.000000
# 4 0.000000 0.000000 0.000000 0.050825 0.000000 0.069240
# 5 0.008761 -0.001105 0.006256 0.000000 0.040329 0.000000
# 6 0.000000 0.000000 0.000000 0.069240 0.000000 0.223940
#
#
# Mechanical properties :
#
#
# Convention : Reuss Voigt Hill
#
# Bulk Modulus (GPa) = 36.45096 47.39379 41.92237
# Shear Modulus (GPa) = 13.46619 30.91953 22.19286
#
# Velocity S-wave (km/s) = 2.48779 3.76970 3.19372
# Velocity P-wave (km/s) = 5.00050 6.38199 5.73301
#
# Compressibility (1/GPa) = 0.02743412
#
# Stress axis : x y z
#
# Youngs Moduli (GPa) = 90.04026 66.09846 90.80163
#
# Poissons Ratio (x) = 0.13820 0.07367
# Poissons Ratio (y) = 0.18826 0.18204
# Poissons Ratio (z) = 0.07305 0.13251
#
# Static dielectric constant tensor:
#      x y z
#    x 1.819670 0.000000 -0.032370 
#    y 0.000000 1.800170 0.000000 
#    z -0.032370 0.000000 1.971910 
# 
# From -- ./inp_files/25286.got.cif
#   From: 2010.05.17/outbox.cif.g08.bks.cpg/sg14_13_cif.got.tgz:25286.got - 2010.06.03 17:49:19.
