data_PCOD9251541
_publ_section_title
;
Structure prediction by ZEFSAII (Michael W. Deem and Ramdas Pophale) SiO2 
 PCOD9251541
Probable space group: P 21/C
;
_chemical_formula_sum "Si O2"
_cell_formula_units_Z 32
_cell_length_a 11.568069
_cell_length_b 13.819075
_cell_length_c 13.570300
_cell_angle_alpha 90.000000
_cell_angle_beta 33.649469
_cell_angle_gamma 90.000000
_cell_volume 1202.058658
_symmetry_space_group_name_H-M "P 21/C"
_symmetry_group_IT_number 14
_symmetry_cell_setting 'monoclinic'
loop_
_space_group_symop_operation_xyz
x,y,z
-x,1/2+y,1/2-z
-x,-y,-z
x,1/2-y,1/2+z
loop_
_atom_site_type_symbol
_atom_site_label
_atom_site_fract_x
_atom_site_fract_y
_atom_site_fract_z
Si Si1 0.038730 0.813583 0.391640
Si Si2 0.708926 0.699006 0.870585
Si Si3 0.348923 0.026866 0.869142
Si Si4 0.829689 0.250128 0.413946
Si Si5 0.286201 0.865318 0.751206
Si Si6 0.201751 0.946097 0.444795
Si Si7 0.093541 0.996959 0.725242
Si Si8 0.593894 0.750205 0.731551
O O1 0.162052 0.798136 0.201259
O O2 0.109013 0.714286 0.400691
O O3 0.093240 0.900688 0.426792
O O4 0.792251 0.808660 0.552757
O O5 0.796806 0.590306 0.806182
O O6 0.624850 0.735543 0.826657
O O7 0.920308 0.756042 0.745226
O O8 0.504948 0.692023 0.084656
O O9 0.581106 0.007771 0.743128
O O10 0.361357 0.142762 0.843263
O O11 0.313082 0.961422 0.797478
O O12 0.147782 0.008487 0.076812
O O13 0.761579 0.145862 0.506960
O O14 0.634462 0.302190 0.609744
O O15 0.209300 0.908864 0.699946
O O16 0.099682 0.009572 0.603147
#
# Coordination Sequence:
#
# PCOD9251541 Si02
#       8
#     4   4   4   4   4   4   4   4
#     4  12  24  42  66  98 135 176 220 279 334 406
#     4  12  23  40  68  99 137 173 219 282 339 398
#     4  11  22  38  68 101 132 167 220 277 350 401
#     4  11  25  42  62  99 135 176 221 270 334 400
#     4  12  21  39  69 103 132 169 224 293 345 385
#     4  11  24  41  65  99 133 175 219 273 343 400
#     4  12  22  41  67 100 139 170 223 288 343 392
#     4  11  21  41  65  97 134 167 222 276 335 403
#
# _framework density 26.620996999999999
#
# number of rings (size 3 to 8) (size 9 to 14) (size 15 to 20)
#    0.000    0.500    7.500    2.250    0.000    4.000 
#    0.000    0.625    0.000    1.500    0.000    0.000 
#    0.000    0.000    0.000    0.000    0.000    0.000 
#
# Total GULP energy -178741.172562 kJ/mol
# GULP energy per Si atom -5585.661643 kJ/mol
# Density = 2.656041 g / cm^3
# Si number density = 26.620997 Si / 1000 Ang^3
#
#
#
# Elastic Constant Matrix: (Units=GPa)
#
#
# Indices 1 2 3 4 5 6 
#
# 1 88.7982 6.8390 20.5112 0.0000 4.3410 0.0000
# 2 6.8390 89.6899 20.8537 0.0000 6.5154 0.0000
# 3 20.5112 20.8537 207.9921 0.0000 -13.5855 0.0000
# 4 0.0000 0.0000 0.0000 48.9101 0.0000 -15.6890
# 5 4.3410 6.5154 -13.5855 0.0000 37.2498 0.0000
# 6 0.0000 0.0000 0.0000 -15.6890 0.0000 43.5206
#
#
#
# Elastic Compliance Matrix: (Units=1/GPa)
#
#
# Indices 1 2 3 4 5 6 
#
# 1 0.011663 -0.000482 -0.001214 0.000000 -0.001718 0.000000
# 2 -0.000482 0.011662 -0.001282 0.000000 -0.002451 0.000000
# 3 -0.001214 -0.001282 0.005204 0.000000 0.002264 0.000000
# 4 0.000000 0.000000 0.000000 0.023119 0.000000 0.008334
# 5 -0.001718 -0.002451 0.002264 0.000000 0.028300 0.000000
# 6 0.000000 0.000000 0.000000 0.008334 0.000000 0.025982
#
#
# Mechanical properties :
#
#
# Convention : Reuss Voigt Hill
#
# Bulk Modulus (GPa) = 44.30041 53.65423 48.97732
# Shear Modulus (GPa) = 41.87203 48.48786 45.17995
#
# Velocity S-wave (km/s) = 3.97028 4.27243 4.12412
# Velocity P-wave (km/s) = 6.13960 6.67359 6.41216
#
# Compressibility (1/GPa) = 0.02257316
#
# Stress axis : x y z
#
# Youngs Moduli (GPa) = 85.74112 85.74556 192.16103
#
# Poissons Ratio (x) = 0.04135 0.23328
# Poissons Ratio (y) = 0.04135 0.24632
# Poissons Ratio (z) = 0.10409 0.10991
#
# Static dielectric constant tensor:
#      x y z
#    x 2.179270 0.000000 -0.020590 
#    y 0.000000 2.332920 0.000000 
#    z -0.020590 0.000000 2.150380 
# 
# From -- ./inp_files/45441.got.cif
#   From: 2010.05.17/outbox.cif.g08.bks.cpg/sg14_23_cif.got.tgz:45441.got - 2010.06.03 17:49:19.
