data_PCOD9251270
_publ_section_title
;
Structure prediction by ZEFSAII (Michael W. Deem and Ramdas Pophale) SiO2 
 PCOD9251270
Probable space group: P 21/C
;
_chemical_formula_sum "Si O2"
_cell_formula_units_Z 32
_cell_length_a 11.816067
_cell_length_b 15.865801
_cell_length_c 12.060807
_cell_angle_alpha 90.000000
_cell_angle_beta 141.864770
_cell_angle_gamma 90.000000
_cell_volume 1396.246451
_symmetry_space_group_name_H-M "P 21/C"
_symmetry_group_IT_number 14
_symmetry_cell_setting 'monoclinic'
loop_
_space_group_symop_operation_xyz
x,y,z
-x,1/2+y,1/2-z
-x,-y,-z
x,1/2-y,1/2+z
loop_
_atom_site_type_symbol
_atom_site_label
_atom_site_fract_x
_atom_site_fract_y
_atom_site_fract_z
Si Si1 0.567511 0.935736 0.703153
Si Si2 0.967228 0.923744 0.066755
Si Si3 0.376954 0.579853 0.432243
Si Si4 0.304555 0.145284 0.423950
Si Si5 0.960689 0.520307 0.156939
Si Si6 0.042739 0.788351 0.962415
Si Si7 0.249555 0.618961 0.107334
Si Si8 0.584693 0.371784 0.303175
O O1 0.606353 0.913424 0.604595
O O2 0.392381 0.887809 0.616287
O O3 0.559597 0.034494 0.731387
O O4 0.751388 0.908947 0.907842
O O5 0.039709 0.957223 0.237771
O O6 0.044115 0.835067 0.082745
O O7 0.000000 0.000000 0.000000
O O8 0.500000 0.500000 0.500000
O O9 0.361160 0.629925 0.306497
O O10 0.465513 0.625188 0.606660
O O11 0.168030 0.550449 0.298248
O O12 0.462578 0.182664 0.624417
O O13 0.157948 0.201035 0.244395
O O14 0.172954 0.094592 0.407069
O O15 0.862875 0.468516 0.984246
O O16 0.105912 0.693861 0.997154
O O17 0.204715 0.843214 0.031549
#
# Coordination Sequence:
#
# PCOD9251270 Si02
#       8
#     4   4   4   4   4   4   4   4
#     4  11  20  41  71 107 136 182 249 298 357 443
#     4  11  18  39  74 101 135 185 244 309 358 416
#     4  12  23  46  69 101 147 198 255 288 353 460
#     4  11  22  42  75 110 129 181 252 303 361 422
#     4  12  21  42  75 100 136 194 252 297 352 439
#     4  11  25  46  65 109 152 176 240 316 371 420
#     4  12  28  42  66 108 153 198 231 303 386 430
#     4  12  21  41  76 101 138 189 239 299 352 432
#
# _framework density 22.918589000000001
#
# number of rings (size 3 to 8) (size 9 to 14) (size 15 to 20)
#    0.000    0.500    8.750    0.750    1.750    1.000 
#    4.500    2.500    0.000    0.000    0.000    0.000 
#    0.000    0.000    0.000    0.000    0.000    0.000 
#
# Total GULP energy -178706.964352 kJ/mol
# GULP energy per Si atom -5584.592636 kJ/mol
# Density = 2.286643 g / cm^3
# Si number density = 22.918589 Si / 1000 Ang^3
#
#
#
# Elastic Constant Matrix: (Units=GPa)
#
#
# Indices 1 2 3 4 5 6 
#
# 1 83.8189 14.3953 26.9506 0.0000 13.7688 0.0000
# 2 14.3953 41.3877 -7.2085 0.0000 4.7044 0.0000
# 3 26.9506 -7.2085 106.9588 0.0000 -13.0180 0.0000
# 4 0.0000 0.0000 0.0000 19.1498 0.0000 12.1137
# 5 13.7688 4.7044 -13.0180 0.0000 40.7696 0.0000
# 6 0.0000 0.0000 0.0000 12.1137 0.0000 23.3068
#
#
#
# Elastic Compliance Matrix: (Units=1/GPa)
#
#
# Indices 1 2 3 4 5 6 
#
# 1 0.015531 -0.005574 -0.005045 0.000000 -0.006213 0.000000
# 2 -0.005574 0.026675 0.003180 0.000000 -0.000180 0.000000
# 3 -0.005045 0.003180 0.011442 0.000000 0.004990 0.000000
# 4 0.000000 0.000000 0.000000 0.077799 0.000000 -0.040436
# 5 -0.006213 -0.000180 0.004990 0.000000 0.028241 0.000000
# 6 0.000000 0.000000 0.000000 -0.040436 0.000000 0.063923
#
#
# Mechanical properties :
#
#
# Convention : Reuss Voigt Hill
#
# Bulk Modulus (GPa) = 25.79318 33.38224 29.58771
# Shear Modulus (GPa) = 19.88773 29.84709 24.86741
#
# Velocity S-wave (km/s) = 2.94896 3.61267 3.29756
# Velocity P-wave (km/s) = 4.78266 5.65677 5.23798
#
# Compressibility (1/GPa) = 0.03876993
#
# Stress axis : x y z
#
# Youngs Moduli (GPa) = 64.38923 37.48838 87.39467
#
# Poissons Ratio (x) = 0.20897 0.44091
# Poissons Ratio (y) = 0.35892 -0.27795
# Poissons Ratio (z) = 0.32485 -0.11923
#
# Static dielectric constant tensor:
#      x y z
#    x 1.970980 0.000000 -0.012800 
#    y 0.000000 1.845620 0.000000 
#    z -0.012800 0.000000 1.925330 
# 
# From -- ./inp_files/30455.got.cif
#   From: 2010.05.17/outbox.cif.g08.bks.cpg/sg14_16_cif.got.tgz:30455.got - 2010.06.03 17:49:19.
