data_PCOD9251610
_publ_section_title
;
Structure prediction by ZEFSAII (Michael W. Deem and Ramdas Pophale) SiO2 
 PCOD9251610
Probable space group: P 21/C
;
_chemical_formula_sum "Si O2"
_cell_formula_units_Z 28
_cell_length_a 12.765734
_cell_length_b 8.092650
_cell_length_c 18.564225
_cell_angle_alpha 90.000000
_cell_angle_beta 39.001675
_cell_angle_gamma 90.000000
_cell_volume 1206.982169
_symmetry_space_group_name_H-M "P 21/C"
_symmetry_group_IT_number 14
_symmetry_cell_setting 'monoclinic'
loop_
_space_group_symop_operation_xyz
x,y,z
-x,1/2+y,1/2-z
-x,-y,-z
x,1/2-y,1/2+z
loop_
_atom_site_type_symbol
_atom_site_label
_atom_site_fract_x
_atom_site_fract_y
_atom_site_fract_z
Si Si1 0.407711 0.605598 0.985336
Si Si2 0.250643 0.165450 0.732251
Si Si3 0.276789 0.693164 0.291656
Si Si4 0.350410 0.194807 0.412220
Si Si5 0.827394 0.327861 0.293412
Si Si6 0.168701 0.178674 0.133336
Si Si7 0.951919 0.810897 0.535902
O O1 0.555555 0.716846 0.872524
O O2 0.341573 0.482078 0.958901
O O3 0.500000 0.500000 0.000000
O O4 0.271173 0.716449 0.096544
O O5 0.195297 0.181605 0.679603
O O6 0.120945 0.269472 0.847493
O O7 0.256470 0.982572 0.762421
O O8 0.465158 0.705538 0.219584
O O9 0.263458 0.828040 0.234867
O O10 0.121690 0.713000 0.427679
O O11 0.316137 0.320456 0.496530
O O12 0.203946 0.222051 0.433834
O O13 0.847481 0.506985 0.316934
O O14 0.000897 0.236401 0.184616
O O15 0.000000 0.000000 0.500000
#
# Coordination Sequence:
#
# PCOD9251610 Si02
#       7
#     4   4   4   4   4   4   4
#     4  11  21  44  71 100 139 181 236 299 355 413
#     4  11  24  45  68  98 137 186 237 289 358 425
#     4  11  23  46  72  96 141 190 231 293 359 420
#     4  11  24  46  71 101 143 186 236 294 356 423
#     4  12  23  39  69 107 136 179 235 300 353 420
#     4  12  24  40  72 103 138 180 241 294 354 421
#     4  12  28  46  67 104 147 187 242 292 353 435
#
# _framework density 23.198354999999999
#
# number of rings (size 3 to 8) (size 9 to 14) (size 15 to 20)
#    0.000    0.571    5.714    3.000    2.000    5.714 
#    0.000    0.000    0.000    0.000    0.000    0.000 
#    0.000    0.000    0.000    0.000    0.000    0.000 
#
# Total GULP energy -156633.642818 kJ/mol
# GULP energy per Si atom -5594.058672 kJ/mol
# Density = 2.314555 g / cm^3
# Si number density = 23.198355 Si / 1000 Ang^3
#
#
#
# Elastic Constant Matrix: (Units=GPa)
#
#
# Indices 1 2 3 4 5 6 
#
# 1 57.7367 -8.3698 37.3415 0.0000 -9.0002 0.0000
# 2 -8.3698 55.4785 11.4432 0.0000 -15.4268 0.0000
# 3 37.3415 11.4432 147.8834 0.0000 -27.2340 0.0000
# 4 0.0000 0.0000 0.0000 35.8272 0.0000 -2.5930
# 5 -9.0002 -15.4268 -27.2340 0.0000 28.6787 0.0000
# 6 0.0000 0.0000 0.0000 -2.5930 0.0000 20.9076
#
#
#
# Elastic Compliance Matrix: (Units=1/GPa)
#
#
# Indices 1 2 3 4 5 6 
#
# 1 0.022310 0.005900 -0.005110 0.000000 0.005323 0.000000
# 2 0.005900 0.022793 -0.000793 0.000000 0.013359 0.000000
# 3 -0.005110 -0.000793 0.009380 0.000000 0.006877 0.000000
# 4 0.000000 0.000000 0.000000 0.028165 0.000000 0.003493
# 5 0.005323 0.013359 0.006877 0.000000 0.050257 0.000000
# 6 0.000000 0.000000 0.000000 0.003493 0.000000 0.048263
#
#
# Mechanical properties :
#
#
# Convention : Reuss Voigt Hill
#
# Bulk Modulus (GPa) = 18.35631 37.99202 28.17416
# Shear Modulus (GPa) = 25.08371 31.79494 28.43932
#
# Velocity S-wave (km/s) = 3.29184 3.70614 3.50511
# Velocity P-wave (km/s) = 4.73056 5.89292 5.34344
#
# Compressibility (1/GPa) = 0.05447719
#
# Stress axis : x y z
#
# Youngs Moduli (GPa) = 44.82357 43.87222 106.60734
#
# Poissons Ratio (x) = -0.25884 0.54472
# Poissons Ratio (y) = -0.26445 0.08457
# Poissons Ratio (z) = 0.22903 0.03480
#
# Static dielectric constant tensor:
#      x y z
#    x 1.887440 0.000000 -0.028030 
#    y 0.000000 1.880260 0.000000 
#    z -0.028030 0.000000 1.905540 
# 
# From -- ./inp_files/68167.got.cif
#   From: 2010.05.17/outbox.cif.g08.bks.cpg/sg14_35_cif.got.tgz:68167.got - 2010.06.03 17:49:19.
