data_PCOD9251295
_publ_section_title
;
Structure prediction by ZEFSAII (Michael W. Deem and Ramdas Pophale) SiO2 
 PCOD9251295
Probable space group: P 21/C
;
_chemical_formula_sum "Si O2"
_cell_formula_units_Z 32
_cell_length_a 11.657861
_cell_length_b 8.898386
_cell_length_c 21.329215
_cell_angle_alpha 90.000000
_cell_angle_beta 38.559404
_cell_angle_gamma 90.000000
_cell_volume 1379.177056
_symmetry_space_group_name_H-M "P 21/C"
_symmetry_group_IT_number 14
_symmetry_cell_setting 'monoclinic'
loop_
_space_group_symop_operation_xyz
x,y,z
-x,1/2+y,1/2-z
-x,-y,-z
x,1/2-y,1/2+z
loop_
_atom_site_type_symbol
_atom_site_label
_atom_site_fract_x
_atom_site_fract_y
_atom_site_fract_z
Si Si1 0.445795 0.158406 0.997240
Si Si2 0.328708 0.374718 0.417034
Si Si3 0.975168 0.023227 0.193093
Si Si4 0.428395 0.082290 0.592216
Si Si5 0.178199 0.384696 0.354354
Si Si6 0.834483 0.155950 0.777802
Si Si7 0.556006 0.963822 0.659969
Si Si8 0.308005 0.453908 0.769264
O O1 0.298003 0.141818 0.004639
O O2 0.631085 0.215644 0.883364
O O3 0.400596 0.251688 0.078001
O O4 0.500000 0.000000 0.000000
O O5 0.166030 0.381105 0.435164
O O6 0.481934 0.507199 0.343150
O O7 0.422535 0.214286 0.358201
O O8 0.961649 0.202362 0.207939
O O9 0.768719 0.973217 0.301975
O O10 0.983824 0.948768 0.119916
O O11 0.100193 0.940715 0.190727
O O12 0.570599 0.051125 0.587944
O O13 0.500000 0.000000 0.500000
O O14 0.351747 0.495771 0.270307
O O15 0.245538 0.220233 0.300215
O O16 0.815731 0.048476 0.725511
O O17 0.691093 0.010043 0.658721
#
# Coordination Sequence:
#
# PCOD9251295 Si02
#       8
#     4   4   4   4   4   4   4   4
#     4  11  23  35  55  85 115 144 181 228 275 322
#     4   9  17  31  48  77 111 138 180 227 266 318
#     4  11  23  37  59  81 110 147 184 227 275 327
#     4  11  19  37  57  81 111 145 181 222 272 325
#     4   9  17  30  52  77 104 142 180 225 271 313
#     4  11  23  39  56  83 112 143 185 228 272 328
#     4   9  17  29  51  77 106 142 181 225 267 318
#     4   9  17  30  50  78 107 137 182 227 269 315
#
# _framework density 23.202244
#
# number of rings (size 3 to 8) (size 9 to 14) (size 15 to 20)
#    0.000    2.000    2.500    3.000    8.750    1.000 
#    0.000    0.000    0.000    3.000    0.000    0.000 
#    0.000    0.000    0.000    0.000    0.000    0.000 
#
# Total GULP energy -178557.993154 kJ/mol
# GULP energy per Si atom -5579.937286 kJ/mol
# Density = 2.314943 g / cm^3
# Si number density = 23.202244 Si / 1000 Ang^3
#
#
#
# Elastic Constant Matrix: (Units=GPa)
#
#
# Indices 1 2 3 4 5 6 
#
# 1 206.6331 54.4448 26.6352 0.0000 45.2618 0.0000
# 2 54.4448 87.4972 5.9412 0.0000 3.3524 0.0000
# 3 26.6352 5.9412 52.3700 0.0000 19.3798 0.0000
# 4 0.0000 0.0000 0.0000 27.6142 0.0000 7.1546
# 5 45.2618 3.3524 19.3798 0.0000 40.3322 0.0000
# 6 0.0000 0.0000 0.0000 7.1546 0.0000 41.8936
#
#
#
# Elastic Compliance Matrix: (Units=1/GPa)
#
#
# Indices 1 2 3 4 5 6 
#
# 1 0.007920 -0.004581 -0.000438 0.000000 -0.008297 0.000000
# 2 -0.004581 0.014172 -0.000905 0.000000 0.004398 0.000000
# 3 -0.000438 -0.000905 0.023365 0.000000 -0.010660 0.000000
# 4 0.000000 0.000000 0.000000 0.037890 0.000000 -0.006471
# 5 -0.008297 0.004398 -0.010660 0.000000 0.038862 0.000000
# 6 0.000000 0.000000 0.000000 -0.006471 0.000000 0.024975
#
#
# Mechanical properties :
#
#
# Convention : Reuss Voigt Hill
#
# Bulk Modulus (GPa) = 29.75383 57.83810 43.79596
# Shear Modulus (GPa) = 29.37086 39.26662 34.31874
#
# Velocity S-wave (km/s) = 3.56176 4.11830 3.85010
# Velocity P-wave (km/s) = 5.45585 6.89897 6.21941
#
# Compressibility (1/GPa) = 0.03360912
#
# Stress axis : x y z
#
# Youngs Moduli (GPa) = 126.25629 70.56017 42.79850
#
# Poissons Ratio (x) = 0.32322 0.01875
# Poissons Ratio (y) = 0.57835 0.03875
# Poissons Ratio (z) = 0.05533 0.06389
#
# Static dielectric constant tensor:
#      x y z
#    x 2.015870 0.000000 0.036020 
#    y 0.000000 2.824450 0.000000 
#    z 0.036020 0.000000 1.947440 
# 
# From -- ./inp_files/67017.got.cif
#   From: 2010.05.17/outbox.cif.g08.bks.cpg/sg14_34_cif.got.tgz:67017.got - 2010.06.03 17:49:19.
