data_PCOD9251661
_publ_section_title
;
Structure prediction by ZEFSAII (Michael W. Deem and Ramdas Pophale) SiO2 
 PCOD9251661
Probable space group: P 21/C
;
_chemical_formula_sum "Si O2"
_cell_formula_units_Z 24
_cell_length_a 23.533574
_cell_length_b 4.496082
_cell_length_c 8.099254
_cell_angle_alpha 90.000000
_cell_angle_beta 103.862114
_cell_angle_gamma 90.000000
_cell_volume 832.013744
_symmetry_space_group_name_H-M "P 21/C"
_symmetry_group_IT_number 14
_symmetry_cell_setting 'monoclinic'
loop_
_space_group_symop_operation_xyz
x,y,z
-x,1/2+y,1/2-z
-x,-y,-z
x,1/2-y,1/2+z
loop_
_atom_site_type_symbol
_atom_site_label
_atom_site_fract_x
_atom_site_fract_y
_atom_site_fract_z
Si Si1 0.291166 0.950890 0.646103
Si Si2 0.124653 0.927582 0.059097
Si Si3 0.043339 0.512910 0.778170
Si Si4 0.456661 0.987089 0.221830
Si Si5 0.375347 0.927583 0.440903
Si Si6 0.791166 0.049110 0.146104
O O1 0.336269 0.101279 0.549158
O O2 0.331284 0.746307 0.789776
O O3 0.250000 0.750000 0.500000
O O4 0.250000 0.120793 0.750000
O O5 0.082854 0.101990 0.154529
O O6 0.168717 0.753694 0.210223
O O7 0.084540 0.692394 0.932359
O O8 0.163731 0.101279 0.950841
O O9 0.004148 0.249970 0.820981
O O10 0.504147 0.750028 0.320981
O O11 0.417146 0.101990 0.345471
O O12 0.415460 0.807605 0.067641
#
# Coordination Sequence:
#
# PCOD9251661 Si02
#       6
#     4   4   4   4   4   4
#     4   8  14  28  52  84 112 144 186 234 280 330
#     4   9  18  31  52  84 112 149 186 227 280 330
#     4  11  22  37  56  84 116 149 186 227 272 330
#     4  11  22  37  56  84 116 149 186 227 272 330
#     4   9  18  31  52  84 112 149 186 227 280 330
#     4   8  14  28  52  84 112 144 186 234 280 330
#
# _framework density 28.845676999999998
#
# number of rings (size 3 to 8) (size 9 to 14) (size 15 to 20)
#    0.000    2.667    0.000    2.000    0.000    0.000 
#    0.000    0.000    0.000    0.000    0.000  588.000 
#    0.000    0.000    0.000    0.000    0.000    0.000 
#
# Total GULP energy -134530.297416 kJ/mol
# GULP energy per Si atom -5605.429059 kJ/mol
# Density = 2.878002 g / cm^3
# Si number density = 28.845677 Si / 1000 Ang^3
#
#
#
# Elastic Constant Matrix: (Units=GPa)
#
#
# Indices 1 2 3 4 5 6 
#
# 1 222.0395 36.0551 86.5974 0.0000 -61.1606 0.0000
# 2 36.0551 70.2933 40.6212 0.0000 21.5956 0.0000
# 3 86.5974 40.6212 203.5809 0.0000 38.2901 0.0000
# 4 0.0000 0.0000 0.0000 59.4333 0.0000 34.5047
# 5 -61.1606 21.5956 38.2901 0.0000 98.9885 0.0000
# 6 0.0000 0.0000 0.0000 34.5047 0.0000 -6.7126
#
#
#
# Elastic Compliance Matrix: (Units=1/GPa)
#
#
# Indices 1 2 3 4 5 6 
#
# 1 0.009586 -0.004876 -0.004766 0.000000 0.008830 0.000000
# 2 -0.004876 0.019128 -0.000422 0.000000 -0.007023 0.000000
# 3 -0.004766 -0.000422 0.008153 0.000000 -0.006006 0.000000
# 4 0.000000 0.000000 0.000000 0.004223 0.000000 0.021707
# 5 0.008830 -0.007023 -0.006006 0.000000 0.019413 0.000000
# 6 0.000000 0.000000 0.000000 0.021707 0.000000 -0.037390
#
#
# Mechanical properties :
#
#
# Convention : Reuss Voigt Hill
#
# Bulk Modulus (GPa) = 59.73392 91.38454 75.55923
# Shear Modulus (GPa) = 102.41563 52.51785 77.46674
#
# Velocity S-wave (km/s) = 5.96504 4.27154 5.18786
# Velocity P-wave (km/s) = 8.25805 7.48848 7.88266
#
# Compressibility (1/GPa) = 0.01674091
#
# Stress axis : x y z
#
# Youngs Moduli (GPa) = 104.31480 52.27855 122.65340
#
# Poissons Ratio (x) = 0.25490 0.58452
# Poissons Ratio (y) = 0.50863 0.05174
# Poissons Ratio (z) = 0.49713 0.02205
#
# Static dielectric constant tensor:
#      x y z
#    x 2.257820 0.000000 -0.007600 
#    y 0.000000 2.125960 0.000000 
#    z -0.007600 0.000000 2.146920 
# 
# From -- ./inp_files/19281.got.cif
#   From: 2010.05.17/outbox.cif.g08.bks.cpg/sg14_10_cif.got.tgz:19281.got - 2010.06.03 17:49:19.
