data_PCOD9251531
_publ_section_title
;
Structure prediction by ZEFSAII (Michael W. Deem and Ramdas Pophale) SiO2 
 PCOD9251531
Probable space group: P 21/C
;
_chemical_formula_sum "Si O2"
_cell_formula_units_Z 28
_cell_length_a 26.000629
_cell_length_b 11.512872
_cell_length_c 14.440449
_cell_angle_alpha 90.000000
_cell_angle_beta 19.227394
_cell_angle_gamma 90.000000
_cell_volume 1423.520968
_symmetry_space_group_name_H-M "P 21/C"
_symmetry_group_IT_number 14
_symmetry_cell_setting 'monoclinic'
loop_
_space_group_symop_operation_xyz
x,y,z
-x,1/2+y,1/2-z
-x,-y,-z
x,1/2-y,1/2+z
loop_
_atom_site_type_symbol
_atom_site_label
_atom_site_fract_x
_atom_site_fract_y
_atom_site_fract_z
Si Si1 0.242281 0.233071 0.564248
Si Si2 0.062507 0.631713 0.900923
Si Si3 0.364912 0.152373 0.680728
Si Si4 0.491199 0.041847 0.119987
Si Si5 0.254674 0.782941 0.240039
Si Si6 0.716388 0.387591 0.650946
Si Si7 0.457598 0.310197 0.354712
O O1 0.260475 0.271503 0.427052
O O2 0.328441 0.107694 0.421826
O O3 0.351459 0.313364 0.443825
O O4 0.068348 0.267758 0.890627
O O5 0.128158 0.652731 0.892681
O O6 0.190598 0.635144 0.601840
O O7 0.000000 0.500000 0.000000
O O8 0.537235 0.148438 0.434282
O O9 0.386046 0.214324 0.546121
O O10 0.296209 0.022576 0.798025
O O11 0.526227 0.932725 0.124407
O O12 0.632815 0.129798 0.896460
O O13 0.500000 0.000000 0.000000
O O14 0.208264 0.686688 0.394104
O O15 0.370323 0.725406 0.968831
#
# Coordination Sequence:
#
# PCOD9251531 Si02
#       7
#     4   4   4   4   4   4   4
#     4  11  24  41  65 103 127 173 230 267 346 403
#     4  12  25  46  65  96 144 179 220 283 343 409
#     4  11  21  40  69  98 122 175 228 273 327 402
#     4  11  22  41  68 100 131 167 224 282 326 394
#     4  11  25  41  68  99 131 180 220 267 354 389
#     4  11  23  41  69  95 133 171 228 279 325 408
#     4  11  22  40  70  95 132 170 225 285 325 403
#
# _framework density 19.669537999999999
#
# number of rings (size 3 to 8) (size 9 to 14) (size 15 to 20)
#    0.000    0.857    7.143    0.857    4.000    1.143 
#    2.571    0.714    0.000    0.000    0.000    0.000 
#    0.000    0.000    0.000    0.000    0.000    0.000 
#
# Total GULP energy -156278.757791 kJ/mol
# GULP energy per Si atom -5581.384207 kJ/mol
# Density = 1.962477 g / cm^3
# Si number density = 19.669538 Si / 1000 Ang^3
#
#
#
# Elastic Constant Matrix: (Units=GPa)
#
#
# Indices 1 2 3 4 5 6 
#
# 1 91.9975 40.6899 16.1763 0.0000 10.9705 0.0000
# 2 40.6899 90.8996 21.5892 0.0000 2.3477 0.0000
# 3 16.1763 21.5892 66.0947 0.0000 10.1398 0.0000
# 4 0.0000 0.0000 0.0000 23.6558 0.0000 11.0302
# 5 10.9705 2.3477 10.1398 0.0000 32.8831 0.0000
# 6 0.0000 0.0000 0.0000 11.0302 0.0000 36.5423
#
#
#
# Elastic Compliance Matrix: (Units=1/GPa)
#
#
# Indices 1 2 3 4 5 6 
#
# 1 0.014172 -0.006031 -0.000881 0.000000 -0.004026 0.000000
# 2 -0.006031 0.014497 -0.003578 0.000000 0.002080 0.000000
# 3 -0.000881 -0.003578 0.017246 0.000000 -0.004768 0.000000
# 4 0.000000 0.000000 0.000000 0.049197 0.000000 -0.014850
# 5 -0.004026 0.002080 -0.004768 0.000000 0.033076 0.000000
# 6 0.000000 0.000000 0.000000 -0.014850 0.000000 0.031848
#
#
# Mechanical properties :
#
#
# Convention : Reuss Voigt Hill
#
# Bulk Modulus (GPa) = 40.10513 45.10028 42.60270
# Shear Modulus (GPa) = 26.40921 29.98534 28.19727
#
# Velocity S-wave (km/s) = 3.66819 3.90866 3.79033
# Velocity P-wave (km/s) = 6.19472 6.58399 6.39232
#
# Compressibility (1/GPa) = 0.02493447
#
# Stress axis : x y z
#
# Youngs Moduli (GPa) = 70.56052 68.98025 57.98497
#
# Poissons Ratio (x) = 0.41600 0.05109
# Poissons Ratio (y) = 0.42553 0.20750
# Poissons Ratio (z) = 0.06217 0.24684
#
# Static dielectric constant tensor:
#      x y z
#    x 1.700160 0.000000 -0.001870 
#    y 0.000000 1.781800 0.000000 
#    z -0.001870 0.000000 1.702450 
# 
# From -- ./inp_files/51981.got.cif
#   From: 2010.05.17/outbox.cif.g08.bks.cpg/sg14_26_cif.got.tgz:51981.got - 2010.06.03 17:49:19.
