data_PCOD9251423
_publ_section_title
;
Structure prediction by ZEFSAII (Michael W. Deem and Ramdas Pophale) SiO2 
 PCOD9251423
Probable space group: P 21/C
;
_chemical_formula_sum "Si O2"
_cell_formula_units_Z 20
_cell_length_a 9.530577
_cell_length_b 6.778162
_cell_length_c 17.365245
_cell_angle_alpha 90.000000
_cell_angle_beta 48.963312
_cell_angle_gamma 90.000000
_cell_volume 846.155185
_symmetry_space_group_name_H-M "P 21/C"
_symmetry_group_IT_number 14
_symmetry_cell_setting 'monoclinic'
loop_
_space_group_symop_operation_xyz
x,y,z
-x,1/2+y,1/2-z
-x,-y,-z
x,1/2-y,1/2+z
loop_
_atom_site_type_symbol
_atom_site_label
_atom_site_fract_x
_atom_site_fract_y
_atom_site_fract_z
Si Si1 0.037418 0.189854 0.038415
Si Si2 0.076170 0.885799 0.153770
Si Si3 0.268155 0.102004 0.209144
Si Si4 0.703527 0.000268 0.635302
Si Si5 0.566853 0.334382 0.034601
O O1 0.864660 0.338754 0.093922
O O2 0.071083 0.092592 0.109452
O O3 0.205913 0.312615 0.940539
O O4 0.000000 0.000000 0.000000
O O5 0.877250 0.779685 0.223942
O O6 0.145477 0.929852 0.214999
O O7 0.772470 0.258234 0.940269
O O8 0.364520 0.049380 0.255011
O O9 0.420891 0.157810 0.091045
O O10 0.563910 0.083460 0.622695
O O11 0.500000 0.500000 0.000000
#
# Coordination Sequence:
#
# PCOD9251423 Si02
#       5
#     4   4   4   4   4
#     4  11  20  43  76  98 139 183 223 286 356 407
#     4  12  24  47  70 100 142 181 235 284 353 419
#     4  12  26  42  72 103 137 185 230 294 341 411
#     4  11  24  43  69 110 136 176 243 286 342 424
#     4  12  27  46  67 101 147 186 229 291 353 414
#
# _framework density 23.636324999999999
#
# number of rings (size 3 to 8) (size 9 to 14) (size 15 to 20)
#    0.000    0.400    4.000    5.400    0.000    4.800 
#    0.000    0.000    0.000    0.000    0.000    0.000 
#    0.000    0.000    0.000    0.000    0.000    0.000 
#
# Total GULP energy -111989.392264 kJ/mol
# GULP energy per Si atom -5599.469613 kJ/mol
# Density = 2.358253 g / cm^3
# Si number density = 23.636325 Si / 1000 Ang^3
#
#
#
# Elastic Constant Matrix: (Units=GPa)
#
#
# Indices 1 2 3 4 5 6 
#
# 1 111.7676 16.2479 26.2104 0.0000 35.0219 0.0000
# 2 16.2479 87.7275 31.4879 0.0000 10.5068 0.0000
# 3 26.2104 31.4879 83.8657 0.0000 8.9420 0.0000
# 4 0.0000 0.0000 0.0000 40.4137 0.0000 18.4745
# 5 35.0219 10.5068 8.9420 0.0000 46.5287 0.0000
# 6 0.0000 0.0000 0.0000 18.4745 0.0000 43.9258
#
#
#
# Elastic Compliance Matrix: (Units=1/GPa)
#
#
# Indices 1 2 3 4 5 6 
#
# 1 0.012382 -0.000224 -0.002856 0.000000 -0.008720 0.000000
# 2 -0.000224 0.013376 -0.004745 0.000000 -0.001940 0.000000
# 3 -0.002856 -0.004745 0.014553 0.000000 0.000424 0.000000
# 4 0.000000 0.000000 0.000000 0.030634 0.000000 -0.012884
# 5 -0.008720 -0.001940 0.000424 0.000000 0.028412 0.000000
# 6 0.000000 0.000000 0.000000 -0.012884 0.000000 0.028185
#
#
# Mechanical properties :
#
#
# Convention : Reuss Voigt Hill
#
# Bulk Modulus (GPa) = 40.55027 47.91702 44.23364
# Shear Modulus (GPa) = 33.02257 40.13462 36.57859
#
# Velocity S-wave (km/s) = 3.74185 4.12516 3.93817
# Velocity P-wave (km/s) = 5.98847 6.55789 6.27963
#
# Compressibility (1/GPa) = 0.02466075
#
# Stress axis : x y z
#
# Youngs Moduli (GPa) = 80.76303 74.76101 68.71539
#
# Poissons Ratio (x) = 0.01673 0.19624
# Poissons Ratio (y) = 0.01807 0.32607
# Poissons Ratio (z) = 0.23065 0.35476
#
# Static dielectric constant tensor:
#      x y z
#    x 1.908740 0.000000 0.024750 
#    y 0.000000 1.912300 0.000000 
#    z 0.024750 0.000000 1.916750 
# 
# From -- ./inp_files/71527.got.cif
#   From: 2010.05.17/outbox.cif.g08.bks.cpg/sg14_36_cif.got.tgz:71527.got - 2010.06.03 17:49:19.
