data_PCOD9251624
_publ_section_title
;
Structure prediction by ZEFSAII (Michael W. Deem and Ramdas Pophale) SiO2 
 PCOD9251624
Probable space group: P 21/C
;
_chemical_formula_sum "Si O2"
_cell_formula_units_Z 16
_cell_length_a 6.401937
_cell_length_b 13.818117
_cell_length_c 8.111778
_cell_angle_alpha 90.000000
_cell_angle_beta 93.559488
_cell_angle_gamma 90.000000
_cell_volume 716.205581
_symmetry_space_group_name_H-M "P 21/C"
_symmetry_group_IT_number 14
_symmetry_cell_setting 'monoclinic'
loop_
_space_group_symop_operation_xyz
x,y,z
-x,1/2+y,1/2-z
-x,-y,-z
x,1/2-y,1/2+z
loop_
_atom_site_type_symbol
_atom_site_label
_atom_site_fract_x
_atom_site_fract_y
_atom_site_fract_z
Si Si1 0.915974 0.018641 0.683807
Si Si2 0.568365 0.313809 0.174267
Si Si3 0.346331 0.038731 0.848999
Si Si4 0.549549 0.621205 0.183724
O O1 0.778157 0.924162 0.727400
O O2 0.098779 0.031064 0.828028
O O3 0.776086 0.118013 0.683907
O O4 0.000000 0.000000 0.500000
O O5 0.420482 0.354327 0.311510
O O6 0.565520 0.199338 0.204998
O O7 0.458789 0.336037 0.997225
O O8 0.411018 0.974720 0.693287
O O9 0.500000 0.000000 0.000000
#
# Coordination Sequence:
#
# PCOD9251624 Si02
#       4
#     4   4   4   4
#     4  11  21  45  71  94 132 183 218 268 338 389
#     4  11  23  41  66  99 137 173 220 275 330 396
#     4  11  23  43  67  97 137 174 222 276 328 391
#     4  11  23  41  66  99 137 173 220 275 330 396
#
# _framework density 22.339953000000001
#
# number of rings (size 3 to 8) (size 9 to 14) (size 15 to 20)
#    0.000    1.000    5.000    3.000    0.000    6.000 
#    0.000    0.000    0.000    0.000    0.000    0.000 
#    0.000    0.000    0.000    0.000    0.000    0.000 
#
# Total GULP energy -89109.214635 kJ/mol
# GULP energy per Si atom -5569.325915 kJ/mol
# Density = 2.228911 g / cm^3
# Si number density = 22.339953 Si / 1000 Ang^3
#
#
#
# Elastic Constant Matrix: (Units=GPa)
#
#
# Indices 1 2 3 4 5 6 
#
# 1 129.5282 35.6591 48.4943 0.0000 34.4088 0.0000
# 2 35.6591 109.4206 26.4445 0.0000 5.5051 0.0000
# 3 48.4943 26.4445 98.0092 0.0000 21.2400 0.0000
# 4 0.0000 0.0000 0.0000 38.2253 0.0000 -21.2169
# 5 34.4088 5.5051 21.2400 0.0000 41.1356 0.0000
# 6 0.0000 0.0000 0.0000 -21.2169 0.0000 27.3743
#
#
#
# Elastic Compliance Matrix: (Units=1/GPa)
#
#
# Indices 1 2 3 4 5 6 
#
# 1 0.011785 -0.002618 -0.003451 0.000000 -0.007726 0.000000
# 2 -0.002618 0.010358 -0.001884 0.000000 0.001777 0.000000
# 3 -0.003451 -0.001884 0.013218 0.000000 -0.003686 0.000000
# 4 0.000000 0.000000 0.000000 0.045912 0.000000 0.035585
# 5 -0.007726 0.001777 -0.003686 0.000000 0.032438 0.000000
# 6 0.000000 0.000000 0.000000 0.035585 0.000000 0.064111
#
#
# Mechanical properties :
#
#
# Convention : Reuss Voigt Hill
#
# Bulk Modulus (GPa) = 51.40013 62.01708 56.70860
# Shear Modulus (GPa) = 24.97327 36.43770 30.70549
#
# Velocity S-wave (km/s) = 3.34709 4.04301 3.71140
# Velocity P-wave (km/s) = 6.16405 7.04383 6.61857
#
# Compressibility (1/GPa) = 0.01945521
#
# Stress axis : x y z
#
# Youngs Moduli (GPa) = 84.85095 96.54084 75.65558
#
# Poissons Ratio (x) = 0.25275 0.26105
# Poissons Ratio (y) = 0.22215 0.14257
# Poissons Ratio (z) = 0.29278 0.18193
#
# Static dielectric constant tensor:
#      x y z
#    x 1.901780 0.000000 -0.028110 
#    y 0.000000 1.811160 0.000000 
#    z -0.028110 0.000000 1.879670 
# 
# From -- ./inp_files/4989.got.cif
#   From: 2010.05.17/outbox.cif.g08.bks.cpg/sg14_3_cif.got.tgz:4989.got - 2010.06.03 17:49:19.
