data_PCOD9251776
_publ_section_title
;
Structure prediction by ZEFSAII (Michael W. Deem and Ramdas Pophale) SiO2 
 PCOD9251776
Probable space group: P 21/C
;
_chemical_formula_sum "Si O2"
_cell_formula_units_Z 18
_cell_length_a 8.644624
_cell_length_b 7.332477
_cell_length_c 24.114484
_cell_angle_alpha 90.000000
_cell_angle_beta 26.426465
_cell_angle_gamma 90.000000
_cell_volume 680.271828
_symmetry_space_group_name_H-M "P 21/C"
_symmetry_group_IT_number 14
_symmetry_cell_setting 'monoclinic'
loop_
_space_group_symop_operation_xyz
x,y,z
-x,1/2+y,1/2-z
-x,-y,-z
x,1/2-y,1/2+z
loop_
_atom_site_type_symbol
_atom_site_label
_atom_site_fract_x
_atom_site_fract_y
_atom_site_fract_z
Si Si1 0.192355 0.078767 0.735188
Si Si2 0.166271 0.139064 0.515501
Si Si3 0.890415 0.730553 0.130528
Si Si4 0.683860 0.767437 0.911475
Si Si5 0.000000 0.500000 0.500000
O O1 0.097508 0.163264 0.706141
O O2 0.264864 0.230047 0.758822
O O3 0.520305 0.948948 0.620149
O O4 0.865209 0.961109 0.859170
O O5 0.310313 0.172535 0.531285
O O6 0.036289 0.327547 0.532275
O O7 0.881714 0.978492 0.613801
O O8 0.305780 0.766275 0.005551
O O9 0.799382 0.872641 0.112048
#
# Coordination Sequence:
#
# PCOD9251776 Si02
#       5
#     4   4   4   4   2
#     4  11  22  41  74 109 136 193 247 306 370 423
#     4  11  25  47  71 108 148 187 249 306 364 439
#     4  11  24  46  70 103 147 190 245 306 360 436
#     4  11  22  42  76 105 144 185 252 312 354 420
#     4  12  26  48  68 100 156 196 230 306 370 452
#
# _framework density 26.460011999999999
#
# number of rings (size 3 to 8) (size 9 to 14) (size 15 to 20)
#    0.000    0.889    2.222    6.667    3.111    0.000 
#    8.000    0.000    0.000    0.000    0.000    0.000 
#    0.000    0.000    0.000    0.000    0.000    0.000 
#
# Total GULP energy -100433.320091 kJ/mol
# GULP energy per Si atom -5579.628894 kJ/mol
# Density = 2.639979 g / cm^3
# Si number density = 26.460012 Si / 1000 Ang^3
#
#
#
# Elastic Constant Matrix: (Units=GPa)
#
#
# Indices 1 2 3 4 5 6 
#
# 1 76.0587 33.8528 40.8130 0.0000 22.4208 0.0000
# 2 33.8528 152.4853 16.1381 0.0000 12.6203 0.0000
# 3 40.8130 16.1381 95.4129 0.0000 20.8891 0.0000
# 4 0.0000 0.0000 0.0000 53.1597 0.0000 23.7814
# 5 22.4208 12.6203 20.8891 0.0000 42.3434 0.0000
# 6 0.0000 0.0000 0.0000 23.7814 0.0000 57.4598
#
#
#
# Elastic Compliance Matrix: (Units=1/GPa)
#
#
# Indices 1 2 3 4 5 6 
#
# 1 0.020009 -0.003214 -0.006620 0.000000 -0.006371 0.000000
# 2 -0.003214 0.007293 0.000274 0.000000 -0.000607 0.000000
# 3 -0.006620 0.000274 0.014032 0.000000 -0.003499 0.000000
# 4 0.000000 0.000000 0.000000 0.023086 0.000000 -0.009555
# 5 -0.006371 -0.000607 -0.003499 0.000000 0.028897 0.000000
# 6 0.000000 0.000000 0.000000 -0.009555 0.000000 0.021358
#
#
# Mechanical properties :
#
#
# Convention : Reuss Voigt Hill
#
# Bulk Modulus (GPa) = 45.01824 56.17384 50.59604
# Shear Modulus (GPa) = 35.41105 46.13613 40.77359
#
# Velocity S-wave (km/s) = 3.66223 4.18019 3.92975
# Velocity P-wave (km/s) = 5.91043 6.67641 6.30506
#
# Compressibility (1/GPa) = 0.02221322
#
# Stress axis : x y z
#
# Youngs Moduli (GPa) = 49.97806 137.12178 71.26447
#
# Poissons Ratio (x) = 0.44073 0.47180
# Poissons Ratio (y) = 0.16064 -0.01954
# Poissons Ratio (z) = 0.33087 -0.03761
#
# Static dielectric constant tensor:
#      x y z
#    x 2.117700 0.000000 -0.040150 
#    y 0.000000 1.990230 0.000000 
#    z -0.040150 0.000000 2.121940 
# 
# From -- ./inp_files/64691.got.cif
#   From: 2010.05.17/outbox.cif.g08.bks.cpg/sg14_33_cif.got.tgz:64691.got - 2010.06.03 17:49:19.
