data_PCOD9251360
_publ_section_title
;
Structure prediction by ZEFSAII (Michael W. Deem and Ramdas Pophale) SiO2 
 PCOD9251360
Probable space group: P 21/C
;
_chemical_formula_sum "Si O2"
_cell_formula_units_Z 20
_cell_length_a 8.191129
_cell_length_b 4.910305
_cell_length_c 26.871161
_cell_angle_alpha 90.000000
_cell_angle_beta 124.577606
_cell_angle_gamma 90.000000
_cell_volume 889.871925
_symmetry_space_group_name_H-M "P 21/C"
_symmetry_group_IT_number 14
_symmetry_cell_setting 'monoclinic'
loop_
_space_group_symop_operation_xyz
x,y,z
-x,1/2+y,1/2-z
-x,-y,-z
x,1/2-y,1/2+z
loop_
_atom_site_type_symbol
_atom_site_label
_atom_site_fract_x
_atom_site_fract_y
_atom_site_fract_z
Si Si1 0.427523 0.016640 0.430227
Si Si2 0.973839 0.800268 0.601925
Si Si3 0.564922 0.230706 0.290822
Si Si4 0.537660 0.506035 0.385837
Si Si5 0.029992 0.309355 0.552847
O O1 0.562256 0.246148 0.426570
O O2 0.199732 0.112834 0.391649
O O3 0.500000 0.000000 0.500000
O O4 0.435153 0.735682 0.401354
O O5 0.200416 0.816186 0.659333
O O6 0.932707 0.490919 0.579243
O O7 0.965242 0.001943 0.551993
O O8 0.534677 0.449539 0.241988
O O9 0.464209 0.363845 0.322433
O O10 0.734017 0.662905 0.401232
O O11 0.000000 0.500000 0.500000
#
# Coordination Sequence:
#
# PCOD9251360 Si02
#       5
#     4   4   4   4   4
#     4  12  23  40  62  98 138 164 189 251 324 389
#     4  11  23  38  62  92 123 163 209 254 311 375
#     4  11  23  44  68  88 117 166 224 277 307 346
#     4  11  23  39  63  92 124 166 211 251 309 381
#     4  11  20  37  60  90 123 165 209 251 301 377
#
# _framework density 22.475145000000001
#
# number of rings (size 3 to 8) (size 9 to 14) (size 15 to 20)
#    0.000    0.800    0.000   10.800    0.000    0.000 
#    0.000    4.000    0.000    2.400    0.000    0.000 
#    0.000    0.000    0.000    0.000    0.000    0.000 
#
# Total GULP energy -111682.481788 kJ/mol
# GULP energy per Si atom -5584.124089 kJ/mol
# Density = 2.242399 g / cm^3
# Si number density = 22.475145 Si / 1000 Ang^3
#
#
#
# Elastic Constant Matrix: (Units=GPa)
#
#
# Indices 1 2 3 4 5 6 
#
# 1 54.8618 36.6992 27.9440 0.0000 -4.8200 0.0000
# 2 36.6992 128.4280 20.9565 0.0000 -2.0781 0.0000
# 3 27.9440 20.9565 66.8266 0.0000 -2.8112 0.0000
# 4 0.0000 0.0000 0.0000 51.4353 0.0000 -21.0317
# 5 -4.8200 -2.0781 -2.8112 0.0000 25.0899 0.0000
# 6 0.0000 0.0000 0.0000 -21.0317 0.0000 34.9701
#
#
#
# Elastic Compliance Matrix: (Units=1/GPa)
#
#
# Indices 1 2 3 4 5 6 
#
# 1 0.027535 -0.006276 -0.009389 0.000000 0.003718 0.000000
# 2 -0.006276 0.009641 -0.000418 0.000000 -0.000454 0.000000
# 3 -0.009389 -0.000418 0.019034 0.000000 0.000294 0.000000
# 4 0.000000 0.000000 0.000000 0.025782 0.000000 0.015506
# 5 0.003718 -0.000454 0.000294 0.000000 0.040566 0.000000
# 6 0.000000 0.000000 0.000000 0.015506 0.000000 0.037921
#
#
# Mechanical properties :
#
#
# Convention : Reuss Voigt Hill
#
# Bulk Modulus (GPa) = 41.59278 46.81288 44.20283
# Shear Modulus (GPa) = 24.91768 33.26684 29.09226
#
# Velocity S-wave (km/s) = 3.33329 3.85146 3.60171
# Velocity P-wave (km/s) = 5.77588 6.37591 6.08330
#
# Compressibility (1/GPa) = 0.02404263
#
# Stress axis : x y z
#
# Youngs Moduli (GPa) = 36.31731 103.72633 52.53806
#
# Poissons Ratio (x) = 0.65099 0.49330
# Poissons Ratio (y) = 0.22793 0.02196
# Poissons Ratio (z) = 0.34100 0.04336
#
# Static dielectric constant tensor:
#      x y z
#    x 1.845160 0.000000 0.014210 
#    y 0.000000 1.811370 0.000000 
#    z 0.014210 0.000000 1.920220 
# 
# From -- ./inp_files/71546.got.cif
#   From: 2010.05.17/outbox.cif.g08.bks.cpg/sg14_36_cif.got.tgz:71546.got - 2010.06.03 17:49:19.
