data_PCOD9251806
_publ_section_title
;
Structure prediction by ZEFSAII (Michael W. Deem and Ramdas Pophale) SiO2 
 PCOD9251806
Probable space group: P 21/C
;
_chemical_formula_sum "Si O2"
_cell_formula_units_Z 16
_cell_length_a 16.466089
_cell_length_b 7.589118
_cell_length_c 11.599216
_cell_angle_alpha 90.000000
_cell_angle_beta 158.471024
_cell_angle_gamma 90.000000
_cell_volume 531.915926
_symmetry_space_group_name_H-M "P 21/C"
_symmetry_group_IT_number 14
_symmetry_cell_setting 'monoclinic'
loop_
_space_group_symop_operation_xyz
x,y,z
-x,1/2+y,1/2-z
-x,-y,-z
x,1/2-y,1/2+z
loop_
_atom_site_type_symbol
_atom_site_label
_atom_site_fract_x
_atom_site_fract_y
_atom_site_fract_z
Si Si1 0.481986 0.017666 0.333994
Si Si2 0.064492 0.698509 0.560920
Si Si3 0.935334 0.177745 0.192654
Si Si4 0.512545 0.122704 0.125602
O O1 0.233857 0.986815 0.055600
O O2 0.575657 0.823796 0.492160
O O3 0.662493 0.172504 0.593441
O O4 0.435782 0.027041 0.138057
O O5 0.959041 0.718994 0.293155
O O6 0.000000 0.500000 0.500000
O O7 0.995021 0.824600 0.578674
O O8 0.773284 0.346597 0.987552
O O9 0.500000 0.000000 0.000000
#
# Coordination Sequence:
#
# PCOD9251806 Si02
#       4
#     4   4   4   4
#     4   9  20  36  64  84 120 158 210 245 295 362
#     4  11  22  43  58  93 127 158 199 263 309 357
#     4   9  21  39  62  83 120 162 208 248 294 370
#     4   9  18  33  59  91 115 150 212 251 290 349
#
# _framework density 30.079941999999999
#
# number of rings (size 3 to 8) (size 9 to 14) (size 15 to 20)
#    1.500    1.000    0.000    2.250    0.000    0.000 
#   13.500    1.250    0.000    0.000    0.000    0.000 
#    0.000    0.000    0.000    0.000    0.000    0.000 
#
# Total GULP energy -89076.560567 kJ/mol
# GULP energy per Si atom -5567.285035 kJ/mol
# Density = 3.001148 g / cm^3
# Si number density = 30.079942 Si / 1000 Ang^3
#
#
#
# Elastic Constant Matrix: (Units=GPa)
#
#
# Indices 1 2 3 4 5 6 
#
# 1 212.0485 33.6836 28.3384 0.0000 -66.7402 0.0000
# 2 33.6836 125.0236 44.9261 0.0000 -22.1501 0.0000
# 3 28.3384 44.9261 86.5144 0.0000 -16.8773 0.0000
# 4 0.0000 0.0000 0.0000 54.2933 0.0000 -18.0379
# 5 -66.7402 -22.1501 -16.8773 0.0000 63.9670 0.0000
# 6 0.0000 0.0000 0.0000 -18.0379 0.0000 56.3385
#
#
#
# Elastic Compliance Matrix: (Units=1/GPa)
#
#
# Indices 1 2 3 4 5 6 
#
# 1 0.007107 -0.000393 -0.000742 0.000000 0.007083 0.000000
# 2 -0.000393 0.010149 -0.004782 0.000000 0.001842 0.000000
# 3 -0.000742 -0.004782 0.014561 0.000000 0.001412 0.000000
# 4 0.000000 0.000000 0.000000 0.020611 0.000000 0.006599
# 5 0.007083 0.001842 0.001412 0.000000 0.024034 0.000000
# 6 0.000000 0.000000 0.000000 0.006599 0.000000 0.019863
#
#
# Mechanical properties :
#
#
# Convention : Reuss Voigt Hill
#
# Bulk Modulus (GPa) = 50.04521 70.83142 60.43832
# Shear Modulus (GPa) = 43.54674 56.02898 49.78786
#
# Velocity S-wave (km/s) = 3.80899 4.32055 4.07281
# Velocity P-wave (km/s) = 6.00151 6.96336 6.50025
#
# Compressibility (1/GPa) = 0.01998193
#
# Stress axis : x y z
#
# Youngs Moduli (GPa) = 140.70968 98.52900 68.67879
#
# Poissons Ratio (x) = 0.03874 0.05096
# Poissons Ratio (y) = 0.05533 0.32844
# Poissons Ratio (z) = 0.10440 0.47119
#
# Static dielectric constant tensor:
#      x y z
#    x 2.697200 0.000000 -0.304610 
#    y 0.000000 2.244530 0.000000 
#    z -0.304610 0.000000 3.085130 
# 
# From -- ./inp_files/22921.got.cif
#   From: 2010.05.17/outbox.cif.g08.bks.cpg/sg14_12_cif.got.tgz:22921.got - 2010.06.03 17:49:19.
