data_PCOD9251151
_publ_section_title
;
Structure prediction by ZEFSAII (Michael W. Deem and Ramdas Pophale) SiO2 
 PCOD9251151
Probable space group: P 21/C
;
_chemical_formula_sum "Si O2"
_cell_formula_units_Z 28
_cell_length_a 8.688546
_cell_length_b 4.978788
_cell_length_c 28.559034
_cell_angle_alpha 90.000000
_cell_angle_beta 125.306173
_cell_angle_gamma 90.000000
_cell_volume 1008.194910
_symmetry_space_group_name_H-M "P 21/C"
_symmetry_group_IT_number 14
_symmetry_cell_setting 'monoclinic'
loop_
_space_group_symop_operation_xyz
x,y,z
-x,1/2+y,1/2-z
-x,-y,-z
x,1/2-y,1/2+z
loop_
_atom_site_type_symbol
_atom_site_label
_atom_site_fract_x
_atom_site_fract_y
_atom_site_fract_z
Si Si1 0.862604 0.749484 0.970990
Si Si2 0.508701 0.448122 0.430159
Si Si3 0.731544 0.036190 0.595913
Si Si4 0.625426 0.294311 0.348716
Si Si5 0.329686 0.978263 0.732666
Si Si6 0.999085 0.743955 0.218115
Si Si7 0.100428 0.204570 0.124055
O O1 0.691011 0.858995 0.972498
O O2 0.796157 0.693577 0.905499
O O3 0.000000 0.500000 0.000000
O O4 0.000000 0.000000 0.000000
O O5 0.357038 0.687299 0.400287
O O6 0.575931 0.296832 0.394364
O O7 0.422905 0.197725 0.445312
O O8 0.891435 0.161212 0.588574
O O9 0.838942 0.873251 0.656037
O O10 0.574425 0.076739 0.300290
O O11 0.475538 0.502795 0.300007
O O12 0.841521 0.393068 0.375937
O O13 0.189792 0.744526 0.722877
O O14 0.186340 0.207450 0.688884
O O15 0.043168 0.521859 0.265134
#
# Coordination Sequence:
#
# PCOD9251151 Si02
#       7
#     4   4   4   4   4   4   4
#     4  11  26  50  76 103 131 173 229 288 354 416
#     4  11  26  45  72 100 138 179 225 281 343 416
#     4  11  24  44  65 100 140 180 224 279 348 407
#     4  11  23  39  65  97 139 186 234 279 329 401
#     4  11  23  37  65  94 135 183 236 275 329 398
#     4  11  24  39  59  92 140 188 230 272 326 393
#     4  10  26  42  69  98 139 181 226 288 342 407
#
# _framework density 27.772407999999999
#
# number of rings (size 3 to 8) (size 9 to 14) (size 15 to 20)
#    0.000    1.143    1.429    3.429   16.000    1.143 
#    0.000    4.286    0.000    0.000    0.000    0.000 
#    0.000    0.000    0.000    0.000    0.000    0.000 
#
# Total GULP energy -155955.287341 kJ/mol
# GULP energy per Si atom -5569.831691 kJ/mol
# Density = 2.770920 g / cm^3
# Si number density = 27.772408 Si / 1000 Ang^3
#
#
#
# Elastic Constant Matrix: (Units=GPa)
#
#
# Indices 1 2 3 4 5 6 
#
# 1 148.8392 62.7609 32.4717 0.0000 0.6666 0.0000
# 2 62.7609 122.7408 -3.1466 0.0000 6.4561 0.0000
# 3 32.4717 -3.1466 65.9421 0.0000 -9.2698 0.0000
# 4 0.0000 0.0000 0.0000 42.3732 0.0000 1.2159
# 5 0.6666 6.4561 -9.2698 0.0000 45.8097 0.0000
# 6 0.0000 0.0000 0.0000 1.2159 0.0000 49.9976
#
#
#
# Elastic Compliance Matrix: (Units=1/GPa)
#
#
# Indices 1 2 3 4 5 6 
#
# 1 0.010099 -0.005275 -0.005292 0.000000 -0.000474 0.000000
# 2 -0.005275 0.010967 0.003000 0.000000 -0.000862 0.000000
# 3 -0.005292 0.003000 0.018388 0.000000 0.003375 0.000000
# 4 0.000000 0.000000 0.000000 0.023616 0.000000 -0.000574
# 5 -0.000474 -0.000862 0.003375 0.000000 0.022641 0.000000
# 6 0.000000 0.000000 0.000000 -0.000574 0.000000 0.020015
#
#
# Mechanical properties :
#
#
# Convention : Reuss Voigt Hill
#
# Bulk Modulus (GPa) = 41.11745 57.96602 49.54173
# Shear Modulus (GPa) = 38.76963 43.99851 41.38407
#
# Velocity S-wave (km/s) = 3.74033 3.98459 3.86439
# Velocity P-wave (km/s) = 5.78712 6.48740 6.14724
#
# Compressibility (1/GPa) = 0.02432058
#
# Stress axis : x y z
#
# Youngs Moduli (GPa) = 99.01490 91.18540 54.38279
#
# Poissons Ratio (x) = 0.48099 0.28777
# Poissons Ratio (y) = 0.52229 -0.16313
# Poissons Ratio (z) = 0.52395 -0.27352
#
# Static dielectric constant tensor:
#      x y z
#    x 2.243500 0.000000 0.065240 
#    y 0.000000 2.528490 0.000000 
#    z 0.065240 0.000000 2.367580 
# 
# From -- ./inp_files/79294.got.cif
#   From: 2010.05.17/outbox.cif.g08.bks.cpg/sg14_40_cif.got.tgz:79294.got - 2010.06.03 17:49:19.
