data_PCOD9251714
_publ_section_title
;
Structure prediction by ZEFSAII (Michael W. Deem and Ramdas Pophale) SiO2 
 PCOD9251714
Probable space group: P 21/C
;
_chemical_formula_sum "Si O2"
_cell_formula_units_Z 24
_cell_length_a 8.739119
_cell_length_b 13.474154
_cell_length_c 16.760768
_cell_angle_alpha 90.000000
_cell_angle_beta 152.233852
_cell_angle_gamma 90.000000
_cell_volume 919.437376
_symmetry_space_group_name_H-M "P 21/C"
_symmetry_group_IT_number 14
_symmetry_cell_setting 'monoclinic'
loop_
_space_group_symop_operation_xyz
x,y,z
-x,1/2+y,1/2-z
-x,-y,-z
x,1/2-y,1/2+z
loop_
_atom_site_type_symbol
_atom_site_label
_atom_site_fract_x
_atom_site_fract_y
_atom_site_fract_z
Si Si1 0.610049 0.595717 0.388366
Si Si2 0.426126 0.469540 0.155872
Si Si3 0.920179 0.394492 0.114125
Si Si4 0.057225 0.220028 0.429301
Si Si5 0.034506 0.517081 0.321152
Si Si6 0.241339 0.281317 0.830456
O O1 0.569598 0.510588 0.304160
O O2 0.670188 0.539028 0.499118
O O3 0.908233 0.673713 0.511701
O O4 0.293374 0.666949 0.239513
O O5 0.715517 0.483880 0.224658
O O6 0.146222 0.548873 0.998287
O O7 0.289910 0.359843 0.079966
O O8 0.972108 0.478985 0.203695
O O9 0.202466 0.313708 0.256190
O O10 0.590749 0.333825 0.983236
O O11 0.176841 0.241546 0.393682
O O12 0.972858 0.135494 0.182072
#
# Coordination Sequence:
#
# PCOD9251714 Si02
#       6
#     4   4   4   4   4   4
#     4  12  27  39  68  94 128 169 208 256 315 379
#     4  11  24  45  64  91 132 164 210 260 313 375
#     4  11  22  40  66  93 123 168 208 262 311 366
#     4  12  23  43  64  93 130 168 208 259 316 369
#     4  11  22  43  66  94 121 169 209 259 314 366
#     4  11  22  39  67  93 125 163 215 260 309 368
#
# _framework density 26.102922
#
# number of rings (size 3 to 8) (size 9 to 14) (size 15 to 20)
#    0.000    0.667    5.000    4.000    0.000    6.000 
#    0.000    0.000    0.000    0.000    0.000    0.000 
#    0.000    0.000    0.000    0.000    0.000    0.000 
#
# Total GULP energy -134654.109358 kJ/mol
# GULP energy per Si atom -5610.587890 kJ/mol
# Density = 2.604351 g / cm^3
# Si number density = 26.102922 Si / 1000 Ang^3
#
#
#
# Elastic Constant Matrix: (Units=GPa)
#
#
# Indices 1 2 3 4 5 6 
#
# 1 49.4462 11.1828 30.3837 0.0000 -8.2144 0.0000
# 2 11.1828 160.1951 52.3230 0.0000 -12.9587 0.0000
# 3 30.3837 52.3230 127.2656 0.0000 -11.6912 0.0000
# 4 0.0000 0.0000 0.0000 67.4383 0.0000 0.6621
# 5 -8.2144 -12.9587 -11.6912 0.0000 44.0021 0.0000
# 6 0.0000 0.0000 0.0000 0.6621 0.0000 26.2113
#
#
#
# Elastic Compliance Matrix: (Units=1/GPa)
#
#
# Indices 1 2 3 4 5 6 
#
# 1 0.024115 0.000411 -0.005639 0.000000 0.003125 0.000000
# 2 0.000411 0.007299 -0.002967 0.000000 0.001438 0.000000
# 3 -0.005639 -0.002967 0.010503 0.000000 0.000864 0.000000
# 4 0.000000 0.000000 0.000000 0.014832 0.000000 -0.000375
# 5 0.003125 0.001438 0.000864 0.000000 0.023963 0.000000
# 6 0.000000 0.000000 0.000000 -0.000375 0.000000 0.038161
#
#
# Mechanical properties :
#
#
# Convention : Reuss Voigt Hill
#
# Bulk Modulus (GPa) = 39.17359 58.29843 48.73601
# Shear Modulus (GPa) = 34.77717 43.73152 39.25434
#
# Velocity S-wave (km/s) = 3.65404 4.09754 3.88213
# Velocity P-wave (km/s) = 5.73085 6.69097 6.22943
#
# Compressibility (1/GPa) = 0.02552740
#
# Stress axis : x y z
#
# Youngs Moduli (GPa) = 41.46730 137.00356 95.20953
#
# Poissons Ratio (x) = -0.05635 0.53693
# Poissons Ratio (y) = -0.01705 0.28248
# Poissons Ratio (z) = 0.23385 0.40649
#
# Static dielectric constant tensor:
#      x y z
#    x 2.043240 0.000000 0.089530 
#    y 0.000000 1.989930 0.000000 
#    z 0.089530 0.000000 2.088160 
# 
# From -- ./inp_files/41861.got.cif
#   From: 2010.05.17/outbox.cif.g08.bks.cpg/sg14_21_cif.got.tgz:41861.got - 2010.06.03 17:49:19.
