data_PCOD9251303
_publ_section_title
;
Structure prediction by ZEFSAII (Michael W. Deem and Ramdas Pophale) SiO2 
 PCOD9251303
Probable space group: P 21/C
;
_chemical_formula_sum "Si O2"
_cell_formula_units_Z 32
_cell_length_a 16.738331
_cell_length_b 15.308579
_cell_length_c 23.547035
_cell_angle_alpha 90.000000
_cell_angle_beta 15.745772
_cell_angle_gamma 90.000000
_cell_volume 1637.360008
_symmetry_space_group_name_H-M "P 21/C"
_symmetry_group_IT_number 14
_symmetry_cell_setting 'monoclinic'
loop_
_space_group_symop_operation_xyz
x,y,z
-x,1/2+y,1/2-z
-x,-y,-z
x,1/2-y,1/2+z
loop_
_atom_site_type_symbol
_atom_site_label
_atom_site_fract_x
_atom_site_fract_y
_atom_site_fract_z
Si Si1 0.891174 0.164569 0.344853
Si Si2 0.879646 0.090966 0.241383
Si Si3 0.228395 0.275309 0.298503
Si Si4 0.748835 0.892867 0.791668
Si Si5 0.874537 0.087559 0.719905
Si Si6 0.829310 0.597793 0.760215
Si Si7 0.854228 0.232728 0.168015
Si Si8 0.189045 0.164679 0.604743
O O1 0.981999 0.090924 0.236778
O O2 0.546115 0.179581 0.591988
O O3 0.065035 0.149389 0.283750
O O4 0.988265 0.249653 0.243063
O O5 0.526811 0.099099 0.492076
O O6 0.974395 0.169965 0.136147
O O7 0.935296 0.999003 0.173355
O O8 0.256243 0.176650 0.255768
O O9 0.085302 0.331614 0.345035
O O10 0.040818 0.276974 0.483608
O O11 0.875941 0.989974 0.693548
O O12 0.419410 0.904520 0.040706
O O13 0.858832 0.167378 0.686368
O O14 0.137604 0.106974 0.584318
O O15 0.913269 0.618273 0.767255
O O16 0.522730 0.198548 0.383263
#
# Coordination Sequence:
#
# PCOD9251303 Si02
#       8
#     4   4   4   4   4   4   4   4
#     4  11  19  38  64  84 111 156 199 242 287 347
#     4   9  18  35  59  84 110 147 195 241 285 341
#     4  11  23  38  60  88 124 155 189 243 302 353
#     4  11  22  39  63  89 116 156 204 246 288 347
#     4  11  22  39  63  89 116 156 204 246 288 347
#     4   9  18  35  59  84 110 147 195 241 285 341
#     4  11  23  38  60  88 124 155 189 243 302 353
#     4  11  19  38  64  84 111 156 199 242 287 347
#
# _framework density 19.543655000000001
#
# number of rings (size 3 to 8) (size 9 to 14) (size 15 to 20)
#    0.000    1.500    5.000    1.500    0.000    3.000 
#    0.000    0.000    0.000    0.000    0.000    0.000 
#    0.000    0.000    0.000    0.000    0.000    0.000 
#
# Total GULP energy -178426.905973 kJ/mol
# GULP energy per Si atom -5575.840812 kJ/mol
# Density = 1.949917 g / cm^3
# Si number density = 19.543655 Si / 1000 Ang^3
#
#
#
# Elastic Constant Matrix: (Units=GPa)
#
#
# Indices 1 2 3 4 5 6 
#
# 1 76.5333 23.8617 28.5394 0.0000 8.3122 0.0000
# 2 23.8617 96.3368 11.8800 0.0000 26.1433 0.0000
# 3 28.5394 11.8800 42.1080 0.0000 21.9188 0.0000
# 4 0.0000 0.0000 0.0000 11.6178 0.0000 -4.0408
# 5 8.3122 26.1433 21.9188 0.0000 28.1243 0.0000
# 6 0.0000 0.0000 0.0000 -4.0408 0.0000 14.6566
#
#
#
# Elastic Compliance Matrix: (Units=1/GPa)
#
#
# Indices 1 2 3 4 5 6 
#
# 1 0.021479 -0.007338 -0.021425 0.000000 0.017171 0.000000
# 2 -0.007338 0.016968 0.012228 0.000000 -0.023134 0.000000
# 3 -0.021425 0.012228 0.062998 0.000000 -0.054132 0.000000
# 4 0.000000 0.000000 0.000000 0.095204 0.000000 0.026248
# 5 0.017171 -0.023134 -0.054132 0.000000 0.094174 0.000000
# 6 0.000000 0.000000 0.000000 0.026248 0.000000 0.075465
#
#
# Mechanical properties :
#
#
# Convention : Reuss Voigt Hill
#
# Bulk Modulus (GPa) = 14.62532 38.17113 26.39823
# Shear Modulus (GPa) = 11.84419 20.92619 16.38519
#
# Velocity S-wave (km/s) = 2.46445 3.27577 2.89864
# Velocity P-wave (km/s) = 3.94939 5.82075 4.97387
#
# Compressibility (1/GPa) = 0.06837456
#
# Stress axis : x y z
#
# Youngs Moduli (GPa) = 46.55800 58.93536 15.87364
#
# Poissons Ratio (x) = 0.43244 0.34010
# Poissons Ratio (y) = 0.34162 -0.19411
# Poissons Ratio (z) = 0.99752 -0.72067
#
# Static dielectric constant tensor:
#      x y z
#    x 1.724210 0.000000 -0.052290 
#    y 0.000000 1.754890 0.000000 
#    z -0.052290 0.000000 1.650090 
# 
# From -- ./inp_files/68632.got.cif
#   From: 2010.05.17/outbox.cif.g08.bks.cpg/sg14_35_cif.got.tgz:68632.got - 2010.06.03 17:49:19.
