data_PCOD9251265
_publ_section_title
;
Structure prediction by ZEFSAII (Michael W. Deem and Ramdas Pophale) SiO2 
 PCOD9251265
Probable space group: P 21/C
;
_chemical_formula_sum "Si O2"
_cell_formula_units_Z 32
_cell_length_a 11.366261
_cell_length_b 12.849974
_cell_length_c 15.312091
_cell_angle_alpha 90.000000
_cell_angle_beta 139.535541
_cell_angle_gamma 90.000000
_cell_volume 1451.386805
_symmetry_space_group_name_H-M "P 21/C"
_symmetry_group_IT_number 14
_symmetry_cell_setting 'monoclinic'
loop_
_space_group_symop_operation_xyz
x,y,z
-x,1/2+y,1/2-z
-x,-y,-z
x,1/2-y,1/2+z
loop_
_atom_site_type_symbol
_atom_site_label
_atom_site_fract_x
_atom_site_fract_y
_atom_site_fract_z
Si Si1 0.174530 0.786216 0.048168
Si Si2 0.709190 0.064541 0.473423
Si Si3 0.889759 0.509244 0.801081
Si Si4 0.783255 0.728041 0.821972
Si Si5 0.467047 0.215989 0.653905
Si Si6 0.486491 0.187769 0.470686
Si Si7 0.569831 0.451043 0.721386
Si Si8 0.317415 0.598750 0.470058
O O1 0.241090 0.677365 0.041832
O O2 0.325473 0.812622 0.204988
O O3 0.190849 0.866068 0.977837
O O4 0.968566 0.777986 0.961404
O O5 0.617519 0.095449 0.512379
O O6 0.569256 0.019917 0.323090
O O7 0.894420 0.000204 0.581786
O O8 0.844883 0.628033 0.800588
O O9 0.794638 0.470602 0.659875
O O10 0.783077 0.444823 0.815303
O O11 0.667861 0.798973 0.690460
O O12 0.659925 0.695529 0.834307
O O13 0.417467 0.174612 0.530260
O O14 0.471604 0.342142 0.651245
O O15 0.598189 0.297844 0.527345
O O16 0.478080 0.533247 0.605210
#
# Coordination Sequence:
#
# PCOD9251265 Si02
#       8
#     4   4   4   4   4   4   4   4
#     4   9  21  41  59  89 125 163 202 253 314 370
#     4   9  21  37  57  88 125 157 197 259 308 372
#     4  11  20  35  66  95 117 156 216 262 305 359
#     4  11  21  42  63  92 126 168 209 252 310 380
#     4  11  21  39  63  90 129 168 205 253 312 375
#     4  11  20  41  63  89 126 165 207 253 312 378
#     4  11  18  34  61  91 122 157 201 260 315 351
#     4  11  20  38  63  93 120 151 211 272 302 353
#
# _framework density 22.047878000000001
#
# number of rings (size 3 to 8) (size 9 to 14) (size 15 to 20)
#    0.000    1.500    6.250    1.500    0.000    0.000 
#    9.000    1.875    2.750    3.750    0.000    0.000 
#    0.000    0.000    0.000    0.000    0.000    0.000 
#
# Total GULP energy -178830.828954 kJ/mol
# GULP energy per Si atom -5588.463405 kJ/mol
# Density = 2.199770 g / cm^3
# Si number density = 22.047878 Si / 1000 Ang^3
#
#
#
# Elastic Constant Matrix: (Units=GPa)
#
#
# Indices 1 2 3 4 5 6 
#
# 1 81.4326 19.5250 66.1571 0.0000 -18.8993 0.0000
# 2 19.5250 49.3962 19.3902 0.0000 -1.0134 0.0000
# 3 66.1571 19.3902 119.0369 0.0000 -10.5622 0.0000
# 4 0.0000 0.0000 0.0000 17.9342 0.0000 -4.9639
# 5 -18.8993 -1.0134 -10.5622 0.0000 37.0276 0.0000
# 6 0.0000 0.0000 0.0000 -4.9639 0.0000 27.4676
#
#
#
# Elastic Compliance Matrix: (Units=1/GPa)
#
#
# Indices 1 2 3 4 5 6 
#
# 1 0.026173 -0.005098 -0.012869 0.000000 0.009549 0.000000
# 2 -0.005098 0.022627 -0.001055 0.000000 -0.002284 0.000000
# 3 -0.012869 -0.001055 0.015532 0.000000 -0.002166 0.000000
# 4 0.000000 0.000000 0.000000 0.058695 0.000000 0.010607
# 5 0.009549 -0.002284 -0.002166 0.000000 0.031200 0.000000
# 6 0.000000 0.000000 0.000000 0.010607 0.000000 0.038323
#
#
# Mechanical properties :
#
#
# Convention : Reuss Voigt Hill
#
# Bulk Modulus (GPa) = 38.03872 51.11228 44.57550
# Shear Modulus (GPa) = 20.88924 26.13878 23.51401
#
# Velocity S-wave (km/s) = 3.08141 3.44691 3.26927
# Velocity P-wave (km/s) = 5.47269 6.25095 5.87472
#
# Compressibility (1/GPa) = 0.02628900
#
# Stress axis : x y z
#
# Youngs Moduli (GPa) = 38.20702 44.19511 64.38188
#
# Poissons Ratio (x) = 0.22532 0.82850
# Poissons Ratio (y) = 0.19479 0.06792
# Poissons Ratio (z) = 0.49167 0.04663
#
# Static dielectric constant tensor:
#      x y z
#    x 1.809160 0.000000 0.001620 
#    y 0.000000 1.881380 0.000000 
#    z 0.001620 0.000000 1.810010 
# 
# From -- ./inp_files/59655.got.cif
#   From: 2010.05.17/outbox.cif.g08.bks.cpg/sg14_30_cif.got.tgz:59655.got - 2010.06.03 17:49:19.
