data_PCOD9251313
_publ_section_title
;
Structure prediction by ZEFSAII (Michael W. Deem and Ramdas Pophale) SiO2 
 PCOD9251313
Probable space group: P 21/C
;
_chemical_formula_sum "Si O2"
_cell_formula_units_Z 28
_cell_length_a 16.983296
_cell_length_b 7.912932
_cell_length_c 17.039472
_cell_angle_alpha 90.000000
_cell_angle_beta 31.496278
_cell_angle_gamma 90.000000
_cell_volume 1196.339951
_symmetry_space_group_name_H-M "P 21/C"
_symmetry_group_IT_number 14
_symmetry_cell_setting 'monoclinic'
loop_
_space_group_symop_operation_xyz
x,y,z
-x,1/2+y,1/2-z
-x,-y,-z
x,1/2-y,1/2+z
loop_
_atom_site_type_symbol
_atom_site_label
_atom_site_fract_x
_atom_site_fract_y
_atom_site_fract_z
Si Si1 0.364593 0.186622 0.172101
Si Si2 0.259610 0.924169 0.489861
Si Si3 0.868747 0.279848 0.748093
Si Si4 0.340241 0.494401 0.535495
Si Si5 0.896772 0.551899 0.014664
Si Si6 0.516723 0.735612 0.191174
Si Si7 0.362831 0.941657 0.674478
O O1 0.329922 0.151197 0.110642
O O2 0.266112 0.063075 0.307570
O O3 0.316888 0.371478 0.240210
O O4 0.535282 0.129491 0.040314
O O5 0.174967 0.906368 0.644571
O O6 0.390924 0.784842 0.362630
O O7 0.132324 0.921910 0.531041
O O8 0.354086 0.098308 0.401922
O O9 0.768047 0.344308 0.760541
O O10 0.034265 0.226651 0.578592
O O11 0.810879 0.100576 0.832436
O O12 0.396537 0.405369 0.409331
O O13 0.000000 0.500000 0.000000
O O14 0.426282 0.665433 0.192395
O O15 0.500000 0.000000 0.500000
#
# Coordination Sequence:
#
# PCOD9251313 Si02
#       7
#     4   4   4   4   4   4   4
#     4  11  21  39  72 104 132 181 243 285 344 418
#     4  12  27  45  70 108 144 188 240 303 364 418
#     4  12  25  46  71 105 148 184 233 294 362 430
#     4  11  19  39  75 103 133 184 233 294 348 413
#     4  12  27  49  70  99 151 194 237 283 367 452
#     4  12  24  43  73 108 141 175 243 303 350 415
#     4  12  21  42  73 106 134 177 239 295 341 423
#
# _framework density 23.404719
#
# number of rings (size 3 to 8) (size 9 to 14) (size 15 to 20)
#    0.000    0.286    7.143    2.571    2.000    1.714 
#    5.143    0.000    0.000    0.000    0.000    0.000 
#    0.000    0.000    0.000    0.000    0.000    0.000 
#
# Total GULP energy -156477.317191 kJ/mol
# GULP energy per Si atom -5588.475614 kJ/mol
# Density = 2.335145 g / cm^3
# Si number density = 23.404719 Si / 1000 Ang^3
#
#
#
# Elastic Constant Matrix: (Units=GPa)
#
#
# Indices 1 2 3 4 5 6 
#
# 1 87.0847 1.0791 0.0583 0.0000 4.3810 0.0000
# 2 1.0791 87.4501 -2.9164 0.0000 -6.7092 0.0000
# 3 0.0583 -2.9164 81.7830 0.0000 0.1123 0.0000
# 4 0.0000 0.0000 0.0000 34.8976 0.0000 0.9364
# 5 4.3810 -6.7092 0.1123 0.0000 20.2617 0.0000
# 6 0.0000 0.0000 0.0000 0.9364 0.0000 32.2442
#
#
#
# Elastic Compliance Matrix: (Units=1/GPa)
#
#
# Indices 1 2 3 4 5 6 
#
# 1 0.011620 -0.000345 -0.000017 0.000000 -0.002627 0.000000
# 2 -0.000345 0.011757 0.000414 0.000000 0.003966 0.000000
# 3 -0.000017 0.000414 0.012242 0.000000 0.000073 0.000000
# 4 0.000000 0.000000 0.000000 0.028678 0.000000 -0.000833
# 5 -0.002627 0.003966 0.000073 0.000000 0.051235 0.000000
# 6 0.000000 0.000000 0.000000 -0.000833 0.000000 0.031038
#
#
# Mechanical properties :
#
#
# Convention : Reuss Voigt Hill
#
# Bulk Modulus (GPa) = 27.99373 28.08443 28.03908
# Shear Modulus (GPa) = 31.57100 34.68715 33.12908
#
# Velocity S-wave (km/s) = 3.67674 3.85393 3.76638
# Velocity P-wave (km/s) = 5.47825 5.64174 5.56060
#
# Compressibility (1/GPa) = 0.03572229
#
# Stress axis : x y z
#
# Youngs Moduli (GPa) = 86.06215 85.05279 81.68494
#
# Poissons Ratio (x) = 0.02938 0.00139
# Poissons Ratio (y) = 0.02973 -0.03382
# Poissons Ratio (z) = 0.00146 -0.03522
#
# Static dielectric constant tensor:
#      x y z
#    x 1.905550 0.000000 0.026320 
#    y 0.000000 2.005100 0.000000 
#    z 0.026320 0.000000 1.880340 
# 
# From -- ./inp_files/60292.got.cif
#   From: 2010.05.17/outbox.cif.g08.bks.cpg/sg14_31_cif.got.tgz:60292.got - 2010.06.03 17:49:19.
