data_PCOD9251494
_publ_section_title
;
Structure prediction by ZEFSAII (Michael W. Deem and Ramdas Pophale) SiO2 
 PCOD9251494
Probable space group: P 21/C
;
_chemical_formula_sum "Si O2"
_cell_formula_units_Z 32
_cell_length_a 23.345948
_cell_length_b 9.397240
_cell_length_c 14.697090
_cell_angle_alpha 90.000000
_cell_angle_beta 154.206013
_cell_angle_gamma 90.000000
_cell_volume 1403.035991
_symmetry_space_group_name_H-M "P 21/C"
_symmetry_group_IT_number 14
_symmetry_cell_setting 'monoclinic'
loop_
_space_group_symop_operation_xyz
x,y,z
-x,1/2+y,1/2-z
-x,-y,-z
x,1/2-y,1/2+z
loop_
_atom_site_type_symbol
_atom_site_label
_atom_site_fract_x
_atom_site_fract_y
_atom_site_fract_z
Si Si1 0.377256 0.841786 0.126732
Si Si2 0.273265 0.434903 0.942253
Si Si3 0.138922 0.151034 0.711291
Si Si4 0.098602 0.600144 0.019806
Si Si5 0.880545 0.194952 0.805516
Si Si6 0.502361 0.388410 0.829043
Si Si7 0.493714 0.260617 0.503595
Si Si8 0.694099 0.511173 0.800540
O O1 0.462195 0.755809 0.173599
O O2 0.446308 0.807738 0.320982
O O3 0.383844 0.011372 0.124763
O O4 0.232864 0.773867 0.914881
O O5 0.244544 0.270962 0.883646
O O6 0.141350 0.529456 0.742145
O O7 0.374148 0.508950 0.017523
O O8 0.321313 0.462113 0.114042
O O9 0.158264 0.013005 0.677579
O O10 0.022750 0.238726 0.490896
O O11 0.058028 0.103654 0.686851
O O12 0.144304 0.753252 0.124890
O O13 0.160905 0.546327 0.016053
O O14 0.484853 0.347764 0.908124
O O15 0.596893 0.386983 0.627573
O O16 0.355074 0.343217 0.316966
#
# Coordination Sequence:
#
# PCOD9251494 Si02
#       8
#     4   4   4   4   4   4   4   4
#     4  11  23  40  64  94 127 169 217 265 332 400
#     4  11  21  39  64  93 125 165 220 260 332 387
#     4   9  21  41  64  90 119 168 214 262 321 394
#     4   9  21  40  65  87 125 165 209 264 327 376
#     4   9  19  39  62  86 122 165 204 265 315 382
#     4  11  24  39  64  97 128 179 214 276 333 399
#     4  11  24  41  60  95 138 168 223 264 329 400
#     4  11  22  40  64  96 131 173 212 271 328 402
#
# _framework density 22.807683999999998
#
# number of rings (size 3 to 8) (size 9 to 14) (size 15 to 20)
#    0.750    1.000    2.500    3.000    5.250    1.000 
#    2.250    0.000    0.000    0.000    0.000    0.000 
#    0.000    0.000    0.000    0.000    0.000    0.000 
#
# Total GULP energy -178571.172958 kJ/mol
# GULP energy per Si atom -5580.349155 kJ/mol
# Density = 2.275577 g / cm^3
# Si number density = 22.807684 Si / 1000 Ang^3
#
#
#
# Elastic Constant Matrix: (Units=GPa)
#
#
# Indices 1 2 3 4 5 6 
#
# 1 60.5777 11.8142 2.2103 0.0000 -1.7698 0.0000
# 2 11.8142 120.7629 7.4360 0.0000 -11.9500 0.0000
# 3 2.2103 7.4360 44.2784 0.0000 -3.2542 0.0000
# 4 0.0000 0.0000 0.0000 42.7393 0.0000 3.7586
# 5 -1.7698 -11.9500 -3.2542 0.0000 19.8854 0.0000
# 6 0.0000 0.0000 0.0000 3.7586 0.0000 29.3315
#
#
#
# Elastic Compliance Matrix: (Units=1/GPa)
#
#
# Indices 1 2 3 4 5 6 
#
# 1 0.016847 -0.001568 -0.000543 0.000000 0.000468 0.000000
# 2 -0.001568 0.009004 -0.001059 0.000000 0.005098 0.000000
# 3 -0.000543 -0.001059 0.023016 0.000000 0.003082 0.000000
# 4 0.000000 0.000000 0.000000 0.023664 0.000000 -0.003032
# 5 0.000468 0.005098 0.003082 0.000000 0.053898 0.000000
# 6 0.000000 0.000000 0.000000 -0.003032 0.000000 0.034482
#
#
# Mechanical properties :
#
#
# Convention : Reuss Voigt Hill
#
# Bulk Modulus (GPa) = 23.51543 29.83779 26.67661
# Shear Modulus (GPa) = 27.55931 32.00181 29.78056
#
# Velocity S-wave (km/s) = 3.47988 3.74988 3.61740
# Velocity P-wave (km/s) = 5.14576 5.64443 5.40085
#
# Compressibility (1/GPa) = 0.04252527
#
# Stress axis : x y z
#
# Youngs Moduli (GPa) = 59.35747 111.06422 43.44834
#
# Poissons Ratio (x) = 0.17419 0.02360
# Poissons Ratio (y) = 0.09310 0.04602
# Poissons Ratio (z) = 0.03224 0.11763
#
# Static dielectric constant tensor:
#      x y z
#    x 1.871600 0.000000 0.062780 
#    y 0.000000 1.888570 0.000000 
#    z 0.062780 0.000000 1.927460 
# 
# From -- ./inp_files/51397.got.cif
#   From: 2010.05.17/outbox.cif.g08.bks.cpg/sg14_26_cif.got.tgz:51397.got - 2010.06.03 17:49:19.
