data_PCOD9251831
_publ_section_title
;
Structure prediction by ZEFSAII (Michael W. Deem and Ramdas Pophale) SiO2 
 PCOD9251831
Probable space group: P 21/C
;
_chemical_formula_sum "Si O2"
_cell_formula_units_Z 32
_cell_length_a 11.766603
_cell_length_b 14.436322
_cell_length_c 9.571990
_cell_angle_alpha 90.000000
_cell_angle_beta 95.491398
_cell_angle_gamma 90.000000
_cell_volume 1618.497931
_symmetry_space_group_name_H-M "P 21/C"
_symmetry_group_IT_number 14
_symmetry_cell_setting 'monoclinic'
loop_
_space_group_symop_operation_xyz
x,y,z
-x,1/2+y,1/2-z
-x,-y,-z
x,1/2-y,1/2+z
loop_
_atom_site_type_symbol
_atom_site_label
_atom_site_fract_x
_atom_site_fract_y
_atom_site_fract_z
Si Si1 0.975546 0.832696 0.805337
Si Si2 0.519538 0.909445 0.097541
Si Si3 0.422100 0.942243 0.386673
Si Si4 0.752769 0.964187 0.090434
Si Si5 0.654224 0.256887 0.980655
Si Si6 0.189572 0.993667 0.218613
Si Si7 0.016174 0.355376 0.358787
Si Si8 0.228211 0.650488 0.271555
O O1 0.955051 0.732487 0.734488
O O2 0.093236 0.862431 0.744654
O O3 0.879507 0.910639 0.766711
O O4 0.992076 0.830263 0.976375
O O5 0.488830 0.936663 0.250017
O O6 0.653607 0.888625 0.094002
O O7 0.437629 0.824015 0.053127
O O8 0.500000 0.000000 0.000000
O O9 0.405112 0.840622 0.446610
O O10 0.294410 0.979746 0.336840
O O11 0.500000 0.000000 0.500000
O O12 0.877583 0.925565 0.137420
O O13 0.722838 0.049339 0.188486
O O14 0.758833 0.000712 0.932087
O O15 0.711080 0.298053 0.848365
O O16 0.750592 0.213850 0.090767
O O17 0.098622 0.908901 0.203602
#
# Coordination Sequence:
#
# PCOD9251831 Si02
#       8
#     4   4   4   4   4   4   4   4
#     4  11  23  40  73 102 142 186 228 287 351 422
#     4  12  24  45  72  98 133 187 231 282 359 414
#     4  12  27  46  68 101 140 180 237 297 339 409
#     4  11  22  43  74  96 137 189 227 281 349 429
#     4  12  26  41  69 101 136 178 232 289 336 416
#     4  11  22  47  72 102 141 188 231 287 356 418
#     4  11  23  45  67 108 142 181 235 284 352 418
#     4  12  21  42  69 103 133 182 229 280 343 410
#
# _framework density 19.771419000000002
#
# number of rings (size 3 to 8) (size 9 to 14) (size 15 to 20)
#    0.000    0.500    6.250    3.000    0.000    1.000 
#    9.000    1.250    0.000    0.000    0.000    0.000 
#    0.000    0.000    0.000    0.000    0.000    0.000 
#
# Total GULP energy -178839.986148 kJ/mol
# GULP energy per Si atom -5588.749567 kJ/mol
# Density = 1.972642 g / cm^3
# Si number density = 19.771419 Si / 1000 Ang^3
#
#
#
# Elastic Constant Matrix: (Units=GPa)
#
#
# Indices 1 2 3 4 5 6 
#
# 1 125.6341 52.1282 63.4245 0.0000 -1.2161 0.0000
# 2 52.1282 124.1048 76.2184 0.0000 -3.5860 0.0000
# 3 63.4245 76.2184 110.7914 0.0000 0.9080 0.0000
# 4 0.0000 0.0000 0.0000 38.1341 0.0000 -6.2020
# 5 -1.2161 -3.5860 0.9080 0.0000 34.6793 0.0000
# 6 0.0000 0.0000 0.0000 -6.2020 0.0000 39.1493
#
#
#
# Elastic Compliance Matrix: (Units=1/GPa)
#
#
# Indices 1 2 3 4 5 6 
#
# 1 0.011328 -0.001319 -0.005581 0.000000 0.000407 0.000000
# 2 -0.001319 0.014207 -0.009032 0.000000 0.001659 0.000000
# 3 -0.005581 -0.009032 0.018448 0.000000 -0.001613 0.000000
# 4 0.000000 0.000000 0.000000 0.026917 0.000000 0.004264
# 5 0.000407 0.001659 -0.001613 0.000000 0.029064 0.000000
# 6 0.000000 0.000000 0.000000 0.004264 0.000000 0.026219
#
#
# Mechanical properties :
#
#
# Convention : Reuss Voigt Hill
#
# Bulk Modulus (GPa) = 82.51708 82.67475 82.59591
# Shear Modulus (GPa) = 30.84800 33.64316 32.24558
#
# Velocity S-wave (km/s) = 3.95426 4.12953 4.04284
# Velocity P-wave (km/s) = 7.91672 8.04011 7.97865
#
# Compressibility (1/GPa) = 0.01211870
#
# Stress axis : x y z
#
# Youngs Moduli (GPa) = 88.27410 70.39021 54.20752
#
# Poissons Ratio (x) = 0.09284 0.30254
# Poissons Ratio (y) = 0.11643 0.48960
# Poissons Ratio (z) = 0.49267 0.63576
#
# Static dielectric constant tensor:
#      x y z
#    x 1.744500 0.000000 0.024500 
#    y 0.000000 1.556080 0.000000 
#    z 0.024500 0.000000 1.690310 
# 
# From -- ./inp_files/13106.got.cif
#   From: 2010.05.17/outbox.cif.g08.bks.cpg/sg14_7_cif.got.tgz:13106.got - 2010.06.03 17:49:19.
