data_PCOD9251269
_publ_section_title
;
Structure prediction by ZEFSAII (Michael W. Deem and Ramdas Pophale) SiO2 
 PCOD9251269
Probable space group: P 21/C
;
_chemical_formula_sum "Si O2"
_cell_formula_units_Z 32
_cell_length_a 12.829326
_cell_length_b 19.768660
_cell_length_c 9.009945
_cell_angle_alpha 90.000000
_cell_angle_beta 44.759163
_cell_angle_gamma 90.000000
_cell_volume 1608.996159
_symmetry_space_group_name_H-M "P 21/C"
_symmetry_group_IT_number 14
_symmetry_cell_setting 'monoclinic'
loop_
_space_group_symop_operation_xyz
x,y,z
-x,1/2+y,1/2-z
-x,-y,-z
x,1/2-y,1/2+z
loop_
_atom_site_type_symbol
_atom_site_label
_atom_site_fract_x
_atom_site_fract_y
_atom_site_fract_z
Si Si1 0.310294 0.383382 0.449247
Si Si2 0.109686 0.290412 0.493217
Si Si3 0.673425 0.488355 0.364856
Si Si4 0.567192 0.571472 0.976617
Si Si5 0.636727 0.146681 0.077991
Si Si6 0.196535 0.071701 0.515779
Si Si7 0.961166 0.172499 0.834806
Si Si8 0.374057 0.306615 0.670299
O O1 0.154964 0.349959 0.559504
O O2 0.291470 0.456520 0.543645
O O3 0.387620 0.334152 0.489940
O O4 0.402916 0.391030 0.206665
O O5 0.025791 0.231875 0.666290
O O6 0.020598 0.314937 0.440516
O O7 0.265957 0.257266 0.282648
O O8 0.500000 0.500000 0.500000
O O9 0.682149 0.412815 0.416982
O O10 0.774365 0.508261 0.121616
O O11 0.459552 0.611565 0.195606
O O12 0.719855 0.561323 0.913160
O O13 0.500000 0.500000 0.000000
O O14 0.529354 0.198027 0.098254
O O15 0.785998 0.174506 0.996544
O O16 0.033546 0.101443 0.706525
O O17 0.285781 0.132921 0.344238
#
# Coordination Sequence:
#
# PCOD9251269 Si02
#       8
#     4   4   4   4   4   4   4   4
#     4  11  19  35  69  92 111 162 219 250 301 367
#     4  11  22  43  65  85 121 173 218 248 305 394
#     4  11  18  37  65  93 124 159 208 260 307 381
#     4  11  19  34  62  96 121 156 206 261 304 364
#     4  11  23  40  61  96 131 156 201 273 320 358
#     4   9  19  35  60  86 118 168 199 236 313 376
#     4  11  24  43  61  88 128 166 203 264 319 370
#     4   9  20  38  63  90 114 162 217 249 301 375
#
# _framework density 19.888176000000001
#
# number of rings (size 3 to 8) (size 9 to 14) (size 15 to 20)
#    0.000    1.500    7.500    0.000    0.000    0.500 
#    4.500    2.500    0.000    0.000    0.000    0.000 
#    0.000    0.000    0.000    0.000    0.000    0.000 
#
# Total GULP energy -178694.072482 kJ/mol
# GULP energy per Si atom -5584.189765 kJ/mol
# Density = 1.984291 g / cm^3
# Si number density = 19.888176 Si / 1000 Ang^3
#
#
#
# Elastic Constant Matrix: (Units=GPa)
#
#
# Indices 1 2 3 4 5 6 
#
# 1 147.3682 23.3640 41.3730 0.0000 -0.9427 0.0000
# 2 23.3640 32.5350 -5.8343 0.0000 -1.1278 0.0000
# 3 41.3730 -5.8343 47.7643 0.0000 7.0573 0.0000
# 4 0.0000 0.0000 0.0000 15.4363 0.0000 6.1032
# 5 -0.9427 -1.1278 7.0573 0.0000 35.1624 0.0000
# 6 0.0000 0.0000 0.0000 6.1032 0.0000 26.7550
#
#
#
# Elastic Compliance Matrix: (Units=1/GPa)
#
#
# Indices 1 2 3 4 5 6 
#
# 1 0.011794 -0.010512 -0.011848 0.000000 0.002357 0.000000
# 2 -0.010512 0.040796 0.014363 0.000000 -0.001856 0.000000
# 3 -0.011848 0.014363 0.033938 0.000000 -0.006669 0.000000
# 4 0.000000 0.000000 0.000000 0.071205 0.000000 -0.016243
# 5 0.002357 -0.001856 -0.006669 0.000000 0.029782 0.000000
# 6 0.000000 0.000000 0.000000 -0.016243 0.000000 0.041081
#
#
# Mechanical properties :
#
#
# Convention : Reuss Voigt Hill
#
# Bulk Modulus (GPa) = 14.17751 38.38586 26.28169
# Shear Modulus (GPa) = 18.64967 26.72170 22.68569
#
# Velocity S-wave (km/s) = 3.06555 3.66949 3.38103
# Velocity P-wave (km/s) = 4.43557 6.10707 5.33716
#
# Compressibility (1/GPa) = 0.07053426
#
# Stress axis : x y z
#
# Youngs Moduli (GPa) = 84.79153 24.51201 29.46520
#
# Poissons Ratio (x) = 0.25767 0.34910
# Poissons Ratio (y) = 0.89134 -0.42321
# Poissons Ratio (z) = 1.00459 -0.35206
#
# Static dielectric constant tensor:
#      x y z
#    x 1.697530 0.000000 -0.003400 
#    y 0.000000 1.734050 0.000000 
#    z -0.003400 0.000000 1.818720 
# 
# From -- ./inp_files/14314.got.cif
#   From: 2010.05.17/outbox.cif.g08.bks.cpg/sg14_8_cif.got.tgz:14314.got - 2010.06.03 17:49:19.
