data_PCOD9251659
_publ_section_title
;
Structure prediction by ZEFSAII (Michael W. Deem and Ramdas Pophale) SiO2 
 PCOD9251659
Probable space group: P 21/C
;
_chemical_formula_sum "Si O2"
_cell_formula_units_Z 32
_cell_length_a 14.090307
_cell_length_b 18.427207
_cell_length_c 8.098454
_cell_angle_alpha 90.000000
_cell_angle_beta 43.153213
_cell_angle_gamma 90.000000
_cell_volume 1438.160866
_symmetry_space_group_name_H-M "P 21/C"
_symmetry_group_IT_number 14
_symmetry_cell_setting 'monoclinic'
loop_
_space_group_symop_operation_xyz
x,y,z
-x,1/2+y,1/2-z
-x,-y,-z
x,1/2-y,1/2+z
loop_
_atom_site_type_symbol
_atom_site_label
_atom_site_fract_x
_atom_site_fract_y
_atom_site_fract_z
Si Si1 0.816688 0.706459 0.019101
Si Si2 0.569871 0.959576 0.180711
Si Si3 0.612831 0.102163 0.301371
Si Si4 0.103812 0.682309 0.489362
Si Si5 0.829852 0.860565 0.866250
Si Si6 0.879616 0.347202 0.917634
Si Si7 0.526098 0.783321 0.710947
Si Si8 0.427554 0.641459 0.653303
O O1 0.830974 0.793894 0.994797
O O2 0.954965 0.671788 0.765381
O O3 0.802306 0.675722 0.221571
O O4 0.679035 0.698981 0.083785
O O5 0.442089 0.937450 0.464167
O O6 0.527851 0.926410 0.057658
O O7 0.595028 0.044014 0.177274
O O8 0.711734 0.918599 0.051858
O O9 0.767153 0.134787 0.110136
O O10 0.508568 0.168658 0.403630
O O11 0.132590 0.767768 0.482078
O O12 0.095805 0.666310 0.306622
O O13 0.988566 0.887702 0.671874
O O14 0.729973 0.382757 0.122985
O O15 0.481760 0.701982 0.718411
O O16 0.433571 0.815637 0.974699
#
# Coordination Sequence:
#
# PCOD9251659 Si02
#       8
#     4   4   4   4   4   4   4   4
#     4  11  22  37  63  98 124 159 208 263 317 373
#     4  11  24  46  62  91 130 170 218 260 321 377
#     4  11  26  42  66  89 132 173 209 268 316 382
#     4  11  22  39  60  97 127 161 209 259 326 374
#     4  11  23  39  63  94 129 162 206 266 319 376
#     4  11  22  36  64  95 124 158 205 269 312 371
#     4  12  23  38  68  97 124 164 208 270 316 370
#     4  12  22  39  67  97 125 159 218 262 319 373
#
# _framework density 22.250639
#
# number of rings (size 3 to 8) (size 9 to 14) (size 15 to 20)
#    0.000    0.750    5.000    4.500    5.250    0.500 
#    0.000    2.500    0.000    0.000    0.000    0.000 
#    0.000    0.000    0.000    0.000    0.000    0.000 
#
# Total GULP energy -178845.086365 kJ/mol
# GULP energy per Si atom -5588.908949 kJ/mol
# Density = 2.220000 g / cm^3
# Si number density = 22.250639 Si / 1000 Ang^3
#
#
#
# Elastic Constant Matrix: (Units=GPa)
#
#
# Indices 1 2 3 4 5 6 
#
# 1 82.7048 18.4468 20.4581 0.0000 -21.4392 0.0000
# 2 18.4468 64.5968 4.0838 0.0000 -20.1611 0.0000
# 3 20.4581 4.0838 80.0053 0.0000 -32.2172 0.0000
# 4 0.0000 0.0000 0.0000 18.7237 0.0000 5.7655
# 5 -21.4392 -20.1611 -32.2172 0.0000 48.7129 0.0000
# 6 0.0000 0.0000 0.0000 5.7655 0.0000 12.1126
#
#
#
# Elastic Compliance Matrix: (Units=1/GPa)
#
#
# Indices 1 2 3 4 5 6 
#
# 1 0.014172 -0.002732 -0.001947 0.000000 0.003819 0.000000
# 2 -0.002732 0.018777 0.003251 0.000000 0.008719 0.000000
# 3 -0.001947 0.003251 0.017757 0.000000 0.012233 0.000000
# 4 0.000000 0.000000 0.000000 0.062581 0.000000 -0.029788
# 5 0.003819 0.008719 0.012233 0.000000 0.033908 0.000000
# 6 0.000000 0.000000 0.000000 -0.029788 0.000000 0.096737
#
#
# Mechanical properties :
#
#
# Convention : Reuss Voigt Hill
#
# Bulk Modulus (GPa) = 20.89823 34.80936 27.85379
# Shear Modulus (GPa) = 19.03043 28.19773 23.61408
#
# Velocity S-wave (km/s) = 2.92768 3.56375 3.26126
# Velocity P-wave (km/s) = 4.56520 5.71068 5.16976
#
# Compressibility (1/GPa) = 0.04785095
#
# Stress axis : x y z
#
# Youngs Moduli (GPa) = 70.56114 53.25798 56.31589
#
# Poissons Ratio (x) = 0.14550 0.10962
# Poissons Ratio (y) = 0.19278 -0.18309
# Poissons Ratio (z) = 0.13735 -0.17315
#
# Static dielectric constant tensor:
#      x y z
#    x 1.862760 0.000000 -0.004190 
#    y 0.000000 1.798730 0.000000 
#    z -0.004190 0.000000 1.894980 
# 
# From -- ./inp_files/16790.got.cif
#   From: 2010.05.17/outbox.cif.g08.bks.cpg/sg14_9_cif.got.tgz:16790.got - 2010.06.03 17:49:19.
