data_PCOD9251115
_publ_section_title
;
Structure prediction by ZEFSAII (Michael W. Deem and Ramdas Pophale) SiO2 
 PCOD9251115
Probable space group: P 21/C
;
_chemical_formula_sum "Si O2"
_cell_formula_units_Z 16
_cell_length_a 5.567920
_cell_length_b 15.152447
_cell_length_c 8.896993
_cell_angle_alpha 90.000000
_cell_angle_beta 123.033546
_cell_angle_gamma 90.000000
_cell_volume 629.281810
_symmetry_space_group_name_H-M "P 21/C"
_symmetry_group_IT_number 14
_symmetry_cell_setting 'monoclinic'
loop_
_space_group_symop_operation_xyz
x,y,z
-x,1/2+y,1/2-z
-x,-y,-z
x,1/2-y,1/2+z
loop_
_atom_site_type_symbol
_atom_site_label
_atom_site_fract_x
_atom_site_fract_y
_atom_site_fract_z
Si Si1 0.261153 0.567317 0.471771
Si Si2 0.372288 0.774146 0.547165
Si Si3 0.070523 0.150237 0.381389
Si Si4 0.397927 0.573672 0.846176
O O1 0.500000 0.500000 0.500000
O O2 0.335886 0.672015 0.500295
O O3 0.039147 0.569902 0.257975
O O4 0.229181 0.548628 0.639049
O O5 0.195630 0.799630 0.635400
O O6 0.254159 0.845839 0.386666
O O7 0.712095 0.796133 0.654393
O O8 0.288531 0.116620 0.585387
O O9 0.500000 0.500000 0.000000
#
# Coordination Sequence:
#
# PCOD9251115 Si02
#       4
#     4   4   4   4
#     4  12  26  47  79 114 151 201 258 309 386 453
#     4  10  25  51  74 109 152 202 248 318 371 453
#     4  10  26  50  75 106 155 190 261 301 387 438
#     4  10  25  48  76 110 155 195 249 312 383 443
#
# _framework density 25.425809000000001
#
# number of rings (size 3 to 8) (size 9 to 14) (size 15 to 20)
#    1.500    0.000    0.000    3.000    3.500    5.000 
#    9.000    0.000    0.000    0.000    0.000    0.000 
#    0.000    0.000    0.000    0.000    0.000    0.000 
#
# Total GULP energy -89187.731621 kJ/mol
# GULP energy per Si atom -5574.233226 kJ/mol
# Density = 2.536794 g / cm^3
# Si number density = 25.425809 Si / 1000 Ang^3
#
#
#
# Elastic Constant Matrix: (Units=GPa)
#
#
# Indices 1 2 3 4 5 6 
#
# 1 161.6234 38.4268 41.2775 0.0000 -14.6659 0.0000
# 2 38.4268 91.2333 35.1906 0.0000 -22.0622 0.0000
# 3 41.2775 35.1906 141.3048 0.0000 5.1760 0.0000
# 4 0.0000 0.0000 0.0000 43.8820 0.0000 -27.7724
# 5 -14.6659 -22.0622 5.1760 0.0000 39.4818 0.0000
# 6 0.0000 0.0000 0.0000 -27.7724 0.0000 30.0638
#
#
#
# Elastic Compliance Matrix: (Units=1/GPa)
#
#
# Indices 1 2 3 4 5 6 
#
# 1 0.007252 -0.001959 -0.001697 0.000000 0.001821 0.000000
# 2 -0.001959 0.015108 -0.003490 0.000000 0.008172 0.000000
# 3 -0.001697 -0.003490 0.008577 0.000000 -0.003705 0.000000
# 4 0.000000 0.000000 0.000000 0.054866 0.000000 0.050684
# 5 0.001821 0.008172 -0.003705 0.000000 0.031057 0.000000
# 6 0.000000 0.000000 0.000000 0.050684 0.000000 0.080083
#
#
# Mechanical properties :
#
#
# Convention : Reuss Voigt Hill
#
# Bulk Modulus (GPa) = 60.07639 69.32791 64.70215
# Shear Modulus (GPa) = 23.06442 41.30329 32.18386
#
# Velocity S-wave (km/s) = 3.01512 4.03484 3.56166
# Velocity P-wave (km/s) = 5.98337 7.00232 6.51280
#
# Compressibility (1/GPa) = 0.01664547
#
# Stress axis : x y z
#
# Youngs Moduli (GPa) = 137.89724 66.18850 116.58519
#
# Poissons Ratio (x) = 0.12969 0.19786
# Poissons Ratio (y) = 0.27019 0.40683
# Poissons Ratio (z) = 0.23403 0.23097
#
# Static dielectric constant tensor:
#      x y z
#    x 2.030850 0.000000 0.009220 
#    y 0.000000 2.014320 0.000000 
#    z 0.009220 0.000000 2.166280 
# 
# From -- ./inp_files/5570.got.cif
#   From: 2010.05.17/outbox.cif.g08.bks.cpg/sg14_3_cif.got.tgz:5570.got - 2010.06.03 17:49:19.
