data_PCOD9251986
_publ_section_title
;
Structure prediction by ZEFSAII (Michael W. Deem and Ramdas Pophale) SiO2 
 PCOD9251986
Probable space group: P 21/C
;
_chemical_formula_sum "Si O2"
_cell_formula_units_Z 16
_cell_length_a 16.966152
_cell_length_b 7.172654
_cell_length_c 13.437411
_cell_angle_alpha 90.000000
_cell_angle_beta 158.292644
_cell_angle_gamma 90.000000
_cell_volume 604.816034
_symmetry_space_group_name_H-M "P 21/C"
_symmetry_group_IT_number 14
_symmetry_cell_setting 'monoclinic'
loop_
_space_group_symop_operation_xyz
x,y,z
-x,1/2+y,1/2-z
-x,-y,-z
x,1/2-y,1/2+z
loop_
_atom_site_type_symbol
_atom_site_label
_atom_site_fract_x
_atom_site_fract_y
_atom_site_fract_z
Si Si1 0.721721 0.256362 0.830848
Si Si2 0.601479 0.649407 0.906481
Si Si3 0.221728 0.743696 0.330866
Si Si4 0.101455 0.350672 0.406433
O O1 0.485138 0.262111 0.598906
O O2 0.750007 0.305463 0.750000
O O3 0.881954 0.374715 0.086746
O O4 0.797564 0.040726 0.934460
O O5 0.381988 0.625373 0.586798
O O6 0.702444 0.459341 0.065562
O O7 0.750019 0.750044 0.000037
O O8 0.985156 0.737954 0.098949
#
# Coordination Sequence:
#
# PCOD9251986 Si02
#       4
#     4   4   4   4
#     4  11  24  44  68  92 129 173 208 261 321 373
#     4  11  23  40  68  98 125 165 221 258 309 388
#     4  11  24  44  68  92 129 173 208 261 321 373
#     4  11  23  40  68  98 125 165 221 258 309 388
#
# _framework density 26.454326999999999
#
# number of rings (size 3 to 8) (size 9 to 14) (size 15 to 20)
#    0.000    1.000    5.000    1.500    0.000    0.000 
#    0.000   12.500    0.000    0.000    0.000    0.000 
#    0.000    0.000    0.000    0.000    0.000    0.000 
#
# Total GULP energy -89614.105476 kJ/mol
# GULP energy per Si atom -5600.881592 kJ/mol
# Density = 2.639412 g / cm^3
# Si number density = 26.454327 Si / 1000 Ang^3
#
#
#
# Elastic Constant Matrix: (Units=GPa)
#
#
# Indices 1 2 3 4 5 6 
#
# 1 257.9655 25.1889 40.1262 0.0000 1.3436 0.0000
# 2 25.1889 85.8072 3.7518 0.0000 15.4059 0.0000
# 3 40.1262 3.7518 51.5403 0.0000 3.9192 0.0000
# 4 0.0000 0.0000 0.0000 47.4231 0.0000 4.5124
# 5 1.3436 15.4059 3.9192 0.0000 59.7008 0.0000
# 6 0.0000 0.0000 0.0000 4.5124 0.0000 33.2105
#
#
#
# Elastic Compliance Matrix: (Units=1/GPa)
#
#
# Indices 1 2 3 4 5 6 
#
# 1 0.004538 -0.001261 -0.003475 0.000000 0.000451 0.000000
# 2 -0.001261 0.012593 0.000312 0.000000 -0.003242 0.000000
# 3 -0.003475 0.000312 0.022196 0.000000 -0.001459 0.000000
# 4 0.000000 0.000000 0.000000 0.021363 0.000000 -0.002903
# 5 0.000451 -0.003242 -0.001459 0.000000 0.017672 0.000000
# 6 0.000000 0.000000 0.000000 -0.002903 0.000000 0.030505
#
#
# Mechanical properties :
#
#
# Convention : Reuss Voigt Hill
#
# Bulk Modulus (GPa) = 32.81161 59.27187 46.04174
# Shear Modulus (GPa) = 39.10027 49.81661 44.45844
#
# Velocity S-wave (km/s) = 3.84869 4.34420 4.10393
# Velocity P-wave (km/s) = 5.67273 6.90049 6.31651
#
# Compressibility (1/GPa) = 0.03047702
#
# Stress axis : x y z
#
# Youngs Moduli (GPa) = 220.36679 79.41150 45.05248
#
# Poissons Ratio (x) = 0.10015 0.15658
# Poissons Ratio (y) = 0.27793 -0.01404
# Poissons Ratio (z) = 0.76587 -0.02476
#
# Static dielectric constant tensor:
#      x y z
#    x 2.150700 0.000000 0.070820 
#    y 0.000000 2.152690 0.000000 
#    z 0.070820 0.000000 2.075030 
# 
# From -- ./inp_files/22699.got.cif
#   From: 2010.05.17/outbox.cif.g08.bks.cpg/sg14_12_cif.got.tgz:22699.got - 2010.06.03 17:49:19.
