data_PCOD9251164
_publ_section_title
;
Structure prediction by ZEFSAII (Michael W. Deem and Ramdas Pophale) SiO2 
 PCOD9251164
Probable space group: P 21/C
;
_chemical_formula_sum "Si O2"
_cell_formula_units_Z 30
_cell_length_a 11.846938
_cell_length_b 6.571402
_cell_length_c 20.936402
_cell_angle_alpha 90.000000
_cell_angle_beta 64.378224
_cell_angle_gamma 90.000000
_cell_volume 1469.646799
_symmetry_space_group_name_H-M "P 21/C"
_symmetry_group_IT_number 14
_symmetry_cell_setting 'monoclinic'
loop_
_space_group_symop_operation_xyz
x,y,z
-x,1/2+y,1/2-z
-x,-y,-z
x,1/2-y,1/2+z
loop_
_atom_site_type_symbol
_atom_site_label
_atom_site_fract_x
_atom_site_fract_y
_atom_site_fract_z
Si Si1 0.558001 0.099727 0.638753
Si Si2 0.864078 0.204796 0.720806
Si Si3 0.500000 0.000000 0.500000
Si Si4 0.910709 0.496140 0.336400
Si Si5 0.227555 0.225780 0.404387
Si Si6 0.763524 0.701062 0.961857
Si Si7 0.358853 0.937360 0.790698
Si Si8 0.018558 0.890603 0.596121
O O1 0.688359 0.976869 0.615515
O O2 0.458081 0.998229 0.712050
O O3 0.519490 0.073947 0.574020
O O4 0.578528 0.323959 0.663908
O O5 0.840298 0.085290 0.791660
O O6 0.741018 0.287934 0.717698
O O7 0.959478 0.390363 0.712744
O O8 0.937373 0.049783 0.657239
O O9 0.367900 0.117413 0.528856
O O10 0.827272 0.656929 0.394263
O O11 0.942162 0.303854 0.372450
O O12 0.249110 0.322263 0.468769
O O13 0.281395 0.370227 0.336141
O O14 0.080190 0.186386 0.431887
O O15 0.857178 0.512432 0.953133
#
# Coordination Sequence:
#
# PCOD9251164 Si02
#       8
#     4   4   2   4   4   4   4   4
#     4  11  25  45  70 101 136 185 229 288 342 410
#     4  11  23  39  67 102 137 174 224 281 337 408
#     4  10  26  50  66  94 146 174 226 288 344 406
#     4  11  23  40  65 103 138 177 223 274 354 407
#     4  11  23  45  66  98 137 173 227 286 339 409
#     4  10  26  44  66  99 132 184 224 277 350 408
#     4  12  24  42  72 100 131 183 237 277 344 411
#     4  11  22  41  69  98 134 174 220 285 332 410
#
# _framework density 20.413069
#
# number of rings (size 3 to 8) (size 9 to 14) (size 15 to 20)
#    0.000    1.067    5.333    0.400    1.867    4.800 
#    0.000    2.000    0.000    0.000    0.000    0.000 
#    0.000    0.000    0.000    0.000    0.000    0.000 
#
# Total GULP energy -167033.522364 kJ/mol
# GULP energy per Si atom -5567.784079 kJ/mol
# Density = 2.036661 g / cm^3
# Si number density = 20.413069 Si / 1000 Ang^3
#
#
#
# Elastic Constant Matrix: (Units=GPa)
#
#
# Indices 1 2 3 4 5 6 
#
# 1 108.2957 19.1207 33.8843 0.0000 22.4538 0.0000
# 2 19.1207 52.4130 16.6483 0.0000 2.7418 0.0000
# 3 33.8843 16.6483 74.9974 0.0000 11.8518 0.0000
# 4 0.0000 0.0000 0.0000 23.7804 0.0000 8.3057
# 5 22.4538 2.7418 11.8518 0.0000 33.2305 0.0000
# 6 0.0000 0.0000 0.0000 8.3057 0.0000 11.5574
#
#
#
# Elastic Compliance Matrix: (Units=1/GPa)
#
#
# Indices 1 2 3 4 5 6 
#
# 1 0.012356 -0.002927 -0.003870 0.000000 -0.006728 0.000000
# 2 -0.002927 0.021220 -0.003629 0.000000 0.001521 0.000000
# 3 -0.003870 -0.003629 0.016349 0.000000 -0.002917 0.000000
# 4 0.000000 0.000000 0.000000 0.056144 0.000000 -0.040348
# 5 -0.006728 0.001521 -0.002917 0.000000 0.035553 0.000000
# 6 0.000000 0.000000 0.000000 -0.040348 0.000000 0.115521
#
#
# Mechanical properties :
#
#
# Convention : Reuss Voigt Hill
#
# Bulk Modulus (GPa) = 34.39401 41.66806 38.03103
# Shear Modulus (GPa) = 17.38015 24.78383 21.08199
#
# Velocity S-wave (km/s) = 2.92108 3.48820 3.21716
# Velocity P-wave (km/s) = 5.31625 6.05641 5.69836
#
# Compressibility (1/GPa) = 0.02907483
#
# Stress axis : x y z
#
# Youngs Moduli (GPa) = 80.92974 47.12558 61.16725
#
# Poissons Ratio (x) = 0.13792 0.23671
# Poissons Ratio (y) = 0.23685 0.22195
# Poissons Ratio (z) = 0.31319 0.17100
#
# Static dielectric constant tensor:
#      x y z
#    x 1.707210 0.000000 0.014170 
#    y 0.000000 1.721220 0.000000 
#    z 0.014170 0.000000 1.762850 
# 
# From -- ./inp_files/66489.got.cif
#   From: 2010.05.17/outbox.cif.g08.bks.cpg/sg14_34_cif.got.tgz:66489.got - 2010.06.03 17:49:19.
