data_PCOD9251783
_publ_section_title
;
Structure prediction by ZEFSAII (Michael W. Deem and Ramdas Pophale) SiO2 
 PCOD9251783
Probable space group: P 21/C
;
_chemical_formula_sum "Si O2"
_cell_formula_units_Z 28
_cell_length_a 7.506455
_cell_length_b 23.146269
_cell_length_c 7.862196
_cell_angle_alpha 90.000000
_cell_angle_beta 55.168235
_cell_angle_gamma 90.000000
_cell_volume 1121.280799
_symmetry_space_group_name_H-M "P 21/C"
_symmetry_group_IT_number 14
_symmetry_cell_setting 'monoclinic'
loop_
_space_group_symop_operation_xyz
x,y,z
-x,1/2+y,1/2-z
-x,-y,-z
x,1/2-y,1/2+z
loop_
_atom_site_type_symbol
_atom_site_label
_atom_site_fract_x
_atom_site_fract_y
_atom_site_fract_z
Si Si1 0.170330 0.046386 0.470983
Si Si2 0.574257 0.979305 0.270069
Si Si3 0.593359 0.370199 0.321509
Si Si4 0.758604 0.165333 0.183937
Si Si5 0.299234 0.163629 0.286332
Si Si6 0.114987 0.721570 0.032556
Si Si7 0.107476 0.941762 0.076375
O O1 0.145040 0.109098 0.406419
O O2 0.122010 0.051916 0.700786
O O3 0.397382 0.022978 0.278158
O O4 0.000000 0.000000 0.500000
O O5 0.503719 0.913975 0.266682
O O6 0.500000 0.000000 0.500000
O O7 0.788402 0.999407 0.050735
O O8 0.406867 0.344621 0.544204
O O9 0.743761 0.410504 0.360447
O O10 0.728276 0.317350 0.170112
O O11 0.497114 0.160416 0.313215
O O12 0.847614 0.193876 0.304480
O O13 0.816719 0.211995 0.007922
O O14 0.871905 0.104427 0.086465
O O15 0.136720 0.216924 0.383796
#
# Coordination Sequence:
#
# PCOD9251783 Si02
#       7
#     4   4   4   4   4   4   4
#     4  12  22  40  71  98 136 186 228 282 356 417
#     4  12  24  39  66 101 142 180 228 288 347 423
#     4  11  22  42  68 101 135 182 233 283 350 420
#     4  11  26  47  71 102 141 180 240 294 350 428
#     4  11  25  46  73 102 139 188 232 290 363 409
#     4  12  26  48  71 103 139 183 239 294 351 423
#     4  11  22  42  67  97 139 180 230 290 344 416
#
# _framework density 24.971443000000001
#
# number of rings (size 3 to 8) (size 9 to 14) (size 15 to 20)
#    0.000    0.571    5.714    3.857    0.000    4.000 
#    0.000    0.000    0.000    0.000    0.000    0.000 
#    0.000    0.000    0.000    0.000    0.000    0.000 
#
# Total GULP energy -156660.714762 kJ/mol
# GULP energy per Si atom -5595.025527 kJ/mol
# Density = 2.491461 g / cm^3
# Si number density = 24.971443 Si / 1000 Ang^3
#
#
#
# Elastic Constant Matrix: (Units=GPa)
#
#
# Indices 1 2 3 4 5 6 
#
# 1 27.2809 -5.2370 22.0573 0.0000 -18.8359 0.0000
# 2 -5.2370 74.1199 8.1104 0.0000 -13.0741 0.0000
# 3 22.0573 8.1104 119.9674 0.0000 -19.0481 0.0000
# 4 0.0000 0.0000 0.0000 42.7505 0.0000 6.7209
# 5 -18.8359 -13.0741 -19.0481 0.0000 50.1917 0.0000
# 6 0.0000 0.0000 0.0000 6.7209 0.0000 33.6731
#
#
#
# Elastic Compliance Matrix: (Units=1/GPa)
#
#
# Indices 1 2 3 4 5 6 
#
# 1 0.060018 0.008974 -0.008188 0.000000 0.021754 0.000000
# 2 0.008974 0.015501 -0.001620 0.000000 0.006791 0.000000
# 3 -0.008188 -0.001620 0.009998 0.000000 0.000300 0.000000
# 4 0.000000 0.000000 0.000000 0.024149 0.000000 -0.004820
# 5 0.021754 0.006791 0.000300 0.000000 0.029970 0.000000
# 6 0.000000 0.000000 0.000000 -0.004820 0.000000 0.030659
#
#
# Mechanical properties :
#
#
# Convention : Reuss Voigt Hill
#
# Bulk Modulus (GPa) = 11.92616 30.13664 21.03140
# Shear Modulus (GPa) = 25.01099 38.41889 31.71494
#
# Velocity S-wave (km/s) = 3.16821 3.92664 3.56764
# Velocity P-wave (km/s) = 4.26260 5.71425 5.04095
#
# Compressibility (1/GPa) = 0.08384932
#
# Stress axis : x y z
#
# Youngs Moduli (GPa) = 16.66175 64.51309 100.01922
#
# Poissons Ratio (x) = -0.57892 0.81892
# Poissons Ratio (y) = -0.14952 0.16199
# Poissons Ratio (z) = 0.13642 0.10449
#
# Static dielectric constant tensor:
#      x y z
#    x 2.234630 0.000000 0.040490 
#    y 0.000000 1.913070 0.000000 
#    z 0.040490 0.000000 1.988850 
# 
# From -- ./inp_files/10356.got.cif
#   From: 2010.05.17/outbox.cif.g08.bks.cpg/sg14_6_cif.got.tgz:10356.got - 2010.06.03 17:49:19.
