data_PCOD9251479
_publ_section_title
;
Structure prediction by ZEFSAII (Michael W. Deem and Ramdas Pophale) SiO2 
 PCOD9251479
Probable space group: P 21/C
;
_chemical_formula_sum "Si O2"
_cell_formula_units_Z 32
_cell_length_a 12.130940
_cell_length_b 14.583566
_cell_length_c 8.808369
_cell_angle_alpha 90.000000
_cell_angle_beta 90.025385
_cell_angle_gamma 90.000000
_cell_volume 1558.309231
_symmetry_space_group_name_H-M "P 21/C"
_symmetry_group_IT_number 14
_symmetry_cell_setting 'monoclinic'
loop_
_space_group_symop_operation_xyz
x,y,z
-x,1/2+y,1/2-z
-x,-y,-z
x,1/2-y,1/2+z
loop_
_atom_site_type_symbol
_atom_site_label
_atom_site_fract_x
_atom_site_fract_y
_atom_site_fract_z
Si Si1 0.499881 0.758798 0.158478
Si Si2 0.568113 0.437908 0.721797
Si Si3 0.342557 0.258174 0.089983
Si Si4 0.855411 0.480806 0.205360
Si Si5 0.747933 0.949302 0.404883
Si Si6 0.117408 0.165100 0.122348
Si Si7 0.367440 0.563904 0.627539
Si Si8 0.060599 0.142209 0.778126
O O1 0.452891 0.660205 0.201263
O O2 0.618009 0.776430 0.239037
O O3 0.415101 0.839675 0.187848
O O4 0.540928 0.764923 0.985713
O O5 0.646199 0.497336 0.831187
O O6 0.450790 0.487024 0.692417
O O7 0.623762 0.434499 0.555144
O O8 0.295903 0.353233 0.024891
O O9 0.247672 0.182867 0.088351
O O10 0.897700 0.578402 0.269061
O O11 0.753966 0.452923 0.312597
O O12 0.951471 0.406715 0.217327
O O13 0.808724 0.494619 0.036320
O O14 0.835778 0.918476 0.278050
O O15 0.077019 0.257648 0.204293
O O16 0.060931 0.149945 0.959856
#
# Coordination Sequence:
#
# PCOD9251479 Si02
#       8
#     4   4   4   4   4   4   4   4
#     4  12  23  39  62  97 137 175 215 273 333 403
#     4  11  24  42  66  94 139 178 222 276 341 401
#     4  11  21  38  66  99 130 172 225 274 321 400
#     4  12  26  45  69 102 137 178 227 281 344 406
#     4  11  23  41  71  97 133 174 232 283 333 400
#     4  11  23  45  73 101 131 180 229 285 334 395
#     4  11  25  43  62 100 137 180 218 273 341 409
#     4  11  25  47  71 102 130 176 231 284 338 403
#
# _framework density 20.535077000000001
#
# number of rings (size 3 to 8) (size 9 to 14) (size 15 to 20)
#    0.000    0.750    2.500    6.750    3.500    1.000 
#    6.750    0.000    0.000    0.000    0.000    0.000 
#    0.000    0.000    0.000    0.000    0.000    0.000 
#
# Total GULP energy -179008.660201 kJ/mol
# GULP energy per Si atom -5594.020631 kJ/mol
# Density = 2.048834 g / cm^3
# Si number density = 20.535077 Si / 1000 Ang^3
#
#
#
# Elastic Constant Matrix: (Units=GPa)
#
#
# Indices 1 2 3 4 5 6 
#
# 1 72.9800 27.9706 3.3728 0.0000 -0.2144 0.0000
# 2 27.9706 93.4101 4.1009 0.0000 -8.0332 0.0000
# 3 3.3728 4.1009 52.7542 0.0000 11.4783 0.0000
# 4 0.0000 0.0000 0.0000 18.1370 0.0000 8.3691
# 5 -0.2144 -8.0332 11.4783 0.0000 25.2575 0.0000
# 6 0.0000 0.0000 0.0000 8.3691 0.0000 37.0082
#
#
#
# Elastic Compliance Matrix: (Units=1/GPa)
#
#
# Indices 1 2 3 4 5 6 
#
# 1 0.015532 -0.004739 -0.000361 0.000000 -0.001211 0.000000
# 2 -0.004739 0.012608 -0.001710 0.000000 0.004747 0.000000
# 3 -0.000361 -0.001710 0.021341 0.000000 -0.010245 0.000000
# 4 0.000000 0.000000 0.000000 0.061560 0.000000 -0.013921
# 5 -0.001211 0.004747 -0.010245 0.000000 0.045748 0.000000
# 6 0.000000 0.000000 0.000000 -0.013921 0.000000 0.030169
#
#
# Mechanical properties :
#
#
# Convention : Reuss Voigt Hill
#
# Bulk Modulus (GPa) = 27.88579 32.22586 30.05583
# Shear Modulus (GPa) = 23.52599 28.32720 25.92660
#
# Velocity S-wave (km/s) = 3.38842 3.71813 3.55710
# Velocity P-wave (km/s) = 5.37750 5.84464 5.61593
#
# Compressibility (1/GPa) = 0.03586055
#
# Stress axis : x y z
#
# Youngs Moduli (GPa) = 64.38376 79.31561 46.85811
#
# Poissons Ratio (x) = 0.37589 0.01692
# Poissons Ratio (y) = 0.30513 0.08012
# Poissons Ratio (z) = 0.02324 0.13562
#
# Static dielectric constant tensor:
#      x y z
#    x 1.689100 0.000000 -0.007400 
#    y 0.000000 1.723360 0.000000 
#    z -0.007400 0.000000 1.747830 
# 
# From -- ./inp_files/13096.got.cif
#   From: 2010.05.17/outbox.cif.g08.bks.cpg/sg14_7_cif.got.tgz:13096.got - 2010.06.03 17:49:19.
