data_PCOD9251700
_publ_section_title
;
Structure prediction by ZEFSAII (Michael W. Deem and Ramdas Pophale) SiO2 
 PCOD9251700
Probable space group: P 21/C
;
_chemical_formula_sum "Si O2"
_cell_formula_units_Z 24
_cell_length_a 7.643611
_cell_length_b 20.670595
_cell_length_c 6.532708
_cell_angle_alpha 90.000000
_cell_angle_beta 121.551887
_cell_angle_gamma 90.000000
_cell_volume 879.567817
_symmetry_space_group_name_H-M "P 21/C"
_symmetry_group_IT_number 14
_symmetry_cell_setting 'monoclinic'
loop_
_space_group_symop_operation_xyz
x,y,z
-x,1/2+y,1/2-z
-x,-y,-z
x,1/2-y,1/2+z
loop_
_atom_site_type_symbol
_atom_site_label
_atom_site_fract_x
_atom_site_fract_y
_atom_site_fract_z
Si Si1 0.659283 0.163655 0.852878
Si Si2 0.541549 0.798891 0.644408
Si Si3 0.909324 0.064818 0.546298
Si Si4 0.280771 0.487080 0.758144
Si Si5 0.907464 0.643375 0.163659
Si Si6 0.474794 0.411335 0.563023
O O1 0.553903 0.230863 0.856065
O O2 0.521394 0.105154 0.857985
O O3 0.880280 0.159901 0.092234
O O4 0.638043 0.166113 0.597460
O O5 0.742489 0.801944 0.622402
O O6 0.589541 0.844089 0.867452
O O7 0.693049 0.073768 0.299429
O O8 0.044340 0.125084 0.544440
O O9 0.864778 0.045558 0.755891
O O10 0.000000 0.000000 0.500000
O O11 0.187332 0.421996 0.798763
O O12 0.324817 0.467649 0.549214
O O13 0.500000 0.500000 0.000000
#
# Coordination Sequence:
#
# PCOD9251700 Si02
#       6
#     4   4   4   4   4   4
#     4  11  22  39  57  82 120 153 196 239 280 342
#     4  11  22  39  57  82 118 156 192 241 282 337
#     4   8  14  30  58  83 108 149 187 228 286 340
#     4   8  14  30  60  83 110 151 186 230 291 339
#     4   9  20  35  58  87 114 153 192 230 293 338
#     4   9  18  35  56  85 114 149 190 231 285 338
#
# _framework density 27.286131000000001
#
# number of rings (size 3 to 8) (size 9 to 14) (size 15 to 20)
#    0.000    2.667    1.667    0.000    0.000    1.333 
#    0.000    0.000    0.000  126.000    0.000    0.000 
#    0.000    0.000    0.000    0.000    0.000    0.000 
#
# Total GULP energy -134348.381102 kJ/mol
# GULP energy per Si atom -5597.849213 kJ/mol
# Density = 2.722403 g / cm^3
# Si number density = 27.286131 Si / 1000 Ang^3
#
#
#
# Elastic Constant Matrix: (Units=GPa)
#
#
# Indices 1 2 3 4 5 6 
#
# 1 108.8795 50.4892 39.8313 0.0000 23.6535 0.0000
# 2 50.4892 120.7615 46.6773 0.0000 3.5161 0.0000
# 3 39.8313 46.6773 109.7123 0.0000 9.1603 0.0000
# 4 0.0000 0.0000 0.0000 36.9868 0.0000 -4.8060
# 5 23.6535 3.5161 9.1603 0.0000 54.9822 0.0000
# 6 0.0000 0.0000 0.0000 -4.8060 0.0000 78.0218
#
#
#
# Elastic Compliance Matrix: (Units=1/GPa)
#
#
# Indices 1 2 3 4 5 6 
#
# 1 0.013236 -0.004419 -0.002508 0.000000 -0.004994 0.000000
# 2 -0.004419 0.011386 -0.003385 0.000000 0.001737 0.000000
# 3 -0.002508 -0.003385 0.011518 0.000000 -0.000623 0.000000
# 4 0.000000 0.000000 0.000000 0.027255 0.000000 0.001679
# 5 -0.004994 0.001737 -0.000623 0.000000 0.020329 0.000000
# 6 0.000000 0.000000 0.000000 0.001679 0.000000 0.012920
#
#
# Mechanical properties :
#
#
# Convention : Reuss Voigt Hill
#
# Bulk Modulus (GPa) = 64.45281 68.14987 66.30134
# Shear Modulus (GPa) = 40.83629 47.48851 44.16240
#
# Velocity S-wave (km/s) = 3.87278 4.17632 4.02741
# Velocity P-wave (km/s) = 6.60835 6.94880 6.78071
#
# Compressibility (1/GPa) = 0.01551523
#
# Stress axis : x y z
#
# Youngs Moduli (GPa) = 75.55092 87.82638 86.82359
#
# Poissons Ratio (x) = 0.38810 0.21779
# Poissons Ratio (y) = 0.33385 0.29389
# Poissons Ratio (z) = 0.18951 0.29729
#
# Static dielectric constant tensor:
#      x y z
#    x 2.240640 0.000000 -0.029330 
#    y 0.000000 2.174930 0.000000 
#    z -0.029330 0.000000 2.086750 
# 
# From -- ./inp_files/10723.got.cif
#   From: 2010.05.17/outbox.cif.g08.bks.cpg/sg14_6_cif.got.tgz:10723.got - 2010.06.03 17:49:19.
