data_PCOD9251871
_publ_section_title
;
Structure prediction by ZEFSAII (Michael W. Deem and Ramdas Pophale) SiO2 
 PCOD9251871
Probable space group: P 21/C
;
_chemical_formula_sum "Si O2"
_cell_formula_units_Z 28
_cell_length_a 6.236279
_cell_length_b 11.606968
_cell_length_c 18.444438
_cell_angle_alpha 90.000000
_cell_angle_beta 112.535330
_cell_angle_gamma 90.000000
_cell_volume 1233.144796
_symmetry_space_group_name_H-M "P 21/C"
_symmetry_group_IT_number 14
_symmetry_cell_setting 'monoclinic'
loop_
_space_group_symop_operation_xyz
x,y,z
-x,1/2+y,1/2-z
-x,-y,-z
x,1/2-y,1/2+z
loop_
_atom_site_type_symbol
_atom_site_label
_atom_site_fract_x
_atom_site_fract_y
_atom_site_fract_z
Si Si1 0.861035 0.654728 0.172849
Si Si2 0.416830 0.929292 0.557545
Si Si3 0.043227 0.674436 0.581357
Si Si4 0.703168 0.015552 0.085966
Si Si5 0.839543 0.538509 0.849028
Si Si6 0.851454 0.249645 0.558422
Si Si7 0.430415 0.352494 0.300722
O O1 0.631988 0.579133 0.138304
O O2 0.772253 0.754639 0.216075
O O3 0.900864 0.726935 0.104315
O O4 0.064331 0.559289 0.194189
O O5 0.355743 0.806884 0.514841
O O6 0.500000 0.000000 0.500000
O O7 0.213356 0.980482 0.580283
O O8 0.013893 0.691190 0.491453
O O9 0.306522 0.685519 0.647030
O O10 0.931249 0.553406 0.589372
O O11 0.765636 0.150047 0.099941
O O12 0.619314 0.951776 0.146931
O O13 0.500000 0.000000 0.000000
O O14 0.612638 0.595345 0.783885
O O15 0.018412 0.642734 0.887910
#
# Coordination Sequence:
#
# PCOD9251871 Si02
#       7
#     4   4   4   4   4   4   4
#     4  11  22  45  71  94 137 185 231 293 359 414
#     4  12  23  45  71 101 137 179 240 296 359 420
#     4  11  22  46  71  97 143 182 239 292 353 420
#     4  11  24  44  73 103 138 187 240 293 354 427
#     4  12  27  43  69 106 144 186 241 294 361 428
#     4  12  22  43  70 105 130 185 239 294 341 420
#     4  11  26  45  67 104 146 191 229 298 364 420
#
# _framework density 22.706175000000002
#
# number of rings (size 3 to 8) (size 9 to 14) (size 15 to 20)
#    0.000    0.571    5.714    2.571    2.000    2.286 
#    2.571    0.000    0.000    0.000    0.000    0.000 
#    0.000    0.000    0.000    0.000    0.000    0.000 
#
# Total GULP energy -156205.817137 kJ/mol
# GULP energy per Si atom -5578.779183 kJ/mol
# Density = 2.265449 g / cm^3
# Si number density = 22.706175 Si / 1000 Ang^3
#
#
#
# Elastic Constant Matrix: (Units=GPa)
#
#
# Indices 1 2 3 4 5 6 
#
# 1 78.4960 37.6306 17.5717 0.0000 3.9547 0.0000
# 2 37.6306 109.3646 12.1233 0.0000 1.1989 0.0000
# 3 17.5717 12.1233 55.4253 0.0000 10.8433 0.0000
# 4 0.0000 0.0000 0.0000 20.3282 0.0000 10.9980
# 5 3.9547 1.1989 10.8433 0.0000 22.4396 0.0000
# 6 0.0000 0.0000 0.0000 10.9980 0.0000 28.9969
#
#
#
# Elastic Compliance Matrix: (Units=1/GPa)
#
#
# Indices 1 2 3 4 5 6 
#
# 1 0.016080 -0.005099 -0.003845 0.000000 -0.000704 0.000000
# 2 -0.005099 0.010994 -0.000938 0.000000 0.000764 0.000000
# 3 -0.003845 -0.000938 0.021342 0.000000 -0.009585 0.000000
# 4 0.000000 0.000000 0.000000 0.061893 0.000000 -0.023475
# 5 -0.000704 0.000764 -0.009585 0.000000 0.049279 0.000000
# 6 0.000000 0.000000 0.000000 -0.023475 0.000000 0.043390
#
#
# Mechanical properties :
#
#
# Convention : Reuss Voigt Hill
#
# Bulk Modulus (GPa) = 34.90140 41.99301 38.44721
# Shear Modulus (GPa) = 21.52466 26.08361 23.80414
#
# Velocity S-wave (km/s) = 3.08224 3.39299 3.24134
# Velocity P-wave (km/s) = 5.29823 5.82100 5.56576
#
# Compressibility (1/GPa) = 0.02865214
#
# Stress axis : x y z
#
# Youngs Moduli (GPa) = 62.18878 90.96067 46.85689
#
# Poissons Ratio (x) = 0.46380 0.18016
# Poissons Ratio (y) = 0.31710 0.04394
# Poissons Ratio (z) = 0.23912 0.08529
#
# Static dielectric constant tensor:
#      x y z
#    x 2.348200 0.000000 0.009590 
#    y 0.000000 1.894600 0.000000 
#    z 0.009590 0.000000 1.845340 
# 
# From -- ./inp_files/63368.got.cif
#   From: 2010.05.17/outbox.cif.g08.bks.cpg/sg14_32_cif.got.tgz:63368.got - 2010.06.03 17:49:19.
