data_PCOD9251577
_publ_section_title
;
Structure prediction by ZEFSAII (Michael W. Deem and Ramdas Pophale) SiO2 
 PCOD9251577
Probable space group: P 21/C
;
_chemical_formula_sum "Si O2"
_cell_formula_units_Z 32
_cell_length_a 11.382259
_cell_length_b 14.299314
_cell_length_c 7.985470
_cell_angle_alpha 90.000000
_cell_angle_beta 108.049316
_cell_angle_gamma 90.000000
_cell_volume 1235.744934
_symmetry_space_group_name_H-M "P 21/C"
_symmetry_group_IT_number 14
_symmetry_cell_setting 'monoclinic'
loop_
_space_group_symop_operation_xyz
x,y,z
-x,1/2+y,1/2-z
-x,-y,-z
x,1/2-y,1/2+z
loop_
_atom_site_type_symbol
_atom_site_label
_atom_site_fract_x
_atom_site_fract_y
_atom_site_fract_z
Si Si1 0.006571 0.659004 0.706810
Si Si2 0.308279 0.965787 0.016188
Si Si3 0.421457 0.399970 0.327973
Si Si4 0.634070 0.133049 0.466213
Si Si5 0.588687 0.784131 0.839449
Si Si6 0.139730 0.308705 0.682770
Si Si7 0.758011 0.215666 0.206987
Si Si8 0.191456 0.006333 0.318263
O O1 0.900522 0.706592 0.771961
O O2 0.955323 0.652227 0.496557
O O3 0.109221 0.740002 0.747502
O O4 0.077669 0.565612 0.795793
O O5 0.265072 0.864178 0.938979
O O6 0.315436 0.031832 0.854114
O O7 0.451988 0.957949 0.133869
O O8 0.227249 0.997464 0.136548
O O9 0.434856 0.327209 0.489190
O O10 0.414676 0.328459 0.172264
O O11 0.505946 0.158784 0.322339
O O12 0.732525 0.170563 0.373559
O O13 0.661732 0.199608 0.636497
O O14 0.684244 0.030502 0.533927
O O15 0.726801 0.804192 0.841883
O O16 0.151755 0.387430 0.832207
#
# Coordination Sequence:
#
# PCOD9251577 Si02
#       8
#     4   4   4   4   4   4   4   4
#     4  11  25  46  72  98 131 190 244 287 347 422
#     4  11  22  44  68 109 137 182 238 291 357 416
#     4  11  25  41  67 105 148 187 228 281 364 437
#     4  11  22  40  70 110 135 183 229 286 359 420
#     4  12  23  45  67 102 150 186 221 285 360 442
#     4  12  26  48  67 102 142 187 233 288 365 416
#     4  11  21  42  73 102 136 176 242 299 336 407
#     4  11  25  46  75 102 139 184 241 302 346 416
#
# _framework density 25.895311
#
# number of rings (size 3 to 8) (size 9 to 14) (size 15 to 20)
#    0.000    0.750    3.750    4.875    1.750    0.500 
#    4.500    1.250    0.000    0.000    0.000    0.000 
#    0.000    0.000    0.000    0.000    0.000    0.000 
#
# Total GULP energy -179267.549914 kJ/mol
# GULP energy per Si atom -5602.110935 kJ/mol
# Density = 2.583637 g / cm^3
# Si number density = 25.895311 Si / 1000 Ang^3
#
#
#
# Elastic Constant Matrix: (Units=GPa)
#
#
# Indices 1 2 3 4 5 6 
#
# 1 68.2582 19.0351 10.0623 0.0000 11.8127 0.0000
# 2 19.0351 101.3805 2.6857 0.0000 2.0350 0.0000
# 3 10.0623 2.6857 51.3657 0.0000 -0.8843 0.0000
# 4 0.0000 0.0000 0.0000 42.1852 0.0000 2.0007
# 5 11.8127 2.0350 -0.8843 0.0000 37.2776 0.0000
# 6 0.0000 0.0000 0.0000 2.0007 0.0000 34.9577
#
#
#
# Elastic Compliance Matrix: (Units=1/GPa)
#
#
# Indices 1 2 3 4 5 6 
#
# 1 0.016868 -0.002976 -0.003239 0.000000 -0.005260 0.000000
# 2 -0.002976 0.010414 0.000045 0.000000 0.000376 0.000000
# 3 -0.003239 0.000045 0.020126 0.000000 0.001501 0.000000
# 4 0.000000 0.000000 0.000000 0.023770 0.000000 -0.001360
# 5 -0.005260 0.000376 0.001501 0.000000 0.028508 0.000000
# 6 0.000000 0.000000 0.000000 -0.001360 0.000000 0.028684
#
#
# Mechanical properties :
#
#
# Convention : Reuss Voigt Hill
#
# Bulk Modulus (GPa) = 28.51623 31.61897 30.06760
# Shear Modulus (GPa) = 32.80878 35.49885 34.15382
#
# Velocity S-wave (km/s) = 3.56332 3.70653 3.63563
# Velocity P-wave (km/s) = 5.28826 5.52762 5.40927
#
# Compressibility (1/GPa) = 0.03506775
#
# Stress axis : x y z
#
# Youngs Moduli (GPa) = 59.28458 96.02630 49.68627
#
# Poissons Ratio (x) = 0.28574 0.16095
# Poissons Ratio (y) = 0.17641 -0.00223
# Poissons Ratio (z) = 0.19204 -0.00431
#
# Static dielectric constant tensor:
#      x y z
#    x 2.018100 0.000000 0.003930 
#    y 0.000000 2.102160 0.000000 
#    z 0.003930 0.000000 2.081360 
# 
# From -- ./inp_files/13395.got.cif
#   From: 2010.05.17/outbox.cif.g08.bks.cpg/sg14_7_cif.got.tgz:13395.got - 2010.06.03 17:49:19.
