data_PCOD9251535
_publ_section_title
;
Structure prediction by ZEFSAII (Michael W. Deem and Ramdas Pophale) SiO2 
 PCOD9251535
Probable space group: P 21/C
;
_chemical_formula_sum "Si O2"
_cell_formula_units_Z 32
_cell_length_a 13.608364
_cell_length_b 8.434309
_cell_length_c 23.173468
_cell_angle_alpha 90.000000
_cell_angle_beta 30.372144
_cell_angle_gamma 90.000000
_cell_volume 1344.825281
_symmetry_space_group_name_H-M "P 21/C"
_symmetry_group_IT_number 14
_symmetry_cell_setting 'monoclinic'
loop_
_space_group_symop_operation_xyz
x,y,z
-x,1/2+y,1/2-z
-x,-y,-z
x,1/2-y,1/2+z
loop_
_atom_site_type_symbol
_atom_site_label
_atom_site_fract_x
_atom_site_fract_y
_atom_site_fract_z
Si Si1 0.915807 0.326439 0.350462
Si Si2 0.980317 0.547810 0.827796
Si Si3 0.589449 0.122599 0.096192
Si Si4 0.737259 0.724734 0.664489
Si Si5 0.877031 0.446997 0.661213
Si Si6 0.833103 0.343802 0.051579
Si Si7 0.223865 0.310333 0.974145
Si Si8 0.678551 0.348447 0.259922
O O1 0.692388 0.348564 0.483459
O O2 0.961245 0.383690 0.263555
O O3 0.045206 0.433964 0.329072
O O4 0.950694 0.139664 0.338765
O O5 0.159602 0.572531 0.781071
O O6 0.799066 0.650169 0.945770
O O7 0.400081 0.216735 0.214281
O O8 0.744628 0.191337 0.063597
O O9 0.522474 0.940269 0.129529
O O10 0.800454 0.546937 0.646059
O O11 0.647578 0.756295 0.646963
O O12 0.937408 0.820739 0.562899
O O13 0.694205 0.335299 0.770252
O O14 0.051657 0.324959 0.557303
O O15 0.793913 0.503433 0.036223
O O16 0.746437 0.360396 0.159236
#
# Coordination Sequence:
#
# PCOD9251535 Si02
#       8
#     4   4   4   4   4   4   4   4
#     4  12  26  47  75 112 141 202 264 315 370 462
#     4  11  23  47  77 101 148 199 254 308 390 445
#     4  12  27  44  74 113 149 190 259 311 375 460
#     4  12  22  44  71 108 154 194 239 312 382 447
#     4  11  23  42  73 104 151 202 250 297 378 452
#     4  12  23  46  72 107 151 202 240 308 390 453
#     4  11  21  40  73 102 141 197 239 294 379 447
#     4  11  25  46  73 108 154 199 240 316 381 447
#
# _framework density 23.794910999999999
#
# number of rings (size 3 to 8) (size 9 to 14) (size 15 to 20)
#    0.000    0.500    6.250    4.500    0.000    2.500 
#    2.250    0.000    0.000    6.750    0.000    0.000 
#    0.000    0.000    0.000    0.000    0.000    0.000 
#
# Total GULP energy -178654.463904 kJ/mol
# GULP energy per Si atom -5582.951997 kJ/mol
# Density = 2.374075 g / cm^3
# Si number density = 23.794911 Si / 1000 Ang^3
#
#
#
# Elastic Constant Matrix: (Units=GPa)
#
#
# Indices 1 2 3 4 5 6 
#
# 1 68.0264 33.4631 56.5243 0.0000 27.7472 0.0000
# 2 33.4631 132.3509 50.8654 0.0000 26.0807 0.0000
# 3 56.5243 50.8654 160.6666 0.0000 29.6814 0.0000
# 4 0.0000 0.0000 0.0000 37.1071 0.0000 10.5683
# 5 27.7472 26.0807 29.6814 0.0000 44.8137 0.0000
# 6 0.0000 0.0000 0.0000 10.5683 0.0000 45.5989
#
#
#
# Elastic Compliance Matrix: (Units=1/GPa)
#
#
# Indices 1 2 3 4 5 6 
#
# 1 0.025059 -0.001888 -0.006329 0.000000 -0.010224 0.000000
# 2 -0.001888 0.009302 -0.001705 0.000000 -0.003115 0.000000
# 3 -0.006329 -0.001705 0.009210 0.000000 -0.001189 0.000000
# 4 0.000000 0.000000 0.000000 0.028854 0.000000 -0.006687
# 5 -0.010224 -0.003115 -0.001189 0.000000 0.031246 0.000000
# 6 0.000000 0.000000 0.000000 -0.006687 0.000000 0.023480
#
#
# Mechanical properties :
#
#
# Convention : Reuss Voigt Hill
#
# Bulk Modulus (GPa) = 42.14868 71.41662 56.78265
# Shear Modulus (GPa) = 32.27791 40.18336 36.23063
#
# Velocity S-wave (km/s) = 3.68707 4.11388 3.90631
# Velocity P-wave (km/s) = 5.98980 7.25561 6.65288
#
# Compressibility (1/GPa) = 0.02372554
#
# Stress axis : x y z
#
# Youngs Moduli (GPa) = 39.90651 107.49990 108.57493
#
# Poissons Ratio (x) = 0.20301 0.68719
# Poissons Ratio (y) = 0.07536 0.18514
# Poissons Ratio (z) = 0.25257 0.18330
#
# Static dielectric constant tensor:
#      x y z
#    x 1.947930 0.000000 -0.091740 
#    y 0.000000 2.005940 0.000000 
#    z -0.091740 0.000000 2.010580 
# 
# From -- ./inp_files/73732.got.cif
#   From: 2010.05.17/outbox.cif.g08.bks.cpg/sg14_37_cif.got.tgz:73732.got - 2010.06.03 17:49:19.
