data_PCOD9251985
_publ_section_title
;
Structure prediction by ZEFSAII (Michael W. Deem and Ramdas Pophale) SiO2 
 PCOD9251985
Probable space group: P 21/C
;
_chemical_formula_sum "Si O2"
_cell_formula_units_Z 24
_cell_length_a 7.112251
_cell_length_b 16.166603
_cell_length_c 9.709230
_cell_angle_alpha 90.000000
_cell_angle_beta 112.531545
_cell_angle_gamma 90.000000
_cell_volume 1031.161917
_symmetry_space_group_name_H-M "P 21/C"
_symmetry_group_IT_number 14
_symmetry_cell_setting 'monoclinic'
loop_
_space_group_symop_operation_xyz
x,y,z
-x,1/2+y,1/2-z
-x,-y,-z
x,1/2-y,1/2+z
loop_
_atom_site_type_symbol
_atom_site_label
_atom_site_fract_x
_atom_site_fract_y
_atom_site_fract_z
Si Si1 0.020172 0.833103 0.957081
Si Si2 0.836319 0.190371 0.297537
Si Si3 0.593503 0.415372 0.358215
Si Si4 0.665736 0.036134 0.351902
Si Si5 0.397076 0.193917 0.033267
Si Si6 0.577546 0.882652 0.471317
O O1 0.111998 0.758886 0.075893
O O2 0.179059 0.908706 0.020297
O O3 0.793942 0.847823 0.946313
O O4 0.030313 0.804268 0.802481
O O5 0.601441 0.196235 0.181616
O O6 0.593778 0.386634 0.198066
O O7 0.458710 0.352162 0.410270
O O8 0.470978 0.501605 0.313541
O O9 0.519288 0.085474 0.415524
O O10 0.725416 0.952927 0.451029
O O11 0.840553 0.097742 0.357607
O O12 0.343690 0.290346 0.995041
#
# Coordination Sequence:
#
# PCOD9251985 Si02
#       6
#     4   4   4   4   4   4
#     4  11  25  38  66  96 125 169 219 260 319 379
#     4  11  23  41  63  92 128 167 213 266 317 380
#     4   9  20  41  62  90 124 162 207 263 310 368
#     4   9  19  39  68  89 128 174 205 258 330 370
#     4  11  23  40  67  92 128 166 215 264 316 375
#     4   9  19  38  68  90 123 174 207 256 315 377
#
# _framework density 23.274712999999998
#
# number of rings (size 3 to 8) (size 9 to 14) (size 15 to 20)
#    1.000    1.000    1.667    2.000    2.333    2.667 
#    0.000    5.833    0.000    0.000    0.000    0.000 
#    0.000    0.000    0.000    0.000    0.000    0.000 
#
# Total GULP energy -134045.697592 kJ/mol
# GULP energy per Si atom -5585.237400 kJ/mol
# Density = 2.322174 g / cm^3
# Si number density = 23.274713 Si / 1000 Ang^3
#
#
#
# Elastic Constant Matrix: (Units=GPa)
#
#
# Indices 1 2 3 4 5 6 
#
# 1 108.6156 25.3843 32.7471 0.0000 0.4592 0.0000
# 2 25.3843 69.2431 21.5044 0.0000 -9.0038 0.0000
# 3 32.7471 21.5044 83.3534 0.0000 -14.3521 0.0000
# 4 0.0000 0.0000 0.0000 41.4789 0.0000 -16.8299
# 5 0.4592 -9.0038 -14.3521 0.0000 38.0864 0.0000
# 6 0.0000 0.0000 0.0000 -16.8299 0.0000 15.8845
#
#
#
# Elastic Compliance Matrix: (Units=1/GPa)
#
#
# Indices 1 2 3 4 5 6 
#
# 1 0.011155 -0.003164 -0.003976 0.000000 -0.002381 0.000000
# 2 -0.003164 0.016794 -0.002566 0.000000 0.003041 0.000000
# 3 -0.003976 -0.002566 0.015105 0.000000 0.005133 0.000000
# 4 0.000000 0.000000 0.000000 0.042288 0.000000 0.044805
# 5 -0.002381 0.003041 0.005133 0.000000 0.028938 0.000000
# 6 0.000000 0.000000 0.000000 0.044805 0.000000 0.110425
#
#
# Mechanical properties :
#
#
# Convention : Reuss Voigt Hill
#
# Bulk Modulus (GPa) = 42.29775 46.72040 44.50908
# Shear Modulus (GPa) = 19.84134 31.19506 25.51820
#
# Velocity S-wave (km/s) = 2.92290 3.66498 3.31477
# Velocity P-wave (km/s) = 5.44094 6.16656 5.81508
#
# Compressibility (1/GPa) = 0.02364192
#
# Stress axis : x y z
#
# Youngs Moduli (GPa) = 89.64491 59.54428 66.20285
#
# Poissons Ratio (x) = 0.18841 0.26323
# Poissons Ratio (y) = 0.28365 0.16987
# Poissons Ratio (z) = 0.35644 0.15279
#
# Static dielectric constant tensor:
#      x y z
#    x 1.846040 0.000000 0.042130 
#    y 0.000000 1.922520 0.000000 
#    z 0.042130 0.000000 1.901880 
# 
# From -- ./inp_files/25873.got.cif
#   From: 2010.05.17/outbox.cif.g08.bks.cpg/sg14_13_cif.got.tgz:25873.got - 2010.06.03 17:49:19.
