data_PCOD9251002
_publ_section_title
;
Structure prediction by ZEFSAII (Michael W. Deem and Ramdas Pophale) SiO2 
 PCOD9251002
Probable space group: P 21/C
;
_chemical_formula_sum "Si O2"
_cell_formula_units_Z 20
_cell_length_a 14.099923
_cell_length_b 13.787952
_cell_length_c 6.918348
_cell_angle_alpha 90.000000
_cell_angle_beta 33.567552
_cell_angle_gamma 90.000000
_cell_volume 743.671291
_symmetry_space_group_name_H-M "P 21/C"
_symmetry_group_IT_number 14
_symmetry_cell_setting 'monoclinic'
loop_
_space_group_symop_operation_xyz
x,y,z
-x,1/2+y,1/2-z
-x,-y,-z
x,1/2-y,1/2+z
loop_
_atom_site_type_symbol
_atom_site_label
_atom_site_fract_x
_atom_site_fract_y
_atom_site_fract_z
Si Si1 0.277193 0.881817 0.766392
Si Si2 0.364610 0.404625 0.714529
Si Si3 0.547387 0.683700 0.076530
Si Si4 0.018734 0.505965 0.236789
Si Si5 0.218765 0.675837 0.923681
O O1 0.468592 0.873261 0.526442
O O2 0.177505 0.787324 0.013676
O O3 0.268552 0.868245 0.548892
O O4 0.160391 0.968324 0.037013
O O5 0.500000 0.500000 0.500000
O O6 0.401537 0.294489 0.562588
O O7 0.323589 0.375642 0.008533
O O8 0.193476 0.445156 0.904299
O O9 0.382302 0.677537 0.503706
O O10 0.000000 0.500000 0.500000
O O11 0.064466 0.614564 0.105208
#
# Coordination Sequence:
#
# PCOD9251002 Si02
#       5
#     4   4   4   4   4
#     4  11  21  41  73 100 139 191 239 291 368 434
#     4  12  25  48  74 111 148 194 251 310 365 447
#     4  12  23  43  77 100 143 195 236 303 368 428
#     4  10  25  44  72 105 148 190 238 313 365 435
#     4  11  20  43  69 100 142 185 241 301 362 424
#
# _framework density 26.893601
#
# number of rings (size 3 to 8) (size 9 to 14) (size 15 to 20)
#    0.000    0.800    6.000    0.000    2.800    4.000 
#    0.000    9.000    0.000    0.000    0.000    0.000 
#    0.000    0.000    0.000    0.000    0.000    0.000 
#
# Total GULP energy -111513.354610 kJ/mol
# GULP energy per Si atom -5575.667731 kJ/mol
# Density = 2.683239 g / cm^3
# Si number density = 26.893601 Si / 1000 Ang^3
#
#
#
# Elastic Constant Matrix: (Units=GPa)
#
#
# Indices 1 2 3 4 5 6 
#
# 1 87.1950 39.3328 42.4758 0.0000 26.2475 0.0000
# 2 39.3328 152.6845 48.4114 0.0000 -16.9253 0.0000
# 3 42.4758 48.4114 76.8884 0.0000 5.3551 0.0000
# 4 0.0000 0.0000 0.0000 64.7505 0.0000 -3.5896
# 5 26.2475 -16.9253 5.3551 0.0000 38.3442 0.0000
# 6 0.0000 0.0000 0.0000 -3.5896 0.0000 44.4606
#
#
#
# Elastic Compliance Matrix: (Units=1/GPa)
#
#
# Indices 1 2 3 4 5 6 
#
# 1 0.022823 -0.005132 -0.008211 0.000000 -0.016741 0.000000
# 2 -0.005132 0.010134 -0.004142 0.000000 0.008565 0.000000
# 3 -0.008211 -0.004142 0.020081 0.000000 0.000988 0.000000
# 4 0.000000 0.000000 0.000000 0.015513 0.000000 0.001252
# 5 -0.016741 0.008565 0.000988 0.000000 0.041182 0.000000
# 6 0.000000 0.000000 0.000000 0.001252 0.000000 0.022593
#
#
# Mechanical properties :
#
#
# Convention : Reuss Voigt Hill
#
# Bulk Modulus (GPa) = 55.34630 64.13419 59.74025
# Shear Modulus (GPa) = 28.84856 41.94759 35.39807
#
# Velocity S-wave (km/s) = 3.27875 3.95367 3.63192
# Velocity P-wave (km/s) = 5.91253 6.68888 6.31265
#
# Compressibility (1/GPa) = 0.01806805
#
# Stress axis : x y z
#
# Youngs Moduli (GPa) = 43.81619 98.67551 49.79751
#
# Poissons Ratio (x) = 0.50636 0.40889
# Poissons Ratio (y) = 0.22485 0.20628
# Poissons Ratio (z) = 0.35977 0.40876
#
# Static dielectric constant tensor:
#      x y z
#    x 2.337820 0.000000 -0.006220 
#    y 0.000000 2.207820 0.000000 
#    z -0.006220 0.000000 2.233200 
# 
# From -- ./inp_files/19006.got.cif
#   From: 2010.05.17/outbox.cif.g08.bks.cpg/sg14_10_cif.got.tgz:19006.got - 2010.06.03 17:49:19.
