data_PCOD9251907
_publ_section_title
;
Structure prediction by ZEFSAII (Michael W. Deem and Ramdas Pophale) SiO2 
 PCOD9251907
Probable space group: P 21/C
;
_chemical_formula_sum "Si O2"
_cell_formula_units_Z 32
_cell_length_a 11.735381
_cell_length_b 9.209197
_cell_length_c 23.053517
_cell_angle_alpha 90.000000
_cell_angle_beta 144.026623
_cell_angle_gamma 90.000000
_cell_volume 1463.514213
_symmetry_space_group_name_H-M "P 21/C"
_symmetry_group_IT_number 14
_symmetry_cell_setting 'monoclinic'
loop_
_space_group_symop_operation_xyz
x,y,z
-x,1/2+y,1/2-z
-x,-y,-z
x,1/2-y,1/2+z
loop_
_atom_site_type_symbol
_atom_site_label
_atom_site_fract_x
_atom_site_fract_y
_atom_site_fract_z
Si Si1 0.733995 0.634731 0.007757
Si Si2 0.181241 0.562272 0.373448
Si Si3 0.513975 0.136447 0.364894
Si Si4 0.661745 0.141561 0.835854
Si Si5 0.125268 0.822699 0.729867
Si Si6 0.525408 0.845454 0.838699
Si Si7 0.868240 0.476559 0.325431
Si Si8 0.585529 0.776108 0.056815
O O1 0.648076 0.494645 0.941602
O O2 0.680812 0.773945 0.946117
O O3 0.624588 0.657451 0.023740
O O4 0.959244 0.627721 0.117055
O O5 0.072974 0.628476 0.273020
O O6 0.254294 0.400298 0.388376
O O7 0.375109 0.654708 0.460459
O O8 0.054563 0.561979 0.379684
O O9 0.644755 0.242560 0.380150
O O10 0.420138 0.215928 0.381240
O O11 0.325804 0.072593 0.254594
O O12 0.536487 0.220795 0.733150
O O13 0.862258 0.103176 0.885201
O O14 0.586318 0.991209 0.831487
O O15 0.335140 0.883484 0.798526
O O16 0.150596 0.649994 0.731028
#
# Coordination Sequence:
#
# PCOD9251907 Si02
#       8
#     4   4   4   4   4   4   4   4
#     4  12  23  45  72 105 142 180 226 303 351 410
#     4  11  23  43  66 104 138 184 231 289 355 424
#     4  12  24  44  71 102 136 186 233 282 358 414
#     4  11  23  46  75  97 138 195 229 285 350 415
#     4  11  23  42  70 101 142 183 231 288 353 412
#     4  11  22  47  72  97 144 185 233 287 351 413
#     4  11  23  43  69  98 137 183 234 281 343 416
#     4  11  24  42  71 101 142 181 228 297 361 409
#
# _framework density 21.865179000000001
#
# number of rings (size 3 to 8) (size 9 to 14) (size 15 to 20)
#    0.000    0.750    6.250    1.875    1.750    1.000 
#    2.250   11.250    0.000    0.000    0.000    0.000 
#    0.000    0.000    0.000    0.000    0.000    0.000 
#
# Total GULP energy -178878.874182 kJ/mol
# GULP energy per Si atom -5589.964818 kJ/mol
# Density = 2.181541 g / cm^3
# Si number density = 21.865179 Si / 1000 Ang^3
#
#
#
# Elastic Constant Matrix: (Units=GPa)
#
#
# Indices 1 2 3 4 5 6 
#
# 1 139.4032 37.6149 29.4263 0.0000 -2.2896 0.0000
# 2 37.6149 50.6018 17.1747 0.0000 0.8801 0.0000
# 3 29.4263 17.1747 51.1563 0.0000 11.8550 0.0000
# 4 0.0000 0.0000 0.0000 2.9526 0.0000 -11.4290
# 5 -2.2896 0.8801 11.8550 0.0000 33.4157 0.0000
# 6 0.0000 0.0000 0.0000 -11.4290 0.0000 48.9498
#
#
#
# Elastic Compliance Matrix: (Units=1/GPa)
#
#
# Indices 1 2 3 4 5 6 
#
# 1 0.009651 -0.005812 -0.004128 0.000000 0.002279 0.000000
# 2 -0.005812 0.025961 -0.005581 0.000000 0.000898 0.000000
# 3 -0.004128 -0.005581 0.025962 0.000000 -0.009346 0.000000
# 4 0.000000 0.000000 0.000000 3.519064 0.000000 0.821643
# 5 0.002279 0.000898 -0.009346 0.000000 0.033374 0.000000
# 6 0.000000 0.000000 0.000000 0.821643 0.000000 0.212269
#
#
# Mechanical properties :
#
#
# Convention : Reuss Voigt Hill
#
# Bulk Modulus (GPa) = 32.75260 45.51036 39.13148
# Shear Modulus (GPa) = 1.29282 27.52663 14.40973
#
# Velocity S-wave (km/s) = 0.76978 3.55198 2.56994
# Velocity P-wave (km/s) = 3.97516 6.13852 5.17123
#
# Compressibility (1/GPa) = 0.03053192
#
# Stress axis : x y z
#
# Youngs Moduli (GPa) = 103.62105 38.51896 38.51783
#
# Poissons Ratio (x) = 0.22388 0.15900
# Poissons Ratio (y) = 0.60228 0.21496
# Poissons Ratio (z) = 0.42774 0.21496
#
# Static dielectric constant tensor:
#      x y z
#    x 1.818050 0.000000 -0.016920 
#    y 0.000000 1.814880 0.000000 
#    z -0.016920 0.000000 1.823770 
# 
# From -- ./inp_files/73121.got.cif
#   From: 2010.05.17/outbox.cif.g08.bks.cpg/sg14_37_cif.got.tgz:73121.got - 2010.06.03 17:49:19.
