data_PCOD9251462
_publ_section_title
;
Structure prediction by ZEFSAII (Michael W. Deem and Ramdas Pophale) SiO2 
 PCOD9251462
Probable space group: P 21/C
;
_chemical_formula_sum "Si O2"
_cell_formula_units_Z 32
_cell_length_a 11.466942
_cell_length_b 16.872693
_cell_length_c 9.234439
_cell_angle_alpha 90.000000
_cell_angle_beta 68.800443
_cell_angle_gamma 90.000000
_cell_volume 1665.753027
_symmetry_space_group_name_H-M "P 21/C"
_symmetry_group_IT_number 14
_symmetry_cell_setting 'monoclinic'
loop_
_space_group_symop_operation_xyz
x,y,z
-x,1/2+y,1/2-z
-x,-y,-z
x,1/2-y,1/2+z
loop_
_atom_site_type_symbol
_atom_site_label
_atom_site_fract_x
_atom_site_fract_y
_atom_site_fract_z
Si Si1 0.996593 0.648041 0.918324
Si Si2 0.052562 0.301974 0.736662
Si Si3 0.771651 0.456809 0.273965
Si Si4 0.893193 0.555230 0.480295
Si Si5 0.510112 0.086882 0.923949
Si Si6 0.281695 0.084528 0.445377
Si Si7 0.655173 0.607125 0.772669
Si Si8 0.344008 0.293372 0.685868
O O1 0.107378 0.588084 0.837495
O O2 0.998402 0.721596 0.808048
O O3 0.863025 0.605586 0.959409
O O4 0.000386 0.678876 0.081563
O O5 0.035665 0.373902 0.633468
O O6 0.203021 0.297320 0.687036
O O7 0.813764 0.507054 0.395185
O O8 0.658007 0.397355 0.356289
O O9 0.721038 0.516561 0.173837
O O10 0.791446 0.590689 0.638382
O O11 0.000000 0.500000 0.500000
O O12 0.434380 0.154806 0.043575
O O13 0.448407 0.079478 0.794074
O O14 0.500000 0.000000 0.000000
O O15 0.345395 0.067157 0.569445
O O16 0.340360 0.161914 0.342007
O O17 0.631441 0.700750 0.806773
#
# Coordination Sequence:
#
# PCOD9251462 Si02
#       8
#     4   4   4   4   4   4   4   4
#     4  11  24  40  66  94 136 172 215 274 344 389
#     4  11  22  42  66  97 135 169 225 278 332 396
#     4  12  25  45  63  95 141 180 207 278 347 398
#     4  12  24  39  69 105 133 177 223 276 343 402
#     4  12  23  48  68  92 139 180 221 274 340 409
#     4  11  21  37  70  97 130 161 220 280 332 380
#     4  12  23  39  70 102 128 169 236 272 327 408
#     4  11  21  42  69 100 127 175 223 286 329 387
#
# _framework density 19.210529999999999
#
# number of rings (size 3 to 8) (size 9 to 14) (size 15 to 20)
#    0.000    0.500    7.500    3.375    3.500    0.500 
#    2.250    0.000    0.000    0.000    0.000    0.000 
#    0.000    0.000    0.000    0.000    0.000    0.000 
#
# Total GULP energy -178894.232124 kJ/mol
# GULP energy per Si atom -5590.444754 kJ/mol
# Density = 1.916681 g / cm^3
# Si number density = 19.210530 Si / 1000 Ang^3
#
#
#
# Elastic Constant Matrix: (Units=GPa)
#
#
# Indices 1 2 3 4 5 6 
#
# 1 58.4844 25.0492 40.7069 0.0000 13.0352 0.0000
# 2 25.0492 82.1182 35.3087 0.0000 16.5942 0.0000
# 3 40.7069 35.3087 103.8176 0.0000 22.5646 0.0000
# 4 0.0000 0.0000 0.0000 31.7267 0.0000 1.4770
# 5 13.0352 16.5942 22.5646 0.0000 30.1800 0.0000
# 6 0.0000 0.0000 0.0000 1.4770 0.0000 23.4796
#
#
#
# Elastic Compliance Matrix: (Units=1/GPa)
#
#
# Indices 1 2 3 4 5 6 
#
# 1 0.024742 -0.003594 -0.007864 0.000000 -0.002831 0.000000
# 2 -0.003594 0.015456 -0.002791 0.000000 -0.004859 0.000000
# 3 -0.007864 -0.002791 0.015037 0.000000 -0.006311 0.000000
# 4 0.000000 0.000000 0.000000 0.031612 0.000000 -0.001989
# 5 -0.002831 -0.004859 -0.006311 0.000000 0.041748 0.000000
# 6 0.000000 0.000000 0.000000 -0.001989 0.000000 0.042715
#
#
# Mechanical properties :
#
#
# Convention : Reuss Voigt Hill
#
# Bulk Modulus (GPa) = 37.40176 49.61663 43.50919
# Shear Modulus (GPa) = 23.95549 26.63428 25.29488
#
# Velocity S-wave (km/s) = 3.53512 3.72753 3.63260
# Velocity P-wave (km/s) = 6.01452 6.66408 6.34761
#
# Compressibility (1/GPa) = 0.02673671
#
# Stress axis : x y z
#
# Youngs Moduli (GPa) = 40.41647 64.69989 66.50363
#
# Poissons Ratio (x) = 0.23254 0.52298
# Poissons Ratio (y) = 0.14526 0.18563
# Poissons Ratio (z) = 0.31783 0.18060
#
# Static dielectric constant tensor:
#      x y z
#    x 1.653360 0.000000 -0.002480 
#    y 0.000000 1.683610 0.000000 
#    z -0.002480 0.000000 1.707910 
# 
# From -- ./inp_files/16078.got.cif
#   From: 2010.05.17/outbox.cif.g08.bks.cpg/sg14_9_cif.got.tgz:16078.got - 2010.06.03 17:49:19.
