data_PCOD9251336
_publ_section_title
;
Structure prediction by ZEFSAII (Michael W. Deem and Ramdas Pophale) SiO2 
 PCOD9251336
Probable space group: P 21/C
;
_chemical_formula_sum "Si O2"
_cell_formula_units_Z 24
_cell_length_a 16.182159
_cell_length_b 7.004256
_cell_length_c 17.902342
_cell_angle_alpha 90.000000
_cell_angle_beta 24.654069
_cell_angle_gamma 90.000000
_cell_volume 846.425506
_symmetry_space_group_name_H-M "P 21/C"
_symmetry_group_IT_number 14
_symmetry_cell_setting 'monoclinic'
loop_
_space_group_symop_operation_xyz
x,y,z
-x,1/2+y,1/2-z
-x,-y,-z
x,1/2-y,1/2+z
loop_
_atom_site_type_symbol
_atom_site_label
_atom_site_fract_x
_atom_site_fract_y
_atom_site_fract_z
Si Si1 0.263878 0.187327 0.485484
Si Si2 0.692470 0.127271 0.849449
Si Si3 0.038153 0.162636 0.862100
Si Si4 0.184718 0.621707 0.590746
Si Si5 0.920470 0.734535 0.001364
Si Si6 0.536222 0.885056 0.546774
O O1 0.271751 0.412298 0.501637
O O2 0.430016 0.071192 0.394445
O O3 0.044422 0.113593 0.690930
O O4 0.270286 0.180073 0.390314
O O5 0.699515 0.199027 0.930443
O O6 0.917464 0.071571 0.649018
O O7 0.656166 0.256090 0.805006
O O8 0.500000 0.000000 0.000000
O O9 0.247355 0.202058 0.649501
O O10 0.857602 0.222824 0.954916
O O11 0.002910 0.931311 0.895868
O O12 0.088422 0.217564 0.905494
O O13 0.500000 0.000000 0.500000
#
# Coordination Sequence:
#
# PCOD9251336 Si02
#       6
#     4   4   4   4   4   4
#     4   9  18  32  54  80 106 142 191 229 282 350
#     4  11  20  34  56  83 114 146 189 245 291 336
#     4   9  18  35  58  79 108 147 192 231 281 355
#     4   9  18  32  54  80 105 145 186 231 280 351
#     4   9  18  35  58  79 107 149 189 231 289 343
#     4  11  20  34  56  85 110 147 195 240 283 345
#
# _framework density 28.354531999999999
#
# number of rings (size 3 to 8) (size 9 to 14) (size 15 to 20)
#    0.000    2.333    3.333    0.000    2.333    0.000 
#    0.000    2.500    0.000    0.000    0.000    0.000 
#    0.000    0.000    0.000    0.000    0.000    0.000 
#
# Total GULP energy -133612.191908 kJ/mol
# GULP energy per Si atom -5567.174663 kJ/mol
# Density = 2.829000 g / cm^3
# Si number density = 28.354532 Si / 1000 Ang^3
#
#
#
# Elastic Constant Matrix: (Units=GPa)
#
#
# Indices 1 2 3 4 5 6 
#
# 1 366.6571 50.0042 39.2626 0.0000 -39.1871 0.0000
# 2 50.0042 57.0590 -10.8264 0.0000 1.8306 0.0000
# 3 39.2626 -10.8264 37.4796 0.0000 6.4956 0.0000
# 4 0.0000 0.0000 0.0000 32.3641 0.0000 -1.3868
# 5 -39.1871 1.8306 6.4956 0.0000 41.6660 0.0000
# 6 0.0000 0.0000 0.0000 -1.3868 0.0000 35.7120
#
#
#
# Elastic Compliance Matrix: (Units=1/GPa)
#
#
# Indices 1 2 3 4 5 6 
#
# 1 0.005177 -0.006332 -0.008370 0.000000 0.006452 0.000000
# 2 -0.006332 0.026404 0.015923 0.000000 -0.009598 0.000000
# 3 -0.008370 0.015923 0.042688 0.000000 -0.015227 0.000000
# 4 0.000000 0.000000 0.000000 0.030950 0.000000 0.001202
# 5 0.006452 -0.009598 -0.015227 0.000000 0.032864 0.000000
# 6 0.000000 0.000000 0.000000 0.001202 0.000000 0.028048
#
#
# Mechanical properties :
#
#
# Convention : Reuss Voigt Hill
#
# Bulk Modulus (GPa) = 13.03581 68.67516 40.85548
# Shear Modulus (GPa) = 26.41888 47.46544 36.94216
#
# Velocity S-wave (km/s) = 3.05574 4.09589 3.61344
# Velocity P-wave (km/s) = 4.13007 6.82943 5.64352
#
# Compressibility (1/GPa) = 0.07671178
#
# Stress axis : x y z
#
# Youngs Moduli (GPa) = 193.17279 37.87313 23.42573
#
# Poissons Ratio (x) = 0.23981 0.19608
# Poissons Ratio (y) = 1.22314 -0.37302
# Poissons Ratio (z) = 1.61689 -0.60307
#
# Static dielectric constant tensor:
#      x y z
#    x 2.436970 0.000000 0.167270 
#    y 0.000000 2.610080 0.000000 
#    z 0.167270 0.000000 2.257350 
# 
# From -- ./inp_files/58966.got.cif
#   From: 2010.05.17/outbox.cif.g08.bks.cpg/sg14_30_cif.got.tgz:58966.got - 2010.06.03 17:49:19.
