data_PCOD9251119
_publ_section_title
;
Structure prediction by ZEFSAII (Michael W. Deem and Ramdas Pophale) SiO2 
 PCOD9251119
Probable space group: P 21/C
;
_chemical_formula_sum "Si O2"
_cell_formula_units_Z 20
_cell_length_a 12.593875
_cell_length_b 10.858228
_cell_length_c 8.343042
_cell_angle_alpha 90.000000
_cell_angle_beta 133.946748
_cell_angle_gamma 90.000000
_cell_volume 821.421917
_symmetry_space_group_name_H-M "P 21/C"
_symmetry_group_IT_number 14
_symmetry_cell_setting 'monoclinic'
loop_
_space_group_symop_operation_xyz
x,y,z
-x,1/2+y,1/2-z
-x,-y,-z
x,1/2-y,1/2+z
loop_
_atom_site_type_symbol
_atom_site_label
_atom_site_fract_x
_atom_site_fract_y
_atom_site_fract_z
Si Si1 0.663816 0.217754 0.591433
Si Si2 0.076226 0.378076 0.652718
Si Si3 0.044112 0.869929 0.621669
Si Si4 0.339797 0.022859 0.258293
Si Si5 0.492373 0.386198 0.614986
O O1 0.514691 0.274427 0.512595
O O2 0.623709 0.149205 0.381460
O O3 0.783584 0.326787 0.695186
O O4 0.722734 0.116068 0.779979
O O5 0.035662 0.378333 0.793150
O O6 0.026037 0.246724 0.538103
O O7 0.244235 0.393544 0.774545
O O8 0.000000 0.500000 0.500000
O O9 0.000000 0.000000 0.500000
O O10 0.360637 0.079617 0.102397
O O11 0.500000 0.000000 0.500000
O O12 0.500000 0.500000 0.500000
#
# Coordination Sequence:
#
# PCOD9251119 Si02
#       5
#     4   4   4   4   4
#     4  11  24  49  77 115 168 210 272 349 418 482
#     4  12  26  50  81 114 161 217 277 337 414 498
#     4  12  28  49  84 119 162 218 279 345 415 496
#     4  10  25  48  79 113 163 211 269 338 418 498
#     4  11  25  45  79 115 157 216 270 328 425 496
#
# _framework density 24.348023000000001
#
# number of rings (size 3 to 8) (size 9 to 14) (size 15 to 20)
#    0.000    0.800    2.000    3.600    8.400    3.200 
#    7.200    0.000    0.000    0.000    0.000    0.000 
#    0.000    0.000    0.000    0.000    0.000    0.000 
#
# Total GULP energy -111584.025752 kJ/mol
# GULP energy per Si atom -5579.201288 kJ/mol
# Density = 2.429261 g / cm^3
# Si number density = 24.348023 Si / 1000 Ang^3
#
#
#
# Elastic Constant Matrix: (Units=GPa)
#
#
# Indices 1 2 3 4 5 6 
#
# 1 238.6596 93.2838 75.4491 0.0000 -32.5428 0.0000
# 2 93.2838 207.7652 70.7046 0.0000 -13.8040 0.0000
# 3 75.4491 70.7046 84.7875 0.0000 -14.4409 0.0000
# 4 0.0000 0.0000 0.0000 55.2523 0.0000 -10.1771
# 5 -32.5428 -13.8040 -14.4409 0.0000 58.1583 0.0000
# 6 0.0000 0.0000 0.0000 -10.1771 0.0000 64.1095
#
#
#
# Elastic Compliance Matrix: (Units=1/GPa)
#
#
# Indices 1 2 3 4 5 6 
#
# 1 0.006305 -0.001261 -0.004186 0.000000 0.002189 0.000000
# 2 -0.001261 0.006975 -0.004733 0.000000 -0.000225 0.000000
# 3 -0.004186 -0.004733 0.019709 0.000000 0.001428 0.000000
# 4 0.000000 0.000000 0.000000 0.018644 0.000000 0.002960
# 5 0.002189 -0.000225 0.001428 0.000000 0.018721 0.000000
# 6 0.000000 0.000000 0.000000 0.002960 0.000000 0.016068
#
#
# Mechanical properties :
#
#
# Convention : Reuss Voigt Hill
#
# Bulk Modulus (GPa) = 79.18019 112.23192 95.70605
# Shear Modulus (GPa) = 45.04877 54.95569 50.00223
#
# Velocity S-wave (km/s) = 4.30606 4.75604 4.53663
# Velocity P-wave (km/s) = 7.57058 8.73812 8.17522
#
# Compressibility (1/GPa) = 0.01262942
#
# Stress axis : x y z
#
# Youngs Moduli (GPa) = 158.61059 143.37252 50.73745
#
# Poissons Ratio (x) = 0.18075 0.21240
# Poissons Ratio (y) = 0.19996 0.24013
# Poissons Ratio (z) = 0.66398 0.67856
#
# Static dielectric constant tensor:
#      x y z
#    x 1.957510 0.000000 0.072730 
#    y 0.000000 2.032680 0.000000 
#    z 0.072730 0.000000 2.024820 
# 
# From -- ./inp_files/12283.got.cif
#   From: 2010.05.17/outbox.cif.g08.bks.cpg/sg14_7_cif.got.tgz:12283.got - 2010.06.03 17:49:19.
