data_PCOD9251074
_publ_section_title
;
Structure prediction by ZEFSAII (Michael W. Deem and Ramdas Pophale) SiO2 
 PCOD9251074
Probable space group: P 21/C
;
_chemical_formula_sum "Si O2"
_cell_formula_units_Z 20
_cell_length_a 9.408829
_cell_length_b 10.915238
_cell_length_c 15.766775
_cell_angle_alpha 90.000000
_cell_angle_beta 148.923734
_cell_angle_gamma 90.000000
_cell_volume 835.817847
_symmetry_space_group_name_H-M "P 21/C"
_symmetry_group_IT_number 14
_symmetry_cell_setting 'monoclinic'
loop_
_space_group_symop_operation_xyz
x,y,z
-x,1/2+y,1/2-z
-x,-y,-z
x,1/2-y,1/2+z
loop_
_atom_site_type_symbol
_atom_site_label
_atom_site_fract_x
_atom_site_fract_y
_atom_site_fract_z
Si Si1 0.568590 0.985073 0.846143
Si Si2 0.438834 0.124340 0.617857
Si Si3 0.756267 0.841206 0.217716
Si Si4 0.662487 0.350855 0.924174
Si Si5 0.979375 0.673713 0.641909
O O1 0.444175 0.875354 0.725899
O O2 0.552474 0.096826 0.771007
O O3 0.374554 0.028360 0.823240
O O4 0.862848 0.944282 0.030981
O O5 0.174052 0.209406 0.476333
O O6 0.693952 0.177825 0.696305
O O7 0.360001 0.987529 0.547198
O O8 0.525561 0.740673 0.119359
O O9 0.868003 0.836907 0.180108
O O10 0.020160 0.814635 0.411480
#
# Coordination Sequence:
#
# PCOD9251074 Si02
#       5
#     4   4   4   4   4
#     4  10  25  46  75  98 142 186 238 286 347 420
#     4  10  27  47  74  99 146 186 238 280 355 421
#     4  12  25  45  73 107 140 184 236 296 349 409
#     4  10  27  47  74  99 146 186 238 280 355 421
#     4  12  25  45  73 107 140 184 236 296 349 409
#
# _framework density 23.928659
#
# number of rings (size 3 to 8) (size 9 to 14) (size 15 to 20)
#    1.200    0.000    0.000    4.200    5.600    6.400 
#    0.000    0.000    0.000    0.000    0.000    0.000 
#    0.000    0.000    0.000    0.000    0.000    0.000 
#
# Total GULP energy -111919.463525 kJ/mol
# GULP energy per Si atom -5595.973176 kJ/mol
# Density = 2.387420 g / cm^3
# Si number density = 23.928659 Si / 1000 Ang^3
#
#
#
# Elastic Constant Matrix: (Units=GPa)
#
#
# Indices 1 2 3 4 5 6 
#
# 1 79.2846 14.1782 -1.7922 0.0000 -2.2827 0.0000
# 2 14.1782 65.2006 17.0021 0.0000 -0.6052 0.0000
# 3 -1.7922 17.0021 79.9343 0.0000 26.4535 0.0000
# 4 0.0000 0.0000 0.0000 33.4160 0.0000 4.9084
# 5 -2.2827 -0.6052 26.4535 0.0000 39.0866 0.0000
# 6 0.0000 0.0000 0.0000 4.9084 0.0000 36.1787
#
#
#
# Elastic Compliance Matrix: (Units=1/GPa)
#
#
# Indices 1 2 3 4 5 6 
#
# 1 0.013192 -0.003109 0.000925 0.000000 0.000096 0.000000
# 2 -0.003109 0.017315 -0.004873 0.000000 0.003384 0.000000
# 3 0.000925 -0.004873 0.017492 0.000000 -0.011860 0.000000
# 4 0.000000 0.000000 0.000000 0.030534 0.000000 -0.004143
# 5 0.000096 0.003384 -0.011860 0.000000 0.033669 0.000000
# 6 0.000000 0.000000 0.000000 -0.004143 0.000000 0.028203
#
#
# Mechanical properties :
#
#
# Convention : Reuss Voigt Hill
#
# Bulk Modulus (GPa) = 29.50969 31.46619 30.48794
# Shear Modulus (GPa) = 30.15403 34.73834 32.44618
#
# Velocity S-wave (km/s) = 3.55373 3.81431 3.68632
# Velocity P-wave (km/s) = 5.40350 5.70764 5.55765
#
# Compressibility (1/GPa) = 0.03388718
#
# Stress axis : x y z
#
# Youngs Moduli (GPa) = 75.80079 57.75191 57.16755
#
# Poissons Ratio (x) = 0.17956 -0.05290
# Poissons Ratio (y) = 0.23568 0.27856
# Poissons Ratio (z) = -0.07014 0.28141
#
# Static dielectric constant tensor:
#      x y z
#    x 1.917470 0.000000 -0.056870 
#    y 0.000000 1.955030 0.000000 
#    z -0.056870 0.000000 1.840720 
# 
# From -- ./inp_files/55626.got.cif
#   From: 2010.05.17/outbox.cif.g08.bks.cpg/sg14_28_cif.got.tgz:55626.got - 2010.06.03 17:49:19.
