data_PCOD9251495
_publ_section_title
;
Structure prediction by ZEFSAII (Michael W. Deem and Ramdas Pophale) SiO2 
 PCOD9251495
Probable space group: P 21/C
;
_chemical_formula_sum "Si O2"
_cell_formula_units_Z 24
_cell_length_a 13.876188
_cell_length_b 9.520196
_cell_length_c 14.047520
_cell_angle_alpha 90.000000
_cell_angle_beta 34.378139
_cell_angle_gamma 90.000000
_cell_volume 1047.844178
_symmetry_space_group_name_H-M "P 21/C"
_symmetry_group_IT_number 14
_symmetry_cell_setting 'monoclinic'
loop_
_space_group_symop_operation_xyz
x,y,z
-x,1/2+y,1/2-z
-x,-y,-z
x,1/2-y,1/2+z
loop_
_atom_site_type_symbol
_atom_site_label
_atom_site_fract_x
_atom_site_fract_y
_atom_site_fract_z
Si Si1 0.060866 0.158472 0.949630
Si Si2 0.048298 0.294210 0.242854
Si Si3 0.210976 0.490676 0.601368
Si Si4 0.408649 0.169946 0.785764
Si Si5 0.828038 0.086034 0.659384
Si Si6 0.662878 0.965647 0.606525
O O1 0.102673 0.197527 0.807559
O O2 0.234758 0.173653 0.866849
O O3 0.903637 0.257537 0.110578
O O4 0.000000 0.000000 0.000000
O O5 0.062379 0.129021 0.210321
O O6 0.865760 0.367537 0.380458
O O7 0.177903 0.385363 0.072601
O O8 0.359063 0.413171 0.423127
O O9 0.250037 0.526549 0.679177
O O10 0.560778 0.073481 0.622630
O O11 0.452258 0.331050 0.770111
O O12 0.721936 0.053781 0.650948
O O13 0.000000 0.000000 0.500000
#
# Coordination Sequence:
#
# PCOD9251495 Si02
#       6
#     4   4   4   4   4   4
#     4  12  24  41  67  99 129 164 223 272 314 389
#     4  11  21  39  66  96 125 172 217 267 321 382
#     4  11  22  39  68  95 126 169 223 264 318 390
#     4  11  25  43  61  99 135 167 215 270 325 383
#     4  12  21  44  69  92 125 175 214 263 324 386
#     4  11  25  42  65  95 135 171 212 270 327 383
#
# _framework density 22.904167999999999
#
# number of rings (size 3 to 8) (size 9 to 14) (size 15 to 20)
#    0.000    0.667    6.667    1.000    2.333    2.667 
#    0.000    0.000    0.000    0.000    0.000    0.000 
#    0.000    0.000    0.000    0.000    0.000    0.000 
#
# Total GULP energy -134097.848103 kJ/mol
# GULP energy per Si atom -5587.410338 kJ/mol
# Density = 2.285204 g / cm^3
# Si number density = 22.904168 Si / 1000 Ang^3
#
#
#
# Elastic Constant Matrix: (Units=GPa)
#
#
# Indices 1 2 3 4 5 6 
#
# 1 93.5031 15.0779 41.3318 0.0000 11.6754 0.0000
# 2 15.0779 152.4247 10.8367 0.0000 -19.7242 0.0000
# 3 41.3318 10.8367 28.5770 0.0000 1.1233 0.0000
# 4 0.0000 0.0000 0.0000 24.9060 0.0000 -13.3377
# 5 11.6754 -19.7242 1.1233 0.0000 33.1249 0.0000
# 6 0.0000 0.0000 0.0000 -13.3377 0.0000 33.4848
#
#
#
# Elastic Compliance Matrix: (Units=1/GPa)
#
#
# Indices 1 2 3 4 5 6 
#
# 1 0.032846 -0.001334 -0.046575 0.000000 -0.010792 0.000000
# 2 -0.001334 0.007405 -0.001071 0.000000 0.004916 0.000000
# 3 -0.046575 -0.001071 0.102279 0.000000 0.012310 0.000000
# 4 0.000000 0.000000 0.000000 0.051038 0.000000 0.020329
# 5 -0.010792 0.004916 0.012310 0.000000 0.036502 0.000000
# 6 0.000000 0.000000 0.000000 0.020329 0.000000 0.037962
#
#
# Mechanical properties :
#
#
# Convention : Reuss Voigt Hill
#
# Bulk Modulus (GPa) = 22.43800 45.44417 33.94109
# Shear Modulus (GPa) = 13.12856 32.12036 22.62446
#
# Velocity S-wave (km/s) = 2.39675 3.74890 3.14632
# Velocity P-wave (km/s) = 4.18054 6.21475 5.29623
#
# Compressibility (1/GPa) = 0.04456726
#
# Stress axis : x y z
#
# Youngs Moduli (GPa) = 30.44553 135.04554 9.77719
#
# Poissons Ratio (x) = 0.18019 0.45538
# Poissons Ratio (y) = 0.04062 0.01048
# Poissons Ratio (z) = 1.41801 0.14469
#
# Static dielectric constant tensor:
#      x y z
#    x 1.883070 0.000000 -0.008990 
#    y 0.000000 1.977350 0.000000 
#    z -0.008990 0.000000 1.956680 
# 
# From -- ./inp_files/46367.got.cif
#   From: 2010.05.17/outbox.cif.g08.bks.cpg/sg14_24_cif.got.tgz:46367.got - 2010.06.03 17:49:19.
