data_PCOD9251307
_publ_section_title
;
Structure prediction by ZEFSAII (Michael W. Deem and Ramdas Pophale) SiO2 
 PCOD9251307
Probable space group: P 21/C
;
_chemical_formula_sum "Si O2"
_cell_formula_units_Z 32
_cell_length_a 21.927908
_cell_length_b 6.642740
_cell_length_c 21.340406
_cell_angle_alpha 90.000000
_cell_angle_beta 32.287558
_cell_angle_gamma 90.000000
_cell_volume 1660.449371
_symmetry_space_group_name_H-M "P 21/C"
_symmetry_group_IT_number 14
_symmetry_cell_setting 'monoclinic'
loop_
_space_group_symop_operation_xyz
x,y,z
-x,1/2+y,1/2-z
-x,-y,-z
x,1/2-y,1/2+z
loop_
_atom_site_type_symbol
_atom_site_label
_atom_site_fract_x
_atom_site_fract_y
_atom_site_fract_z
Si Si1 0.880453 0.884855 0.610689
Si Si2 0.332967 0.074903 0.521312
Si Si3 0.138695 0.445203 0.481080
Si Si4 0.506349 0.358540 0.433824
Si Si5 0.248275 0.781637 0.782846
Si Si6 0.467778 0.812641 0.862691
Si Si7 0.877149 0.546439 0.713837
Si Si8 0.658952 0.860453 0.105801
O O1 0.865964 0.734072 0.565475
O O2 0.878455 0.757806 0.675992
O O3 0.781900 0.048153 0.695373
O O4 0.000000 0.000000 0.500000
O O5 0.397086 0.217367 0.516125
O O6 0.203508 0.049373 0.656110
O O7 0.340061 0.192572 0.449382
O O8 0.396806 0.861569 0.459312
O O9 0.198172 0.626656 0.390529
O O10 0.218100 0.390313 0.470066
O O11 0.008330 0.491542 0.611655
O O12 0.500000 0.500000 0.500000
O O13 0.615629 0.210983 0.339980
O O14 0.512872 0.515473 0.370401
O O15 0.182285 0.893636 0.784005
O O16 0.570938 0.709912 0.735730
O O17 0.386885 0.932187 0.884373
#
# Coordination Sequence:
#
# PCOD9251307 Si02
#       8
#     4   4   4   4   4   4   4   4
#     4  11  19  39  64  92 127 165 202 256 320 378
#     4  11  25  44  63  90 132 169 205 272 317 373
#     4  11  23  39  63  95 122 168 212 256 309 385
#     4  11  24  40  66 103 129 165 213 261 334 384
#     4  11  21  37  66  96 126 161 205 257 314 385
#     4  11  23  44  68  90 125 165 215 274 315 380
#     4  11  23  41  60  92 135 162 202 258 319 375
#     4  11  24  43  66  89 119 166 224 257 316 375
#
# _framework density 19.271891
#
# number of rings (size 3 to 8) (size 9 to 14) (size 15 to 20)
#    0.000    1.000    3.750    3.750    1.750    6.000 
#    2.250    0.000    0.000    0.000    0.000    0.000 
#    0.000    0.000    0.000    0.000    0.000    0.000 
#
# Total GULP energy -178902.390362 kJ/mol
# GULP energy per Si atom -5590.699699 kJ/mol
# Density = 1.922803 g / cm^3
# Si number density = 19.271891 Si / 1000 Ang^3
#
#
#
# Elastic Constant Matrix: (Units=GPa)
#
#
# Indices 1 2 3 4 5 6 
#
# 1 85.4003 12.1624 20.5524 0.0000 -18.5992 0.0000
# 2 12.1624 76.1710 16.6870 0.0000 -6.3109 0.0000
# 3 20.5524 16.6870 105.7294 0.0000 -12.2275 0.0000
# 4 0.0000 0.0000 0.0000 30.2491 0.0000 -6.1551
# 5 -18.5992 -6.3109 -12.2275 0.0000 26.0182 0.0000
# 6 0.0000 0.0000 0.0000 -6.1551 0.0000 16.3496
#
#
#
# Elastic Compliance Matrix: (Units=1/GPa)
#
#
# Indices 1 2 3 4 5 6 
#
# 1 0.014243 -0.001180 -0.001521 0.000000 0.009181 0.000000
# 2 -0.001180 0.013842 -0.001760 0.000000 0.001686 0.000000
# 3 -0.001521 -0.001760 0.010423 0.000000 0.003384 0.000000
# 4 0.000000 0.000000 0.000000 0.035801 0.000000 0.013478
# 5 0.009181 0.001686 0.003384 0.000000 0.046997 0.000000
# 6 0.000000 0.000000 0.000000 0.013478 0.000000 0.066238
#
#
# Mechanical properties :
#
#
# Convention : Reuss Voigt Hill
#
# Bulk Modulus (GPa) = 33.80014 40.67823 37.23918
# Shear Modulus (GPa) = 24.23317 29.04996 26.64156
#
# Velocity S-wave (km/s) = 3.54988 3.88670 3.72210
# Velocity P-wave (km/s) = 5.86335 6.42614 6.15119
#
# Compressibility (1/GPa) = 0.02958568
#
# Stress axis : x y z
#
# Youngs Moduli (GPa) = 70.20948 72.24296 95.94262
#
# Poissons Ratio (x) = 0.08528 0.14589
# Poissons Ratio (y) = 0.08288 0.16888
# Poissons Ratio (z) = 0.10676 0.12716
#
# Static dielectric constant tensor:
#      x y z
#    x 1.670410 0.000000 -0.014290 
#    y 0.000000 1.667680 0.000000 
#    z -0.014290 0.000000 1.685020 
# 
# From -- ./inp_files/70106.got.cif
#   From: 2010.05.17/outbox.cif.g08.bks.cpg/sg14_36_cif.got.tgz:70106.got - 2010.06.03 17:49:19.
