data_PCOD9251384
_publ_section_title
;
Structure prediction by ZEFSAII (Michael W. Deem and Ramdas Pophale) SiO2 
 PCOD9251384
Probable space group: P 21/C
;
_chemical_formula_sum "Si O2"
_cell_formula_units_Z 24
_cell_length_a 9.420277
_cell_length_b 17.223664
_cell_length_c 15.762537
_cell_angle_alpha 90.000000
_cell_angle_beta 27.557335
_cell_angle_gamma 90.000000
_cell_volume 1183.190738
_symmetry_space_group_name_H-M "P 21/C"
_symmetry_group_IT_number 14
_symmetry_cell_setting 'monoclinic'
loop_
_space_group_symop_operation_xyz
x,y,z
-x,1/2+y,1/2-z
-x,-y,-z
x,1/2-y,1/2+z
loop_
_atom_site_type_symbol
_atom_site_label
_atom_site_fract_x
_atom_site_fract_y
_atom_site_fract_z
Si Si1 0.247034 0.441726 0.327617
Si Si2 0.276342 0.152865 0.973906
Si Si3 0.225109 0.062414 0.645993
Si Si4 0.259396 0.529164 0.734966
Si Si5 0.567829 0.316614 0.848273
Si Si6 0.301878 0.071641 0.362275
O O1 0.283621 0.369007 0.370169
O O2 0.157674 0.421549 0.279839
O O3 0.550180 0.495604 0.170305
O O4 0.000000 0.500000 0.500000
O O5 0.428898 0.077650 0.936459
O O6 0.476237 0.227365 0.891464
O O7 0.921626 0.168187 0.183104
O O8 0.354162 0.137333 0.527988
O O9 0.934399 0.030359 0.747964
O O10 0.500000 0.000000 0.500000
O O11 0.309866 0.448475 0.758569
O O12 0.039513 0.575795 0.918866
O O13 0.492049 0.356397 0.797257
#
# Coordination Sequence:
#
# PCOD9251384 Si02
#       6
#     4   4   4   4   4   4
#     4  11  20  40  69  95 126 170 221 263 323 388
#     4  11  23  40  65  90 132 176 210 271 335 397
#     4  11  20  39  66  95 127 168 212 270 317 386
#     4   9  19  34  62  91 124 165 214 256 319 380
#     4  11  21  39  64  90 128 170 214 268 333 377
#     4   9  17  35  62  90 124 165 208 256 315 386
#
# _framework density 20.284133000000001
#
# number of rings (size 3 to 8) (size 9 to 14) (size 15 to 20)
#    0.000    1.667    5.000    2.000    0.000    0.000 
#    0.000   10.833    3.667    0.000    0.000    0.000 
#    0.000    0.000    0.000    0.000    0.000    0.000 
#
# Total GULP energy -133966.088728 kJ/mol
# GULP energy per Si atom -5581.920364 kJ/mol
# Density = 2.023797 g / cm^3
# Si number density = 20.284133 Si / 1000 Ang^3
#
#
#
# Elastic Constant Matrix: (Units=GPa)
#
#
# Indices 1 2 3 4 5 6 
#
# 1 156.6106 22.6051 47.9163 0.0000 6.8498 0.0000
# 2 22.6051 66.4736 34.1645 0.0000 11.5591 0.0000
# 3 47.9163 34.1645 87.5490 0.0000 -9.6020 0.0000
# 4 0.0000 0.0000 0.0000 28.1051 0.0000 -7.2504
# 5 6.8498 11.5591 -9.6020 0.0000 38.2662 0.0000
# 6 0.0000 0.0000 0.0000 -7.2504 0.0000 33.3321
#
#
#
# Elastic Compliance Matrix: (Units=1/GPa)
#
#
# Indices 1 2 3 4 5 6 
#
# 1 0.007910 0.000181 -0.004690 0.000000 -0.002647 0.000000
# 2 0.000181 0.021351 -0.009400 0.000000 -0.008841 0.000000
# 3 -0.004690 -0.009400 0.018572 0.000000 0.008339 0.000000
# 4 0.000000 0.000000 0.000000 0.037696 0.000000 0.008200
# 5 -0.002647 -0.008841 0.008339 0.000000 0.031370 0.000000
# 6 0.000000 0.000000 0.000000 0.008200 0.000000 0.031785
#
#
# Mechanical properties :
#
#
# Convention : Reuss Voigt Hill
#
# Bulk Modulus (GPa) = 49.96597 57.77834 53.87216
# Shear Modulus (GPa) = 27.29652 33.67050 30.48351
#
# Velocity S-wave (km/s) = 3.67237 4.07866 3.88083
# Velocity P-wave (km/s) = 6.53209 7.12229 6.83356
#
# Compressibility (1/GPa) = 0.02001362
#
# Stress axis : x y z
#
# Youngs Moduli (GPa) = 126.42337 46.83688 53.84406
#
# Poissons Ratio (x) = -0.00848 0.25254
# Poissons Ratio (y) = -0.02289 0.50616
# Poissons Ratio (z) = 0.59295 0.44029
#
# Static dielectric constant tensor:
#      x y z
#    x 1.770370 0.000000 -0.011930 
#    y 0.000000 1.703040 0.000000 
#    z -0.011930 0.000000 1.806600 
# 
# From -- ./inp_files/41753.got.cif
#   From: 2010.05.17/outbox.cif.g08.bks.cpg/sg14_21_cif.got.tgz:41753.got - 2010.06.03 17:49:19.
