data_PCOD9251583
_publ_section_title
;
Structure prediction by ZEFSAII (Michael W. Deem and Ramdas Pophale) SiO2 
 PCOD9251583
Probable space group: P 21/C
;
_chemical_formula_sum "Si O2"
_cell_formula_units_Z 32
_cell_length_a 15.255241
_cell_length_b 10.954625
_cell_length_c 18.244307
_cell_angle_alpha 90.000000
_cell_angle_beta 30.514341
_cell_angle_gamma 90.000000
_cell_volume 1548.093982
_symmetry_space_group_name_H-M "P 21/C"
_symmetry_group_IT_number 14
_symmetry_cell_setting 'monoclinic'
loop_
_space_group_symop_operation_xyz
x,y,z
-x,1/2+y,1/2-z
-x,-y,-z
x,1/2-y,1/2+z
loop_
_atom_site_type_symbol
_atom_site_label
_atom_site_fract_x
_atom_site_fract_y
_atom_site_fract_z
Si Si1 0.558871 0.585200 0.142838
Si Si2 0.056461 0.126666 0.639437
Si Si3 0.161231 0.959119 0.337091
Si Si4 0.465481 0.678627 0.638375
Si Si5 0.026963 0.903811 0.775704
Si Si6 0.423627 0.907192 0.496144
Si Si7 0.682425 0.018748 0.054256
Si Si8 0.525358 0.637718 0.425505
O O1 0.506528 0.681791 0.118101
O O2 0.571601 0.459920 0.089548
O O3 0.416504 0.582773 0.308286
O O4 0.749662 0.620663 0.032986
O O5 0.033469 0.261763 0.693171
O O6 0.042427 0.003970 0.699071
O O7 0.912643 0.105252 0.681915
O O8 0.296732 0.069694 0.224433
O O9 0.272929 0.857520 0.298240
O O10 0.000000 0.000000 0.500000
O O11 0.588141 0.608434 0.605466
O O12 0.493495 0.625789 0.536118
O O13 0.222403 0.889024 0.662962
O O14 0.878586 0.976991 0.927675
O O15 0.529432 0.782809 0.416335
O O16 0.500000 0.000000 0.500000
O O17 0.629628 0.093398 0.017694
#
# Coordination Sequence:
#
# PCOD9251583 Si02
#       8
#     4   4   4   4   4   4   4   4
#     4  11  25  41  66  97 143 175 216 283 348 406
#     4  11  23  43  68 101 135 175 228 283 333 409
#     4  11  24  41  69 100 129 174 229 283 328 402
#     4  11  21  43  66  94 132 179 221 271 338 410
#     4  11  23  41  69  99 133 175 232 281 334 412
#     4  11  24  43  64  96 132 182 225 273 341 409
#     4  11  23  41  68 101 128 179 219 283 344 391
#     4  11  23  44  74  94 135 178 231 272 340 414
#
# _framework density 20.670580000000001
#
# number of rings (size 3 to 8) (size 9 to 14) (size 15 to 20)
#    0.000    1.000    2.500    6.000    1.750    1.000 
#    4.500    0.625    0.000    0.000    0.000    0.000 
#    0.000    0.000    0.000    0.000    0.000    0.000 
#
# Total GULP energy -178298.472114 kJ/mol
# GULP energy per Si atom -5571.827254 kJ/mol
# Density = 2.062353 g / cm^3
# Si number density = 20.670580 Si / 1000 Ang^3
#
#
#
# Elastic Constant Matrix: (Units=GPa)
#
#
# Indices 1 2 3 4 5 6 
#
# 1 52.5198 22.6205 32.6822 0.0000 -7.0766 0.0000
# 2 22.6205 117.4969 27.8542 0.0000 -5.2571 0.0000
# 3 32.6822 27.8542 111.8736 0.0000 -13.8746 0.0000
# 4 0.0000 0.0000 0.0000 26.4588 0.0000 -8.6394
# 5 -7.0766 -5.2571 -13.8746 0.0000 31.0689 0.0000
# 6 0.0000 0.0000 0.0000 -8.6394 0.0000 30.6791
#
#
#
# Elastic Compliance Matrix: (Units=1/GPa)
#
#
# Indices 1 2 3 4 5 6 
#
# 1 0.024504 -0.003172 -0.006080 0.000000 0.002329 0.000000
# 2 -0.003172 0.009464 -0.001398 0.000000 0.000255 0.000000
# 3 -0.006080 -0.001398 0.011499 0.000000 0.003514 0.000000
# 4 0.000000 0.000000 0.000000 0.041622 0.000000 0.011721
# 5 0.002329 0.000255 0.003514 0.000000 0.034329 0.000000
# 6 0.000000 0.000000 0.000000 0.011721 0.000000 0.035896
#
#
# Mechanical properties :
#
#
# Convention : Reuss Voigt Hill
#
# Bulk Modulus (GPa) = 41.37880 49.80046 45.58963
# Shear Modulus (GPa) = 26.78531 30.89026 28.83779
#
# Velocity S-wave (km/s) = 3.60365 3.86995 3.73917
# Velocity P-wave (km/s) = 6.11365 6.64179 6.38319
#
# Compressibility (1/GPa) = 0.02416697
#
# Stress axis : x y z
#
# Youngs Moduli (GPa) = 40.80997 105.65924 86.96662
#
# Poissons Ratio (x) = 0.33515 0.52874
# Poissons Ratio (y) = 0.12945 0.12160
# Poissons Ratio (z) = 0.24812 0.14774
#
# Static dielectric constant tensor:
#      x y z
#    x 1.748640 0.000000 0.008070 
#    y 0.000000 1.766880 0.000000 
#    z 0.008070 0.000000 1.778100 
# 
# From -- ./inp_files/59460.got.cif
#   From: 2010.05.17/outbox.cif.g08.bks.cpg/sg14_30_cif.got.tgz:59460.got - 2010.06.03 17:49:19.
