data_PCOD9251919
_publ_section_title
;
Structure prediction by ZEFSAII (Michael W. Deem and Ramdas Pophale) SiO2 
 PCOD9251919
Probable space group: P 21/C
;
_chemical_formula_sum "Si O2"
_cell_formula_units_Z 32
_cell_length_a 4.910966
_cell_length_b 22.793349
_cell_length_c 11.305655
_cell_angle_alpha 90.000000
_cell_angle_beta 99.880492
_cell_angle_gamma 90.000000
_cell_volume 1246.754682
_symmetry_space_group_name_H-M "P 21/C"
_symmetry_group_IT_number 14
_symmetry_cell_setting 'monoclinic'
loop_
_space_group_symop_operation_xyz
x,y,z
-x,1/2+y,1/2-z
-x,-y,-z
x,1/2-y,1/2+z
loop_
_atom_site_type_symbol
_atom_site_label
_atom_site_fract_x
_atom_site_fract_y
_atom_site_fract_z
Si Si1 0.861582 0.665432 0.105288
Si Si2 0.031792 0.294541 0.445073
Si Si3 0.393576 0.466605 0.326029
Si Si4 0.564980 0.305780 0.227309
Si Si5 0.361131 0.090968 0.201326
Si Si6 0.984808 0.074891 0.968746
Si Si7 0.050178 0.374213 0.153167
Si Si8 0.734439 0.186343 0.158113
O O1 0.671317 0.625919 0.177668
O O2 0.804770 0.735049 0.075882
O O3 0.127795 0.670958 0.207691
O O4 0.919297 0.633198 0.985852
O O5 0.733039 0.291743 0.357850
O O6 0.962316 0.297935 0.578560
O O7 0.096771 0.362826 0.424653
O O8 0.490086 0.528440 0.279933
O O9 0.197714 0.471587 0.426998
O O10 0.195733 0.432337 0.217246
O O11 0.677059 0.434657 0.392941
O O12 0.251401 0.323577 0.218246
O O13 0.569639 0.246145 0.155944
O O14 0.741074 0.356263 0.170816
O O15 0.530743 0.132517 0.123773
O O16 0.068124 0.079893 0.113180
#
# Coordination Sequence:
#
# PCOD9251919 Si02
#       8
#     4   4   4   4   4   4   4   4
#     4  11  28  45  72 112 155 197 252 310 388 461
#     4  11  22  48  75 109 147 190 253 321 390 449
#     4  12  27  50  79 110 154 209 262 316 372 460
#     4  11  26  44  74 104 149 193 251 311 379 450
#     4  12  29  46  78 111 159 203 259 320 383 452
#     4  12  25  48  77 114 149 201 259 322 387 444
#     4  12  25  50  71 109 151 202 255 303 376 458
#     4  11  26  47  71 113 149 199 242 323 385 456
#
# _framework density 25.666637000000001
#
# number of rings (size 3 to 8) (size 9 to 14) (size 15 to 20)
#    0.000    0.500    5.000    1.500    8.750    0.500 
#    0.000    0.625    0.000    0.000    0.000    0.000 
#    0.000    0.000    0.000    0.000    0.000    0.000 
#
# Total GULP energy -178862.916895 kJ/mol
# GULP energy per Si atom -5589.466153 kJ/mol
# Density = 2.560822 g / cm^3
# Si number density = 25.666637 Si / 1000 Ang^3
#
#
#
# Elastic Constant Matrix: (Units=GPa)
#
#
# Indices 1 2 3 4 5 6 
#
# 1 93.0209 12.1566 33.8585 0.0000 8.5846 0.0000
# 2 12.1566 142.4887 26.3891 0.0000 2.5375 0.0000
# 3 33.8585 26.3891 143.7367 0.0000 5.9559 0.0000
# 4 0.0000 0.0000 0.0000 26.3968 0.0000 -0.2847
# 5 8.5846 2.5375 5.9559 0.0000 33.5762 0.0000
# 6 0.0000 0.0000 0.0000 -0.2847 0.0000 46.4420
#
#
#
# Elastic Compliance Matrix: (Units=1/GPa)
#
#
# Indices 1 2 3 4 5 6 
#
# 1 0.012009 -0.000491 -0.002632 0.000000 -0.002566 0.000000
# 2 -0.000491 0.007289 -0.001214 0.000000 -0.000210 0.000000
# 3 -0.002632 -0.001214 0.007826 0.000000 -0.000623 0.000000
# 4 0.000000 0.000000 0.000000 0.037886 0.000000 0.000232
# 5 -0.002566 -0.000210 -0.000623 0.000000 0.030566 0.000000
# 6 0.000000 0.000000 0.000000 0.000232 0.000000 0.021534
#
#
# Mechanical properties :
#
#
# Convention : Reuss Voigt Hill
#
# Bulk Modulus (GPa) = 54.20335 58.22829 56.21582
# Shear Modulus (GPa) = 37.89785 41.73915 39.81850
#
# Velocity S-wave (km/s) = 3.84675 4.03700 3.94302
# Velocity P-wave (km/s) = 6.39484 6.66824 6.53297
#
# Compressibility (1/GPa) = 0.01844904
#
# Stress axis : x y z
#
# Youngs Moduli (GPa) = 83.26744 137.20179 127.78077
#
# Poissons Ratio (x) = 0.06742 0.33637
# Poissons Ratio (y) = 0.04092 0.15508
# Poissons Ratio (z) = 0.21919 0.16652
#
# Static dielectric constant tensor:
#      x y z
#    x 2.043170 0.000000 -0.025910 
#    y 0.000000 2.101680 0.000000 
#    z -0.025910 0.000000 2.052200 
# 
# From -- ./inp_files/22129.got.cif
#   From: 2010.05.17/outbox.cif.g08.bks.cpg/sg14_12_cif.got.tgz:22129.got - 2010.06.03 17:49:19.
