data_PCOD9251050
_publ_section_title
;
Structure prediction by ZEFSAII (Michael W. Deem and Ramdas Pophale) SiO2 
 PCOD9251050
Probable space group: P 21/C
;
_chemical_formula_sum "Si O2"
_cell_formula_units_Z 20
_cell_length_a 11.940791
_cell_length_b 6.680802
_cell_length_c 16.631154
_cell_angle_alpha 90.000000
_cell_angle_beta 36.665914
_cell_angle_gamma 90.000000
_cell_volume 792.257035
_symmetry_space_group_name_H-M "P 21/C"
_symmetry_group_IT_number 14
_symmetry_cell_setting 'monoclinic'
loop_
_space_group_symop_operation_xyz
x,y,z
-x,1/2+y,1/2-z
-x,-y,-z
x,1/2-y,1/2+z
loop_
_atom_site_type_symbol
_atom_site_label
_atom_site_fract_x
_atom_site_fract_y
_atom_site_fract_z
Si Si1 0.665818 0.287876 0.597555
Si Si2 0.708749 0.360423 0.794710
Si Si3 0.271592 0.456464 0.044278
Si Si4 0.286169 0.027817 0.287271
Si Si5 0.897154 0.823002 0.989124
O O1 0.781286 0.168842 0.464831
O O2 0.661282 0.137313 0.675037
O O3 0.462363 0.327761 0.677650
O O4 0.749842 0.499209 0.571460
O O5 0.737728 0.498116 0.856517
O O6 0.732137 0.114607 0.780287
O O7 0.893400 0.407861 0.635826
O O8 0.490404 0.400343 0.897990
O O9 0.147399 0.296217 0.068513
O O10 0.132032 0.168113 0.419937
#
# Coordination Sequence:
#
# PCOD9251050 Si02
#       5
#     4   4   4   4   4
#     4  11  21  42  69  91 136 177 211 281 338 384
#     4  11  24  45  67 100 135 174 229 276 332 405
#     4  10  25  46  64 100 139 171 224 279 334 401
#     4  11  21  42  66 100 131 173 227 273 333 397
#     4  11  24  43  69  96 137 181 224 272 336 402
#
# _framework density 25.244330999999999
#
# number of rings (size 3 to 8) (size 9 to 14) (size 15 to 20)
#    0.000    1.200    4.000    1.800    2.800    1.600 
#    7.200    0.000    0.000    0.000    0.000    0.000 
#    0.000    0.000    0.000    0.000    0.000    0.000 
#
# Total GULP energy -111671.350139 kJ/mol
# GULP energy per Si atom -5583.567507 kJ/mol
# Density = 2.518687 g / cm^3
# Si number density = 25.244331 Si / 1000 Ang^3
#
#
#
# Elastic Constant Matrix: (Units=GPa)
#
#
# Indices 1 2 3 4 5 6 
#
# 1 91.9784 22.9161 20.4653 0.0000 -7.9619 0.0000
# 2 22.9161 130.0858 38.1909 0.0000 7.0486 0.0000
# 3 20.4653 38.1909 108.2723 0.0000 -15.7448 0.0000
# 4 0.0000 0.0000 0.0000 28.6176 0.0000 -7.0247
# 5 -7.9619 7.0486 -15.7448 0.0000 22.3887 0.0000
# 6 0.0000 0.0000 0.0000 -7.0247 0.0000 50.6660
#
#
#
# Elastic Compliance Matrix: (Units=1/GPa)
#
#
# Indices 1 2 3 4 5 6 
#
# 1 0.011960 -0.002071 -0.000910 0.000000 0.004265 0.000000
# 2 -0.002071 0.009557 -0.003926 0.000000 -0.006506 0.000000
# 3 -0.000910 -0.003926 0.012170 0.000000 0.009471 0.000000
# 4 0.000000 0.000000 0.000000 0.036175 0.000000 0.005015
# 5 0.004265 -0.006506 0.009471 0.000000 0.054891 0.000000
# 6 0.000000 0.000000 0.000000 0.005015 0.000000 0.020432
#
#
# Mechanical properties :
#
#
# Convention : Reuss Voigt Hill
#
# Bulk Modulus (GPa) = 50.31758 54.83122 52.57440
# Shear Modulus (GPa) = 30.18923 36.91874 33.55398
#
# Velocity S-wave (km/s) = 3.46190 3.82836 3.64973
# Velocity P-wave (km/s) = 5.99627 6.42722 6.21548
#
# Compressibility (1/GPa) = 0.01987377
#
# Stress axis : x y z
#
# Youngs Moduli (GPa) = 83.61404 104.63445 82.16990
#
# Poissons Ratio (x) = 0.21668 0.07477
# Poissons Ratio (y) = 0.17315 0.32258
# Poissons Ratio (z) = 0.07608 0.41077
#
# Static dielectric constant tensor:
#      x y z
#    x 2.057360 0.000000 0.022010 
#    y 0.000000 1.981980 0.000000 
#    z 0.022010 0.000000 2.046540 
# 
# From -- ./inp_files/67779.got.cif
#   From: 2010.05.17/outbox.cif.g08.bks.cpg/sg14_34_cif.got.tgz:67779.got - 2010.06.03 17:49:19.
