data_PCOD9251614
_publ_section_title
;
Structure prediction by ZEFSAII (Michael W. Deem and Ramdas Pophale) SiO2 
 PCOD9251614
Probable space group: P 21/C
;
_chemical_formula_sum "Si O2"
_cell_formula_units_Z 32
_cell_length_a 10.798536
_cell_length_b 9.712825
_cell_length_c 13.710712
_cell_angle_alpha 90.000000
_cell_angle_beta 75.413547
_cell_angle_gamma 90.000000
_cell_volume 1391.688517
_symmetry_space_group_name_H-M "P 21/C"
_symmetry_group_IT_number 14
_symmetry_cell_setting 'monoclinic'
loop_
_space_group_symop_operation_xyz
x,y,z
-x,1/2+y,1/2-z
-x,-y,-z
x,1/2-y,1/2+z
loop_
_atom_site_type_symbol
_atom_site_label
_atom_site_fract_x
_atom_site_fract_y
_atom_site_fract_z
Si Si1 0.518081 0.198284 0.079418
Si Si2 0.721312 0.348608 0.128196
Si Si3 0.800539 0.378037 0.758626
Si Si4 0.059545 0.493819 0.621980
Si Si5 0.304193 0.173737 0.747806
Si Si6 0.067707 0.702178 0.064367
Si Si7 0.839360 0.926319 0.701415
Si Si8 0.677126 0.587733 0.535968
O O1 0.620662 0.320094 0.062877
O O2 0.429164 0.246831 0.186339
O O3 0.604683 0.059627 0.066262
O O4 0.419489 0.175471 0.011485
O O5 0.718758 0.233218 0.213804
O O6 0.718962 0.496784 0.178932
O O7 0.855561 0.332092 0.047216
O O8 0.723994 0.521565 0.786396
O O9 0.848907 0.326323 0.854068
O O10 0.927714 0.412356 0.667916
O O11 0.031461 0.637138 0.574427
O O12 0.106115 0.521503 0.724044
O O13 0.185152 0.432834 0.543108
O O14 0.191709 0.279933 0.743701
O O15 0.305599 0.156505 0.863372
O O16 0.943535 0.609272 0.100756
#
# Coordination Sequence:
#
# PCOD9251614 Si02
#       8
#     4   4   4   4   4   4   4   4
#     4  11  26  44  69  98 137 184 238 276 338 415
#     4  12  25  44  69 102 137 191 225 285 354 415
#     4  11  25  42  71 105 138 177 233 286 349 415
#     4  11  21  44  74 100 140 182 225 288 350 414
#     4  12  25  44  68 103 135 179 232 283 340 415
#     4  11  23  42  68 102 139 174 230 288 344 414
#     4  11  25  42  68 103 143 177 224 290 354 405
#     4  11  25  46  72 101 135 191 231 281 344 433
#
# _framework density 22.993651
#
# number of rings (size 3 to 8) (size 9 to 14) (size 15 to 20)
#    0.000    0.750    6.250    0.375    3.500    3.000 
#    0.000    1.250    0.000    0.000    0.000    0.000 
#    0.000    0.000    0.000    0.000    0.000    0.000 
#
# Total GULP energy -178758.938658 kJ/mol
# GULP energy per Si atom -5586.216833 kJ/mol
# Density = 2.294132 g / cm^3
# Si number density = 22.993651 Si / 1000 Ang^3
#
#
#
# Elastic Constant Matrix: (Units=GPa)
#
#
# Indices 1 2 3 4 5 6 
#
# 1 69.3898 10.7301 -0.0991 0.0000 4.2923 0.0000
# 2 10.7301 44.5029 13.7329 0.0000 19.1952 0.0000
# 3 -0.0991 13.7329 37.5803 0.0000 -5.3499 0.0000
# 4 0.0000 0.0000 0.0000 32.4261 0.0000 6.4491
# 5 4.2923 19.1952 -5.3499 0.0000 37.3002 0.0000
# 6 0.0000 0.0000 0.0000 6.4491 0.0000 33.4507
#
#
#
# Elastic Compliance Matrix: (Units=1/GPa)
#
#
# Indices 1 2 3 4 5 6 
#
# 1 0.015068 -0.004585 0.001842 0.000000 0.000890 0.000000
# 2 -0.004585 0.038104 -0.017000 0.000000 -0.021519 0.000000
# 3 0.001842 -0.017000 0.034751 0.000000 0.013521 0.000000
# 4 0.000000 0.000000 0.000000 0.032069 0.000000 -0.006183
# 5 0.000890 -0.021519 0.013521 0.000000 0.039720 0.000000
# 6 0.000000 0.000000 0.000000 -0.006183 0.000000 0.031087
#
#
# Mechanical properties :
#
#
# Convention : Reuss Voigt Hill
#
# Bulk Modulus (GPa) = 20.64531 22.24453 21.44492
# Shear Modulus (GPa) = 20.28967 29.10933 24.69950
#
# Velocity S-wave (km/s) = 2.97375 3.56191 3.28104
# Velocity P-wave (km/s) = 4.55951 5.15863 4.86829
#
# Compressibility (1/GPa) = 0.04843716
#
# Stress axis : x y z
#
# Youngs Moduli (GPa) = 66.36591 26.24422 28.77576
#
# Poissons Ratio (x) = 0.12034 -0.05300
# Poissons Ratio (y) = 0.30431 0.48918
# Poissons Ratio (z) = -0.12225 0.44614
#
# Static dielectric constant tensor:
#      x y z
#    x 1.920720 0.000000 -0.053660 
#    y 0.000000 1.855950 0.000000 
#    z -0.053660 0.000000 1.842520 
# 
# From -- ./inp_files/43702.got.cif
#   From: 2010.05.17/outbox.cif.g08.bks.cpg/sg14_22_cif.got.tgz:43702.got - 2010.06.03 17:49:19.
