data_PCOD9251818
_publ_section_title
;
Structure prediction by ZEFSAII (Michael W. Deem and Ramdas Pophale) SiO2 
 PCOD9251818
Probable space group: P 21/C
;
_chemical_formula_sum "Si O2"
_cell_formula_units_Z 32
_cell_length_a 28.525784
_cell_length_b 7.374551
_cell_length_c 14.304830
_cell_angle_alpha 90.000000
_cell_angle_beta 28.674545
_cell_angle_gamma 90.000000
_cell_volume 1443.931770
_symmetry_space_group_name_H-M "P 21/C"
_symmetry_group_IT_number 14
_symmetry_cell_setting 'monoclinic'
loop_
_space_group_symop_operation_xyz
x,y,z
-x,1/2+y,1/2-z
-x,-y,-z
x,1/2-y,1/2+z
loop_
_atom_site_type_symbol
_atom_site_label
_atom_site_fract_x
_atom_site_fract_y
_atom_site_fract_z
Si Si1 0.797510 0.803719 0.452628
Si Si2 0.238095 0.058653 0.680529
Si Si3 0.883281 0.998199 0.917971
Si Si4 0.418372 0.251280 0.598574
Si Si5 0.577775 0.171198 0.461688
Si Si6 0.278201 0.665445 0.651011
Si Si7 0.107421 0.582272 0.069348
Si Si8 0.409147 0.341696 0.406058
O O1 0.815319 0.856366 0.314729
O O2 0.835446 0.605840 0.415133
O O3 0.681195 0.814565 0.677274
O O4 0.854829 0.938579 0.421438
O O5 0.337850 0.170688 0.518348
O O6 0.261176 0.847202 0.622955
O O7 0.176635 0.061963 0.884029
O O8 0.995695 0.945859 0.736910
O O9 0.880432 0.213813 0.914641
O O10 0.515564 0.268856 0.490195
O O11 0.430548 0.349428 0.478439
O O12 0.404576 0.035089 0.602218
O O13 0.672917 0.267351 0.336306
O O14 0.505134 0.168402 0.677333
O O15 0.349544 0.520128 0.480726
O O16 0.177787 0.570072 0.855873
#
# Coordination Sequence:
#
# PCOD9251818 Si02
#       8
#     4   4   4   4   4   4   4   4
#     4  12  23  46  73 102 140 184 229 289 352 411
#     4  11  25  44  69 102 140 174 230 294 340 408
#     4  11  23  45  74  99 142 181 229 288 354 417
#     4  11  22  43  69  99 138 183 230 277 343 408
#     4  11  24  42  68 103 138 184 229 281 341 411
#     4  11  24  43  66  97 137 181 234 279 345 410
#     4  11  23  44  72 100 134 188 227 281 354 416
#     4  12  22  43  69  94 139 184 222 284 342 402
#
# _framework density 22.161712000000001
#
# number of rings (size 3 to 8) (size 9 to 14) (size 15 to 20)
#    0.000    0.750    6.250    1.500    0.000    2.000 
#    6.750    0.625    0.000    0.000    0.000    0.000 
#    0.000    0.000    0.000    0.000    0.000    0.000 
#
# Total GULP energy -179224.532301 kJ/mol
# GULP energy per Si atom -5600.766634 kJ/mol
# Density = 2.211127 g / cm^3
# Si number density = 22.161712 Si / 1000 Ang^3
#
#
#
# Elastic Constant Matrix: (Units=GPa)
#
#
# Indices 1 2 3 4 5 6 
#
# 1 27.9095 -12.3288 18.2552 0.0000 -8.4663 0.0000
# 2 -12.3288 49.5254 9.9362 0.0000 -5.3830 0.0000
# 3 18.2552 9.9362 84.7658 0.0000 -23.2054 0.0000
# 4 0.0000 0.0000 0.0000 24.8552 0.0000 -12.5790
# 5 -8.4663 -5.3830 -23.2054 0.0000 25.5687 0.0000
# 6 0.0000 0.0000 0.0000 -12.5790 0.0000 30.4368
#
#
#
# Elastic Compliance Matrix: (Units=1/GPa)
#
#
# Indices 1 2 3 4 5 6 
#
# 1 0.053490 0.016662 -0.010197 0.000000 0.011965 0.000000
# 2 0.016662 0.026027 -0.004828 0.000000 0.006615 0.000000
# 3 -0.010197 -0.004828 0.017772 0.000000 0.011736 0.000000
# 4 0.000000 0.000000 0.000000 0.050874 0.000000 0.021025
# 5 0.011965 0.006615 0.011736 0.000000 0.055116 0.000000
# 6 0.000000 0.000000 0.000000 0.021025 0.000000 0.041544
#
#
# Mechanical properties :
#
#
# Convention : Reuss Voigt Hill
#
# Bulk Modulus (GPa) = 9.94412 21.54730 15.74571
# Shear Modulus (GPa) = 18.17710 25.92802 22.05256
#
# Velocity S-wave (km/s) = 2.86703 3.42416 3.15790
# Velocity P-wave (km/s) = 3.93149 5.03756 4.51850
#
# Compressibility (1/GPa) = 0.10056198
#
# Stress axis : x y z
#
# Youngs Moduli (GPa) = 18.69514 38.42141 56.26753
#
# Poissons Ratio (x) = -0.64018 0.57377
# Poissons Ratio (y) = -0.31150 0.27168
# Poissons Ratio (z) = 0.19064 0.18551
#
# Static dielectric constant tensor:
#      x y z
#    x 1.809020 0.000000 -0.006780 
#    y 0.000000 1.848980 0.000000 
#    z -0.006780 0.000000 1.767440 
# 
# From -- ./inp_files/52252.got.cif
#   From: 2010.05.17/outbox.cif.g08.bks.cpg/sg14_27_cif.got.tgz:52252.got - 2010.06.03 17:49:19.
