data_PCOD9251465
_publ_section_title
;
Structure prediction by ZEFSAII (Michael W. Deem and Ramdas Pophale) SiO2 
 PCOD9251465
Probable space group: P 21/C
;
_chemical_formula_sum "Si O2"
_cell_formula_units_Z 28
_cell_length_a 15.005795
_cell_length_b 14.155457
_cell_length_c 9.987913
_cell_angle_alpha 90.000000
_cell_angle_beta 45.846286
_cell_angle_gamma 90.000000
_cell_volume 1522.171423
_symmetry_space_group_name_H-M "P 21/C"
_symmetry_group_IT_number 14
_symmetry_cell_setting 'monoclinic'
loop_
_space_group_symop_operation_xyz
x,y,z
-x,1/2+y,1/2-z
-x,-y,-z
x,1/2-y,1/2+z
loop_
_atom_site_type_symbol
_atom_site_label
_atom_site_fract_x
_atom_site_fract_y
_atom_site_fract_z
Si Si1 0.466590 0.091102 0.119869
Si Si2 0.723085 0.942317 0.166286
Si Si3 0.299703 0.118693 0.527944
Si Si4 0.651157 0.245447 0.034620
Si Si5 0.946807 0.603924 0.578711
Si Si6 0.403618 0.175757 0.917633
Si Si7 0.212487 0.663260 0.361485
O O1 0.371642 0.064960 0.336747
O O2 0.582373 0.148924 0.059166
O O3 0.404341 0.159235 0.075038
O O4 0.500000 0.000000 0.000000
O O5 0.649733 0.912106 0.378398
O O6 0.852313 0.883340 0.052637
O O7 0.655771 0.909358 0.103802
O O8 0.751634 0.053416 0.147797
O O9 0.152373 0.103062 0.695830
O O10 0.329220 0.227812 0.470541
O O11 0.710013 0.297628 0.845757
O O12 0.542257 0.306297 0.218144
O O13 0.750780 0.220553 0.044363
O O14 0.000000 0.500000 0.500000
O O15 0.066087 0.667733 0.479156
#
# Coordination Sequence:
#
# PCOD9251465 Si02
#       7
#     4   4   4   4   4   4   4
#     4  11  23  37  57  88 126 154 197 259 307 354
#     4   9  21  38  66  84 114 167 207 240 304 371
#     4   9  20  37  62  84 115 156 203 247 298 359
#     4  11  24  38  58  91 122 160 199 254 308 367
#     4   8  19  39  63  87 111 159 213 247 288 371
#     4  11  21  38  57  91 121 153 203 253 298 363
#     4  11  22  41  61  86 127 157 204 254 309 365
#
# _framework density 18.394774000000002
#
# number of rings (size 3 to 8) (size 9 to 14) (size 15 to 20)
#    0.857    1.143    1.429    2.571    4.000    1.714 
#    0.000    0.000    0.000    2.571    0.000    0.000 
#    0.000    0.000    0.000    0.000    0.000    0.000 
#
# Total GULP energy -155962.678033 kJ/mol
# GULP energy per Si atom -5570.095644 kJ/mol
# Density = 1.835291 g / cm^3
# Si number density = 18.394774 Si / 1000 Ang^3
#
#
#
# Elastic Constant Matrix: (Units=GPa)
#
#
# Indices 1 2 3 4 5 6 
#
# 1 98.2865 13.1733 29.6359 0.0000 0.1538 0.0000
# 2 13.1733 43.0921 7.9636 0.0000 -6.2909 0.0000
# 3 29.6359 7.9636 85.7497 0.0000 -7.9065 0.0000
# 4 0.0000 0.0000 0.0000 26.2126 0.0000 7.6569
# 5 0.1538 -6.2909 -7.9065 0.0000 31.6828 0.0000
# 6 0.0000 0.0000 0.0000 7.6569 0.0000 29.1884
#
#
#
# Elastic Compliance Matrix: (Units=1/GPa)
#
#
# Indices 1 2 3 4 5 6 
#
# 1 0.011781 -0.003116 -0.003935 0.000000 -0.001658 0.000000
# 2 -0.003116 0.025005 -0.000805 0.000000 0.004779 0.000000
# 3 -0.003935 -0.000805 0.013392 0.000000 0.003201 0.000000
# 4 0.000000 0.000000 0.000000 0.041315 0.000000 -0.010838
# 5 -0.001658 0.004779 0.003201 0.000000 0.033319 0.000000
# 6 0.000000 0.000000 0.000000 -0.010838 0.000000 0.037103
#
#
# Mechanical properties :
#
#
# Convention : Reuss Voigt Hill
#
# Bulk Modulus (GPa) = 29.01402 36.51933 32.76668
# Shear Modulus (GPa) = 26.43873 29.17378 27.80626
#
# Velocity S-wave (km/s) = 3.79528 3.98676 3.89220
# Velocity P-wave (km/s) = 5.91716 6.41003 6.16852
#
# Compressibility (1/GPa) = 0.03446609
#
# Stress axis : x y z
#
# Youngs Moduli (GPa) = 84.88127 39.99174 74.67275
#
# Poissons Ratio (x) = 0.12463 0.29385
# Poissons Ratio (y) = 0.26452 0.06008
# Poissons Ratio (z) = 0.33402 0.03217
#
# Static dielectric constant tensor:
#      x y z
#    x 1.664230 0.000000 -0.005160 
#    y 0.000000 1.676760 0.000000 
#    z -0.005160 0.000000 1.629150 
# 
# From -- ./inp_files/16200.got.cif
#   From: 2010.05.17/outbox.cif.g08.bks.cpg/sg14_9_cif.got.tgz:16200.got - 2010.06.03 17:49:19.
