data_PCOD9251353
_publ_section_title
;
Structure prediction by ZEFSAII (Michael W. Deem and Ramdas Pophale) SiO2 
 PCOD9251353
Probable space group: P 21/C
;
_chemical_formula_sum "Si O2"
_cell_formula_units_Z 28
_cell_length_a 13.401907
_cell_length_b 5.328770
_cell_length_c 21.304432
_cell_angle_alpha 90.000000
_cell_angle_beta 50.574157
_cell_angle_gamma 90.000000
_cell_volume 1175.255630
_symmetry_space_group_name_H-M "P 21/C"
_symmetry_group_IT_number 14
_symmetry_cell_setting 'monoclinic'
loop_
_space_group_symop_operation_xyz
x,y,z
-x,1/2+y,1/2-z
-x,-y,-z
x,1/2-y,1/2+z
loop_
_atom_site_type_symbol
_atom_site_label
_atom_site_fract_x
_atom_site_fract_y
_atom_site_fract_z
Si Si1 0.891306 0.679640 0.661810
Si Si2 0.466256 0.531710 0.116692
Si Si3 0.620612 0.689324 0.454603
Si Si4 0.110157 0.300290 0.973534
Si Si5 0.331164 0.681048 0.883070
Si Si6 0.265900 0.801293 0.266584
Si Si7 0.162528 0.956187 0.057488
O O1 0.896201 0.623834 0.584450
O O2 0.825963 0.431664 0.715606
O O3 0.040092 0.714756 0.622984
O O4 0.807834 0.933011 0.704481
O O5 0.379677 0.356824 0.107130
O O6 0.525501 0.372291 0.149994
O O7 0.388192 0.771271 0.172245
O O8 0.585452 0.622639 0.025928
O O9 0.500000 0.500000 0.500000
O O10 0.749372 0.540946 0.420463
O O11 0.250405 0.423916 0.916189
O O12 0.000000 0.500000 0.000000
O O13 0.096817 0.189831 0.047678
O O14 0.319022 0.758143 0.815672
O O15 0.255820 0.846707 0.965314
#
# Coordination Sequence:
#
# PCOD9251353 Si02
#       7
#     4   4   4   4   4   4   4
#     4  11  24  41  68 107 148 193 233 298 372 438
#     4  11  26  47  69 106 147 192 254 304 374 446
#     4  11  25  45  76 101 138 198 254 317 352 424
#     4  11  20  36  63 105 148 180 232 303 363 430
#     4  11  22  38  69 107 146 188 236 306 376 440
#     4  11  27  44  71 107 154 193 230 301 387 454
#     4  12  21  39  72 107 142 188 257 297 359 435
#
# _framework density 23.824607
#
# number of rings (size 3 to 8) (size 9 to 14) (size 15 to 20)
#    0.000    0.857    5.714    2.143    2.000    3.429 
#    0.000    0.000    3.143    0.000    0.000    0.000 
#    0.000    0.000    0.000    0.000    0.000    0.000 
#
# Total GULP energy -156593.641709 kJ/mol
# GULP energy per Si atom -5592.630061 kJ/mol
# Density = 2.377038 g / cm^3
# Si number density = 23.824607 Si / 1000 Ang^3
#
#
#
# Elastic Constant Matrix: (Units=GPa)
#
#
# Indices 1 2 3 4 5 6 
#
# 1 169.1187 47.4633 35.9947 0.0000 -3.1035 0.0000
# 2 47.4633 81.6187 23.3341 0.0000 -1.9404 0.0000
# 3 35.9947 23.3341 76.8653 0.0000 -12.2700 0.0000
# 4 0.0000 0.0000 0.0000 39.2007 0.0000 -4.4421
# 5 -3.1035 -1.9404 -12.2700 0.0000 11.1321 0.0000
# 6 0.0000 0.0000 0.0000 -4.4421 0.0000 38.1518
#
#
#
# Elastic Compliance Matrix: (Units=1/GPa)
#
#
# Indices 1 2 3 4 5 6 
#
# 1 0.007462 -0.003623 -0.002625 0.000000 -0.001445 0.000000
# 2 -0.003623 0.015239 -0.003236 0.000000 -0.001921 0.000000
# 3 -0.002625 -0.003236 0.018220 0.000000 0.018787 0.000000
# 4 0.000000 0.000000 0.000000 0.025851 0.000000 0.003010
# 5 -0.001445 -0.001921 0.018787 0.000000 0.109800 0.000000
# 6 0.000000 0.000000 0.000000 0.003010 0.000000 0.026562
#
#
# Mechanical properties :
#
#
# Convention : Reuss Voigt Hill
#
# Bulk Modulus (GPa) = 45.55266 60.13185 52.84226
# Shear Modulus (GPa) = 21.79418 32.41763 27.10591
#
# Velocity S-wave (km/s) = 3.02781 3.69274 3.37668
# Velocity P-wave (km/s) = 5.60223 6.59363 6.11805
#
# Compressibility (1/GPa) = 0.02195261
#
# Stress axis : x y z
#
# Youngs Moduli (GPa) = 134.01112 65.62302 54.88387
#
# Poissons Ratio (x) = 0.23777 0.14407
# Poissons Ratio (y) = 0.48556 0.17760
# Poissons Ratio (z) = 0.35178 0.21235
#
# Static dielectric constant tensor:
#      x y z
#    x 1.932620 0.000000 -0.030860 
#    y 0.000000 2.005900 0.000000 
#    z -0.030860 0.000000 1.956480 
# 
# From -- ./inp_files/66394.got.cif
#   From: 2010.05.17/outbox.cif.g08.bks.cpg/sg14_34_cif.got.tgz:66394.got - 2010.06.03 17:49:19.
