data_PCOD9251866
_publ_section_title
;
Structure prediction by ZEFSAII (Michael W. Deem and Ramdas Pophale) SiO2 
 PCOD9251866
Probable space group: P 21/C
;
_chemical_formula_sum "Si O2"
_cell_formula_units_Z 32
_cell_length_a 14.831520
_cell_length_b 10.838027
_cell_length_c 16.510951
_cell_angle_alpha 90.000000
_cell_angle_beta 33.956985
_cell_angle_gamma 90.000000
_cell_volume 1482.469791
_symmetry_space_group_name_H-M "P 21/C"
_symmetry_group_IT_number 14
_symmetry_cell_setting 'monoclinic'
loop_
_space_group_symop_operation_xyz
x,y,z
-x,1/2+y,1/2-z
-x,-y,-z
x,1/2-y,1/2+z
loop_
_atom_site_type_symbol
_atom_site_label
_atom_site_fract_x
_atom_site_fract_y
_atom_site_fract_z
Si Si1 0.368584 0.108339 0.379795
Si Si2 0.646714 0.465809 0.277223
Si Si3 0.491295 0.076340 0.588791
Si Si4 0.172702 0.470070 0.408806
Si Si5 0.753768 0.266982 0.417349
Si Si6 0.693150 0.236970 0.146659
Si Si7 0.105493 0.295867 0.610515
Si Si8 0.285394 0.048636 0.103444
O O1 0.375365 0.049081 0.285857
O O2 0.423137 0.006007 0.404602
O O3 0.499166 0.219556 0.284848
O O4 0.195441 0.166191 0.528569
O O5 0.733073 0.342285 0.181192
O O6 0.732404 0.535853 0.286881
O O7 0.472053 0.425832 0.442122
O O8 0.305374 0.094439 0.752454
O O9 0.500000 0.000000 0.500000
O O10 0.592777 0.201419 0.504555
O O11 0.245468 0.603493 0.374328
O O12 0.154983 0.388272 0.501985
O O13 0.000000 0.500000 0.500000
O O14 0.759808 0.236372 0.508079
O O15 0.747213 0.413029 0.409151
O O16 0.913905 0.216860 0.256026
O O17 0.172641 0.352842 0.643922
#
# Coordination Sequence:
#
# PCOD9251866 Si02
#       8
#     4   4   4   4   4   4   4   4
#     4  11  23  44  69  97 135 182 229 282 348 421
#     4  11  23  44  74 101 135 182 237 288 354 416
#     4  11  25  42  71 102 133 179 239 282 350 421
#     4  11  25  46  69 100 141 178 229 293 349 413
#     4  12  25  42  71  97 142 185 230 287 350 415
#     4  11  22  45  70  96 136 182 231 282 352 414
#     4  12  26  45  66 102 142 185 229 288 352 408
#     4  11  25  44  70 105 141 179 237 292 348 417
#
# _framework density 21.585601
#
# number of rings (size 3 to 8) (size 9 to 14) (size 15 to 20)
#    0.000    0.750    5.000    2.250    7.000    1.000 
#    2.250    1.250    0.000    0.000    0.000    0.000 
#    0.000    0.000    0.000    0.000    0.000    0.000 
#
# Total GULP energy -179110.864009 kJ/mol
# GULP energy per Si atom -5597.214500 kJ/mol
# Density = 2.153647 g / cm^3
# Si number density = 21.585601 Si / 1000 Ang^3
#
#
#
# Elastic Constant Matrix: (Units=GPa)
#
#
# Indices 1 2 3 4 5 6 
#
# 1 76.8827 5.1498 26.0204 0.0000 18.6065 0.0000
# 2 5.1498 47.5838 15.2656 0.0000 5.9433 0.0000
# 3 26.0204 15.2656 108.4877 0.0000 -4.1681 0.0000
# 4 0.0000 0.0000 0.0000 28.3437 0.0000 5.7705
# 5 18.6065 5.9433 -4.1681 0.0000 39.4517 0.0000
# 6 0.0000 0.0000 0.0000 5.7705 0.0000 15.2982
#
#
#
# Elastic Compliance Matrix: (Units=1/GPa)
#
#
# Indices 1 2 3 4 5 6 
#
# 1 0.016451 0.000657 -0.004358 0.000000 -0.008318 0.000000
# 2 0.000657 0.022574 -0.003491 0.000000 -0.004079 0.000000
# 3 -0.004358 -0.003491 0.010897 0.000000 0.003732 0.000000
# 4 0.000000 0.000000 0.000000 0.038216 0.000000 -0.014415
# 5 -0.008318 -0.004079 0.003732 0.000000 0.030279 0.000000
# 6 0.000000 0.000000 0.000000 -0.014415 0.000000 0.070805
#
#
# Mechanical properties :
#
#
# Convention : Reuss Voigt Hill
#
# Bulk Modulus (GPa) = 28.13849 36.20285 32.17067
# Shear Modulus (GPa) = 23.20710 29.05327 26.13019
#
# Velocity S-wave (km/s) = 3.28246 3.67271 3.48305
# Velocity P-wave (km/s) = 5.23738 5.89858 5.57778
#
# Compressibility (1/GPa) = 0.03553852
#
# Stress axis : x y z
#
# Youngs Moduli (GPa) = 60.78777 44.29906 91.76528
#
# Poissons Ratio (x) = -0.02908 0.39988
# Poissons Ratio (y) = -0.03991 0.32032
# Poissons Ratio (z) = 0.26489 0.15463
#
# Static dielectric constant tensor:
#      x y z
#    x 1.789420 0.000000 -0.022170 
#    y 0.000000 1.763110 0.000000 
#    z -0.022170 0.000000 1.804450 
# 
# From -- ./inp_files/59459.got.cif
#   From: 2010.05.17/outbox.cif.g08.bks.cpg/sg14_30_cif.got.tgz:59459.got - 2010.06.03 17:49:19.
