data_PCOD9251170
_publ_section_title
;
Structure prediction by ZEFSAII (Michael W. Deem and Ramdas Pophale) SiO2 
 PCOD9251170
Probable space group: P 21/C
;
_chemical_formula_sum "Si O2"
_cell_formula_units_Z 26
_cell_length_a 18.156386
_cell_length_b 4.697167
_cell_length_c 13.820560
_cell_angle_alpha 90.000000
_cell_angle_beta 61.182823
_cell_angle_gamma 90.000000
_cell_volume 1032.703308
_symmetry_space_group_name_H-M "P 21/C"
_symmetry_group_IT_number 14
_symmetry_cell_setting 'monoclinic'
loop_
_space_group_symop_operation_xyz
x,y,z
-x,1/2+y,1/2-z
-x,-y,-z
x,1/2-y,1/2+z
loop_
_atom_site_type_symbol
_atom_site_label
_atom_site_fract_x
_atom_site_fract_y
_atom_site_fract_z
Si Si1 0.486328 0.491024 0.196407
Si Si2 0.339795 0.250229 0.669069
Si Si3 0.779968 0.971818 0.006678
Si Si4 0.196002 0.529305 0.879540
Si Si5 0.000000 0.500000 0.000000
Si Si6 0.959374 0.144851 0.827778
Si Si7 0.634133 0.241699 0.975937
O O1 0.493144 0.819972 0.218221
O O2 0.395996 0.394778 0.216030
O O3 0.556355 0.392801 0.076557
O O4 0.259636 0.414589 0.760066
O O5 0.392428 0.496248 0.581784
O O6 0.318434 0.995922 0.609644
O O7 0.862831 0.044216 0.891507
O O8 0.696145 0.079873 0.009534
O O9 0.790523 0.143738 0.100859
O O10 0.782142 0.643893 0.035591
O O11 0.100290 0.467765 0.915120
O O12 0.022445 0.711091 0.080449
O O13 0.982786 0.369792 0.729260
#
# Coordination Sequence:
#
# PCOD9251170 Si02
#       7
#     4   4   4   4   2   4   4
#     4  12  24  44  70  97 138 184 226 279 344 416
#     4  12  25  42  68 102 135 179 229 284 349 415
#     4  11  24  44  65  97 133 177 226 284 345 421
#     4  11  24  44  67  97 133 181 229 282 354 416
#     4  10  26  44  70  98 140 180 236 300 348 424
#     4  11  25  42  69  97 135 177 235 286 358 420
#     4  12  25  42  68 101 139 175 227 291 338 418
#
# _framework density 25.176642999999999
#
# number of rings (size 3 to 8) (size 9 to 14) (size 15 to 20)
#    0.000    0.615    0.000    8.308    4.308    5.538 
#    0.000    0.000    0.000    0.000    0.000    0.000 
#    0.000    0.000    0.000    0.000    0.000    0.000 
#
# Total GULP energy -145372.899195 kJ/mol
# GULP energy per Si atom -5591.265354 kJ/mol
# Density = 2.511934 g / cm^3
# Si number density = 25.176643 Si / 1000 Ang^3
#
#
#
# Elastic Constant Matrix: (Units=GPa)
#
#
# Indices 1 2 3 4 5 6 
#
# 1 83.2659 -18.3974 23.6282 0.0000 -10.6903 0.0000
# 2 -18.3974 82.2755 19.2651 0.0000 3.8830 0.0000
# 3 23.6282 19.2651 96.6794 0.0000 -27.3604 0.0000
# 4 0.0000 0.0000 0.0000 27.1034 0.0000 0.3420
# 5 -10.6903 3.8830 -27.3604 0.0000 32.9068 0.0000
# 6 0.0000 0.0000 0.0000 0.3420 0.0000 17.3604
#
#
#
# Elastic Compliance Matrix: (Units=1/GPa)
#
#
# Indices 1 2 3 4 5 6 
#
# 1 0.014160 0.004084 -0.004066 0.000000 0.000738 0.000000
# 2 0.004084 0.014516 -0.005231 0.000000 -0.004735 0.000000
# 3 -0.004066 -0.005231 0.015928 0.000000 0.012540 0.000000
# 4 0.000000 0.000000 0.000000 0.036905 0.000000 -0.000727
# 5 0.000738 -0.004735 0.012540 0.000000 0.041614 0.000000
# 6 0.000000 0.000000 0.000000 -0.000727 0.000000 0.057617
#
#
# Mechanical properties :
#
#
# Convention : Reuss Voigt Hill
#
# Bulk Modulus (GPa) = 29.25785 34.57918 31.91851
# Shear Modulus (GPa) = 24.68431 31.32246 28.00338
#
# Velocity S-wave (km/s) = 3.13460 3.53102 3.33870
# Velocity P-wave (km/s) = 4.97466 5.51258 5.25051
#
# Compressibility (1/GPa) = 0.03417886
#
# Stress axis : x y z
#
# Youngs Moduli (GPa) = 70.61951 68.89119 62.78166
#
# Poissons Ratio (x) = -0.28132 0.25525
# Poissons Ratio (y) = -0.28838 0.32839
# Poissons Ratio (z) = 0.28711 0.36034
#
# Static dielectric constant tensor:
#      x y z
#    x 1.890590 0.000000 0.052420 
#    y 0.000000 1.942920 0.000000 
#    z 0.052420 0.000000 2.028580 
# 
# From -- ./inp_files/47898.got.cif
#   From: 2010.05.17/outbox.cif.g08.bks.cpg/sg14_24_cif.got.tgz:47898.got - 2010.06.03 17:49:19.
