data_PCOD9251189
_publ_section_title
;
Structure prediction by ZEFSAII (Michael W. Deem and Ramdas Pophale) SiO2 
 PCOD9251189
Probable space group: P 21/C
;
_chemical_formula_sum "Si O2"
_cell_formula_units_Z 12
_cell_length_a 9.220169
_cell_length_b 4.804708
_cell_length_c 19.534635
_cell_angle_alpha 90.000000
_cell_angle_beta 152.161729
_cell_angle_gamma 90.000000
_cell_volume 404.116926
_symmetry_space_group_name_H-M "P 21/C"
_symmetry_group_IT_number 14
_symmetry_cell_setting 'monoclinic'
loop_
_space_group_symop_operation_xyz
x,y,z
-x,1/2+y,1/2-z
-x,-y,-z
x,1/2-y,1/2+z
loop_
_atom_site_type_symbol
_atom_site_label
_atom_site_fract_x
_atom_site_fract_y
_atom_site_fract_z
Si Si1 0.717443 0.415015 0.528577
Si Si2 0.149682 0.283034 0.034600
Si Si3 0.798719 0.455726 0.784915
O O1 0.500000 0.500000 0.500000
O O2 0.914545 0.686573 0.583436
O O3 0.482933 0.352828 0.369058
O O4 0.927963 0.157250 0.636412
O O5 0.518156 0.281138 0.180638
O O6 0.881406 0.531371 0.901677
O O7 0.000000 0.000000 0.000000
#
# Coordination Sequence:
#
# PCOD9251189 Si02
#       3
#     4   4   4
#     4  10  26  47  82 119 167 218 285 347 430 507
#     4  10  26  50  79 119 167 219 281 350 433 511
#     4  10  26  45  82 116 161 222 275 353 419 520
#
# _framework density 29.694372999999999
#
# number of rings (size 3 to 8) (size 9 to 14) (size 15 to 20)
#    2.000    0.000    0.000    0.000    9.333    5.333 
#    0.000    0.000    0.000    0.000    0.000    0.000 
#    0.000    0.000    0.000    0.000    0.000    0.000 
#
# Total GULP energy -66833.216608 kJ/mol
# GULP energy per Si atom -5569.434717 kJ/mol
# Density = 2.962679 g / cm^3
# Si number density = 29.694373 Si / 1000 Ang^3
#
#
#
# Elastic Constant Matrix: (Units=GPa)
#
#
# Indices 1 2 3 4 5 6 
#
# 1 194.6405 92.5974 51.7914 0.0000 68.7033 0.0000
# 2 92.5974 282.7567 77.4089 0.0000 51.7081 0.0000
# 3 51.7914 77.4089 311.6004 0.0000 74.2388 0.0000
# 4 0.0000 0.0000 0.0000 57.4224 0.0000 27.8788
# 5 68.7033 51.7081 74.2388 0.0000 62.4118 0.0000
# 6 0.0000 0.0000 0.0000 27.8788 0.0000 74.9021
#
#
#
# Elastic Compliance Matrix: (Units=1/GPa)
#
#
# Indices 1 2 3 4 5 6 
#
# 1 0.009173 -0.001452 0.001333 0.000000 -0.010480 0.000000
# 2 -0.001452 0.004418 -0.000509 0.000000 -0.001455 0.000000
# 3 0.001333 -0.000509 0.004693 0.000000 -0.006628 0.000000
# 4 0.000000 0.000000 0.000000 0.021256 0.000000 -0.007912
# 5 -0.010480 -0.001455 -0.006628 0.000000 0.036649 0.000000
# 6 0.000000 0.000000 0.000000 -0.007912 0.000000 0.016295
#
#
# Mechanical properties :
#
#
# Convention : Reuss Voigt Hill
#
# Bulk Modulus (GPa) = 58.73024 136.95478 97.84251
# Shear Modulus (GPa) = 50.29251 76.76058 63.52654
#
# Velocity S-wave (km/s) = 4.11989 5.08983 4.63032
# Velocity P-wave (km/s) = 6.51556 8.98684 7.84907
#
# Compressibility (1/GPa) = 0.01702700
#
# Stress axis : x y z
#
# Youngs Moduli (GPa) = 109.01293 226.35384 213.06644
#
# Poissons Ratio (x) = 0.32877 -0.28403
# Poissons Ratio (y) = 0.15834 0.10852
# Poissons Ratio (z) = -0.14532 0.11529
#
# Static dielectric constant tensor:
#      x y z
#    x 2.621450 0.000000 -0.154280 
#    y 0.000000 2.308840 0.000000 
#    z -0.154280 0.000000 2.394300 
# 
# From -- ./inp_files/7098.got.cif
#   From: 2010.05.17/outbox.cif.g08.bks.cpg/sg14_4_cif.got.tgz:7098.got - 2010.06.03 17:49:19.
