data_PCOD9251980
_publ_section_title
;
Structure prediction by ZEFSAII (Michael W. Deem and Ramdas Pophale) SiO2 
 PCOD9251980
Probable space group: P 21/C
;
_chemical_formula_sum "Si O2"
_cell_formula_units_Z 24
_cell_length_a 10.205136
_cell_length_b 8.258668
_cell_length_c 14.642026
_cell_angle_alpha 90.000000
_cell_angle_beta 69.014889
_cell_angle_gamma 90.000000
_cell_volume 1152.192438
_symmetry_space_group_name_H-M "P 21/C"
_symmetry_group_IT_number 14
_symmetry_cell_setting 'monoclinic'
loop_
_space_group_symop_operation_xyz
x,y,z
-x,1/2+y,1/2-z
-x,-y,-z
x,1/2-y,1/2+z
loop_
_atom_site_type_symbol
_atom_site_label
_atom_site_fract_x
_atom_site_fract_y
_atom_site_fract_z
Si Si1 0.667577 0.816578 0.994760
Si Si2 0.339439 0.823356 0.081649
Si Si3 0.859483 0.316726 0.717779
Si Si4 0.147519 0.176434 0.395142
Si Si5 0.844077 0.822950 0.299307
Si Si6 0.169950 0.814025 0.464474
O O1 0.722155 0.692333 0.904106
O O2 0.687631 0.994043 0.946112
O O3 0.503876 0.798853 0.057251
O O4 0.761759 0.787884 0.060231
O O5 0.248435 0.782761 0.192951
O O6 0.285722 0.711444 0.012301
O O7 0.863977 0.497042 0.756413
O O8 0.816149 0.309323 0.623099
O O9 0.012795 0.236262 0.688490
O O10 0.183423 0.210133 0.281407
O O11 0.982004 0.209427 0.450702
O O12 0.173266 0.992252 0.419727
#
# Coordination Sequence:
#
# PCOD9251980 Si02
#       6
#     4   4   4   4   4   4
#     4  11  25  44  66  95 131 169 211 263 320 377
#     4  11  25  44  66  95 131 169 211 263 320 377
#     4  12  24  40  66  96 128 168 213 263 316 376
#     4  11  23  40  66  97 127 167 215 262 313 377
#     4  12  24  40  66  96 128 168 213 263 316 376
#     4  11  23  40  66  97 127 167 215 262 313 377
#
# _framework density 20.829854999999998
#
# number of rings (size 3 to 8) (size 9 to 14) (size 15 to 20)
#    0.000    0.667    3.333    5.000    0.000    5.333 
#    0.000    0.000    0.000    0.000    0.000    0.000 
#    0.000    0.000    0.000    0.000    0.000    0.000 
#
# Total GULP energy -134418.805218 kJ/mol
# GULP energy per Si atom -5600.783551 kJ/mol
# Density = 2.078245 g / cm^3
# Si number density = 20.829855 Si / 1000 Ang^3
#
#
#
# Elastic Constant Matrix: (Units=GPa)
#
#
# Indices 1 2 3 4 5 6 
#
# 1 51.9296 20.1029 -1.2259 0.0000 -4.6075 0.0000
# 2 20.1029 54.5642 -11.8629 0.0000 -8.0290 0.0000
# 3 -1.2259 -11.8629 62.2843 0.0000 14.9951 0.0000
# 4 0.0000 0.0000 0.0000 31.2270 0.0000 2.3061
# 5 -4.6075 -8.0290 14.9951 0.0000 15.6016 0.0000
# 6 0.0000 0.0000 0.0000 2.3061 0.0000 22.6009
#
#
#
# Elastic Compliance Matrix: (Units=1/GPa)
#
#
# Indices 1 2 3 4 5 6 
#
# 1 0.022791 -0.008197 -0.002235 0.000000 0.004660 0.000000
# 2 -0.008197 0.022919 0.002533 0.000000 0.006939 0.000000
# 3 -0.002235 0.002533 0.021258 0.000000 -0.019788 0.000000
# 4 0.000000 0.000000 0.000000 0.032267 0.000000 -0.003292
# 5 0.004660 0.006939 -0.019788 0.000000 0.088062 0.000000
# 6 0.000000 0.000000 0.000000 -0.003292 0.000000 0.044582
#
#
# Mechanical properties :
#
#
# Convention : Reuss Voigt Hill
#
# Bulk Modulus (GPa) = 19.54222 20.31178 19.92700
# Shear Modulus (GPa) = 18.88709 24.67017 21.77863
#
# Velocity S-wave (km/s) = 3.01447 3.44520 3.23700
# Velocity P-wave (km/s) = 4.63877 5.05947 4.85368
#
# Compressibility (1/GPa) = 0.05117127
#
# Stress axis : x y z
#
# Youngs Moduli (GPa) = 43.87759 43.63234 47.04135
#
# Poissons Ratio (x) = 0.35764 0.10511
# Poissons Ratio (y) = 0.35965 -0.11917
# Poissons Ratio (z) = 0.09805 -0.11053
#
# Static dielectric constant tensor:
#      x y z
#    x 1.691300 0.000000 0.008800 
#    y 0.000000 1.775730 0.000000 
#    z 0.008800 0.000000 1.720050 
# 
# From -- ./inp_files/38900.got.cif
#   From: 2010.05.17/outbox.cif.g08.bks.cpg/sg14_20_cif.got.tgz:38900.got - 2010.06.03 17:49:19.
