data_PCOD9251990
_publ_section_title
;
Structure prediction by ZEFSAII (Michael W. Deem and Ramdas Pophale) SiO2 
 PCOD9251990
Probable space group: P 21/C
;
_chemical_formula_sum "Si O2"
_cell_formula_units_Z 16
_cell_length_a 8.059525
_cell_length_b 18.323303
_cell_length_c 5.119040
_cell_angle_alpha 90.000000
_cell_angle_beta 116.403948
_cell_angle_gamma 90.000000
_cell_volume 677.103647
_symmetry_space_group_name_H-M "P 21/C"
_symmetry_group_IT_number 14
_symmetry_cell_setting 'monoclinic'
loop_
_space_group_symop_operation_xyz
x,y,z
-x,1/2+y,1/2-z
-x,-y,-z
x,1/2-y,1/2+z
loop_
_atom_site_type_symbol
_atom_site_label
_atom_site_fract_x
_atom_site_fract_y
_atom_site_fract_z
Si Si1 0.130465 0.047400 0.896221
Si Si2 0.804256 0.099071 0.334806
Si Si3 0.576073 0.199464 0.891324
Si Si4 0.461860 0.085789 0.459708
O O1 0.999995 0.094347 0.616013
O O2 0.226732 0.982374 0.799903
O O3 0.274311 0.093045 0.165895
O O4 0.000000 0.000000 0.000000
O O5 0.642731 0.113744 0.431191
O O6 0.774509 0.160177 0.092033
O O7 0.544648 0.251457 0.622233
O O8 0.454914 0.128180 0.729286
O O9 0.500000 0.000000 0.500000
#
# Coordination Sequence:
#
# PCOD9251990 Si02
#       4
#     4   4   4   4
#     4  11  23  40  70 115 137 177 242 302 359 417
#     4  11  23  42  71 105 146 183 234 300 356 433
#     4  12  26  46  72 102 147 197 237 288 373 437
#     4  12  23  43  76 105 140 186 241 304 355 416
#
# _framework density 23.630058999999999
#
# number of rings (size 3 to 8) (size 9 to 14) (size 15 to 20)
#    0.000    0.500    7.500    0.750    0.000    0.000 
#    0.000    2.500    0.000    0.000    0.000    0.000 
#    0.000    0.000    0.000    0.000    0.000    0.000 
#
# Total GULP energy -89411.195179 kJ/mol
# GULP energy per Si atom -5588.199699 kJ/mol
# Density = 2.357628 g / cm^3
# Si number density = 23.630059 Si / 1000 Ang^3
#
#
#
# Elastic Constant Matrix: (Units=GPa)
#
#
# Indices 1 2 3 4 5 6 
#
# 1 54.4041 1.4017 16.0680 0.0000 -11.8278 0.0000
# 2 1.4017 99.6979 49.9814 0.0000 -10.8262 0.0000
# 3 16.0680 49.9814 204.1493 0.0000 1.0186 0.0000
# 4 0.0000 0.0000 0.0000 75.5199 0.0000 -12.9252
# 5 -11.8278 -10.8262 1.0186 0.0000 37.8378 0.0000
# 6 0.0000 0.0000 0.0000 -12.9252 0.0000 16.0194
#
#
#
# Elastic Compliance Matrix: (Units=1/GPa)
#
#
# Indices 1 2 3 4 5 6 
#
# 1 0.020424 0.001460 -0.001999 0.000000 0.006856 0.000000
# 2 0.001460 0.011978 -0.003067 0.000000 0.003966 0.000000
# 3 -0.001999 -0.003067 0.005815 0.000000 -0.001659 0.000000
# 4 0.000000 0.000000 0.000000 0.015363 0.000000 0.012396
# 5 0.006856 0.003966 -0.001659 0.000000 0.029751 0.000000
# 6 0.000000 0.000000 0.000000 0.012396 0.000000 0.072426
#
#
# Mechanical properties :
#
#
# Convention : Reuss Voigt Hill
#
# Bulk Modulus (GPa) = 32.25409 54.79482 43.52445
# Shear Modulus (GPa) = 28.85080 45.26210 37.05645
#
# Velocity S-wave (km/s) = 3.49798 4.38133 3.96434
# Velocity P-wave (km/s) = 5.47665 6.98811 6.27803
#
# Compressibility (1/GPa) = 0.03100382
#
# Stress axis : x y z
#
# Youngs Moduli (GPa) = 48.96128 83.48533 171.97081
#
# Poissons Ratio (x) = -0.12185 0.34378
# Poissons Ratio (y) = -0.07146 0.52748
# Poissons Ratio (z) = 0.09788 0.25607
#
# Static dielectric constant tensor:
#      x y z
#    x 2.052080 0.000000 -0.090580 
#    y 0.000000 1.959400 0.000000 
#    z -0.090580 0.000000 1.978190 
# 
# From -- ./inp_files/968.got.cif
#   From: 2010.05.17/outbox.cif.g08.bks.cpg/sg14_1_cif.got.tgz:968.got - 2010.06.03 17:49:19.
