data_PCOD9251804
_publ_section_title
;
Structure prediction by ZEFSAII (Michael W. Deem and Ramdas Pophale) SiO2 
 PCOD9251804
Probable space group: P 21/C
;
_chemical_formula_sum "Si O2"
_cell_formula_units_Z 20
_cell_length_a 6.879084
_cell_length_b 18.583606
_cell_length_c 10.039990
_cell_angle_alpha 90.000000
_cell_angle_beta 135.032642
_cell_angle_gamma 90.000000
_cell_volume 907.050195
_symmetry_space_group_name_H-M "P 21/C"
_symmetry_group_IT_number 14
_symmetry_cell_setting 'monoclinic'
loop_
_space_group_symop_operation_xyz
x,y,z
-x,1/2+y,1/2-z
-x,-y,-z
x,1/2-y,1/2+z
loop_
_atom_site_type_symbol
_atom_site_label
_atom_site_fract_x
_atom_site_fract_y
_atom_site_fract_z
Si Si1 0.367037 0.402974 0.907781
Si Si2 0.728771 0.687667 0.386143
Si Si3 0.627011 0.167956 0.790392
Si Si4 0.097237 0.523452 0.904196
Si Si5 0.573449 0.585433 0.548213
O O1 0.290473 0.338244 0.775888
O O2 0.110467 0.453765 0.816014
O O3 0.514124 0.381648 0.116317
O O4 0.593802 0.448696 0.939056
O O5 0.568836 0.762559 0.313157
O O6 0.580501 0.631118 0.415160
O O7 0.054460 0.689612 0.575816
O O8 0.587954 0.126102 0.911663
O O9 0.891909 0.582731 0.749818
O O10 0.000000 0.500000 0.000000
O O11 0.500000 0.500000 0.500000
#
# Coordination Sequence:
#
# PCOD9251804 Si02
#       5
#     4   4   4   4   4
#     4  11  25  44  73 104 145 189 245 296 368 444
#     4  12  29  47  73 108 149 197 253 303 374 450
#     4  12  28  49  73 107 152 199 248 307 374 451
#     4  11  22  42  72 105 144 185 233 306 370 426
#     4  12  26  45  77 111 149 192 255 311 373 441
#
# _framework density 22.049495
#
# number of rings (size 3 to 8) (size 9 to 14) (size 15 to 20)
#    0.000    0.400    4.000    3.600    5.600    8.000 
#    0.000    0.000    0.000    0.000    0.000    0.000 
#    0.000    0.000    0.000    0.000    0.000    0.000 
#
# Total GULP energy -111843.941563 kJ/mol
# GULP energy per Si atom -5592.197078 kJ/mol
# Density = 2.199931 g / cm^3
# Si number density = 22.049495 Si / 1000 Ang^3
#
#
#
# Elastic Constant Matrix: (Units=GPa)
#
#
# Indices 1 2 3 4 5 6 
#
# 1 135.0877 63.4712 37.3364 0.0000 -6.3136 0.0000
# 2 63.4712 121.2337 26.8584 0.0000 3.2129 0.0000
# 3 37.3364 26.8584 79.6199 0.0000 -5.9017 0.0000
# 4 0.0000 0.0000 0.0000 44.3467 0.0000 5.3644
# 5 -6.3136 3.2129 -5.9017 0.0000 31.6837 0.0000
# 6 0.0000 0.0000 0.0000 5.3644 0.0000 38.4856
#
#
#
# Elastic Compliance Matrix: (Units=1/GPa)
#
#
# Indices 1 2 3 4 5 6 
#
# 1 0.010709 -0.004952 -0.003200 0.000000 0.002040 0.000000
# 2 -0.004952 0.011274 -0.001662 0.000000 -0.002439 0.000000
# 3 -0.003200 -0.001662 0.014790 0.000000 0.002286 0.000000
# 4 0.000000 0.000000 0.000000 0.022936 0.000000 -0.003197
# 5 0.002040 -0.002439 0.002286 0.000000 0.032642 0.000000
# 6 0.000000 0.000000 0.000000 -0.003197 0.000000 0.026429
#
#
# Mechanical properties :
#
#
# Convention : Reuss Voigt Hill
#
# Bulk Modulus (GPa) = 58.32375 65.69703 62.01039
# Shear Modulus (GPa) = 34.69253 36.78822 35.74037
#
# Velocity S-wave (km/s) = 3.97091 4.08908 4.03043
# Velocity P-wave (km/s) = 6.89441 7.22178 7.05999
#
# Compressibility (1/GPa) = 0.01714567
#
# Stress axis : x y z
#
# Youngs Moduli (GPa) = 93.37929 88.70137 67.61146
#
# Poissons Ratio (x) = 0.43922 0.21637
# Poissons Ratio (y) = 0.46239 0.11236
# Poissons Ratio (z) = 0.29884 0.14740
#
# Static dielectric constant tensor:
#      x y z
#    x 1.817700 0.000000 -0.003170 
#    y 0.000000 1.860220 0.000000 
#    z -0.003170 0.000000 1.800870 
# 
# From -- ./inp_files/6061.got.cif
#   From: 2010.05.17/outbox.cif.g08.bks.cpg/sg14_4_cif.got.tgz:6061.got - 2010.06.03 17:49:19.
