data_PCOD9251404
_publ_section_title
;
Structure prediction by ZEFSAII (Michael W. Deem and Ramdas Pophale) SiO2 
 PCOD9251404
Probable space group: P 21/C
;
_chemical_formula_sum "Si O2"
_cell_formula_units_Z 32
_cell_length_a 11.238736
_cell_length_b 14.208440
_cell_length_c 15.190139
_cell_angle_alpha 90.000000
_cell_angle_beta 150.205750
_cell_angle_gamma 90.000000
_cell_volume 1205.266647
_symmetry_space_group_name_H-M "P 21/C"
_symmetry_group_IT_number 14
_symmetry_cell_setting 'monoclinic'
loop_
_space_group_symop_operation_xyz
x,y,z
-x,1/2+y,1/2-z
-x,-y,-z
x,1/2-y,1/2+z
loop_
_atom_site_type_symbol
_atom_site_label
_atom_site_fract_x
_atom_site_fract_y
_atom_site_fract_z
Si Si1 0.530485 0.284748 0.320765
Si Si2 0.477860 0.530170 0.794887
Si Si3 0.035192 0.837533 0.808678
Si Si4 0.687084 0.166123 0.257430
Si Si5 0.825407 0.638765 0.640334
Si Si6 0.321208 0.645841 0.865378
Si Si7 0.983641 0.013150 0.359645
Si Si8 0.254606 0.363880 0.717346
O O1 0.507415 0.386408 0.264819
O O2 0.662808 0.216610 0.335863
O O3 0.281448 0.234984 0.184802
O O4 0.700720 0.295729 0.513736
O O5 0.420768 0.579861 0.851298
O O6 0.285877 0.447167 0.668346
O O7 0.740443 0.485831 0.956457
O O8 0.856164 0.751023 0.674865
O O9 0.970660 0.872648 0.864907
O O10 0.023572 0.918017 0.730281
O O11 0.719589 0.252600 0.208635
O O12 0.877835 0.082627 0.365846
O O13 0.427284 0.122465 0.067564
O O14 0.835708 0.579062 0.737161
O O15 0.062982 0.614274 0.736951
O O16 0.518333 0.634056 0.069476
#
# Coordination Sequence:
#
# PCOD9251404 Si02
#       8
#     4   4   4   4   4   4   4   4
#     4  11  27  42  61  99 138 175 210 266 341 396
#     4  11  24  43  70 102 125 179 224 273 328 386
#     4  12  24  42  68  98 128 175 219 276 330 384
#     4  11  25  42  63  98 136 172 213 267 334 396
#     4  12  23  42  70  99 126 172 224 273 328 387
#     4  11  20  41  72  95 127 168 228 276 314 386
#     4  12  23  43  71  98 130 169 226 271 327 396
#     4  12  22  44  69  95 134 169 227 275 328 387
#
# _framework density 26.550139000000001
#
# number of rings (size 3 to 8) (size 9 to 14) (size 15 to 20)
#    0.000    0.500    6.250    2.250    1.750    2.500 
#    2.250    1.250    0.000    0.000    0.000    0.000 
#    0.000    0.000    0.000    0.000    0.000    0.000 
#
# Total GULP energy -179454.341967 kJ/mol
# GULP energy per Si atom -5607.948186 kJ/mol
# Density = 2.648971 g / cm^3
# Si number density = 26.550139 Si / 1000 Ang^3
#
#
#
# Elastic Constant Matrix: (Units=GPa)
#
#
# Indices 1 2 3 4 5 6 
#
# 1 94.3930 26.1886 -12.4779 0.0000 -3.5431 0.0000
# 2 26.1886 90.3921 1.6114 0.0000 -0.0131 0.0000
# 3 -12.4779 1.6114 44.9124 0.0000 13.0075 0.0000
# 4 0.0000 0.0000 0.0000 32.4191 0.0000 -4.0913
# 5 -3.5431 -0.0131 13.0075 0.0000 26.4040 0.0000
# 6 0.0000 0.0000 0.0000 -4.0913 0.0000 46.5375
#
#
#
# Elastic Compliance Matrix: (Units=1/GPa)
#
#
# Indices 1 2 3 4 5 6 
#
# 1 0.012038 -0.003550 0.003505 0.000000 -0.000113 0.000000
# 2 -0.003550 0.012118 -0.001499 0.000000 0.000268 0.000000
# 3 0.003505 -0.001499 0.027011 0.000000 -0.012837 0.000000
# 4 0.000000 0.000000 0.000000 0.031192 0.000000 0.002742
# 5 -0.000113 0.000268 -0.012837 0.000000 0.044182 0.000000
# 6 0.000000 0.000000 0.000000 0.002742 0.000000 0.021729
#
#
# Mechanical properties :
#
#
# Convention : Reuss Voigt Hill
#
# Bulk Modulus (GPa) = 20.79938 28.92686 24.86312
# Shear Modulus (GPa) = 29.87127 35.36383 32.61755
#
# Velocity S-wave (km/s) = 3.35787 3.65357 3.50884
# Velocity P-wave (km/s) = 4.78380 5.35882 5.07945
#
# Compressibility (1/GPa) = 0.04807836
#
# Stress axis : x y z
#
# Youngs Moduli (GPa) = 83.07023 82.52031 37.02223
#
# Poissons Ratio (x) = 0.29296 -0.12975
# Poissons Ratio (y) = 0.29491 0.05549
# Poissons Ratio (z) = -0.29112 0.12368
#
# Static dielectric constant tensor:
#      x y z
#    x 2.091790 0.000000 -0.035460 
#    y 0.000000 2.108790 0.000000 
#    z -0.035460 0.000000 2.034800 
# 
# From -- ./inp_files/34165.got.cif
#   From: 2010.05.17/outbox.cif.g08.bks.cpg/sg14_18_cif.got.tgz:34165.got - 2010.06.03 17:49:19.
