data_PCOD9251334
_publ_section_title
;
Structure prediction by ZEFSAII (Michael W. Deem and Ramdas Pophale) SiO2 
 PCOD9251334
Probable space group: P 21/C
;
_chemical_formula_sum "Si O2"
_cell_formula_units_Z 24
_cell_length_a 11.367579
_cell_length_b 24.923576
_cell_length_c 4.950331
_cell_angle_alpha 90.000000
_cell_angle_beta 54.391645
_cell_angle_gamma 90.000000
_cell_volume 1140.280231
_symmetry_space_group_name_H-M "P 21/C"
_symmetry_group_IT_number 14
_symmetry_cell_setting 'monoclinic'
loop_
_space_group_symop_operation_xyz
x,y,z
-x,1/2+y,1/2-z
-x,-y,-z
x,1/2-y,1/2+z
loop_
_atom_site_type_symbol
_atom_site_label
_atom_site_fract_x
_atom_site_fract_y
_atom_site_fract_z
Si Si1 0.826047 0.782955 0.923716
Si Si2 0.611523 0.456786 0.229813
Si Si3 0.528140 0.106860 0.329493
Si Si4 0.189573 0.399756 0.372094
Si Si5 0.525922 0.281946 0.100900
Si Si6 0.869613 0.969360 0.532976
O O1 0.871111 0.735977 0.068384
O O2 0.870741 0.841604 0.963977
O O3 0.650002 0.784764 0.159368
O O4 0.500000 0.500000 0.500000
O O5 0.595714 0.406068 0.450120
O O6 0.763983 0.485791 0.052610
O O7 0.573857 0.439351 0.978604
O O8 0.574014 0.162561 0.405028
O O9 0.646782 0.893211 0.461047
O O10 0.200786 0.434676 0.630284
O O11 0.099566 0.429698 0.259251
O O12 0.569483 0.233576 0.843447
O O13 0.000000 0.000000 0.500000
#
# Coordination Sequence:
#
# PCOD9251334 Si02
#       6
#     4   4   4   4   4   4
#     4   9  17  29  49  79 108 136 171 219 274 324
#     4  12  21  36  56  80 110 142 187 223 264 322
#     4  11  20  33  57  84 106 146 182 226 276 319
#     4  11  20  36  56  80 114 145 178 226 277 321
#     4   9  17  29  46  76 114 137 165 216 279 331
#     4  12  25  38  54  80 112 153 185 223 272 324
#
# _framework density 21.047457000000001
#
# number of rings (size 3 to 8) (size 9 to 14) (size 15 to 20)
#    0.000    1.333    3.333    4.000    0.000    5.333 
#    0.000    0.000    0.000    0.000    0.000   23.333 
#    0.000    0.000    0.000    0.000    0.000    0.000 
#
# Total GULP energy -134108.199139 kJ/mol
# GULP energy per Si atom -5587.841631 kJ/mol
# Density = 2.099955 g / cm^3
# Si number density = 21.047457 Si / 1000 Ang^3
#
#
#
# Elastic Constant Matrix: (Units=GPa)
#
#
# Indices 1 2 3 4 5 6 
#
# 1 63.7645 11.3164 -5.6507 0.0000 13.1385 0.0000
# 2 11.3164 70.1001 -5.8727 0.0000 -3.6564 0.0000
# 3 -5.6507 -5.8727 33.4004 0.0000 24.0719 0.0000
# 4 0.0000 0.0000 0.0000 21.9271 0.0000 13.0879
# 5 13.1385 -3.6564 24.0719 0.0000 27.8123 0.0000
# 6 0.0000 0.0000 0.0000 13.0879 0.0000 20.5243
#
#
#
# Elastic Compliance Matrix: (Units=1/GPa)
#
#
# Indices 1 2 3 4 5 6 
#
# 1 0.030098 -0.004087 0.039891 0.000000 -0.049282 0.000000
# 2 -0.004087 0.015040 -0.002296 0.000000 0.005895 0.000000
# 3 0.039891 -0.002296 0.133125 0.000000 -0.134368 0.000000
# 4 0.000000 0.000000 0.000000 0.073631 0.000000 -0.046953
# 5 -0.049282 0.005895 -0.134368 0.000000 0.176309 0.000000
# 6 0.000000 0.000000 0.000000 -0.046953 0.000000 0.078664
#
#
# Mechanical properties :
#
#
# Convention : Reuss Voigt Hill
#
# Bulk Modulus (GPa) = 4.07699 18.53898 11.30798
# Shear Modulus (GPa) = 9.58569 25.21752 17.40160
#
# Velocity S-wave (km/s) = 2.13640 3.46515 2.87850
# Velocity P-wave (km/s) = 2.83317 4.98367 4.05363
#
# Compressibility (1/GPa) = 0.24527927
#
# Stress axis : x y z
#
# Youngs Moduli (GPa) = 33.22533 66.48795 7.51171
#
# Poissons Ratio (x) = 0.27176 -0.29965
# Poissons Ratio (y) = 0.13580 0.01724
# Poissons Ratio (z) = -1.32539 0.15263
#
# Static dielectric constant tensor:
#      x y z
#    x 1.743970 0.000000 -0.007950 
#    y 0.000000 1.808330 0.000000 
#    z -0.007950 0.000000 1.747850 
# 
# From -- ./inp_files/2810.got.cif
#   From: 2010.05.17/outbox.cif.g08.bks.cpg/sg14_2_cif.got.tgz:2810.got - 2010.06.03 17:49:19.
