data_PCOD9251425
_publ_section_title
;
Structure prediction by ZEFSAII (Michael W. Deem and Ramdas Pophale) SiO2 
 PCOD9251425
Probable space group: P 21/C
;
_chemical_formula_sum "Si O2"
_cell_formula_units_Z 28
_cell_length_a 6.662923
_cell_length_b 19.138937
_cell_length_c 14.090129
_cell_angle_alpha 90.000000
_cell_angle_beta 39.104105
_cell_angle_gamma 90.000000
_cell_volume 1133.292548
_symmetry_space_group_name_H-M "P 21/C"
_symmetry_group_IT_number 14
_symmetry_cell_setting 'monoclinic'
loop_
_space_group_symop_operation_xyz
x,y,z
-x,1/2+y,1/2-z
-x,-y,-z
x,1/2-y,1/2+z
loop_
_atom_site_type_symbol
_atom_site_label
_atom_site_fract_x
_atom_site_fract_y
_atom_site_fract_z
Si Si1 0.322584 0.489177 0.788371
Si Si2 0.693658 0.663560 0.464026
Si Si3 0.590210 0.545843 0.875834
Si Si4 0.195038 0.490433 0.542974
Si Si5 0.122197 0.740729 0.924392
Si Si6 0.938889 0.373745 0.213575
Si Si7 0.235223 0.173545 0.282818
O O1 0.341563 0.522179 0.886346
O O2 0.670382 0.486844 0.608304
O O3 0.217095 0.408751 0.817205
O O4 0.859396 0.451860 0.205294
O O5 0.864054 0.591807 0.431499
O O6 0.820324 0.719020 0.491797
O O7 0.787462 0.679709 0.322129
O O8 0.317172 0.650845 0.614351
O O9 0.699875 0.621070 0.878902
O O10 0.908932 0.529119 0.698716
O O11 0.500000 0.500000 0.000000
O O12 0.500000 0.500000 0.500000
O O13 0.037006 0.713726 0.059984
O O14 0.138363 0.674924 0.847693
O O15 0.429238 0.790594 0.811448
#
# Coordination Sequence:
#
# PCOD9251425 Si02
#       7
#     4   4   4   4   4   4   4
#     4  11  24  46  79 104 140 189 241 298 356 424
#     4  11  24  46  73  96 141 187 237 292 352 426
#     4  12  24  39  70 108 139 176 226 285 355 414
#     4  11  20  46  72 100 137 183 232 291 352 423
#     4  12  28  46  68 106 144 192 239 293 356 440
#     4  11  25  49  70 108 151 180 236 305 358 419
#     4  12  26  46  75 103 141 191 244 288 363 422
#
# _framework density 24.706772000000001
#
# number of rings (size 3 to 8) (size 9 to 14) (size 15 to 20)
#    0.000    0.571    5.714    2.143    2.000    8.000 
#    0.000    0.000    0.000    0.000    0.000    0.000 
#    0.000    0.000    0.000    0.000    0.000    0.000 
#
# Total GULP energy -156543.217666 kJ/mol
# GULP energy per Si atom -5590.829202 kJ/mol
# Density = 2.465054 g / cm^3
# Si number density = 24.706772 Si / 1000 Ang^3
#
#
#
# Elastic Constant Matrix: (Units=GPa)
#
#
# Indices 1 2 3 4 5 6 
#
# 1 80.7597 19.9993 21.1641 0.0000 26.7546 0.0000
# 2 19.9993 119.0782 24.5026 0.0000 2.1453 0.0000
# 3 21.1641 24.5026 114.3575 0.0000 27.9329 0.0000
# 4 0.0000 0.0000 0.0000 26.2217 0.0000 1.6431
# 5 26.7546 2.1453 27.9329 0.0000 56.5472 0.0000
# 6 0.0000 0.0000 0.0000 1.6431 0.0000 44.9564
#
#
#
# Elastic Compliance Matrix: (Units=1/GPa)
#
#
# Indices 1 2 3 4 5 6 
#
# 1 0.015411 -0.002325 -0.000676 0.000000 -0.006870 0.000000
# 2 -0.002325 0.009159 -0.001951 0.000000 0.001717 0.000000
# 3 -0.000676 -0.001951 0.010453 0.000000 -0.004770 0.000000
# 4 0.000000 0.000000 0.000000 0.038224 0.000000 -0.001397
# 5 -0.006870 0.001717 -0.004770 0.000000 0.023225 0.000000
# 6 0.000000 0.000000 0.000000 -0.001397 0.000000 0.022295
#
#
# Mechanical properties :
#
#
# Convention : Reuss Voigt Hill
#
# Bulk Modulus (GPa) = 39.81317 49.50306 44.65811
# Shear Modulus (GPa) = 36.48433 42.11370 39.29901
#
# Velocity S-wave (km/s) = 3.84695 4.13309 3.99258
# Velocity P-wave (km/s) = 5.99010 6.54647 6.27445
#
# Compressibility (1/GPa) = 0.02511732
#
# Stress axis : x y z
#
# Youngs Moduli (GPa) = 64.88782 109.18204 95.66896
#
# Poissons Ratio (x) = 0.25390 0.06467
# Poissons Ratio (y) = 0.15090 0.18669
# Poissons Ratio (z) = 0.04386 0.21306
#
# Static dielectric constant tensor:
#      x y z
#    x 2.123280 0.000000 -0.048850 
#    y 0.000000 1.877570 0.000000 
#    z -0.048850 0.000000 1.963020 
# 
# From -- ./inp_files/42031.got.cif
#   From: 2010.05.17/outbox.cif.g08.bks.cpg/sg14_22_cif.got.tgz:42031.got - 2010.06.03 17:49:19.
