data_PCOD9251827
_publ_section_title
;
Structure prediction by ZEFSAII (Michael W. Deem and Ramdas Pophale) SiO2 
 PCOD9251827
Probable space group: P 21/C
;
_chemical_formula_sum "Si O2"
_cell_formula_units_Z 32
_cell_length_a 11.798731
_cell_length_b 17.875649
_cell_length_c 15.494170
_cell_angle_alpha 90.000000
_cell_angle_beta 152.245427
_cell_angle_gamma 90.000000
_cell_volume 1521.800866
_symmetry_space_group_name_H-M "P 21/C"
_symmetry_group_IT_number 14
_symmetry_cell_setting 'monoclinic'
loop_
_space_group_symop_operation_xyz
x,y,z
-x,1/2+y,1/2-z
-x,-y,-z
x,1/2-y,1/2+z
loop_
_atom_site_type_symbol
_atom_site_label
_atom_site_fract_x
_atom_site_fract_y
_atom_site_fract_z
Si Si1 0.922146 0.019414 0.045302
Si Si2 0.019067 0.823547 0.828492
Si Si3 0.760925 0.070488 0.605093
Si Si4 0.958126 0.838942 0.351711
Si Si5 0.464373 0.680464 0.910796
Si Si6 0.539740 0.945663 0.343572
Si Si7 0.610066 0.341443 0.578293
Si Si8 0.024497 0.923083 0.567910
O O1 0.628772 0.017586 0.842880
O O2 0.994459 0.103001 0.121814
O O3 0.000000 0.000000 0.000000
O O4 0.044719 0.964881 0.197426
O O5 0.231547 0.834392 0.901952
O O6 0.047555 0.745441 0.896751
O O7 0.756471 0.815318 0.606461
O O8 0.618243 0.134819 0.560044
O O9 0.892332 0.106470 0.610931
O O10 0.587292 0.004528 0.452703
O O11 0.994388 0.860792 0.474743
O O12 0.673482 0.847872 0.135527
O O13 0.402563 0.627032 0.788906
O O14 0.361824 0.763614 0.849682
O O15 0.799521 0.922501 0.481933
O O16 0.728175 0.408180 0.713184
O O17 0.000000 0.000000 0.500000
#
# Coordination Sequence:
#
# PCOD9251827 Si02
#       8
#     4   4   4   4   4   4   4   4
#     4  12  25  39  71 104 130 177 229 278 343 412
#     4  11  23  48  67  99 139 181 228 283 349 405
#     4  12  23  45  68 102 141 175 226 288 342 408
#     4  11  27  44  69 100 139 180 227 285 340 413
#     4  11  22  43  73  97 135 183 224 282 350 397
#     4  12  24  43  69 100 137 177 226 285 344 404
#     4  11  25  46  69  98 136 186 229 279 348 407
#     4  12  26  45  68 100 135 182 230 277 336 416
#
# _framework density 21.027718
#
# number of rings (size 3 to 8) (size 9 to 14) (size 15 to 20)
#    0.000    0.500    6.250    1.875    3.500    0.500 
#    0.000    0.000    0.000    0.000    0.000    0.000 
#    0.000    0.000    0.000    0.000    0.000    0.000 
#
# Total GULP energy -178944.765295 kJ/mol
# GULP energy per Si atom -5592.023915 kJ/mol
# Density = 2.097986 g / cm^3
# Si number density = 21.027718 Si / 1000 Ang^3
#
#
#
# Elastic Constant Matrix: (Units=GPa)
#
#
# Indices 1 2 3 4 5 6 
#
# 1 58.7280 17.7150 -11.2598 0.0000 10.8256 0.0000
# 2 17.7150 77.5910 -6.8241 0.0000 -6.1265 0.0000
# 3 -11.2598 -6.8241 45.5331 0.0000 5.2173 0.0000
# 4 0.0000 0.0000 0.0000 31.5047 0.0000 -9.3563
# 5 10.8256 -6.1265 5.2173 0.0000 23.0475 0.0000
# 6 0.0000 0.0000 0.0000 -9.3563 0.0000 31.4479
#
#
#
# Elastic Compliance Matrix: (Units=1/GPa)
#
#
# Indices 1 2 3 4 5 6 
#
# 1 0.022394 -0.005625 0.006233 0.000000 -0.013425 0.000000
# 2 -0.005625 0.014694 0.000063 0.000000 0.006534 0.000000
# 3 0.006233 0.000063 0.024481 0.000000 -0.008453 0.000000
# 4 0.000000 0.000000 0.000000 0.034818 0.000000 0.010359
# 5 -0.013425 0.006534 -0.008453 0.000000 0.053345 0.000000
# 6 0.000000 0.000000 0.000000 0.010359 0.000000 0.034881
#
#
# Mechanical properties :
#
#
# Convention : Reuss Voigt Hill
#
# Bulk Modulus (GPa) = 15.89547 20.12381 18.00964
# Shear Modulus (GPa) = 24.48096 29.34809 26.91453
#
# Velocity S-wave (km/s) = 3.41577 3.73994 3.58153
# Velocity P-wave (km/s) = 4.80961 5.31418 5.06818
#
# Compressibility (1/GPa) = 0.06291102
#
# Stress axis : x y z
#
# Youngs Moduli (GPa) = 44.65478 68.05650 40.84744
#
# Poissons Ratio (x) = 0.38279 -0.25460
# Poissons Ratio (y) = 0.25117 -0.00256
# Poissons Ratio (z) = -0.27834 -0.00426
#
# Static dielectric constant tensor:
#      x y z
#    x 1.779860 0.000000 -0.031210 
#    y 0.000000 1.769870 0.000000 
#    z -0.031210 0.000000 1.780970 
# 
# From -- ./inp_files/45474.got.cif
#   From: 2010.05.17/outbox.cif.g08.bks.cpg/sg14_23_cif.got.tgz:45474.got - 2010.06.03 17:49:19.
