data_PCOD9251722
_publ_section_title
;
Structure prediction by ZEFSAII (Michael W. Deem and Ramdas Pophale) SiO2 
 PCOD9251722
Probable space group: P 21/C
;
_chemical_formula_sum "Si O2"
_cell_formula_units_Z 32
_cell_length_a 10.103087
_cell_length_b 21.934817
_cell_length_c 14.863500
_cell_angle_alpha 90.000000
_cell_angle_beta 153.394215
_cell_angle_gamma 90.000000
_cell_volume 1475.166901
_symmetry_space_group_name_H-M "P 21/C"
_symmetry_group_IT_number 14
_symmetry_cell_setting 'monoclinic'
loop_
_space_group_symop_operation_xyz
x,y,z
-x,1/2+y,1/2-z
-x,-y,-z
x,1/2-y,1/2+z
loop_
_atom_site_type_symbol
_atom_site_label
_atom_site_fract_x
_atom_site_fract_y
_atom_site_fract_z
Si Si1 0.734367 0.880587 0.911387
Si Si2 0.776310 0.642079 0.962518
Si Si3 0.080867 0.591230 0.970796
Si Si4 0.286462 0.015336 0.492524
Si Si5 0.959784 0.507951 0.351909
Si Si6 0.830444 0.215176 0.163082
Si Si7 0.794281 0.827884 0.146409
Si Si8 0.152969 0.856346 0.010131
O O1 0.720686 0.852920 0.002812
O O2 0.935651 0.845242 0.961701
O O3 0.410873 0.882466 0.672829
O O4 0.873413 0.948369 0.010411
O O5 0.472341 0.665837 0.736794
O O6 0.695646 0.587114 0.980869
O O7 0.944887 0.610582 0.982461
O O8 0.970726 0.690617 0.133616
O O9 0.131477 0.520350 0.979590
O O10 0.887603 0.620180 0.773530
O O11 0.620263 0.991240 0.680814
O O12 0.090221 0.003311 0.285220
O O13 0.130750 0.570335 0.479462
O O14 0.929674 0.282919 0.199304
O O15 0.490783 0.206306 0.985454
O O16 0.906700 0.175265 0.121089
#
# Coordination Sequence:
#
# PCOD9251722 Si02
#       8
#     4   4   4   4   4   4   4   4
#     4  12  25  45  74 106 146 187 231 285 350 422
#     4  12  25  46  71 106 145 185 231 288 355 419
#     4  12  25  46  71 106 145 185 231 288 355 419
#     4  11  22  39  72 106 148 187 226 281 353 414
#     4  11  22  40  70 109 145 186 230 281 345 423
#     4  12  30  51  72 103 139 183 242 299 350 414
#     4  12  30  51  72 103 139 183 242 299 350 414
#     4  12  25  45  74 106 146 187 231 285 350 422
#
# _framework density 21.692461999999999
#
# number of rings (size 3 to 8) (size 9 to 14) (size 15 to 20)
#    0.000    0.250    7.500    1.500    3.500    2.000 
#    0.000    2.500    0.000    0.000    0.000    0.000 
#    0.000    0.000    0.000    0.000    0.000    0.000 
#
# Total GULP energy -179008.463238 kJ/mol
# GULP energy per Si atom -5594.014476 kJ/mol
# Density = 2.164309 g / cm^3
# Si number density = 21.692462 Si / 1000 Ang^3
#
#
#
# Elastic Constant Matrix: (Units=GPa)
#
#
# Indices 1 2 3 4 5 6 
#
# 1 86.4302 -7.2229 3.7027 0.0000 -11.1449 0.0000
# 2 -7.2229 22.7408 -13.4827 0.0000 -2.5067 0.0000
# 3 3.7027 -13.4827 82.6302 0.0000 2.8765 0.0000
# 4 0.0000 0.0000 0.0000 18.3992 0.0000 1.8360
# 5 -11.1449 -2.5067 2.8765 0.0000 25.9427 0.0000
# 6 0.0000 0.0000 0.0000 1.8360 0.0000 16.9710
#
#
#
# Elastic Compliance Matrix: (Units=1/GPa)
#
#
# Indices 1 2 3 4 5 6 
#
# 1 0.012726 0.004688 -0.000011 0.000000 0.005921 0.000000
# 2 0.004688 0.050794 0.007867 0.000000 0.006050 0.000000
# 3 -0.000011 0.007867 0.013412 0.000000 -0.000732 0.000000
# 4 0.000000 0.000000 0.000000 0.054943 0.000000 -0.005944
# 5 0.005921 0.006050 -0.000732 0.000000 0.041756 0.000000
# 6 0.000000 0.000000 0.000000 -0.005944 0.000000 0.059567
#
#
# Mechanical properties :
#
#
# Convention : Reuss Voigt Hill
#
# Bulk Modulus (GPa) = 9.80209 17.53283 13.66746
# Shear Modulus (GPa) = 20.65118 26.18285 23.41702
#
# Velocity S-wave (km/s) = 3.08879 3.47796 3.28914
# Velocity P-wave (km/s) = 4.15323 4.92223 4.55399
#
# Compressibility (1/GPa) = 0.10201910
#
# Stress axis : x y z
#
# Youngs Moduli (GPa) = 78.58056 19.68736 74.56111
#
# Poissons Ratio (x) = -0.09229 0.00086
# Poissons Ratio (y) = -0.36837 -0.58660
# Poissons Ratio (z) = 0.00090 -0.15489
#
# Static dielectric constant tensor:
#      x y z
#    x 1.801890 0.000000 -0.004900 
#    y 0.000000 1.777930 0.000000 
#    z -0.004900 0.000000 1.764570 
# 
# From -- ./inp_files/42208.got.cif
#   From: 2010.05.17/outbox.cif.g08.bks.cpg/sg14_22_cif.got.tgz:42208.got - 2010.06.03 17:49:19.
