data_PCOD9251914
_publ_section_title
;
Structure prediction by ZEFSAII (Michael W. Deem and Ramdas Pophale) SiO2 
 PCOD9251914
Probable space group: P 21/C
;
_chemical_formula_sum "Si O2"
_cell_formula_units_Z 20
_cell_length_a 5.400705
_cell_length_b 8.990418
_cell_length_c 17.919624
_cell_angle_alpha 90.000000
_cell_angle_beta 101.869888
_cell_angle_gamma 90.000000
_cell_volume 851.475364
_symmetry_space_group_name_H-M "P 21/C"
_symmetry_group_IT_number 14
_symmetry_cell_setting 'monoclinic'
loop_
_space_group_symop_operation_xyz
x,y,z
-x,1/2+y,1/2-z
-x,-y,-z
x,1/2-y,1/2+z
loop_
_atom_site_type_symbol
_atom_site_label
_atom_site_fract_x
_atom_site_fract_y
_atom_site_fract_z
Si Si1 0.538334 0.171027 0.987451
Si Si2 0.922081 0.246152 0.142608
Si Si3 0.592180 0.146415 0.358969
Si Si4 0.054210 0.444092 0.778802
Si Si5 0.774396 0.891796 0.459983
O O1 0.711741 0.231285 0.065632
O O2 0.289236 0.272218 0.981276
O O3 0.640067 0.207900 0.911695
O O4 0.500000 0.000000 0.000000
O O5 0.887782 0.383954 0.197817
O O6 0.953720 0.095392 0.190530
O O7 0.162873 0.293514 0.108645
O O8 0.319571 0.144999 0.302850
O O9 0.829805 0.109130 0.320794
O O10 0.573917 0.012319 0.418814
O O11 0.000000 0.000000 0.500000
#
# Coordination Sequence:
#
# PCOD9251914 Si02
#       5
#     4   4   4   4   4
#     4  12  26  43  74 110 146 187 255 318 361 441
#     4  11  26  46  70 107 147 194 245 306 375 445
#     4  11  24  47  71 102 143 201 240 295 375 449
#     4  11  27  44  73 102 149 192 244 300 377 449
#     4  11  22  47  77 102 143 198 248 304 375 452
#
# _framework density 23.488643
#
# number of rings (size 3 to 8) (size 9 to 14) (size 15 to 20)
#    0.000    0.800    4.000    3.000    5.600    2.400 
#    0.000    0.000    0.000    0.000    0.000    0.000 
#    0.000    0.000    0.000    0.000    0.000    0.000 
#
# Total GULP energy -111752.301030 kJ/mol
# GULP energy per Si atom -5587.615051 kJ/mol
# Density = 2.343518 g / cm^3
# Si number density = 23.488643 Si / 1000 Ang^3
#
#
#
# Elastic Constant Matrix: (Units=GPa)
#
#
# Indices 1 2 3 4 5 6 
#
# 1 74.4703 20.1413 -1.5602 0.0000 10.1968 0.0000
# 2 20.1413 79.1346 -16.1929 0.0000 -19.0256 0.0000
# 3 -1.5602 -16.1929 35.7733 0.0000 4.7275 0.0000
# 4 0.0000 0.0000 0.0000 46.5811 0.0000 2.8237
# 5 10.1968 -19.0256 4.7275 0.0000 30.4908 0.0000
# 6 0.0000 0.0000 0.0000 2.8237 0.0000 23.4237
#
#
#
# Elastic Compliance Matrix: (Units=1/GPa)
#
#
# Indices 1 2 3 4 5 6 
#
# 1 0.016533 -0.006723 -0.001059 0.000000 -0.009560 0.000000
# 2 -0.006723 0.018796 0.006501 0.000000 0.012969 0.000000
# 3 -0.001059 0.006501 0.030901 0.000000 -0.000380 0.000000
# 4 0.000000 0.000000 0.000000 0.021626 0.000000 -0.002607
# 5 -0.009560 0.012969 -0.000380 0.000000 0.044145 0.000000
# 6 0.000000 0.000000 0.000000 -0.002607 0.000000 0.043006
#
#
# Mechanical properties :
#
#
# Convention : Reuss Voigt Hill
#
# Bulk Modulus (GPa) = 15.70642 21.57274 18.63958
# Shear Modulus (GPa) = 25.15194 32.56511 28.85853
#
# Velocity S-wave (km/s) = 3.27588 3.72750 3.50896
# Velocity P-wave (km/s) = 4.58365 5.26593 4.93659
#
# Compressibility (1/GPa) = 0.06366823
#
# Stress axis : x y z
#
# Youngs Moduli (GPa) = 60.48377 53.20254 32.36182
#
# Poissons Ratio (x) = 0.35769 0.03426
# Poissons Ratio (y) = 0.40664 -0.21039
# Poissons Ratio (z) = 0.06404 -0.34587
#
# Static dielectric constant tensor:
#      x y z
#    x 2.044380 0.000000 -0.030130 
#    y 0.000000 1.872240 0.000000 
#    z -0.030130 0.000000 1.933400 
# 
# From -- ./inp_files/52653.got.cif
#   From: 2010.05.17/outbox.cif.g08.bks.cpg/sg14_27_cif.got.tgz:52653.got - 2010.06.03 17:49:19.
