data_PCOD9251936
_publ_section_title
;
Structure prediction by ZEFSAII (Michael W. Deem and Ramdas Pophale) SiO2 
 PCOD9251936
Probable space group: P 21/C
;
_chemical_formula_sum "Si O2"
_cell_formula_units_Z 24
_cell_length_a 18.449840
_cell_length_b 4.895883
_cell_length_c 9.158468
_cell_angle_alpha 90.000000
_cell_angle_beta 90.712427
_cell_angle_gamma 90.000000
_cell_volume 827.204510
_symmetry_space_group_name_H-M "P 21/C"
_symmetry_group_IT_number 14
_symmetry_cell_setting 'monoclinic'
loop_
_space_group_symop_operation_xyz
x,y,z
-x,1/2+y,1/2-z
-x,-y,-z
x,1/2-y,1/2+z
loop_
_atom_site_type_symbol
_atom_site_label
_atom_site_fract_x
_atom_site_fract_y
_atom_site_fract_z
Si Si1 0.804631 0.463873 0.223732
Si Si2 0.081035 0.680209 0.069519
Si Si3 0.077529 0.374938 0.329456
Si Si4 0.672167 0.098580 0.541859
Si Si5 0.451156 0.611506 0.757620
Si Si6 0.328175 0.270584 0.212559
O O1 0.851400 0.292834 0.336692
O O2 0.748097 0.307507 0.114384
O O3 0.750429 0.646655 0.319835
O O4 0.858024 0.663519 0.134077
O O5 0.078596 0.384174 0.151655
O O6 0.087158 0.838871 0.915654
O O7 0.000745 0.769024 0.123944
O O8 0.599136 0.214076 0.609826
O O9 0.670115 0.054510 0.370457
O O10 0.669344 0.786554 0.613103
O O11 0.490546 0.877983 0.696316
O O12 0.394910 0.422004 0.665478
#
# Coordination Sequence:
#
# PCOD9251936 Si02
#       6
#     4   4   4   4   4   4
#     4   9  20  40  62  79 120 154 204 249 302 364
#     4  11  23  38  59  87 116 155 203 256 315 371
#     4  11  23  38  59  87 116 155 203 256 315 371
#     4   8  19  37  60  85 119 157 197 244 304 366
#     4   9  20  38  64  93 124 162 206 259 312 380
#     4   8  19  37  60  85 119 157 197 244 304 366
#
# _framework density 29.013382
#
# number of rings (size 3 to 8) (size 9 to 14) (size 15 to 20)
#    2.000    0.333    1.667    1.000    0.000    4.667 
#   12.000    0.000    0.000    0.000    0.000    0.000 
#    0.000    0.000    0.000    0.000    0.000    0.000 
#
# Total GULP energy -133873.662687 kJ/mol
# GULP energy per Si atom -5578.069279 kJ/mol
# Density = 2.894735 g / cm^3
# Si number density = 29.013382 Si / 1000 Ang^3
#
#
#
# Elastic Constant Matrix: (Units=GPa)
#
#
# Indices 1 2 3 4 5 6 
#
# 1 156.1304 12.9292 -3.7159 0.0000 -1.1623 0.0000
# 2 12.9292 67.6034 -17.9787 0.0000 8.1267 0.0000
# 3 -3.7159 -17.9787 82.8897 0.0000 5.1131 0.0000
# 4 0.0000 0.0000 0.0000 31.5287 0.0000 0.6802
# 5 -1.1623 8.1267 5.1131 0.0000 28.9935 0.0000
# 6 0.0000 0.0000 0.0000 0.6802 0.0000 44.8212
#
#
#
# Elastic Compliance Matrix: (Units=1/GPa)
#
#
# Indices 1 2 3 4 5 6 
#
# 1 0.006519 -0.001334 -0.000037 0.000000 0.000642 0.000000
# 2 -0.001334 0.016739 0.003906 0.000000 -0.005434 0.000000
# 3 -0.000037 0.003906 0.013120 0.000000 -0.003410 0.000000
# 4 0.000000 0.000000 0.000000 0.031728 0.000000 -0.000481
# 5 0.000642 -0.005434 -0.003410 0.000000 0.036641 0.000000
# 6 0.000000 0.000000 0.000000 -0.000481 0.000000 0.022318
#
#
# Mechanical properties :
#
#
# Convention : Reuss Voigt Hill
#
# Bulk Modulus (GPa) = 24.12517 32.12142 28.12330
# Shear Modulus (GPa) = 36.81609 42.09462 39.45535
#
# Velocity S-wave (km/s) = 3.56608 3.81316 3.69169
# Velocity P-wave (km/s) = 5.02883 5.52107 5.28069
#
# Compressibility (1/GPa) = 0.04145048
#
# Stress axis : x y z
#
# Youngs Moduli (GPa) = 153.39193 59.73971 76.21848
#
# Poissons Ratio (x) = 0.07967 0.00279
# Poissons Ratio (y) = 0.20457 -0.29772
# Poissons Ratio (z) = 0.00561 -0.23335
#
# Static dielectric constant tensor:
#      x y z
#    x 2.242040 0.000000 -0.041360 
#    y 0.000000 2.344560 0.000000 
#    z -0.041360 0.000000 2.325650 
# 
# From -- ./inp_files/33370.got.cif
#   From: 2010.05.17/outbox.cif.g08.bks.cpg/sg14_17_cif.got.tgz:33370.got - 2010.06.03 17:49:19.
