data_PCOD9251309
_publ_section_title
;
Structure prediction by ZEFSAII (Michael W. Deem and Ramdas Pophale) SiO2 
 PCOD9251309
Probable space group: P 21/C
;
_chemical_formula_sum "Si O2"
_cell_formula_units_Z 24
_cell_length_a 6.524666
_cell_length_b 14.969374
_cell_length_c 15.043203
_cell_angle_alpha 90.000000
_cell_angle_beta 123.854157
_cell_angle_gamma 90.000000
_cell_volume 1220.169201
_symmetry_space_group_name_H-M "P 21/C"
_symmetry_group_IT_number 14
_symmetry_cell_setting 'monoclinic'
loop_
_space_group_symop_operation_xyz
x,y,z
-x,1/2+y,1/2-z
-x,-y,-z
x,1/2-y,1/2+z
loop_
_atom_site_type_symbol
_atom_site_label
_atom_site_fract_x
_atom_site_fract_y
_atom_site_fract_z
Si Si1 0.289850 0.906968 0.178922
Si Si2 0.217282 0.028791 0.427942
Si Si3 0.831068 0.881513 0.393893
Si Si4 0.532641 0.553537 0.416275
Si Si5 0.985515 0.559390 0.296715
Si Si6 0.945784 0.819177 0.963378
O O1 0.549286 0.885607 0.288952
O O2 0.349806 0.983643 0.122269
O O3 0.092504 0.957942 0.194573
O O4 0.162550 0.830491 0.088775
O O5 0.166366 0.085041 0.503854
O O6 0.189822 0.081100 0.328257
O O7 0.500000 0.000000 0.500000
O O8 0.020740 0.946160 0.386230
O O9 0.917039 0.779638 0.419372
O O10 0.500000 0.500000 0.500000
O O11 0.255346 0.572644 0.321483
O O12 0.703462 0.640687 0.454480
O O13 0.979654 0.618449 0.384320
#
# Coordination Sequence:
#
# PCOD9251309 Si02
#       6
#     4   4   4   4   4   4
#     4  11  21  41  65  92 131 166 213 268 321 379
#     4  11  24  45  67  86 131 182 214 246 329 406
#     4  11  26  43  63  98 133 171 212 271 321 388
#     4  11  19  39  67  93 123 169 210 257 330 383
#     4  11  21  41  68  94 122 173 216 260 322 387
#     4  11  25  39  66 103 130 158 221 282 315 375
#
# _framework density 19.669404
#
# number of rings (size 3 to 8) (size 9 to 14) (size 15 to 20)
#    0.000    1.000    6.667    1.000    0.000    4.000 
#    6.000    0.000    0.000    0.000    0.000    0.000 
#    0.000    0.000    0.000    0.000    0.000    0.000 
#
# Total GULP energy -133779.683769 kJ/mol
# GULP energy per Si atom -5574.153490 kJ/mol
# Density = 1.962464 g / cm^3
# Si number density = 19.669404 Si / 1000 Ang^3
#
#
#
# Elastic Constant Matrix: (Units=GPa)
#
#
# Indices 1 2 3 4 5 6 
#
# 1 68.6353 6.8756 15.3616 0.0000 11.3125 0.0000
# 2 6.8756 83.6201 31.5799 0.0000 12.8030 0.0000
# 3 15.3616 31.5799 128.8460 0.0000 11.8849 0.0000
# 4 0.0000 0.0000 0.0000 16.8927 0.0000 2.1917
# 5 11.3125 12.8030 11.8849 0.0000 46.2326 0.0000
# 6 0.0000 0.0000 0.0000 2.1917 0.0000 12.5803
#
#
#
# Elastic Compliance Matrix: (Units=1/GPa)
#
#
# Indices 1 2 3 4 5 6 
#
# 1 0.015475 -0.000198 -0.001488 0.000000 -0.003349 0.000000
# 2 -0.000198 0.013569 -0.003032 0.000000 -0.002930 0.000000
# 3 -0.001488 -0.003032 0.008779 0.000000 -0.001053 0.000000
# 4 0.000000 0.000000 0.000000 0.060566 0.000000 -0.010552
# 5 -0.003349 -0.002930 -0.001053 0.000000 0.023531 0.000000
# 6 0.000000 0.000000 0.000000 -0.010552 0.000000 0.081328
#
#
# Mechanical properties :
#
#
# Convention : Reuss Voigt Hill
#
# Bulk Modulus (GPa) = 35.22653 43.19284 39.20969
# Shear Modulus (GPa) = 22.50790 30.29340 26.40065
#
# Velocity S-wave (km/s) = 3.38644 3.92870 3.66761
# Velocity P-wave (km/s) = 5.76531 6.52585 6.15733
#
# Compressibility (1/GPa) = 0.02838769
#
# Stress axis : x y z
#
# Youngs Moduli (GPa) = 64.62231 73.69912 113.91087
#
# Poissons Ratio (x) = 0.01458 0.16945
# Poissons Ratio (y) = 0.01278 0.34536
# Poissons Ratio (z) = 0.09613 0.22344
#
# Static dielectric constant tensor:
#      x y z
#    x 1.748650 0.000000 0.029470 
#    y 0.000000 1.730550 0.000000 
#    z 0.029470 0.000000 1.765850 
# 
# From -- ./inp_files/37400.got.cif
#   From: 2010.05.17/outbox.cif.g08.bks.cpg/sg14_19_cif.got.tgz:37400.got - 2010.06.03 17:49:19.
