data_PCOD9251819
_publ_section_title
;
Structure prediction by ZEFSAII (Michael W. Deem and Ramdas Pophale) SiO2 
 PCOD9251819
Probable space group: P 21/C
;
_chemical_formula_sum "Si O2"
_cell_formula_units_Z 32
_cell_length_a 12.750325
_cell_length_b 10.142195
_cell_length_c 21.335967
_cell_angle_alpha 90.000000
_cell_angle_beta 148.879195
_cell_angle_gamma 90.000000
_cell_volume 1426.018649
_symmetry_space_group_name_H-M "P 21/C"
_symmetry_group_IT_number 14
_symmetry_cell_setting 'monoclinic'
loop_
_space_group_symop_operation_xyz
x,y,z
-x,1/2+y,1/2-z
-x,-y,-z
x,1/2-y,1/2+z
loop_
_atom_site_type_symbol
_atom_site_label
_atom_site_fract_x
_atom_site_fract_y
_atom_site_fract_z
Si Si1 0.336100 0.524928 0.566900
Si Si2 0.074350 0.696804 0.088521
Si Si3 0.936699 0.988849 0.627662
Si Si4 0.736417 0.633377 0.349986
Si Si5 0.678467 0.603837 0.105596
Si Si6 0.912951 0.455672 0.336050
Si Si7 0.309312 0.683394 0.081369
Si Si8 0.635377 0.590797 0.615352
O O1 0.362298 0.458194 0.647244
O O2 0.248668 0.670699 0.530610
O O3 0.538788 0.545142 0.631972
O O4 0.151255 0.443891 0.441035
O O5 0.022309 0.583698 0.110344
O O6 0.211946 0.657670 0.099935
O O7 0.868953 0.755496 0.951864
O O8 0.164674 0.814401 0.178599
O O9 0.823865 0.893988 0.618963
O O10 0.772357 0.088373 0.514209
O O11 0.125536 0.058419 0.759139
O O12 0.881757 0.545368 0.381603
O O13 0.551062 0.682051 0.213228
O O14 0.799857 0.531449 0.223415
O O15 0.611617 0.752829 0.088948
O O16 0.500000 0.500000 0.000000
O O17 0.500000 0.500000 0.500000
#
# Coordination Sequence:
#
# PCOD9251819 Si02
#       8
#     4   4   4   4   4   4   4   4
#     4  11  22  43  70 102 139 191 238 296 371 436
#     4  11  25  44  72 106 149 187 244 301 379 447
#     4  12  29  46  73 110 148 192 245 317 372 448
#     4  11  23  40  72 105 139 197 233 300 369 444
#     4  12  29  49  77 106 146 201 256 308 381 454
#     4  11  22  47  73 103 146 195 247 299 370 448
#     4  12  24  43  71 105 148 185 240 303 370 445
#     4  12  29  49  75 109 150 200 257 312 382 445
#
# _framework density 22.440099
#
# number of rings (size 3 to 8) (size 9 to 14) (size 15 to 20)
#    0.000    0.500    2.500    5.625   10.500    1.000 
#    0.000    0.000    0.000    0.000    0.000    0.000 
#    0.000    0.000    0.000    0.000    0.000    0.000 
#
# Total GULP energy -178902.700084 kJ/mol
# GULP energy per Si atom -5590.709378 kJ/mol
# Density = 2.238902 g / cm^3
# Si number density = 22.440099 Si / 1000 Ang^3
#
#
#
# Elastic Constant Matrix: (Units=GPa)
#
#
# Indices 1 2 3 4 5 6 
#
# 1 79.9987 -8.7907 0.0840 0.0000 10.9065 0.0000
# 2 -8.7907 62.3072 30.9705 0.0000 -3.8960 0.0000
# 3 0.0840 30.9705 68.4931 0.0000 -4.8612 0.0000
# 4 0.0000 0.0000 0.0000 25.8091 0.0000 7.2740
# 5 10.9065 -3.8960 -4.8612 0.0000 34.0014 0.0000
# 6 0.0000 0.0000 0.0000 7.2740 0.0000 19.4960
#
#
#
# Elastic Compliance Matrix: (Units=1/GPa)
#
#
# Indices 1 2 3 4 5 6 
#
# 1 0.013326 0.002288 -0.001349 0.000000 -0.004205 0.000000
# 2 0.002288 0.021132 -0.009535 0.000000 0.000324 0.000000
# 3 -0.001349 -0.009535 0.019060 0.000000 0.002065 0.000000
# 4 0.000000 0.000000 0.000000 0.043299 0.000000 -0.016155
# 5 -0.004205 0.000324 0.002065 0.000000 0.031092 0.000000
# 6 0.000000 0.000000 0.000000 -0.016155 0.000000 0.057320
#
#
# Mechanical properties :
#
#
# Convention : Reuss Voigt Hill
#
# Bulk Modulus (GPa) = 27.52915 28.36964 27.94939
# Shear Modulus (GPa) = 23.30668 28.43032 25.86850
#
# Velocity S-wave (km/s) = 3.22626 3.56328 3.39895
# Velocity P-wave (km/s) = 5.11593 5.44050 5.28071
#
# Compressibility (1/GPa) = 0.03632514
#
# Stress axis : x y z
#
# Youngs Moduli (GPa) = 75.03921 47.32139 52.46671
#
# Poissons Ratio (x) = -0.10827 0.07080
# Poissons Ratio (y) = -0.17168 0.50027
# Poissons Ratio (z) = 0.10125 0.45121
#
# Static dielectric constant tensor:
#      x y z
#    x 1.850930 0.000000 -0.002260 
#    y 0.000000 1.831600 0.000000 
#    z -0.002260 0.000000 1.973830 
# 
# From -- ./inp_files/67436.got.cif
#   From: 2010.05.17/outbox.cif.g08.bks.cpg/sg14_34_cif.got.tgz:67436.got - 2010.06.03 17:49:19.
