data_PCOD9251514
_publ_section_title
;
Structure prediction by ZEFSAII (Michael W. Deem and Ramdas Pophale) SiO2 
 PCOD9251514
Probable space group: P 21/C
;
_chemical_formula_sum "Si O2"
_cell_formula_units_Z 26
_cell_length_a 21.175328
_cell_length_b 9.178197
_cell_length_c 16.857171
_cell_angle_alpha 90.000000
_cell_angle_beta 21.188252
_cell_angle_gamma 90.000000
_cell_volume 1184.133026
_symmetry_space_group_name_H-M "P 21/C"
_symmetry_group_IT_number 14
_symmetry_cell_setting 'monoclinic'
loop_
_space_group_symop_operation_xyz
x,y,z
-x,1/2+y,1/2-z
-x,-y,-z
x,1/2-y,1/2+z
loop_
_atom_site_type_symbol
_atom_site_label
_atom_site_fract_x
_atom_site_fract_y
_atom_site_fract_z
Si Si1 0.147872 0.459584 0.623505
Si Si2 0.957238 0.776481 0.617996
Si Si3 0.459512 0.598375 0.828874
Si Si4 0.907892 0.974854 0.988341
Si Si5 0.500000 0.500000 0.000000
Si Si6 0.563264 0.709540 0.072239
Si Si7 0.838886 0.214956 0.766326
O O1 0.028893 0.349608 0.812339
O O2 0.337490 0.388018 0.385761
O O3 0.074956 0.506398 0.625188
O O4 0.182277 0.591744 0.643368
O O5 0.005691 0.607462 0.566277
O O6 0.091977 0.844886 0.397906
O O7 0.752197 0.782427 0.835681
O O8 0.411493 0.428952 0.896692
O O9 0.448561 0.671011 0.754624
O O10 0.338179 0.690557 0.030452
O O11 0.011173 0.826507 0.882388
O O12 0.707844 0.964915 0.248429
O O13 0.482517 0.632602 0.089922
#
# Coordination Sequence:
#
# PCOD9251514 Si02
#       7
#     4   4   4   4   2   4   4
#     4  11  25  41  62  94 132 161 207 266 317 369
#     4  11  24  41  66  93 124 167 209 257 316 376
#     4  11  21  40  64  92 124 172 205 254 317 380
#     4  12  23  39  66  90 125 166 212 257 309 375
#     4  12  22  40  62  98 120 164 216 266 300 372
#     4  11  22  41  66  92 127 165 212 255 317 374
#     4  12  22  41  65  94 121 169 211 258 310 381
#
# _framework density 21.956994000000002
#
# number of rings (size 3 to 8) (size 9 to 14) (size 15 to 20)
#    0.000    0.615    6.154    2.769    0.000    0.000 
#    0.000    0.000    0.000    1.846    0.000    0.000 
#    0.000    0.000    0.000    0.000    0.000    0.000 
#
# Total GULP energy -144819.265664 kJ/mol
# GULP energy per Si atom -5569.971756 kJ/mol
# Density = 2.190702 g / cm^3
# Si number density = 21.956994 Si / 1000 Ang^3
#
#
#
# Elastic Constant Matrix: (Units=GPa)
#
#
# Indices 1 2 3 4 5 6 
#
# 1 48.2725 1.9316 14.1437 0.0000 11.5678 0.0000
# 2 1.9316 69.4001 18.0439 0.0000 0.2229 0.0000
# 3 14.1437 18.0439 143.1101 0.0000 9.5554 0.0000
# 4 0.0000 0.0000 0.0000 24.8885 0.0000 5.8228
# 5 11.5678 0.2229 9.5554 0.0000 18.8465 0.0000
# 6 0.0000 0.0000 0.0000 5.8228 0.0000 30.9103
#
#
#
# Elastic Compliance Matrix: (Units=1/GPa)
#
#
# Indices 1 2 3 4 5 6 
#
# 1 0.024589 -0.000264 -0.001438 0.000000 -0.014360 0.000000
# 2 -0.000264 0.014912 -0.001918 0.000000 0.000958 0.000000
# 3 -0.001438 -0.001918 0.007567 0.000000 -0.002931 0.000000
# 4 0.000000 0.000000 0.000000 0.042032 0.000000 -0.007918
# 5 -0.014360 0.000958 -0.002931 0.000000 0.063349 0.000000
# 6 0.000000 0.000000 0.000000 -0.007918 0.000000 0.033843
#
#
# Mechanical properties :
#
#
# Convention : Reuss Voigt Hill
#
# Bulk Modulus (GPa) = 25.10829 36.55790 30.83309
# Shear Modulus (GPa) = 24.17689 30.03996 27.10843
#
# Velocity S-wave (km/s) = 3.32189 3.70283 3.51752
# Velocity P-wave (km/s) = 5.11598 5.91331 5.52904
#
# Compressibility (1/GPa) = 0.03982748
#
# Stress axis : x y z
#
# Youngs Moduli (GPa) = 40.66884 67.05929 132.14738
#
# Poissons Ratio (x) = 0.01773 0.19003
# Poissons Ratio (y) = 0.01075 0.25346
# Poissons Ratio (z) = 0.05848 0.12862
#
# Static dielectric constant tensor:
#      x y z
#    x 1.832890 0.000000 0.058990 
#    y 0.000000 1.821740 0.000000 
#    z 0.058990 0.000000 1.832130 
# 
# From -- ./inp_files/61771.got.cif
#   From: 2010.05.17/outbox.cif.g08.bks.cpg/sg14_31_cif.got.tgz:61771.got - 2010.06.03 17:49:19.
