data_PCOD9251147
_publ_section_title
;
Structure prediction by ZEFSAII (Michael W. Deem and Ramdas Pophale) SiO2 
 PCOD9251147
Probable space group: P 21/C
;
_chemical_formula_sum "Si O2"
_cell_formula_units_Z 32
_cell_length_a 18.947312
_cell_length_b 10.050375
_cell_length_c 18.498645
_cell_angle_alpha 90.000000
_cell_angle_beta 158.167541
_cell_angle_gamma 90.000000
_cell_volume 1310.052511
_symmetry_space_group_name_H-M "P 21/C"
_symmetry_group_IT_number 14
_symmetry_cell_setting 'monoclinic'
loop_
_space_group_symop_operation_xyz
x,y,z
-x,1/2+y,1/2-z
-x,-y,-z
x,1/2-y,1/2+z
loop_
_atom_site_type_symbol
_atom_site_label
_atom_site_fract_x
_atom_site_fract_y
_atom_site_fract_z
Si Si1 0.653293 0.402472 0.940486
Si Si2 0.323601 0.785617 0.268663
Si Si3 0.688562 0.818473 0.549138
Si Si4 0.792832 0.564188 0.304432
Si Si5 0.594243 0.090426 0.027813
Si Si6 0.300756 0.240203 0.654618
Si Si7 0.891407 0.163748 0.210526
Si Si8 0.912855 0.233937 0.586372
O O1 0.446288 0.331942 0.745590
O O2 0.649515 0.554447 0.961342
O O3 0.782048 0.307356 0.115542
O O4 0.781866 0.384242 0.991372
O O5 0.495746 0.741528 0.380728
O O6 0.337462 0.713022 0.357185
O O7 0.339866 0.941777 0.298528
O O8 0.139222 0.759247 0.045506
O O9 0.745540 0.877204 0.681646
O O10 0.862746 0.727564 0.690979
O O11 0.770070 0.672979 0.344682
O O12 0.000000 0.500000 0.500000
O O13 0.781738 0.061772 0.158087
O O14 0.434155 0.128358 0.817409
O O15 0.500000 0.000000 0.000000
O O16 0.110390 0.185473 0.437263
O O17 0.863355 0.145958 0.096820
#
# Coordination Sequence:
#
# PCOD9251147 Si02
#       8
#     4   4   4   4   4   4   4   4
#     4   9  22  42  61  93 132 175 213 262 340 402
#     4  12  24  42  67 102 135 170 227 287 340 400
#     4  12  22  40  66 100 132 170 218 281 344 397
#     4  12  21  37  72 107 131 159 216 297 347 390
#     4  11  25  46  67  94 135 184 235 276 327 406
#     4  11  20  43  71  96 130 176 224 277 346 400
#     4   9  23  44  66  93 134 180 222 264 339 409
#     4  10  26  42  59  99 137 169 222 273 331 417
#
# _framework density 24.426501999999999
#
# number of rings (size 3 to 8) (size 9 to 14) (size 15 to 20)
#    0.750    0.500    3.750    3.375    1.750    0.500 
#    6.750    0.000    0.000    0.000    0.000    0.000 
#    0.000    0.000    0.000    0.000    0.000    0.000 
#
# Total GULP energy -178717.756946 kJ/mol
# GULP energy per Si atom -5584.929905 kJ/mol
# Density = 2.437091 g / cm^3
# Si number density = 24.426502 Si / 1000 Ang^3
#
#
#
# Elastic Constant Matrix: (Units=GPa)
#
#
# Indices 1 2 3 4 5 6 
#
# 1 61.8800 20.3600 21.9626 0.0000 12.3732 0.0000
# 2 20.3600 48.8471 17.4686 0.0000 0.8995 0.0000
# 3 21.9626 17.4686 156.1499 0.0000 20.5543 0.0000
# 4 0.0000 0.0000 0.0000 7.4808 0.0000 7.4051
# 5 12.3732 0.8995 20.5543 0.0000 51.8772 0.0000
# 6 0.0000 0.0000 0.0000 7.4051 0.0000 36.1394
#
#
#
# Elastic Compliance Matrix: (Units=1/GPa)
#
#
# Indices 1 2 3 4 5 6 
#
# 1 0.020035 -0.007771 -0.001411 0.000000 -0.004085 0.000000
# 2 -0.007771 0.024357 -0.001920 0.000000 0.002192 0.000000
# 3 -0.001411 -0.001920 0.007141 0.000000 -0.002460 0.000000
# 4 0.000000 0.000000 0.000000 0.167689 0.000000 -0.034360
# 5 -0.004085 0.002192 -0.002460 0.000000 0.021187 0.000000
# 6 0.000000 0.000000 0.000000 -0.034360 0.000000 0.034711
#
#
# Mechanical properties :
#
#
# Convention : Reuss Voigt Hill
#
# Bulk Modulus (GPa) = 34.09613 42.93992 38.51802
# Shear Modulus (GPa) = 16.28131 32.90521 24.59326
#
# Velocity S-wave (km/s) = 2.58455 3.67428 3.17650
# Velocity P-wave (km/s) = 4.78492 5.96807 5.40894
#
# Compressibility (1/GPa) = 0.02932884
#
# Stress axis : x y z
#
# Youngs Moduli (GPa) = 49.91369 41.05521 140.03354
#
# Poissons Ratio (x) = 0.31903 0.19757
# Poissons Ratio (y) = 0.38787 0.26893
# Poissons Ratio (z) = 0.07042 0.07884
#
# Static dielectric constant tensor:
#      x y z
#    x 1.955500 0.000000 0.131350 
#    y 0.000000 1.970010 0.000000 
#    z 0.131350 0.000000 1.676750 
# 
# From -- ./inp_files/69924.got.cif
#   From: 2010.05.17/outbox.cif.g08.bks.cpg/sg14_35_cif.got.tgz:69924.got - 2010.06.03 17:49:19.
