data_PCOD9251089
_publ_section_title
;
Structure prediction by ZEFSAII (Michael W. Deem and Ramdas Pophale) SiO2 
 PCOD9251089
Probable space group: P 21/C
;
_chemical_formula_sum "Si O2"
_cell_formula_units_Z 28
_cell_length_a 6.815461
_cell_length_b 10.648642
_cell_length_c 19.231919
_cell_angle_alpha 90.000000
_cell_angle_beta 119.304406
_cell_angle_gamma 90.000000
_cell_volume 1217.150624
_symmetry_space_group_name_H-M "P 21/C"
_symmetry_group_IT_number 14
_symmetry_cell_setting 'monoclinic'
loop_
_space_group_symop_operation_xyz
x,y,z
-x,1/2+y,1/2-z
-x,-y,-z
x,1/2-y,1/2+z
loop_
_atom_site_type_symbol
_atom_site_label
_atom_site_fract_x
_atom_site_fract_y
_atom_site_fract_z
Si Si1 0.226709 0.099276 0.861679
Si Si2 0.355350 0.755225 0.063761
Si Si3 0.155018 0.622484 0.806634
Si Si4 0.139400 0.984950 0.093513
Si Si5 0.558880 0.133842 0.176114
Si Si6 0.994744 0.597423 0.932342
Si Si7 0.553378 0.475379 0.824590
O O1 0.414355 0.189639 0.928417
O O2 0.083487 0.153870 0.771561
O O3 0.042119 0.051851 0.882105
O O4 0.351021 0.976276 0.856929
O O5 0.292370 0.860164 0.109867
O O6 0.420311 0.625095 0.110173
O O7 0.134341 0.720069 0.981077
O O8 0.316970 0.743393 0.830058
O O9 0.114461 0.570818 0.877914
O O10 0.298782 0.523729 0.785548
O O11 0.291206 0.108373 0.130129
O O12 0.000000 0.000000 0.000000
O O13 0.620415 0.096803 0.265913
O O14 0.730621 0.588824 0.867049
O O15 0.000000 0.500000 0.000000
#
# Coordination Sequence:
#
# PCOD9251089 Si02
#       7
#     4   4   4   4   4   4   4
#     4  11  25  45  70 103 145 191 239 299 370 433
#     4  10  26  44  71 101 144 185 240 301 366 434
#     4  12  26  42  78 105 139 199 240 302 375 441
#     4  11  26  45  69 100 145 192 237 307 364 433
#     4  11  26  43  69 108 140 185 248 296 367 444
#     4  10  25  47  71 108 145 186 245 303 367 439
#     4  11  24  46  71 103 146 182 246 304 369 433
#
# _framework density 23.004546999999999
#
# number of rings (size 3 to 8) (size 9 to 14) (size 15 to 20)
#    0.000    1.143    2.857    0.857   10.000    5.714 
#    0.000    0.000    0.000    0.000    0.000    0.000 
#    0.000    0.000    0.000    0.000    0.000    0.000 
#
# Total GULP energy -156120.267063 kJ/mol
# GULP energy per Si atom -5575.723824 kJ/mol
# Density = 2.295219 g / cm^3
# Si number density = 23.004547 Si / 1000 Ang^3
#
#
#
# Elastic Constant Matrix: (Units=GPa)
#
#
# Indices 1 2 3 4 5 6 
#
# 1 110.1008 52.1048 29.4513 0.0000 -1.2777 0.0000
# 2 52.1048 74.9700 17.5242 0.0000 10.8946 0.0000
# 3 29.4513 17.5242 78.2292 0.0000 5.8566 0.0000
# 4 0.0000 0.0000 0.0000 74.2203 0.0000 16.3982
# 5 -1.2777 10.8946 5.8566 0.0000 38.4132 0.0000
# 6 0.0000 0.0000 0.0000 16.3982 0.0000 28.4422
#
#
#
# Elastic Compliance Matrix: (Units=1/GPa)
#
#
# Indices 1 2 3 4 5 6 
#
# 1 0.014850 -0.010037 -0.003634 0.000000 0.003895 0.000000
# 2 -0.010037 0.021356 -0.000533 0.000000 -0.006310 0.000000
# 3 -0.003634 -0.000533 0.014433 0.000000 -0.002170 0.000000
# 4 0.000000 0.000000 0.000000 0.015440 0.000000 -0.008902
# 5 0.003895 -0.006310 -0.002170 0.000000 0.028283 0.000000
# 6 0.000000 0.000000 0.000000 -0.008902 0.000000 0.040291
#
#
# Mechanical properties :
#
#
# Convention : Reuss Voigt Hill
#
# Bulk Modulus (GPa) = 44.98219 51.27339 48.12779
# Shear Modulus (GPa) = 29.33040 39.16313 34.24677
#
# Velocity S-wave (km/s) = 3.57456 4.13050 3.86255
# Velocity P-wave (km/s) = 6.05250 6.71452 6.39209
#
# Compressibility (1/GPa) = 0.02223102
#
# Stress axis : x y z
#
# Youngs Moduli (GPa) = 67.34019 46.82467 69.28675
#
# Poissons Ratio (x) = 0.47000 0.25177
# Poissons Ratio (y) = 0.67593 0.03692
# Poissons Ratio (z) = 0.24469 0.02495
#
# Static dielectric constant tensor:
#      x y z
#    x 1.865240 0.000000 -0.014190 
#    y 0.000000 1.866970 0.000000 
#    z -0.014190 0.000000 1.879060 
# 
# From -- ./inp_files/63611.got.cif
#   From: 2010.05.17/outbox.cif.g08.bks.cpg/sg14_32_cif.got.tgz:63611.got - 2010.06.03 17:49:19.
