data_PCOD9251478
_publ_section_title
;
Structure prediction by ZEFSAII (Michael W. Deem and Ramdas Pophale) SiO2 
 PCOD9251478
Probable space group: P 21/C
;
_chemical_formula_sum "Si O2"
_cell_formula_units_Z 32
_cell_length_a 17.735667
_cell_length_b 13.047201
_cell_length_c 9.856673
_cell_angle_alpha 90.000000
_cell_angle_beta 41.849591
_cell_angle_gamma 90.000000
_cell_volume 1521.726440
_symmetry_space_group_name_H-M "P 21/C"
_symmetry_group_IT_number 14
_symmetry_cell_setting 'monoclinic'
loop_
_space_group_symop_operation_xyz
x,y,z
-x,1/2+y,1/2-z
-x,-y,-z
x,1/2-y,1/2+z
loop_
_atom_site_type_symbol
_atom_site_label
_atom_site_fract_x
_atom_site_fract_y
_atom_site_fract_z
Si Si1 0.744920 0.029224 0.600197
Si Si2 0.990878 0.976467 0.288572
Si Si3 0.753226 0.230248 0.466883
Si Si4 0.579175 0.841943 0.825661
Si Si5 0.910101 0.651527 0.154512
Si Si6 0.355794 0.929000 0.987706
Si Si7 0.356668 0.158668 0.954166
Si Si8 0.901934 0.194073 0.008729
O O1 0.691669 0.127767 0.599074
O O2 0.740176 0.050614 0.768708
O O3 0.874729 0.019460 0.383393
O O4 0.677666 0.925233 0.665467
O O5 0.949149 0.892625 0.456334
O O6 0.067259 0.920391 0.076207
O O7 0.057941 0.063334 0.279805
O O8 0.681269 0.334067 0.554177
O O9 0.851922 0.251438 0.442621
O O10 0.807244 0.207169 0.249368
O O11 0.600733 0.738066 0.714498
O O12 0.582791 0.824456 0.982043
O O13 0.465152 0.894815 0.925701
O O14 0.777489 0.674078 0.340207
O O15 0.985986 0.748938 0.090193
O O16 0.373460 0.038719 0.894303
#
# Coordination Sequence:
#
# PCOD9251478 Si02
#       8
#     4   4   4   4   4   4   4   4
#     4  11  22  46  65  99 134 175 223 272 327 408
#     4  11  21  39  65  95 130 176 217 256 328 394
#     4  12  24  42  65 101 133 173 227 272 324 395
#     4  11  26  44  71  97 130 176 224 279 339 386
#     4  11  21  38  66  89 136 175 209 258 327 404
#     4  11  24  44  76  89 132 182 223 273 340 391
#     4  11  24  46  66 101 131 173 223 271 333 404
#     4  12  24  39  65  99 132 176 218 267 324 401
#
# _framework density 21.028746999999999
#
# number of rings (size 3 to 8) (size 9 to 14) (size 15 to 20)
#    0.000    0.750    6.250    3.000    3.500    0.500 
#    4.500    0.625    0.000    0.000    0.000    0.000 
#    0.000    0.000    0.000    0.000    0.000    0.000 
#
# Total GULP energy -179001.277713 kJ/mol
# GULP energy per Si atom -5593.789929 kJ/mol
# Density = 2.098088 g / cm^3
# Si number density = 21.028747 Si / 1000 Ang^3
#
#
#
# Elastic Constant Matrix: (Units=GPa)
#
#
# Indices 1 2 3 4 5 6 
#
# 1 68.0727 33.2480 7.9975 0.0000 -9.7353 0.0000
# 2 33.2480 140.5742 20.0051 0.0000 19.6697 0.0000
# 3 7.9975 20.0051 31.7158 0.0000 -1.4241 0.0000
# 4 0.0000 0.0000 0.0000 22.9003 0.0000 -0.9525
# 5 -9.7353 19.6697 -1.4241 0.0000 24.6690 0.0000
# 6 0.0000 0.0000 0.0000 -0.9525 0.0000 36.4287
#
#
#
# Elastic Compliance Matrix: (Units=1/GPa)
#
#
# Indices 1 2 3 4 5 6 
#
# 1 0.019702 -0.006411 -0.000347 0.000000 0.012867 0.000000
# 2 -0.006411 0.011114 -0.005921 0.000000 -0.011734 0.000000
# 3 -0.000347 -0.005921 0.035650 0.000000 0.006642 0.000000
# 4 0.000000 0.000000 0.000000 0.043715 0.000000 0.001143
# 5 0.012867 -0.011734 0.006642 0.000000 0.055354 0.000000
# 6 0.000000 0.000000 0.000000 0.001143 0.000000 0.027481
#
#
# Mechanical properties :
#
#
# Convention : Reuss Voigt Hill
#
# Bulk Modulus (GPa) = 24.32487 40.31821 32.32154
# Shear Modulus (GPa) = 21.54458 28.74041 25.14249
#
# Velocity S-wave (km/s) = 3.20430 3.70093 3.46153
# Velocity P-wave (km/s) = 5.02818 6.12185 5.60177
#
# Compressibility (1/GPa) = 0.04111018
#
# Stress axis : x y z
#
# Youngs Moduli (GPa) = 50.75553 89.97334 28.05023
#
# Poissons Ratio (x) = 0.57682 0.00972
# Poissons Ratio (y) = 0.32539 0.16608
# Poissons Ratio (z) = 0.01759 0.53271
#
# Static dielectric constant tensor:
#      x y z
#    x 1.753500 0.000000 -0.013180 
#    y 0.000000 1.791580 0.000000 
#    z -0.013180 0.000000 1.733910 
# 
# From -- ./inp_files/33926.got.cif
#   From: 2010.05.17/outbox.cif.g08.bks.cpg/sg14_17_cif.got.tgz:33926.got - 2010.06.03 17:49:19.
