data_PCOD9251599
_publ_section_title
;
Structure prediction by ZEFSAII (Michael W. Deem and Ramdas Pophale) SiO2 
 PCOD9251599
Probable space group: P 21/C
;
_chemical_formula_sum "Si O2"
_cell_formula_units_Z 24
_cell_length_a 8.098273
_cell_length_b 9.428924
_cell_length_c 27.665729
_cell_angle_alpha 90.000000
_cell_angle_beta 35.047758
_cell_angle_gamma 90.000000
_cell_volume 1213.122056
_symmetry_space_group_name_H-M "P 21/C"
_symmetry_group_IT_number 14
_symmetry_cell_setting 'monoclinic'
loop_
_space_group_symop_operation_xyz
x,y,z
-x,1/2+y,1/2-z
-x,-y,-z
x,1/2-y,1/2+z
loop_
_atom_site_type_symbol
_atom_site_label
_atom_site_fract_x
_atom_site_fract_y
_atom_site_fract_z
Si Si1 0.540169 0.238043 0.605778
Si Si2 0.667455 0.839635 0.169190
Si Si3 0.178958 0.259109 0.975169
Si Si4 0.739707 0.023589 0.982659
Si Si5 0.378496 0.526471 0.082564
Si Si6 0.721024 0.883914 0.737955
O O1 0.617879 0.366346 0.551115
O O2 0.379765 0.116925 0.614042
O O3 0.367313 0.300602 0.692292
O O4 0.853230 0.183930 0.548848
O O5 0.710951 0.784127 0.104315
O O6 0.616463 0.711211 0.218015
O O7 0.431490 0.962933 0.226893
O O8 0.973541 0.910726 0.109069
O O9 0.399737 0.368071 0.945046
O O10 0.174687 0.119059 0.009598
O O11 0.500000 0.000000 0.000000
O O12 0.062136 0.592143 0.154645
O O13 0.500000 0.500000 0.000000
#
# Coordination Sequence:
#
# PCOD9251599 Si02
#       6
#     4   4   4   4   4   4
#     4  11  24  45  70 100 136 178 231 285 340 411
#     4  11  25  44  66 100 135 180 229 283 347 414
#     4  11  22  47  70  96 136 185 229 276 351 416
#     4  11  21  43  73  96 132 181 230 273 343 412
#     4  12  28  44  69 105 141 180 232 284 353 412
#     4  12  27  44  68 105 138 180 234 289 347 406
#
# _framework density 19.783666
#
# number of rings (size 3 to 8) (size 9 to 14) (size 15 to 20)
#    0.000    0.667    3.333    5.500    7.000    2.667 
#    0.000    0.000    0.000    0.000    0.000    0.000 
#    0.000    0.000    0.000    0.000    0.000    0.000 
#
# Total GULP energy -134313.493791 kJ/mol
# GULP energy per Si atom -5596.395575 kJ/mol
# Density = 1.973864 g / cm^3
# Si number density = 19.783666 Si / 1000 Ang^3
#
#
#
# Elastic Constant Matrix: (Units=GPa)
#
#
# Indices 1 2 3 4 5 6 
#
# 1 108.9402 38.1162 49.4339 0.0000 -8.2409 0.0000
# 2 38.1162 82.5283 39.0092 0.0000 3.2189 0.0000
# 3 49.4339 39.0092 125.0411 0.0000 -1.7258 0.0000
# 4 0.0000 0.0000 0.0000 20.3514 0.0000 -0.5088
# 5 -8.2409 3.2189 -1.7258 0.0000 20.0950 0.0000
# 6 0.0000 0.0000 0.0000 -0.5088 0.0000 35.3674
#
#
#
# Elastic Compliance Matrix: (Units=1/GPa)
#
#
# Indices 1 2 3 4 5 6 
#
# 1 0.012787 -0.004426 -0.003597 0.000000 0.005644 0.000000
# 2 -0.004426 0.015888 -0.003271 0.000000 -0.004641 0.000000
# 3 -0.003597 -0.003271 0.010439 0.000000 -0.000054 0.000000
# 4 0.000000 0.000000 0.000000 0.049154 0.000000 0.000707
# 5 0.005644 -0.004641 -0.000054 0.000000 0.052817 0.000000
# 6 0.000000 0.000000 0.000000 0.000707 0.000000 0.028285
#
#
# Mechanical properties :
#
#
# Convention : Reuss Voigt Hill
#
# Bulk Modulus (GPa) = 60.50594 63.29201 61.89897
# Shear Modulus (GPa) = 25.32085 27.82613 26.57349
#
# Velocity S-wave (km/s) = 3.58143 3.75443 3.66895
# Velocity P-wave (km/s) = 6.91031 7.13133 7.02169
#
# Compressibility (1/GPa) = 0.01652730
#
# Stress axis : x y z
#
# Youngs Moduli (GPa) = 78.20573 62.93943 95.79518
#
# Poissons Ratio (x) = 0.27856 0.34453
# Poissons Ratio (y) = 0.34612 0.31335
# Poissons Ratio (z) = 0.28127 0.20588
#
# Static dielectric constant tensor:
#      x y z
#    x 1.691150 0.000000 -0.006370 
#    y 0.000000 1.700090 0.000000 
#    z -0.006370 0.000000 1.663790 
# 
# From -- ./inp_files/79447.got.cif
#   From: 2010.05.17/outbox.cif.g08.bks.cpg/sg14_40_cif.got.tgz:79447.got - 2010.06.03 17:49:19.
