data_PCOD9251603
_publ_section_title
;
Structure prediction by ZEFSAII (Michael W. Deem and Ramdas Pophale) SiO2 
 PCOD9251603
Probable space group: P 21/C
;
_chemical_formula_sum "Si O2"
_cell_formula_units_Z 28
_cell_length_a 10.163865
_cell_length_b 9.480007
_cell_length_c 19.233485
_cell_angle_alpha 90.000000
_cell_angle_beta 142.556671
_cell_angle_gamma 90.000000
_cell_volume 1126.710318
_symmetry_space_group_name_H-M "P 21/C"
_symmetry_group_IT_number 14
_symmetry_cell_setting 'monoclinic'
loop_
_space_group_symop_operation_xyz
x,y,z
-x,1/2+y,1/2-z
-x,-y,-z
x,1/2-y,1/2+z
loop_
_atom_site_type_symbol
_atom_site_label
_atom_site_fract_x
_atom_site_fract_y
_atom_site_fract_z
Si Si1 0.786450 0.448976 0.524506
Si Si2 0.423897 0.221141 0.076074
Si Si3 0.761036 0.495957 0.933903
Si Si4 0.478523 0.261956 0.816350
Si Si5 0.941265 0.814753 0.354172
Si Si6 0.830563 0.049314 0.204481
Si Si7 0.338009 0.122915 0.405478
O O1 0.763838 0.606746 0.486874
O O2 0.623192 0.361222 0.408288
O O3 0.744216 0.455369 0.589540
O O4 0.993356 0.348192 0.610881
O O5 0.364677 0.366954 0.090347
O O6 0.400642 0.255403 0.984887
O O7 0.662707 0.146571 0.178699
O O8 0.847107 0.402829 0.036755
O O9 0.608932 0.382490 0.830623
O O10 0.000000 0.500000 0.000000
O O11 0.280158 0.185815 0.694271
O O12 0.388383 0.344942 0.846428
O O13 0.859278 0.894831 0.250593
O O14 0.079584 0.101452 0.305782
O O15 0.500000 0.000000 0.500000
#
# Coordination Sequence:
#
# PCOD9251603 Si02
#       7
#     4   4   4   4   4   4   4
#     4  11  23  37  65 103 141 179 216 278 353 435
#     4  12  24  41  67 104 135 179 238 285 338 424
#     4  11  27  51  69  93 137 184 247 306 340 395
#     4  11  21  44  66  94 140 178 224 280 361 423
#     4  11  23  43  66  95 139 182 221 286 354 412
#     4  12  23  36  66 103 147 178 219 276 354 439
#     4  12  22  38  65 105 143 178 214 279 361 427
#
# _framework density 24.851106999999999
#
# number of rings (size 3 to 8) (size 9 to 14) (size 15 to 20)
#    0.000    0.571    7.143    2.143    0.000    1.143 
#    2.571    2.857    0.000    0.000    0.000    0.000 
#    0.000    0.000    0.000    0.000    0.000    0.000 
#
# Total GULP energy -155994.760439 kJ/mol
# GULP energy per Si atom -5571.241444 kJ/mol
# Density = 2.479454 g / cm^3
# Si number density = 24.851107 Si / 1000 Ang^3
#
#
#
# Elastic Constant Matrix: (Units=GPa)
#
#
# Indices 1 2 3 4 5 6 
#
# 1 55.5944 1.0941 13.5971 0.0000 11.8399 0.0000
# 2 1.0941 137.8738 41.2845 0.0000 23.8002 0.0000
# 3 13.5971 41.2845 111.1004 0.0000 35.2362 0.0000
# 4 0.0000 0.0000 0.0000 50.0743 0.0000 28.1261
# 5 11.8399 23.8002 35.2362 0.0000 30.8530 0.0000
# 6 0.0000 0.0000 0.0000 28.1261 0.0000 11.9964
#
#
#
# Elastic Compliance Matrix: (Units=1/GPa)
#
#
# Indices 1 2 3 4 5 6 
#
# 1 0.019804 0.001367 -0.000293 0.000000 -0.008319 0.000000
# 2 0.001367 0.008663 -0.001726 0.000000 -0.005236 0.000000
# 3 -0.000293 -0.001726 0.014456 0.000000 -0.015067 0.000000
# 4 0.000000 0.000000 0.000000 -0.063018 0.000000 0.147748
# 5 -0.008319 -0.005236 -0.015067 0.000000 0.056851 0.000000
# 6 0.000000 0.000000 0.000000 0.147748 0.000000 -0.263043
#
#
# Mechanical properties :
#
#
# Convention : Reuss Voigt Hill
#
# Bulk Modulus (GPa) = 24.02733 46.28003 35.15368
# Shear Modulus (GPa) = -23.68429 35.15762 5.73666
#
# Velocity S-wave (km/s) = -3.09050 3.76537 1.52099
# Velocity P-wave (km/s) = 1.74510 6.12922 4.15464
#
# Compressibility (1/GPa) = 0.04161927
#
# Stress axis : x y z
#
# Youngs Moduli (GPa) = 50.49498 115.43651 69.17334
#
# Poissons Ratio (x) = -0.15777 0.02027
# Poissons Ratio (y) = -0.06901 0.11937
# Poissons Ratio (z) = 0.01480 0.19920
#
# Static dielectric constant tensor:
#      x y z
#    x 2.100190 0.000000 -0.016240 
#    y 0.000000 2.134790 0.000000 
#    z -0.016240 0.000000 2.173670 
# 
# From -- ./inp_files/77158.got.cif
#   From: 2010.05.17/outbox.cif.g08.bks.cpg/sg14_39_cif.got.tgz:77158.got - 2010.06.03 17:49:19.
