data_PCOD9251331
_publ_section_title
;
Structure prediction by ZEFSAII (Michael W. Deem and Ramdas Pophale) SiO2 
 PCOD9251331
Probable space group: P 21/C
;
_chemical_formula_sum "Si O2"
_cell_formula_units_Z 28
_cell_length_a 12.081974
_cell_length_b 7.140431
_cell_length_c 27.438692
_cell_angle_alpha 90.000000
_cell_angle_beta 26.638872
_cell_angle_gamma 90.000000
_cell_volume 1061.348551
_symmetry_space_group_name_H-M "P 21/C"
_symmetry_group_IT_number 14
_symmetry_cell_setting 'monoclinic'
loop_
_space_group_symop_operation_xyz
x,y,z
-x,1/2+y,1/2-z
-x,-y,-z
x,1/2-y,1/2+z
loop_
_atom_site_type_symbol
_atom_site_label
_atom_site_fract_x
_atom_site_fract_y
_atom_site_fract_z
Si Si1 0.896674 0.343190 0.739965
Si Si2 0.870777 0.880211 0.593043
Si Si3 0.705965 0.403538 0.451084
Si Si4 0.678471 0.850424 0.369453
Si Si5 0.319714 0.598898 0.274542
Si Si6 0.655853 0.661969 0.272696
Si Si7 0.841009 0.499861 0.505662
O O1 0.689656 0.426560 0.856589
O O2 0.761082 0.298906 0.743438
O O3 0.044375 0.540902 0.673961
O O4 0.101926 0.206815 0.679945
O O5 0.854256 0.929269 0.657375
O O6 0.022966 0.690654 0.533909
O O7 0.585767 0.849418 0.690109
O O8 0.000000 0.000000 0.500000
O O9 0.500000 0.500000 0.500000
O O10 0.596858 0.200160 0.503379
O O11 0.749068 0.499345 0.486146
O O12 0.692540 0.708148 0.315998
O O13 0.356749 0.377702 0.243733
O O14 0.087873 0.628505 0.402626
O O15 0.413904 0.528829 0.364799
#
# Coordination Sequence:
#
# PCOD9251331 Si02
#       7
#     4   4   4   4   4   4   4
#     4   9  17  32  53  77 109 141 182 225 285 339
#     4  11  20  32  54  77 108 147 188 235 282 327
#     4   8  15  30  56  82 106 139 181 227 284 348
#     4   9  17  32  55  79 105 141 179 232 280 346
#     4   9  18  32  51  77 106 144 183 233 280 335
#     4   9  18  33  53  79 101 139 192 230 281 340
#     4   9  17  32  54  79 107 141 190 233 279 344
#
# _framework density 26.381530000000001
#
# number of rings (size 3 to 8) (size 9 to 14) (size 15 to 20)
#    0.000    2.857    1.429    0.857    0.000    0.571 
#    0.000    3.571    0.000    3.429    0.000    0.000 
#    0.000    0.000    0.000    0.000    0.000    0.000 
#
# Total GULP energy -155924.225048 kJ/mol
# GULP energy per Si atom -5568.722323 kJ/mol
# Density = 2.632148 g / cm^3
# Si number density = 26.381530 Si / 1000 Ang^3
#
#
#
# Elastic Constant Matrix: (Units=GPa)
#
#
# Indices 1 2 3 4 5 6 
#
# 1 155.5027 26.6331 44.4879 0.0000 -4.8690 0.0000
# 2 26.6331 58.0433 18.6597 0.0000 -0.5823 0.0000
# 3 44.4879 18.6597 107.6114 0.0000 -0.0079 0.0000
# 4 0.0000 0.0000 0.0000 35.8200 0.0000 -0.4582
# 5 -4.8690 -0.5823 -0.0079 0.0000 48.8263 0.0000
# 6 0.0000 0.0000 0.0000 -0.4582 0.0000 39.3037
#
#
#
# Elastic Compliance Matrix: (Units=1/GPa)
#
#
# Indices 1 2 3 4 5 6 
#
# 1 0.007684 -0.002645 -0.002718 0.000000 0.000734 0.000000
# 2 -0.002645 0.019158 -0.002229 0.000000 -0.000036 0.000000
# 3 -0.002718 -0.002229 0.010803 0.000000 -0.000296 0.000000
# 4 0.000000 0.000000 0.000000 0.027922 0.000000 0.000325
# 5 0.000734 -0.000036 -0.000296 0.000000 0.020554 0.000000
# 6 0.000000 0.000000 0.000000 0.000325 0.000000 0.025447
#
#
# Mechanical properties :
#
#
# Convention : Reuss Voigt Hill
#
# Bulk Modulus (GPa) = 44.51914 55.63545 50.07729
# Shear Modulus (GPa) = 37.24737 40.21510 38.73123
#
# Velocity S-wave (km/s) = 3.76157 3.90855 3.83576
# Velocity P-wave (km/s) = 5.98144 6.44233 6.21615
#
# Compressibility (1/GPa) = 0.02246225
#
# Stress axis : x y z
#
# Youngs Moduli (GPa) = 130.13446 52.19705 92.56830
#
# Poissons Ratio (x) = 0.13805 0.25161
# Poissons Ratio (y) = 0.34418 0.20630
# Poissons Ratio (z) = 0.35373 0.11633
#
# Static dielectric constant tensor:
#      x y z
#    x 2.092770 0.000000 0.083950 
#    y 0.000000 2.052270 0.000000 
#    z 0.083950 0.000000 2.221850 
# 
# From -- ./inp_files/43881.got.cif
#   From: 2010.05.17/outbox.cif.g08.bks.cpg/sg14_22_cif.got.tgz:43881.got - 2010.06.03 17:49:19.
