data_PCOD9251694
_publ_section_title
;
Structure prediction by ZEFSAII (Michael W. Deem and Ramdas Pophale) SiO2 
 PCOD9251694
Probable space group: P 21/C
;
_chemical_formula_sum "Si O2"
_cell_formula_units_Z 32
_cell_length_a 10.750324
_cell_length_b 7.861652
_cell_length_c 14.721042
_cell_angle_alpha 90.000000
_cell_angle_beta 102.956354
_cell_angle_gamma 90.000000
_cell_volume 1212.478648
_symmetry_space_group_name_H-M "P 21/C"
_symmetry_group_IT_number 14
_symmetry_cell_setting 'monoclinic'
loop_
_space_group_symop_operation_xyz
x,y,z
-x,1/2+y,1/2-z
-x,-y,-z
x,1/2-y,1/2+z
loop_
_atom_site_type_symbol
_atom_site_label
_atom_site_fract_x
_atom_site_fract_y
_atom_site_fract_z
Si Si1 0.853149 0.257369 0.484106
Si Si2 0.742276 0.611433 0.935918
Si Si3 0.771676 0.334547 0.657448
Si Si4 0.337384 0.292318 0.395829
Si Si5 0.835465 0.807081 0.775327
Si Si6 0.516187 0.290859 0.164132
Si Si7 0.411766 0.593244 0.623979
Si Si8 0.050205 0.677906 0.678672
O O1 0.870074 0.297540 0.592381
O O2 0.731501 0.370715 0.431653
O O3 0.965019 0.293885 0.431040
O O4 0.814410 0.062030 0.468169
O O5 0.810786 0.710864 0.865099
O O6 0.595478 0.578970 0.880267
O O7 0.726003 0.717820 0.025295
O O8 0.714271 0.520090 0.635854
O O9 0.649142 0.210978 0.631158
O O10 0.842884 0.306970 0.764053
O O11 0.297336 0.182181 0.301927
O O12 0.488506 0.318286 0.428384
O O13 0.928474 0.709176 0.720821
O O14 0.892997 0.992424 0.796875
O O15 0.559607 0.323556 0.274045
O O16 0.449072 0.105514 0.139243
#
# Coordination Sequence:
#
# PCOD9251694 Si02
#       8
#     4   4   4   4   4   4   4   4
#     4  12  25  42  66  98 134 173 218 265 321 386
#     4  12  25  42  66  98 134 173 218 265 321 386
#     4  11  24  43  67  98 133 171 217 267 323 385
#     4  11  24  43  67  98 133 171 217 267 323 385
#     4  12  26  46  70  95 128 169 218 271 326 384
#     4  11  22  38  65  97 134 173 215 264 323 386
#     4  11  22  38  65  97 134 173 215 264 323 386
#     4  12  26  46  70  95 128 169 218 271 326 384
#
# _framework density 26.392216999999999
#
# number of rings (size 3 to 8) (size 9 to 14) (size 15 to 20)
#    0.000    0.500    2.500    6.750    0.000    7.000 
#    0.000    5.000    0.000    0.000    0.000    0.000 
#    0.000    0.000    0.000    0.000    0.000    0.000 
#
# Total GULP energy -179689.765845 kJ/mol
# GULP energy per Si atom -5615.305183 kJ/mol
# Density = 2.633215 g / cm^3
# Si number density = 26.392217 Si / 1000 Ang^3
#
#
#
# Elastic Constant Matrix: (Units=GPa)
#
#
# Indices 1 2 3 4 5 6 
#
# 1 87.4106 0.6298 19.7727 0.0000 -23.5012 0.0000
# 2 0.6298 86.4711 18.7693 0.0000 -11.6465 0.0000
# 3 19.7727 18.7693 117.7317 0.0000 -26.3690 0.0000
# 4 0.0000 0.0000 0.0000 34.0158 0.0000 0.3732
# 5 -23.5012 -11.6465 -26.3690 0.0000 50.2909 0.0000
# 6 0.0000 0.0000 0.0000 0.3732 0.0000 31.3330
#
#
#
# Elastic Compliance Matrix: (Units=1/GPa)
#
#
# Indices 1 2 3 4 5 6 
#
# 1 0.013246 0.000921 -0.001062 0.000000 0.005846 0.000000
# 2 0.000921 0.012225 -0.001556 0.000000 0.002446 0.000000
# 3 -0.001062 -0.001556 0.009890 0.000000 0.004329 0.000000
# 4 0.000000 0.000000 0.000000 0.029402 0.000000 -0.000350
# 5 0.005846 0.002446 0.004329 0.000000 0.025453 0.000000
# 6 0.000000 0.000000 0.000000 -0.000350 0.000000 0.031919
#
#
# Mechanical properties :
#
#
# Convention : Reuss Voigt Hill
#
# Bulk Modulus (GPa) = 31.28166 41.10634 36.19400
# Shear Modulus (GPa) = 36.71521 39.95737 38.33629
#
# Velocity S-wave (km/s) = 3.73384 3.89521 3.81538
# Velocity P-wave (km/s) = 5.51970 5.98659 5.75788
#
# Compressibility (1/GPa) = 0.03196761
#
# Stress axis : x y z
#
# Youngs Moduli (GPa) = 75.49621 81.79958 101.11346
#
# Poissons Ratio (x) = -0.07538 0.10739
# Poissons Ratio (y) = -0.06957 0.15732
# Poissons Ratio (z) = 0.08018 0.12727
#
# Static dielectric constant tensor:
#      x y z
#    x 2.114140 0.000000 -0.004120 
#    y 0.000000 2.026420 0.000000 
#    z -0.004120 0.000000 2.022320 
# 
# From -- ./inp_files/43425.got.cif
#   From: 2010.05.17/outbox.cif.g08.bks.cpg/sg14_22_cif.got.tgz:43425.got - 2010.06.03 17:49:19.
