data_PCOD9251200
_publ_section_title
;
Structure prediction by ZEFSAII (Michael W. Deem and Ramdas Pophale) SiO2 
 PCOD9251200
Probable space group: P 21/C
;
_chemical_formula_sum "Si O2"
_cell_formula_units_Z 30
_cell_length_a 4.876244
_cell_length_b 22.890451
_cell_length_c 10.269423
_cell_angle_alpha 90.000000
_cell_angle_beta 86.762139
_cell_angle_gamma 90.000000
_cell_volume 1144.437251
_symmetry_space_group_name_H-M "P 21/C"
_symmetry_group_IT_number 14
_symmetry_cell_setting 'monoclinic'
loop_
_space_group_symop_operation_xyz
x,y,z
-x,1/2+y,1/2-z
-x,-y,-z
x,1/2-y,1/2+z
loop_
_atom_site_type_symbol
_atom_site_label
_atom_site_fract_x
_atom_site_fract_y
_atom_site_fract_z
Si Si1 0.368669 0.459305 0.677705
Si Si2 0.160449 0.918825 0.681746
Si Si3 0.544636 0.313250 0.237350
Si Si4 0.131859 0.242557 0.551506
Si Si5 0.000000 0.000000 0.500000
Si Si6 0.658416 0.290316 0.884582
Si Si7 0.780255 0.869494 0.036109
Si Si8 0.136731 0.920427 0.262660
O O1 0.682767 0.445113 0.699190
O O2 0.283059 0.424707 0.551900
O O3 0.314149 0.527699 0.691576
O O4 0.166730 0.431470 0.795901
O O5 0.256322 0.853431 0.665232
O O6 0.235208 0.956897 0.554796
O O7 0.721568 0.256758 0.271149
O O8 0.472965 0.340968 0.380671
O O9 0.690782 0.369249 0.173204
O O10 0.278035 0.289603 0.168552
O O11 0.340923 0.219347 0.430995
O O12 0.129380 0.313490 0.553574
O O13 0.835871 0.224509 0.506675
O O14 0.040520 0.046122 0.623991
O O15 0.968917 0.890473 0.150179
#
# Coordination Sequence:
#
# PCOD9251200 Si02
#       8
#     4   4   4   4   2   4   4   4
#     4  11  27  45  74 105 148 197 248 305 373 439
#     4  11  25  46  73 108 151 195 247 310 368 452
#     4  11  26  43  76 107 149 195 246 311 379 443
#     4  11  25  42  73 104 148 188 249 303 374 446
#     4  10  26  46  72 108 146 192 252 300 376 436
#     4  11  24  45  68 107 143 194 242 304 371 445
#     4  11  26  48  71 111 145 196 250 308 373 457
#     4  11  25  48  73 108 150 198 249 311 374 452
#
# _framework density 26.213754000000002
#
# number of rings (size 3 to 8) (size 9 to 14) (size 15 to 20)
#    0.000    1.067    1.333    2.800    9.333    4.800 
#    0.000    0.000    0.000    0.000    0.000    0.000 
#    0.000    0.000    0.000    0.000    0.000    0.000 
#
# Total GULP energy -167438.619726 kJ/mol
# GULP energy per Si atom -5581.287324 kJ/mol
# Density = 2.615409 g / cm^3
# Si number density = 26.213754 Si / 1000 Ang^3
#
#
#
# Elastic Constant Matrix: (Units=GPa)
#
#
# Indices 1 2 3 4 5 6 
#
# 1 48.9703 32.7301 19.9963 0.0000 17.9572 0.0000
# 2 32.7301 214.1140 71.6667 0.0000 11.5451 0.0000
# 3 19.9963 71.6667 95.2916 0.0000 33.3076 0.0000
# 4 0.0000 0.0000 0.0000 49.9614 0.0000 0.0246
# 5 17.9572 11.5451 33.3076 0.0000 33.0366 0.0000
# 6 0.0000 0.0000 0.0000 0.0246 0.0000 33.4177
#
#
#
# Elastic Compliance Matrix: (Units=1/GPa)
#
#
# Indices 1 2 3 4 5 6 
#
# 1 0.028443 -0.004615 0.003618 0.000000 -0.017495 0.000000
# 2 -0.004615 0.007341 -0.006999 0.000000 0.007000 0.000000
# 3 0.003618 -0.006999 0.022902 0.000000 -0.022610 0.000000
# 4 0.000000 0.000000 0.000000 0.020015 0.000000 -0.000015
# 5 -0.017495 0.007000 -0.022610 0.000000 0.060128 0.000000
# 6 0.000000 0.000000 0.000000 -0.000015 0.000000 0.029924
#
#
# Mechanical properties :
#
#
# Convention : Reuss Voigt Hill
#
# Bulk Modulus (GPa) = 23.42348 67.46247 45.44297
# Shear Modulus (GPa) = 25.12805 38.88198 32.00501
#
# Velocity S-wave (km/s) = 3.09946 3.85550 3.49796
# Velocity P-wave (km/s) = 4.66517 6.75361 5.80409
#
# Compressibility (1/GPa) = 0.04269221
#
# Stress axis : x y z
#
# Youngs Moduli (GPa) = 35.15742 136.21537 43.66390
#
# Poissons Ratio (x) = 0.62870 -0.15796
# Poissons Ratio (y) = 0.16227 0.30563
# Poissons Ratio (z) = -0.12718 0.95344
#
# Static dielectric constant tensor:
#      x y z
#    x 2.236690 0.000000 -0.267840 
#    y 0.000000 2.056690 0.000000 
#    z -0.267840 0.000000 2.257470 
# 
# From -- ./inp_files/21859.got.cif
#   From: 2010.05.17/outbox.cif.g08.bks.cpg/sg14_11_cif.got.tgz:21859.got - 2010.06.03 17:49:19.
