data_PCOD9251650
_publ_section_title
;
Structure prediction by ZEFSAII (Michael W. Deem and Ramdas Pophale) SiO2 
 PCOD9251650
Probable space group: P 21/C
;
_chemical_formula_sum "Si O2"
_cell_formula_units_Z 24
_cell_length_a 10.328517
_cell_length_b 11.622406
_cell_length_c 22.868779
_cell_angle_alpha 90.000000
_cell_angle_beta 24.246936
_cell_angle_gamma 90.000000
_cell_volume 1127.379325
_symmetry_space_group_name_H-M "P 21/C"
_symmetry_group_IT_number 14
_symmetry_cell_setting 'monoclinic'
loop_
_space_group_symop_operation_xyz
x,y,z
-x,1/2+y,1/2-z
-x,-y,-z
x,1/2-y,1/2+z
loop_
_atom_site_type_symbol
_atom_site_label
_atom_site_fract_x
_atom_site_fract_y
_atom_site_fract_z
Si Si1 0.273427 0.372882 0.937822
Si Si2 0.340375 0.254899 0.190310
Si Si3 0.182246 0.051056 0.659514
Si Si4 0.053220 0.626676 0.047781
Si Si5 0.927646 0.263277 0.177919
Si Si6 0.316804 0.389249 0.593580
O O1 0.610268 0.312413 0.811017
O O2 0.204444 0.381347 0.897310
O O3 0.208972 0.500124 0.990974
O O4 0.005948 0.297864 0.079819
O O5 0.213504 0.362550 0.202794
O O6 0.467075 0.172512 0.086680
O O7 0.102891 0.186525 0.330775
O O8 0.649249 0.298408 0.096140
O O9 0.959117 0.123302 0.706374
O O10 0.500000 0.000000 0.500000
O O11 0.015319 0.934970 0.747340
O O12 0.233705 0.193820 0.075114
O O13 0.500000 0.500000 0.500000
#
# Coordination Sequence:
#
# PCOD9251650 Si02
#       6
#     4   4   4   4   4   4
#     4  11  24  42  63  88 123 167 214 262 310 369
#     4  11  22  39  63  90 122 162 206 257 317 375
#     4  11  22  39  63  92 123 156 197 252 313 373
#     4  11  24  42  63  88 123 167 214 262 310 369
#     4  11  22  39  63  90 122 162 206 257 317 375
#     4  11  22  35  58  90 121 152 192 248 309 371
#
# _framework density 21.288309999999999
#
# number of rings (size 3 to 8) (size 9 to 14) (size 15 to 20)
#    0.000    1.000    0.000    8.000    0.000    5.333 
#    0.000    2.500    0.000   10.000    0.000    0.000 
#    0.000    0.000    0.000    0.000    0.000    0.000 
#
# Total GULP energy -133826.261250 kJ/mol
# GULP energy per Si atom -5576.094219 kJ/mol
# Density = 2.123986 g / cm^3
# Si number density = 21.288310 Si / 1000 Ang^3
#
#
#
# Elastic Constant Matrix: (Units=GPa)
#
#
# Indices 1 2 3 4 5 6 
#
# 1 105.0117 33.6088 28.3239 0.0000 8.5130 0.0000
# 2 33.6088 96.9136 40.0481 0.0000 8.1452 0.0000
# 3 28.3239 40.0481 105.4192 0.0000 1.7702 0.0000
# 4 0.0000 0.0000 0.0000 53.2513 0.0000 1.6404
# 5 8.5130 8.1452 1.7702 0.0000 11.1186 0.0000
# 6 0.0000 0.0000 0.0000 1.6404 0.0000 29.7893
#
#
#
# Elastic Compliance Matrix: (Units=1/GPa)
#
#
# Indices 1 2 3 4 5 6 
#
# 1 0.011414 -0.002595 -0.001971 0.000000 -0.006524 0.000000
# 2 -0.002595 0.013634 -0.004360 0.000000 -0.007307 0.000000
# 3 -0.001971 -0.004360 0.011624 0.000000 0.002852 0.000000
# 4 0.000000 0.000000 0.000000 0.018811 0.000000 -0.001036
# 5 -0.006524 -0.007307 0.002852 0.000000 0.099833 0.000000
# 6 0.000000 0.000000 0.000000 -0.001036 0.000000 0.033626
#
#
# Mechanical properties :
#
#
# Convention : Reuss Voigt Hill
#
# Bulk Modulus (GPa) = 53.13559 56.81178 54.97369
# Shear Modulus (GPa) = 23.46672 32.52274 27.99473
#
# Velocity S-wave (km/s) = 3.32374 3.91286 3.63027
# Velocity P-wave (km/s) = 6.30427 6.86722 6.59176
#
# Compressibility (1/GPa) = 0.01881978
#
# Stress axis : x y z
#
# Youngs Moduli (GPa) = 87.61209 73.34533 86.03039
#
# Poissons Ratio (x) = 0.19036 0.16958
# Poissons Ratio (y) = 0.22739 0.37505
# Poissons Ratio (z) = 0.17270 0.31975
#
# Static dielectric constant tensor:
#      x y z
#    x 1.844050 0.000000 -0.058880 
#    y 0.000000 1.740900 0.000000 
#    z -0.058880 0.000000 1.728730 
# 
# From -- ./inp_files/77242.got.cif
#   From: 2010.05.17/outbox.cif.g08.bks.cpg/sg14_39_cif.got.tgz:77242.got - 2010.06.03 17:49:19.
