data_PCOD9251513
_publ_section_title
;
Structure prediction by ZEFSAII (Michael W. Deem and Ramdas Pophale) SiO2 
 PCOD9251513
Probable space group: P 21/C
;
_chemical_formula_sum "Si O2"
_cell_formula_units_Z 24
_cell_length_a 5.565218
_cell_length_b 13.531975
_cell_length_c 14.044356
_cell_angle_alpha 90.000000
_cell_angle_beta 101.754193
_cell_angle_gamma 90.000000
_cell_volume 1035.479365
_symmetry_space_group_name_H-M "P 21/C"
_symmetry_group_IT_number 14
_symmetry_cell_setting 'monoclinic'
loop_
_space_group_symop_operation_xyz
x,y,z
-x,1/2+y,1/2-z
-x,-y,-z
x,1/2-y,1/2+z
loop_
_atom_site_type_symbol
_atom_site_label
_atom_site_fract_x
_atom_site_fract_y
_atom_site_fract_z
Si Si1 0.882896 0.250465 0.863347
Si Si2 0.747005 0.582755 0.043862
Si Si3 0.128446 0.209380 0.702704
Si Si4 0.494475 0.139376 0.200698
Si Si5 0.331598 0.749362 0.963325
Si Si6 0.564875 0.966836 0.339991
O O1 0.035691 0.345005 0.911416
O O2 0.047325 0.187784 0.803893
O O3 0.667700 0.293882 0.781637
O O4 0.773722 0.202914 0.948966
O O5 0.674358 0.508115 0.122920
O O6 0.522251 0.662840 0.008633
O O7 0.755991 0.524330 0.944456
O O8 0.221794 0.322565 0.703489
O O9 0.354149 0.141619 0.687303
O O10 0.895853 0.202875 0.614191
O O11 0.546936 0.170319 0.096767
O O12 0.560055 0.031672 0.244276
#
# Coordination Sequence:
#
# PCOD9251513 Si02
#       6
#     4   4   4   4   4   4
#     4  11  21  40  64  90 129 163 205 258 316 368
#     4  11  22  38  66  97 118 161 212 268 314 351
#     4  11  23  40  60  95 130 166 201 257 316 369
#     4  11  23  40  60  95 130 166 201 257 316 369
#     4  11  21  40  64  90 129 163 205 258 316 368
#     4  11  22  39  64  96 125 159 212 262 305 373
#
# _framework density 23.177669999999999
#
# number of rings (size 3 to 8) (size 9 to 14) (size 15 to 20)
#    0.000    1.000    6.667    0.000    0.000    4.000 
#    0.000    0.833    0.000    7.000    0.000    0.000 
#    0.000    0.000    0.000    0.000    0.000    0.000 
#
# Total GULP energy -133909.669800 kJ/mol
# GULP energy per Si atom -5579.569575 kJ/mol
# Density = 2.312492 g / cm^3
# Si number density = 23.177670 Si / 1000 Ang^3
#
#
#
# Elastic Constant Matrix: (Units=GPa)
#
#
# Indices 1 2 3 4 5 6 
#
# 1 58.6938 2.6581 30.4283 0.0000 12.4393 0.0000
# 2 2.6581 26.6260 3.6373 0.0000 10.2729 0.0000
# 3 30.4283 3.6373 110.6623 0.0000 -33.6241 0.0000
# 4 0.0000 0.0000 0.0000 38.3339 0.0000 -1.3577
# 5 12.4393 10.2729 -33.6241 0.0000 48.2136 0.0000
# 6 0.0000 0.0000 0.0000 -1.3577 0.0000 27.7860
#
#
#
# Elastic Compliance Matrix: (Units=1/GPa)
#
#
# Indices 1 2 3 4 5 6 
#
# 1 0.027071 0.005667 -0.012840 0.000000 -0.017146 0.000000
# 2 0.005667 0.044478 -0.008050 0.000000 -0.016553 0.000000
# 3 -0.012840 -0.008050 0.018220 0.000000 0.017735 0.000000
# 4 0.000000 0.000000 0.000000 0.026132 0.000000 0.001277
# 5 -0.017146 -0.016553 0.017735 0.000000 0.041060 0.000000
# 6 0.000000 0.000000 0.000000 0.001277 0.000000 0.036052
#
#
# Mechanical properties :
#
#
# Convention : Reuss Voigt Hill
#
# Bulk Modulus (GPa) = 16.85654 29.93660 23.39657
# Shear Modulus (GPa) = 20.55651 33.48394 27.02022
#
# Velocity S-wave (km/s) = 2.98133 3.80500 3.41807
# Velocity P-wave (km/s) = 4.37489 5.67875 5.06892
#
# Compressibility (1/GPa) = 0.05932417
#
# Stress axis : x y z
#
# Youngs Moduli (GPa) = 36.93944 22.48325 54.88440
#
# Poissons Ratio (x) = -0.12741 0.70470
# Poissons Ratio (y) = -0.20933 0.44180
# Poissons Ratio (z) = 0.47429 0.18098
#
# Static dielectric constant tensor:
#      x y z
#    x 1.972390 0.000000 -0.059060 
#    y 0.000000 1.885770 0.000000 
#    z -0.059060 0.000000 1.881680 
# 
# From -- ./inp_files/37219.got.cif
#   From: 2010.05.17/outbox.cif.g08.bks.cpg/sg14_19_cif.got.tgz:37219.got - 2010.06.03 17:49:19.
