data_PCOD9251279
_publ_section_title
;
Structure prediction by ZEFSAII (Michael W. Deem and Ramdas Pophale) SiO2 
 PCOD9251279
Probable space group: P 21/C
;
_chemical_formula_sum "Si O2"
_cell_formula_units_Z 32
_cell_length_a 9.155190
_cell_length_b 9.735976
_cell_length_c 27.875104
_cell_angle_alpha 90.000000
_cell_angle_beta 30.149955
_cell_angle_gamma 90.000000
_cell_volume 1247.947003
_symmetry_space_group_name_H-M "P 21/C"
_symmetry_group_IT_number 14
_symmetry_cell_setting 'monoclinic'
loop_
_space_group_symop_operation_xyz
x,y,z
-x,1/2+y,1/2-z
-x,-y,-z
x,1/2-y,1/2+z
loop_
_atom_site_type_symbol
_atom_site_label
_atom_site_fract_x
_atom_site_fract_y
_atom_site_fract_z
Si Si1 0.430159 0.082639 0.687076
Si Si2 0.542906 0.994474 0.174754
Si Si3 0.905979 0.188827 0.227906
Si Si4 0.638208 0.239754 0.714030
Si Si5 0.783417 0.307923 0.361526
Si Si6 0.133371 0.516010 0.122010
Si Si7 0.468290 0.556539 0.430146
Si Si8 0.635365 0.345399 0.025011
O O1 0.628469 0.129318 0.674404
O O2 0.580981 0.138159 0.596520
O O3 0.106696 0.147803 0.786685
O O4 0.351652 0.924332 0.702279
O O5 0.617191 0.115195 0.191804
O O6 0.647958 0.024436 0.090516
O O7 0.195726 0.011574 0.269131
O O8 0.585229 0.841194 0.185289
O O9 0.910049 0.241194 0.172109
O O10 0.816612 0.294007 0.294576
O O11 0.200082 0.117223 0.163094
O O12 0.728400 0.156542 0.396087
O O13 0.522754 0.415493 0.443101
O O14 0.333389 0.398125 0.087194
O O15 0.144499 0.549889 0.062353
O O16 0.298371 0.684164 0.501896
#
# Coordination Sequence:
#
# PCOD9251279 Si02
#       8
#     4   4   4   4   4   4   4   4
#     4  11  20  35  56  87 114 148 191 236 282 337
#     4  12  22  38  58  89 114 148 191 241 289 336
#     4  11  19  32  59  89 111 141 189 244 284 329
#     4  12  22  33  59  88 114 144 190 237 288 340
#     4  11  19  35  62  85 113 146 194 247 282 322
#     4  11  22  37  59  85 120 152 191 239 288 341
#     4  11  21  36  62  86 112 146 196 244 285 332
#     4  11  21  36  59  85 118 155 192 234 286 346
#
# _framework density 25.642115
#
# number of rings (size 3 to 8) (size 9 to 14) (size 15 to 20)
#    0.000    0.750    8.750    1.500    0.000    0.500 
#    0.000    0.625    0.000    0.750    0.000    0.000 
#    0.000    0.000    0.000    0.000    0.000    0.000 
#
# Total GULP energy -178677.205367 kJ/mol
# GULP energy per Si atom -5583.662668 kJ/mol
# Density = 2.558375 g / cm^3
# Si number density = 25.642115 Si / 1000 Ang^3
#
#
#
# Elastic Constant Matrix: (Units=GPa)
#
#
# Indices 1 2 3 4 5 6 
#
# 1 117.3346 43.7513 34.6358 0.0000 29.5874 0.0000
# 2 43.7513 103.1349 -10.4486 0.0000 9.4339 0.0000
# 3 34.6358 -10.4486 48.8379 0.0000 19.1069 0.0000
# 4 0.0000 0.0000 0.0000 28.5907 0.0000 15.1613
# 5 29.5874 9.4339 19.1069 0.0000 30.5316 0.0000
# 6 0.0000 0.0000 0.0000 15.1613 0.0000 36.1217
#
#
#
# Elastic Compliance Matrix: (Units=1/GPa)
#
#
# Indices 1 2 3 4 5 6 
#
# 1 0.015908 -0.007145 -0.010121 0.000000 -0.006874 0.000000
# 2 -0.007145 0.013965 0.009315 0.000000 -0.003221 0.000000
# 3 -0.010121 0.009315 0.035668 0.000000 -0.015392 0.000000
# 4 0.000000 0.000000 0.000000 0.044990 0.000000 -0.018884
# 5 -0.006874 -0.003221 -0.015392 0.000000 0.050042 0.000000
# 6 0.000000 0.000000 0.000000 -0.018884 0.000000 0.035610
#
#
# Mechanical properties :
#
#
# Convention : Reuss Voigt Hill
#
# Bulk Modulus (GPa) = 20.14522 45.02048 32.58285
# Shear Modulus (GPa) = 21.86918 32.47339 27.17129
#
# Velocity S-wave (km/s) = 2.92355 3.56252 3.25874
# Velocity P-wave (km/s) = 4.38971 5.87516 5.18589
#
# Compressibility (1/GPa) = 0.04963956
#
# Stress axis : x y z
#
# Youngs Moduli (GPa) = 62.86195 71.60608 28.03611
#
# Poissons Ratio (x) = 0.51162 0.28375
# Poissons Ratio (y) = 0.44914 -0.26115
# Poissons Ratio (z) = 0.63622 -0.66701
#
# Static dielectric constant tensor:
#      x y z
#    x 1.988030 0.000000 0.049730 
#    y 0.000000 2.220940 0.000000 
#    z 0.049730 0.000000 2.062020 
# 
# From -- ./inp_files/65589.got.cif
#   From: 2010.05.17/outbox.cif.g08.bks.cpg/sg14_33_cif.got.tgz:65589.got - 2010.06.03 17:49:19.
