data_PCOD9251406
_publ_section_title
;
Structure prediction by ZEFSAII (Michael W. Deem and Ramdas Pophale) SiO2 
 PCOD9251406
Probable space group: P 21/C
;
_chemical_formula_sum "Si O2"
_cell_formula_units_Z 16
_cell_length_a 7.376302
_cell_length_b 8.505260
_cell_length_c 10.359134
_cell_angle_alpha 90.000000
_cell_angle_beta 114.430084
_cell_angle_gamma 90.000000
_cell_volume 591.716618
_symmetry_space_group_name_H-M "P 21/C"
_symmetry_group_IT_number 14
_symmetry_cell_setting 'monoclinic'
loop_
_space_group_symop_operation_xyz
x,y,z
-x,1/2+y,1/2-z
-x,-y,-z
x,1/2-y,1/2+z
loop_
_atom_site_type_symbol
_atom_site_label
_atom_site_fract_x
_atom_site_fract_y
_atom_site_fract_z
Si Si1 0.847167 0.338489 0.077652
Si Si2 0.797516 0.823496 0.954774
Si Si3 0.577385 0.727346 0.136002
Si Si4 0.186689 0.529506 0.306174
O O1 0.004150 0.265624 0.024417
O O2 0.984045 0.474433 0.178685
O O3 0.797308 0.215515 0.179453
O O4 0.640068 0.345501 0.941762
O O5 0.688769 0.852668 0.787537
O O6 0.671906 0.718425 0.020324
O O7 0.831510 0.977607 0.049242
O O8 0.629066 0.914828 0.180439
#
# Coordination Sequence:
#
# PCOD9251406 Si02
#       4
#     4   4   4   4
#     4  11  20  42  63  89 126 163 198 260 301 359
#     4   9  21  38  59  94 120 157 208 247 304 366
#     4   9  21  37  63  89 121 162 203 248 305 361
#     4   9  22  39  63  91 122 161 207 246 308 365
#
# _framework density 27.039971000000001
#
# number of rings (size 3 to 8) (size 9 to 14) (size 15 to 20)
#    1.500    1.000    0.000    1.500    3.500    0.000 
#    0.000   12.500    0.000    0.000    0.000    0.000 
#    0.000    0.000    0.000    0.000    0.000    0.000 
#
# Total GULP energy -89358.907102 kJ/mol
# GULP energy per Si atom -5584.931694 kJ/mol
# Density = 2.697843 g / cm^3
# Si number density = 27.039971 Si / 1000 Ang^3
#
#
#
# Elastic Constant Matrix: (Units=GPa)
#
#
# Indices 1 2 3 4 5 6 
#
# 1 127.0793 -5.7571 70.8740 0.0000 28.9147 0.0000
# 2 -5.7571 70.7968 37.4869 0.0000 14.1795 0.0000
# 3 70.8740 37.4869 196.4248 0.0000 23.5704 0.0000
# 4 0.0000 0.0000 0.0000 30.4743 0.0000 6.0968
# 5 28.9147 14.1795 23.5704 0.0000 39.8951 0.0000
# 6 0.0000 0.0000 0.0000 6.0968 0.0000 21.5502
#
#
#
# Elastic Compliance Matrix: (Units=1/GPa)
#
#
# Indices 1 2 3 4 5 6 
#
# 1 0.012445 0.005012 -0.004468 0.000000 -0.008162 0.000000
# 2 0.005012 0.018382 -0.004409 0.000000 -0.007561 0.000000
# 3 -0.004468 -0.004409 0.007500 0.000000 0.000374 0.000000
# 4 0.000000 0.000000 0.000000 0.034783 0.000000 -0.009841
# 5 -0.008162 -0.007561 0.000374 0.000000 0.033447 0.000000
# 6 0.000000 0.000000 0.000000 -0.009841 0.000000 0.049187
#
#
# Mechanical properties :
#
#
# Convention : Reuss Voigt Hill
#
# Bulk Modulus (GPa) = 32.68328 66.61207 49.64767
# Shear Modulus (GPa) = 28.78997 37.83040 33.31018
#
# Velocity S-wave (km/s) = 3.26654 3.74445 3.51363
# Velocity P-wave (km/s) = 5.13228 6.58655 5.90436
#
# Compressibility (1/GPa) = 0.03059669
#
# Stress axis : x y z
#
# Youngs Moduli (GPa) = 80.35474 54.40243 133.34104
#
# Poissons Ratio (x) = -0.27268 0.59571
# Poissons Ratio (y) = -0.40275 0.58794
# Poissons Ratio (z) = 0.35899 0.23988
#
# Static dielectric constant tensor:
#      x y z
#    x 2.113820 0.000000 0.002420 
#    y 0.000000 2.262820 0.000000 
#    z 0.002420 0.000000 2.068860 
# 
# From -- ./inp_files/7590.got.cif
#   From: 2010.05.17/outbox.cif.g08.bks.cpg/sg14_4_cif.got.tgz:7590.got - 2010.06.03 17:49:19.
