data_PCOD9251228
_publ_section_title
;
Structure prediction by ZEFSAII (Michael W. Deem and Ramdas Pophale) SiO2 
 PCOD9251228
Probable space group: P 21/C
;
_chemical_formula_sum "Si O2"
_cell_formula_units_Z 18
_cell_length_a 16.135704
_cell_length_b 4.969950
_cell_length_c 8.870162
_cell_angle_alpha 90.000000
_cell_angle_beta 115.548993
_cell_angle_gamma 90.000000
_cell_volume 641.774435
_symmetry_space_group_name_H-M "P 21/C"
_symmetry_group_IT_number 14
_symmetry_cell_setting 'monoclinic'
loop_
_space_group_symop_operation_xyz
x,y,z
-x,1/2+y,1/2-z
-x,-y,-z
x,1/2-y,1/2+z
loop_
_atom_site_type_symbol
_atom_site_label
_atom_site_fract_x
_atom_site_fract_y
_atom_site_fract_z
Si Si1 0.559865 0.391962 0.824098
Si Si2 0.851286 0.269833 0.164213
Si Si3 0.000000 0.500000 0.500000
Si Si4 0.175914 0.370787 0.132341
Si Si5 0.325522 0.992156 0.299639
O O1 0.515066 0.651761 0.707475
O O2 0.635022 0.221543 0.788484
O O3 0.598623 0.508998 0.010622
O O4 0.947192 0.362325 0.309510
O O5 0.762865 0.395022 0.176043
O O6 0.834955 0.963045 0.201901
O O7 0.846447 0.370592 0.989880
O O8 0.907834 0.673457 0.460208
O O9 0.277309 0.250322 0.185168
#
# Coordination Sequence:
#
# PCOD9251228 Si02
#       5
#     4   4   2   4   4
#     4  12  29  52  87 125 175 223 291 363 438 520
#     4  11  26  47  85 116 163 219 281 348 423 519
#     4  10  26  48  78 120 164 214 274 348 430 500
#     4  11  27  52  83 121 169 221 286 352 430 521
#     4  11  28  52  82 124 166 223 278 352 434 516
#
# _framework density 28.047236000000002
#
# number of rings (size 3 to 8) (size 9 to 14) (size 15 to 20)
#    0.000    0.889    0.000    3.333   12.444    8.889 
#    4.000    0.000    0.000    0.000    0.000    0.000 
#    0.000    0.000    0.000    0.000    0.000    0.000 
#
# Total GULP energy -100390.115946 kJ/mol
# GULP energy per Si atom -5577.228664 kJ/mol
# Density = 2.798340 g / cm^3
# Si number density = 28.047236 Si / 1000 Ang^3
#
#
#
# Elastic Constant Matrix: (Units=GPa)
#
#
# Indices 1 2 3 4 5 6 
#
# 1 103.6197 81.6708 78.9791 0.0000 9.2295 0.0000
# 2 81.6708 165.4690 93.4737 0.0000 16.7916 0.0000
# 3 78.9791 93.4737 198.2949 0.0000 35.1003 0.0000
# 4 0.0000 0.0000 0.0000 9.4247 0.0000 -31.2230
# 5 9.2295 16.7916 35.1003 0.0000 57.5717 0.0000
# 6 0.0000 0.0000 0.0000 -31.2230 0.0000 27.9505
#
#
#
# Elastic Compliance Matrix: (Units=1/GPa)
#
#
# Indices 1 2 3 4 5 6 
#
# 1 0.018038 -0.006606 -0.004371 0.000000 0.001700 0.000000
# 2 -0.006606 0.010656 -0.002275 0.000000 -0.000662 0.000000
# 3 -0.004371 -0.002275 0.008536 0.000000 -0.003840 0.000000
# 4 0.000000 0.000000 0.000000 -0.039287 0.000000 -0.043886
# 5 0.001700 -0.000662 -0.003840 0.000000 0.019631 0.000000
# 6 0.000000 0.000000 0.000000 -0.043886 0.000000 -0.013247
#
#
# Mechanical properties :
#
#
# Convention : Reuss Voigt Hill
#
# Bulk Modulus (GPa) = 93.23376 108.40342 100.81859
# Shear Modulus (GPa) = 145.31735 33.20670 89.26203
#
# Velocity S-wave (km/s) = 7.20584 3.44460 5.64754
# Velocity P-wave (km/s) = 10.12650 7.38611 8.86286
#
# Compressibility (1/GPa) = 0.01072573
#
# Stress axis : x y z
#
# Youngs Moduli (GPa) = 55.43911 93.84092 117.15016
#
# Poissons Ratio (x) = 0.61993 0.51208
# Poissons Ratio (y) = 0.36624 0.26650
# Poissons Ratio (z) = 0.24233 0.21348
#
# Static dielectric constant tensor:
#      x y z
#    x 2.205610 0.000000 -0.045740 
#    y 0.000000 2.408840 0.000000 
#    z -0.045740 0.000000 2.127110 
# 
# From -- ./inp_files/17308.got.cif
#   From: 2010.05.17/outbox.cif.g08.bks.cpg/sg14_9_cif.got.tgz:17308.got - 2010.06.03 17:49:19.
