data_PCOD9251852
_publ_section_title
;
Structure prediction by ZEFSAII (Michael W. Deem and Ramdas Pophale) SiO2 
 PCOD9251852
Probable space group: P 21/C
;
_chemical_formula_sum "Si O2"
_cell_formula_units_Z 24
_cell_length_a 13.704788
_cell_length_b 9.881876
_cell_length_c 17.268253
_cell_angle_alpha 90.000000
_cell_angle_beta 28.757259
_cell_angle_gamma 90.000000
_cell_volume 1125.110915
_symmetry_space_group_name_H-M "P 21/C"
_symmetry_group_IT_number 14
_symmetry_cell_setting 'monoclinic'
loop_
_space_group_symop_operation_xyz
x,y,z
-x,1/2+y,1/2-z
-x,-y,-z
x,1/2-y,1/2+z
loop_
_atom_site_type_symbol
_atom_site_label
_atom_site_fract_x
_atom_site_fract_y
_atom_site_fract_z
Si Si1 0.973411 0.076794 0.760972
Si Si2 0.583670 0.723997 0.840901
Si Si3 0.837835 0.171162 0.296391
Si Si4 0.704089 0.304342 0.583067
Si Si5 0.784658 0.446541 0.677447
Si Si6 0.043185 0.078786 0.388548
O O1 0.011179 0.233824 0.712790
O O2 0.140011 0.976671 0.680782
O O3 0.921866 0.013229 0.712560
O O4 0.812347 0.096127 0.944188
O O5 0.500098 0.747483 0.812408
O O6 0.666153 0.573352 0.794097
O O7 0.757692 0.829624 0.738725
O O8 0.378501 0.735247 0.032701
O O9 0.840654 0.161165 0.203294
O O10 0.667737 0.384453 0.686816
O O11 0.858722 0.181914 0.495739
O O12 0.000000 0.500000 0.500000
O O13 0.000000 0.000000 0.500000
#
# Coordination Sequence:
#
# PCOD9251852 Si02
#       6
#     4   4   4   4   4   4
#     4  11  22  44  73  99 145 182 229 294 358 410
#     4  11  26  45  69 105 139 183 245 291 349 433
#     4  11  24  45  73 103 141 187 233 292 353 426
#     4  11  25  45  65 108 139 179 242 286 353 429
#     4  12  23  45  71 100 140 190 231 296 358 417
#     4  12  25  45  72 102 146 182 237 302 355 422
#
# _framework density 21.331230000000001
#
# number of rings (size 3 to 8) (size 9 to 14) (size 15 to 20)
#    0.000    0.667    6.667    1.500    2.333    2.667 
#    3.000    0.000    0.000    0.000    0.000    0.000 
#    0.000    0.000    0.000    0.000    0.000    0.000 
#
# Total GULP energy -133907.701208 kJ/mol
# GULP energy per Si atom -5579.487550 kJ/mol
# Density = 2.128268 g / cm^3
# Si number density = 21.331230 Si / 1000 Ang^3
#
#
#
# Elastic Constant Matrix: (Units=GPa)
#
#
# Indices 1 2 3 4 5 6 
#
# 1 123.1663 34.5444 15.9594 0.0000 17.0215 0.0000
# 2 34.5444 81.0234 25.2192 0.0000 10.5245 0.0000
# 3 15.9594 25.2192 26.2243 0.0000 7.9800 0.0000
# 4 0.0000 0.0000 0.0000 25.2403 0.0000 1.7456
# 5 17.0215 10.5245 7.9800 0.0000 43.3106 0.0000
# 6 0.0000 0.0000 0.0000 1.7456 0.0000 55.7967
#
#
#
# Elastic Compliance Matrix: (Units=1/GPa)
#
#
# Indices 1 2 3 4 5 6 
#
# 1 0.009626 -0.003122 -0.002050 0.000000 -0.002647 0.000000
# 2 -0.003122 0.018689 -0.015959 0.000000 -0.000374 0.000000
# 3 -0.002050 -0.015959 0.056468 0.000000 -0.005720 0.000000
# 4 0.000000 0.000000 0.000000 0.039705 0.000000 -0.001242
# 5 -0.002647 -0.000374 -0.005720 0.000000 0.025274 0.000000
# 6 0.000000 0.000000 0.000000 -0.001242 0.000000 0.017961
#
#
# Mechanical properties :
#
#
# Convention : Reuss Voigt Hill
#
# Bulk Modulus (GPa) = 23.51795 42.42891 32.97343
# Shear Modulus (GPa) = 22.30541 35.18225 28.74383
#
# Velocity S-wave (km/s) = 3.23719 4.06560 3.67481
# Velocity P-wave (km/s) = 5.00216 6.47862 5.78766
#
# Compressibility (1/GPa) = 0.04252070
#
# Stress axis : x y z
#
# Youngs Moduli (GPa) = 103.88282 53.50679 17.70901
#
# Poissons Ratio (x) = 0.16706 0.03631
# Poissons Ratio (y) = 0.32434 0.28262
# Poissons Ratio (z) = 0.21300 0.85392
#
# Static dielectric constant tensor:
#      x y z
#    x 1.804160 0.000000 -0.016150 
#    y 0.000000 1.809130 0.000000 
#    z -0.016150 0.000000 1.747210 
# 
# From -- ./inp_files/59002.got.cif
#   From: 2010.05.17/outbox.cif.g08.bks.cpg/sg14_30_cif.got.tgz:59002.got - 2010.06.03 17:49:19.
