data_PCOD9251333
_publ_section_title
;
Structure prediction by ZEFSAII (Michael W. Deem and Ramdas Pophale) SiO2 
 PCOD9251333
Probable space group: P 21/C
;
_chemical_formula_sum "Si O2"
_cell_formula_units_Z 32
_cell_length_a 18.454783
_cell_length_b 16.004426
_cell_length_c 16.976729
_cell_angle_alpha 90.000000
_cell_angle_beta 156.912989
_cell_angle_gamma 90.000000
_cell_volume 1966.217517
_symmetry_space_group_name_H-M "P 21/C"
_symmetry_group_IT_number 14
_symmetry_cell_setting 'monoclinic'
loop_
_space_group_symop_operation_xyz
x,y,z
-x,1/2+y,1/2-z
-x,-y,-z
x,1/2-y,1/2+z
loop_
_atom_site_type_symbol
_atom_site_label
_atom_site_fract_x
_atom_site_fract_y
_atom_site_fract_z
Si Si1 0.499999 0.973610 0.908101
Si Si2 0.216116 0.667760 0.140236
Si Si3 0.500000 0.261149 0.453152
Si Si4 0.783413 0.657848 0.120649
Si Si5 0.216116 0.167760 0.791995
Si Si6 0.216586 0.657848 0.553821
Si Si7 0.499999 0.638080 0.698873
Si Si8 0.500000 0.589927 0.961063
O O1 0.322380 0.914344 0.717530
O O2 0.500001 0.054057 0.852940
O O3 0.677617 0.914343 0.072767
O O4 0.500000 0.000000 0.000000
O O5 0.323490 0.697815 0.326149
O O6 0.238118 0.745140 0.101832
O O7 1.000000 0.653625 0.937694
O O8 0.323487 0.302185 0.320826
O O9 0.500002 0.285889 0.362736
O O10 0.499998 0.163615 0.474127
O O11 0.761881 0.754859 0.125596
O O12 1.000000 0.638715 0.333567
O O13 0.676703 0.642545 0.932805
O O14 0.676665 0.605801 0.081354
O O15 0.323296 0.642546 0.579399
O O16 0.323335 0.605802 0.728024
O O17 0.500000 0.500000 0.000000
#
# Coordination Sequence:
#
# PCOD9251333 Si02
#       8
#     4   4   4   4   4   4   4   4
#     4  11  20  33  51  84 109 137 177 214 259 313
#     4   9  18  36  56  73 101 141 178 211 256 312
#     4   9  18  34  53  78 104 136 178 212 259 318
#     4   9  20  38  56  75 106 144 176 216 270 316
#     4   9  18  36  56  73 101 141 178 211 256 312
#     4   9  20  38  56  75 106 144 176 216 270 316
#     4  11  20  34  52  78 112 142 171 220 264 320
#     4   9  18  36  60  83 101 138 179 230 266 302
#
# _framework density 16.274902999999998
#
# number of rings (size 3 to 8) (size 9 to 14) (size 15 to 20)
#    0.000    2.500    2.500    2.250    0.000    3.000 
#    9.000    0.000    0.000    0.000    0.000    0.000 
#    0.000    0.000    0.000    0.000    0.000    0.000 
#
# Total GULP energy -178392.459940 kJ/mol
# GULP energy per Si atom -5574.764373 kJ/mol
# Density = 1.623786 g / cm^3
# Si number density = 16.274903 Si / 1000 Ang^3
#
#
#
# Elastic Constant Matrix: (Units=GPa)
#
#
# Indices 1 2 3 4 5 6 
#
# 1 106.6761 72.3546 87.8013 0.0000 -7.2755 0.0000
# 2 72.3546 106.2501 66.6727 0.0000 -3.8114 0.0000
# 3 87.8013 66.6727 131.3261 0.0000 23.8223 0.0000
# 4 0.0000 0.0000 0.0000 18.4008 0.0000 -2.8492
# 5 -7.2755 -3.8114 23.8223 0.0000 24.8849 0.0000
# 6 0.0000 0.0000 0.0000 -2.8492 0.0000 22.6472
#
#
#
# Elastic Compliance Matrix: (Units=1/GPa)
#
#
# Indices 1 2 3 4 5 6 
#
# 1 0.049539 -0.008105 -0.038009 0.000000 0.049628 0.000000
# 2 -0.008105 0.017965 -0.004564 0.000000 0.004751 0.000000
# 3 -0.038009 -0.004564 0.045363 0.000000 -0.055238 0.000000
# 4 0.000000 0.000000 0.000000 0.055425 0.000000 0.006973
# 5 0.049628 0.004751 -0.055238 0.000000 0.108301 0.000000
# 6 0.000000 0.000000 0.000000 0.006973 0.000000 0.045033
#
#
# Mechanical properties :
#
#
# Convention : Reuss Voigt Hill
#
# Bulk Modulus (GPa) = 86.85469 88.65662 87.75565
# Shear Modulus (GPa) = 11.71454 21.01481 16.36468
#
# Velocity S-wave (km/s) = 2.68580 3.59728 3.17443
# Velocity P-wave (km/s) = 7.94362 8.47624 8.21425
#
# Compressibility (1/GPa) = 0.01151348
#
# Stress axis : x y z
#
# Youngs Moduli (GPa) = 20.18591 55.66264 22.04424
#
# Poissons Ratio (x) = 0.45113 0.83787
# Poissons Ratio (y) = 0.16360 0.10061
# Poissons Ratio (z) = 0.76724 0.25405
#
# Static dielectric constant tensor:
#      x y z
#    x 1.529290 0.000000 0.007320 
#    y 0.000000 1.542050 0.000000 
#    z 0.007320 0.000000 1.540190 
# 
# From -- ./inp_files/61468.got.cif
#   From: 2010.05.17/outbox.cif.g08.bks.cpg/sg14_31_cif.got.tgz:61468.got - 2010.06.03 17:49:19.
