data_PCOD9251600
_publ_section_title
;
Structure prediction by ZEFSAII (Michael W. Deem and Ramdas Pophale) SiO2 
 PCOD9251600
Probable space group: P 21/C
;
_chemical_formula_sum "Si O2"
_cell_formula_units_Z 28
_cell_length_a 9.106783
_cell_length_b 9.745566
_cell_length_c 14.118819
_cell_angle_alpha 90.000000
_cell_angle_beta 50.848412
_cell_angle_gamma 90.000000
_cell_volume 971.717545
_symmetry_space_group_name_H-M "P 21/C"
_symmetry_group_IT_number 14
_symmetry_cell_setting 'monoclinic'
loop_
_space_group_symop_operation_xyz
x,y,z
-x,1/2+y,1/2-z
-x,-y,-z
x,1/2-y,1/2+z
loop_
_atom_site_type_symbol
_atom_site_label
_atom_site_fract_x
_atom_site_fract_y
_atom_site_fract_z
Si Si1 0.319762 0.435693 0.456046
Si Si2 0.694766 0.764025 0.284393
Si Si3 0.001928 0.233088 0.236710
Si Si4 0.385490 0.350349 0.887967
Si Si5 0.267811 0.847491 0.480981
Si Si6 0.813199 0.373495 0.646557
Si Si7 0.264024 0.968055 0.178998
O O1 0.334587 0.274483 0.478920
O O2 0.207093 0.491456 0.411735
O O3 0.545047 0.459523 0.337319
O O4 0.308158 0.538953 0.549673
O O5 0.681981 0.720185 0.182164
O O6 0.488882 0.805044 0.400609
O O7 0.798868 0.627610 0.289511
O O8 0.859777 0.849007 0.263403
O O9 0.850477 0.177771 0.376872
O O10 0.988316 0.131474 0.147400
O O11 0.878025 0.354521 0.232252
O O12 0.279317 0.491385 0.950687
O O13 0.610772 0.371745 0.785211
O O14 0.187890 0.750560 0.429856
#
# Coordination Sequence:
#
# PCOD9251600 Si02
#       7
#     4   4   4   4   4   4   4
#     4  11  21  43  76 101 140 201 247 292 371 438
#     4  11  26  46  75 111 149 194 250 307 374 445
#     4  12  26  47  76 112 152 190 250 319 365 439
#     4  11  23  42  73 108 146 191 247 302 367 445
#     4  11  24  50  76 104 150 200 247 304 373 443
#     4  11  21  43  75 105 142 199 247 300 363 445
#     4  11  21  46  69 102 144 198 242 303 367 438
#
# _framework density 28.814957
#
# number of rings (size 3 to 8) (size 9 to 14) (size 15 to 20)
#    0.000    0.857    5.714    3.429    0.000    3.429 
#    7.714    1.429    0.000    0.000    0.000    0.000 
#    0.000    0.000    0.000    0.000    0.000    0.000 
#
# Total GULP energy -156749.770065 kJ/mol
# GULP energy per Si atom -5598.206074 kJ/mol
# Density = 2.874937 g / cm^3
# Si number density = 28.814957 Si / 1000 Ang^3
#
#
#
# Elastic Constant Matrix: (Units=GPa)
#
#
# Indices 1 2 3 4 5 6 
#
# 1 200.5298 4.8485 27.6496 0.0000 36.8236 0.0000
# 2 4.8485 175.9093 25.2378 0.0000 -7.3051 0.0000
# 3 27.6496 25.2378 89.7445 0.0000 19.5019 0.0000
# 4 0.0000 0.0000 0.0000 26.3396 0.0000 13.5296
# 5 36.8236 -7.3051 19.5019 0.0000 36.0857 0.0000
# 6 0.0000 0.0000 0.0000 13.5296 0.0000 17.8877
#
#
#
# Elastic Compliance Matrix: (Units=1/GPa)
#
#
# Indices 1 2 3 4 5 6 
#
# 1 0.006186 -0.000357 -0.000474 0.000000 -0.006129 0.000000
# 2 -0.000357 0.006130 -0.002224 0.000000 0.002807 0.000000
# 3 -0.000474 -0.002224 0.013491 0.000000 -0.007258 0.000000
# 4 0.000000 0.000000 0.000000 0.062087 0.000000 -0.046961
# 5 -0.006129 0.002807 -0.007258 0.000000 0.038457 0.000000
# 6 0.000000 0.000000 0.000000 -0.046961 0.000000 0.091424
#
#
# Mechanical properties :
#
#
# Convention : Reuss Voigt Hill
#
# Bulk Modulus (GPa) = 50.76560 64.62838 57.69699
# Shear Modulus (GPa) = 21.69657 43.29245 32.49451
#
# Velocity S-wave (km/s) = 2.74699 3.88032 3.36176
# Velocity P-wave (km/s) = 5.26473 6.52329 5.92751
#
# Compressibility (1/GPa) = 0.01969838
#
# Stress axis : x y z
#
# Youngs Moduli (GPa) = 161.64970 163.12574 74.12199
#
# Poissons Ratio (x) = 0.05825 0.03511
# Poissons Ratio (y) = 0.05772 0.16484
# Poissons Ratio (z) = 0.07656 0.36278
#
# Static dielectric constant tensor:
#      x y z
#    x 2.291910 0.000000 -0.077070 
#    y 0.000000 2.377640 0.000000 
#    z -0.077070 0.000000 2.303440 
# 
# From -- ./inp_files/40005.got.cif
#   From: 2010.05.17/outbox.cif.g08.bks.cpg/sg14_21_cif.got.tgz:40005.got - 2010.06.03 17:49:19.
