data_PCOD9251699
_publ_section_title
;
Structure prediction by ZEFSAII (Michael W. Deem and Ramdas Pophale) SiO2 
 PCOD9251699
Probable space group: P 21/C
;
_chemical_formula_sum "Si O2"
_cell_formula_units_Z 32
_cell_length_a 9.314181
_cell_length_b 8.290509
_cell_length_c 19.942470
_cell_angle_alpha 90.000000
_cell_angle_beta 104.522274
_cell_angle_gamma 90.000000
_cell_volume 1490.742759
_symmetry_space_group_name_H-M "P 21/C"
_symmetry_group_IT_number 14
_symmetry_cell_setting 'monoclinic'
loop_
_space_group_symop_operation_xyz
x,y,z
-x,1/2+y,1/2-z
-x,-y,-z
x,1/2-y,1/2+z
loop_
_atom_site_type_symbol
_atom_site_label
_atom_site_fract_x
_atom_site_fract_y
_atom_site_fract_z
Si Si1 0.397008 0.196348 0.354077
Si Si2 0.174425 0.165768 0.084874
Si Si3 0.097879 0.655589 0.994844
Si Si4 0.343573 0.817546 0.780800
Si Si5 0.662384 0.826411 0.283342
Si Si6 0.346884 0.854699 0.413616
Si Si7 0.735285 0.188076 0.861638
Si Si8 0.399195 0.340238 0.489494
O O1 0.302947 0.211883 0.275603
O O2 0.562430 0.265108 0.356972
O O3 0.340585 0.303644 0.408861
O O4 0.392759 0.014229 0.378782
O O5 0.225306 0.306738 0.142237
O O6 0.269869 0.161580 0.028182
O O7 0.006409 0.200960 0.045233
O O8 0.220993 0.997628 0.124107
O O9 0.216662 0.615433 0.951275
O O10 0.175302 0.713935 0.072038
O O11 0.000000 0.500000 0.000000
O O12 0.506522 0.737674 0.793847
O O13 0.302781 0.781066 0.852896
O O14 0.241013 0.733679 0.713001
O O15 0.352999 0.999504 0.753571
O O16 0.486265 0.796124 0.473192
O O17 0.500000 0.500000 0.500000
#
# Coordination Sequence:
#
# PCOD9251699 Si02
#       8
#     4   4   4   4   4   4   4   4
#     4  11  22  38  67  99 134 164 226 281 335 389
#     4  12  24  43  68  97 136 177 219 273 345 410
#     4  12  27  45  66  96 138 185 223 270 348 416
#     4  11  22  39  67  97 135 167 226 281 336 396
#     4  11  22  39  66 102 132 175 215 281 347 396
#     4  12  24  42  66 100 134 174 226 282 333 398
#     4  11  23  42  66  98 132 176 222 278 342 394
#     4  12  22  39  66 102 128 166 224 282 329 387
#
# _framework density 21.465809
#
# number of rings (size 3 to 8) (size 9 to 14) (size 15 to 20)
#    0.000    0.500    3.750    6.750    1.750    0.000 
#    0.000    7.500    0.000    0.000    0.000    0.000 
#    0.000    0.000    0.000    0.000    0.000    0.000 
#
# Total GULP energy -178929.399339 kJ/mol
# GULP energy per Si atom -5591.543729 kJ/mol
# Density = 2.141695 g / cm^3
# Si number density = 21.465809 Si / 1000 Ang^3
#
#
#
# Elastic Constant Matrix: (Units=GPa)
#
#
# Indices 1 2 3 4 5 6 
#
# 1 24.3024 -3.8173 6.1275 0.0000 3.8659 0.0000
# 2 -3.8173 70.6898 -14.6697 0.0000 -4.8680 0.0000
# 3 6.1275 -14.6697 116.6786 0.0000 0.9768 0.0000
# 4 0.0000 0.0000 0.0000 45.6897 0.0000 -0.5932
# 5 3.8659 -4.8680 0.9768 0.0000 29.0636 0.0000
# 6 0.0000 0.0000 0.0000 -0.5932 0.0000 24.1722
#
#
#
# Elastic Compliance Matrix: (Units=1/GPa)
#
#
# Indices 1 2 3 4 5 6 
#
# 1 0.042747 0.001522 -0.002009 0.000000 -0.005364 0.000000
# 2 0.001522 0.014745 0.001755 0.000000 0.002208 0.000000
# 3 -0.002009 0.001755 0.008895 0.000000 0.000262 0.000000
# 4 0.000000 0.000000 0.000000 0.021894 0.000000 0.000537
# 5 -0.005364 0.002208 0.000262 0.000000 0.035482 0.000000
# 6 0.000000 0.000000 0.000000 0.000537 0.000000 0.041383
#
#
# Mechanical properties :
#
#
# Convention : Reuss Voigt Hill
#
# Bulk Modulus (GPa) = 14.50866 20.77242 17.64054
# Shear Modulus (GPa) = 26.94231 34.72047 30.83139
#
# Velocity S-wave (km/s) = 3.54662 4.02615 3.79397
# Velocity P-wave (km/s) = 4.85232 5.59564 5.23718
#
# Compressibility (1/GPa) = 0.06892437
#
# Stress axis : x y z
#
# Youngs Moduli (GPa) = 23.39343 67.82024 112.42844
#
# Poissons Ratio (x) = -0.10324 0.22583
# Poissons Ratio (y) = -0.03561 -0.19736
# Poissons Ratio (z) = 0.04699 -0.11905
#
# Static dielectric constant tensor:
#      x y z
#    x 1.743960 0.000000 0.005030 
#    y 0.000000 1.858870 0.000000 
#    z 0.005030 0.000000 1.776530 
# 
# From -- ./inp_files/64869.got.cif
#   From: 2010.05.17/outbox.cif.g08.bks.cpg/sg14_33_cif.got.tgz:64869.got - 2010.06.03 17:49:19.
