data_PCOD9251571
_publ_section_title
;
Structure prediction by ZEFSAII (Michael W. Deem and Ramdas Pophale) SiO2 
 PCOD9251571
Probable space group: P 21/C
;
_chemical_formula_sum "Si O2"
_cell_formula_units_Z 20
_cell_length_a 20.686005
_cell_length_b 6.375241
_cell_length_c 14.963964
_cell_angle_alpha 90.000000
_cell_angle_beta 25.331825
_cell_angle_gamma 90.000000
_cell_volume 844.348127
_symmetry_space_group_name_H-M "P 21/C"
_symmetry_group_IT_number 14
_symmetry_cell_setting 'monoclinic'
loop_
_space_group_symop_operation_xyz
x,y,z
-x,1/2+y,1/2-z
-x,-y,-z
x,1/2-y,1/2+z
loop_
_atom_site_type_symbol
_atom_site_label
_atom_site_fract_x
_atom_site_fract_y
_atom_site_fract_z
Si Si1 0.511392 0.582819 0.855335
Si Si2 0.299492 0.241113 0.045624
Si Si3 0.806139 0.391514 0.546714
Si Si4 0.774607 0.349301 0.258318
Si Si5 0.102976 0.887587 0.730320
O O1 0.400501 0.387964 0.981357
O O2 0.590598 0.625415 0.661005
O O3 0.646970 0.512341 0.749765
O O4 0.401886 0.777319 0.013630
O O5 0.194110 0.393505 0.118698
O O6 0.212209 0.079409 0.217624
O O7 0.817553 0.203034 0.603915
O O8 0.936143 0.556718 0.407307
O O9 0.827000 0.283611 0.424371
O O10 0.873988 0.202588 0.199267
#
# Coordination Sequence:
#
# PCOD9251571 Si02
#       5
#     4   4   4   4   4
#     4  11  21  42  69 102 136 174 223 276 335 394
#     4  11  21  44  69  95 137 180 218 279 338 390
#     4  12  25  46  69 102 136 179 226 278 337 402
#     4  11  25  45  72  99 136 180 225 274 337 405
#     4  11  26  47  67  98 140 178 222 283 334 395
#
# _framework density 23.686913000000001
#
# number of rings (size 3 to 8) (size 9 to 14) (size 15 to 20)
#    0.000    0.800    4.000    3.600    0.000    1.600 
#   14.400    0.000    0.000    0.000    0.000    0.000 
#    0.000    0.000    0.000    0.000    0.000    0.000 
#
# Total GULP energy -112029.154276 kJ/mol
# GULP energy per Si atom -5601.457714 kJ/mol
# Density = 2.363300 g / cm^3
# Si number density = 23.686913 Si / 1000 Ang^3
#
#
#
# Elastic Constant Matrix: (Units=GPa)
#
#
# Indices 1 2 3 4 5 6 
#
# 1 104.2969 18.3744 28.4279 0.0000 -17.8323 0.0000
# 2 18.3744 67.7877 16.6079 0.0000 -30.4241 0.0000
# 3 28.4279 16.6079 54.0131 0.0000 -21.1188 0.0000
# 4 0.0000 0.0000 0.0000 26.5977 0.0000 -7.3017
# 5 -17.8323 -30.4241 -21.1188 0.0000 41.7685 0.0000
# 6 0.0000 0.0000 0.0000 -7.3017 0.0000 23.0003
#
#
#
# Elastic Compliance Matrix: (Units=1/GPa)
#
#
# Indices 1 2 3 4 5 6 
#
# 1 0.011432 -0.001213 -0.005086 0.000000 0.001425 0.000000
# 2 -0.001213 0.022062 -0.000080 0.000000 0.015512 0.000000
# 3 -0.005086 -0.000080 0.025357 0.000000 0.010591 0.000000
# 4 0.000000 0.000000 0.000000 0.041187 0.000000 0.013075
# 5 0.001425 0.015512 0.010591 0.000000 0.041204 0.000000
# 6 0.000000 0.000000 0.000000 0.013075 0.000000 0.047628
#
#
# Mechanical properties :
#
#
# Convention : Reuss Voigt Hill
#
# Bulk Modulus (GPa) = 21.69599 39.21311 30.45455
# Shear Modulus (GPa) = 23.04227 29.11913 26.08070
#
# Velocity S-wave (km/s) = 3.12233 3.50999 3.32182
# Velocity P-wave (km/s) = 4.70935 5.74608 5.25335
#
# Compressibility (1/GPa) = 0.04609146
#
# Stress axis : x y z
#
# Youngs Moduli (GPa) = 87.47540 45.32632 39.43730
#
# Poissons Ratio (x) = 0.05497 0.20060
# Poissons Ratio (y) = 0.10609 0.00317
# Poissons Ratio (z) = 0.44494 0.00364
#
# Static dielectric constant tensor:
#      x y z
#    x 1.868520 0.000000 -0.007570 
#    y 0.000000 1.878740 0.000000 
#    z -0.007570 0.000000 1.906870 
# 
# From -- ./inp_files/49559.got.cif
#   From: 2010.05.17/outbox.cif.g08.bks.cpg/sg14_25_cif.got.tgz:49559.got - 2010.06.03 17:49:19.
