data_PCOD9251469
_publ_section_title
;
Structure prediction by ZEFSAII (Michael W. Deem and Ramdas Pophale) SiO2 
 PCOD9251469
Probable space group: P 21/C
;
_chemical_formula_sum "Si O2"
_cell_formula_units_Z 24
_cell_length_a 8.286263
_cell_length_b 13.673692
_cell_length_c 7.877026
_cell_angle_alpha 90.000000
_cell_angle_beta 86.770587
_cell_angle_gamma 90.000000
_cell_volume 891.079736
_symmetry_space_group_name_H-M "P 21/C"
_symmetry_group_IT_number 14
_symmetry_cell_setting 'monoclinic'
loop_
_space_group_symop_operation_xyz
x,y,z
-x,1/2+y,1/2-z
-x,-y,-z
x,1/2-y,1/2+z
loop_
_atom_site_type_symbol
_atom_site_label
_atom_site_fract_x
_atom_site_fract_y
_atom_site_fract_z
Si Si1 0.638847 0.860872 0.757525
Si Si2 0.149024 0.633135 0.410281
Si Si3 0.826671 0.744925 0.973203
Si Si4 0.326996 0.720911 0.092848
Si Si5 0.749695 0.049529 0.625061
Si Si6 0.880842 0.553755 0.781448
O O1 0.679632 0.817935 0.937968
O O2 0.791917 0.826294 0.633091
O O3 0.487140 0.809403 0.681493
O O4 0.633649 0.976925 0.734821
O O5 0.285137 0.670582 0.532956
O O6 0.148537 0.517285 0.377089
O O7 0.983708 0.686544 0.475283
O O8 0.186137 0.682681 0.225707
O O9 0.833088 0.665796 0.817435
O O10 0.319535 0.654525 0.922052
O O11 0.925978 0.052989 0.699557
O O12 0.785126 0.000454 0.439241
#
# Coordination Sequence:
#
# PCOD9251469 Si02
#       6
#     4   4   4   4   4   4
#     4  11  22  37  58  87 116 145 183 234 285 329
#     4  11  21  38  60  83 112 150 191 228 274 333
#     4  11  21  38  60  83 112 150 191 228 274 333
#     4  11  22  37  58  87 116 145 183 234 285 329
#     4   9  17  34  59  82 107 145 192 230 268 325
#     4   9  18  34  57  83 108 144 192 232 265 327
#
# _framework density 26.933617999999999
#
# number of rings (size 3 to 8) (size 9 to 14) (size 15 to 20)
#    0.000    1.667    3.333    2.500    0.000    0.000 
#    0.000    5.833    0.000    0.000    0.000    0.000 
#    0.000    0.000    0.000    0.000    0.000    0.000 
#
# Total GULP energy -134347.636006 kJ/mol
# GULP energy per Si atom -5597.818167 kJ/mol
# Density = 2.687232 g / cm^3
# Si number density = 26.933618 Si / 1000 Ang^3
#
#
#
# Elastic Constant Matrix: (Units=GPa)
#
#
# Indices 1 2 3 4 5 6 
#
# 1 64.8718 13.0885 -20.8814 0.0000 20.7524 0.0000
# 2 13.0885 138.0707 10.2166 0.0000 1.3638 0.0000
# 3 -20.8814 10.2166 40.7252 0.0000 -1.5837 0.0000
# 4 0.0000 0.0000 0.0000 55.7710 0.0000 11.0338
# 5 20.7524 1.3638 -1.5837 0.0000 39.8739 0.0000
# 6 0.0000 0.0000 0.0000 11.0338 0.0000 24.1066
#
#
#
# Elastic Compliance Matrix: (Units=1/GPa)
#
#
# Indices 1 2 3 4 5 6 
#
# 1 0.023849 -0.003072 0.012540 0.000000 -0.011809 0.000000
# 2 -0.003072 0.007780 -0.003480 0.000000 0.001195 0.000000
# 3 0.012540 -0.003480 0.031657 0.000000 -0.005150 0.000000
# 4 0.000000 0.000000 0.000000 0.019716 0.000000 -0.009024
# 5 -0.011809 0.001195 -0.005150 0.000000 0.030980 0.000000
# 6 0.000000 0.000000 0.000000 -0.009024 0.000000 0.045613
#
#
# Mechanical properties :
#
#
# Convention : Reuss Voigt Hill
#
# Bulk Modulus (GPa) = 13.28717 27.61278 20.44998
# Shear Modulus (GPa) = 28.95091 40.03323 34.49207
#
# Velocity S-wave (km/s) = 3.28212 3.85953 3.58248
# Velocity P-wave (km/s) = 4.39399 5.48960 4.97206
#
# Compressibility (1/GPa) = 0.07526055
#
# Stress axis : x y z
#
# Youngs Moduli (GPa) = 41.93066 128.54118 31.58830
#
# Poissons Ratio (x) = 0.39488 -0.39611
# Poissons Ratio (y) = 0.12881 0.10994
# Poissons Ratio (z) = -0.52580 0.44737
#
# Static dielectric constant tensor:
#      x y z
#    x 2.064440 0.000000 -0.071230 
#    y 0.000000 2.121910 0.000000 
#    z -0.071230 0.000000 2.221050 
# 
# From -- ./inp_files/8408.got.cif
#   From: 2010.05.17/outbox.cif.g08.bks.cpg/sg14_5_cif.got.tgz:8408.got - 2010.06.03 17:49:19.
