data_PCOD9251444
_publ_section_title
;
Structure prediction by ZEFSAII (Michael W. Deem and Ramdas Pophale) SiO2 
 PCOD9251444
Probable space group: P 21/C
;
_chemical_formula_sum "Si O2"
_cell_formula_units_Z 28
_cell_length_a 7.933669
_cell_length_b 12.524583
_cell_length_c 15.003399
_cell_angle_alpha 90.000000
_cell_angle_beta 130.817349
_cell_angle_gamma 90.000000
_cell_volume 1128.253032
_symmetry_space_group_name_H-M "P 21/C"
_symmetry_group_IT_number 14
_symmetry_cell_setting 'monoclinic'
loop_
_space_group_symop_operation_xyz
x,y,z
-x,1/2+y,1/2-z
-x,-y,-z
x,1/2-y,1/2+z
loop_
_atom_site_type_symbol
_atom_site_label
_atom_site_fract_x
_atom_site_fract_y
_atom_site_fract_z
Si Si1 0.510325 0.709592 0.829740
Si Si2 0.334704 0.853185 0.088060
Si Si3 0.913847 0.844113 0.040728
Si Si4 0.661699 0.017281 0.425961
Si Si5 0.229062 0.689276 0.902938
Si Si6 0.800125 0.559250 0.683483
Si Si7 0.080220 0.886578 0.646756
O O1 0.446089 0.717437 0.704903
O O2 0.507661 0.579337 0.841634
O O3 0.357040 0.734245 0.861785
O O4 0.723136 0.786856 0.916389
O O5 0.118725 0.900892 0.062138
O O6 0.221843 0.781731 0.973007
O O7 0.546793 0.916958 0.124744
O O8 0.017879 0.737079 0.123256
O O9 0.821406 0.918768 0.086445
O O10 0.866823 0.947996 0.534312
O O11 0.619652 0.099750 0.492009
O O12 0.736135 0.079197 0.362812
O O13 0.988906 0.636619 0.795942
O O14 0.864258 0.442559 0.741004
#
# Coordination Sequence:
#
# PCOD9251444 Si02
#       7
#     4   4   4   4   4   4   4
#     4  11  21  36  59  90 120 155 200 248 303 359
#     4  12  22  36  58  84 124 160 188 250 292 354
#     4  11  22  39  60  90 123 159 203 246 301 358
#     4   9  17  32  56  87 120 146 191 257 312 347
#     4  11  21  36  59  90 120 155 200 248 303 359
#     4  11  22  39  60  90 123 159 203 246 301 358
#     4   9  18  34  58  86 122 155 192 256 304 344
#
# _framework density 24.817126999999999
#
# number of rings (size 3 to 8) (size 9 to 14) (size 15 to 20)
#    0.000    1.429    5.714    1.286    0.000    0.000 
#    0.000    1.429    0.000    5.143    0.000   10.000 
#    0.000    0.000    0.000    0.000    0.000    0.000 
#
# Total GULP energy -156292.784713 kJ/mol
# GULP energy per Si atom -5581.885168 kJ/mol
# Density = 2.476064 g / cm^3
# Si number density = 24.817127 Si / 1000 Ang^3
#
#
#
# Elastic Constant Matrix: (Units=GPa)
#
#
# Indices 1 2 3 4 5 6 
#
# 1 138.1286 11.9210 31.5234 0.0000 -4.4686 0.0000
# 2 11.9210 35.8940 2.8334 0.0000 7.4204 0.0000
# 3 31.5234 2.8334 79.1810 0.0000 -4.0299 0.0000
# 4 0.0000 0.0000 0.0000 44.4106 0.0000 10.7135
# 5 -4.4686 7.4204 -4.0299 0.0000 30.1182 0.0000
# 6 0.0000 0.0000 0.0000 10.7135 0.0000 11.6564
#
#
#
# Elastic Compliance Matrix: (Units=1/GPa)
#
#
# Indices 1 2 3 4 5 6 
#
# 1 0.008238 -0.002800 -0.003103 0.000000 0.001497 0.000000
# 2 -0.002800 0.030468 -0.000381 0.000000 -0.007973 0.000000
# 3 -0.003103 -0.000381 0.013955 0.000000 0.001501 0.000000
# 4 0.000000 0.000000 0.000000 0.028932 0.000000 -0.026592
# 5 0.001497 -0.007973 0.001501 0.000000 0.035590 0.000000
# 6 0.000000 0.000000 0.000000 -0.026592 0.000000 0.110231
#
#
# Mechanical properties :
#
#
# Convention : Reuss Voigt Hill
#
# Bulk Modulus (GPa) = 24.94310 38.41768 31.68039
# Shear Modulus (GPa) = 19.73577 31.03209 25.38393
#
# Velocity S-wave (km/s) = 2.82307 3.53998 3.20166
# Velocity P-wave (km/s) = 4.54961 5.67649 5.14400
#
# Compressibility (1/GPa) = 0.04009124
#
# Stress axis : x y z
#
# Youngs Moduli (GPa) = 121.38911 32.82097 71.66002
#
# Poissons Ratio (x) = 0.09191 0.22238
# Poissons Ratio (y) = 0.33995 0.02731
# Poissons Ratio (z) = 0.37670 0.01251
#
# Static dielectric constant tensor:
#      x y z
#    x 1.996560 0.000000 0.046620 
#    y 0.000000 1.997750 0.000000 
#    z 0.046620 0.000000 2.021050 
# 
# From -- ./inp_files/41286.got.cif
#   From: 2010.05.17/outbox.cif.g08.bks.cpg/sg14_21_cif.got.tgz:41286.got - 2010.06.03 17:49:19.
