data_PCOD9251849
_publ_section_title
;
Structure prediction by ZEFSAII (Michael W. Deem and Ramdas Pophale) SiO2 
 PCOD9251849
Probable space group: P 21/C
;
_chemical_formula_sum "Si O2"
_cell_formula_units_Z 24
_cell_length_a 10.577972
_cell_length_b 16.477913
_cell_length_c 11.011286
_cell_angle_alpha 90.000000
_cell_angle_beta 147.080694
_cell_angle_gamma 90.000000
_cell_volume 1043.057172
_symmetry_space_group_name_H-M "P 21/C"
_symmetry_group_IT_number 14
_symmetry_cell_setting 'monoclinic'
loop_
_space_group_symop_operation_xyz
x,y,z
-x,1/2+y,1/2-z
-x,-y,-z
x,1/2-y,1/2+z
loop_
_atom_site_type_symbol
_atom_site_label
_atom_site_fract_x
_atom_site_fract_y
_atom_site_fract_z
Si Si1 0.499775 0.036419 0.219299
Si Si2 0.883556 0.666899 0.524949
Si Si3 0.133304 0.917625 0.638071
Si Si4 0.975173 0.762685 0.363704
Si Si5 0.146336 0.897482 0.927781
Si Si6 0.758298 0.474485 0.160726
O O1 0.595021 0.064549 0.167003
O O2 0.716128 0.034443 0.483801
O O3 0.317101 0.100825 0.121197
O O4 0.378075 0.949830 0.124308
O O5 0.838756 0.720257 0.367575
O O6 0.883712 0.716192 0.653831
O O7 0.121283 0.611282 0.705012
O O8 0.062099 0.845131 0.492571
O O9 0.087857 0.892807 0.738707
O O10 0.000000 0.000000 0.500000
O O11 0.165435 0.692841 0.492515
O O12 0.942005 0.952004 0.825020
O O13 0.500000 0.500000 0.000000
#
# Coordination Sequence:
#
# PCOD9251849 Si02
#       6
#     4   4   4   4   4   4
#     4  11  23  46  74 102 139 192 241 292 367 435
#     4  11  25  47  70 105 146 185 238 301 361 434
#     4  12  23  48  73 100 148 194 238 292 366 437
#     4  12  24  48  70 104 152 182 240 307 355 427
#     4  11  24  44  73 106 140 190 241 301 358 435
#     4  11  22  44  72 102 139 185 239 295 365 427
#
# _framework density 23.009285999999999
#
# number of rings (size 3 to 8) (size 9 to 14) (size 15 to 20)
#    0.000    0.667    5.000    3.500    0.000    2.667 
#   15.000    0.000    0.000    0.000    0.000    0.000 
#    0.000    0.000    0.000    0.000    0.000    0.000 
#
# Total GULP energy -133985.550513 kJ/mol
# GULP energy per Si atom -5582.731271 kJ/mol
# Density = 2.295692 g / cm^3
# Si number density = 23.009286 Si / 1000 Ang^3
#
#
#
# Elastic Constant Matrix: (Units=GPa)
#
#
# Indices 1 2 3 4 5 6 
#
# 1 135.2148 45.0605 16.2871 0.0000 -14.5737 0.0000
# 2 45.0605 154.5877 21.5650 0.0000 -14.7471 0.0000
# 3 16.2871 21.5650 42.0294 0.0000 -18.6171 0.0000
# 4 0.0000 0.0000 0.0000 11.6246 0.0000 -25.4914
# 5 -14.5737 -14.7471 -18.6171 0.0000 47.8014 0.0000
# 6 0.0000 0.0000 0.0000 -25.4914 0.0000 39.2185
#
#
#
# Elastic Compliance Matrix: (Units=1/GPa)
#
#
# Indices 1 2 3 4 5 6 
#
# 1 0.008432 -0.002110 -0.001613 0.000000 0.001292 0.000000
# 2 -0.002110 0.007529 -0.002781 0.000000 0.000596 0.000000
# 3 -0.001613 -0.002781 0.030511 0.000000 0.010533 0.000000
# 4 0.000000 0.000000 0.000000 -0.202249 0.000000 -0.131459
# 5 0.001292 0.000596 0.010533 0.000000 0.025600 0.000000
# 6 0.000000 0.000000 0.000000 -0.131459 0.000000 -0.059948
#
#
# Mechanical properties :
#
#
# Convention : Reuss Voigt Hill
#
# Bulk Modulus (GPa) = 29.88308 55.29522 42.58915
# Shear Modulus (GPa) = -30.12710 36.32352 3.09821
#
# Velocity S-wave (km/s) = -3.62241 3.97753 1.16165
# Velocity P-wave (km/s) = 2.11666 6.72147 4.51098
#
# Compressibility (1/GPa) = 0.03346375
#
# Stress axis : x y z
#
# Youngs Moduli (GPa) = 118.59299 132.82646 32.77541
#
# Poissons Ratio (x) = 0.28022 0.05287
# Poissons Ratio (y) = 0.25019 0.09116
# Poissons Ratio (z) = 0.19129 0.36942
#
# Static dielectric constant tensor:
#      x y z
#    x 2.052970 0.000000 -0.049840 
#    y 0.000000 1.837450 0.000000 
#    z -0.049840 0.000000 1.866310 
# 
# From -- ./inp_files/30489.got.cif
#   From: 2010.05.17/outbox.cif.g08.bks.cpg/sg14_16_cif.got.tgz:30489.got - 2010.06.03 17:49:19.
