data_PCOD9251544
_publ_section_title
;
Structure prediction by ZEFSAII (Michael W. Deem and Ramdas Pophale) SiO2 
 PCOD9251544
Probable space group: P 21/C
;
_chemical_formula_sum "Si O2"
_cell_formula_units_Z 28
_cell_length_a 9.382466
_cell_length_b 14.561452
_cell_length_c 21.005924
_cell_angle_alpha 90.000000
_cell_angle_beta 27.589473
_cell_angle_gamma 90.000000
_cell_volume 1329.135908
_symmetry_space_group_name_H-M "P 21/C"
_symmetry_group_IT_number 14
_symmetry_cell_setting 'monoclinic'
loop_
_space_group_symop_operation_xyz
x,y,z
-x,1/2+y,1/2-z
-x,-y,-z
x,1/2-y,1/2+z
loop_
_atom_site_type_symbol
_atom_site_label
_atom_site_fract_x
_atom_site_fract_y
_atom_site_fract_z
Si Si1 0.924628 0.079496 0.355930
Si Si2 0.754150 0.591839 0.832378
Si Si3 0.714188 0.436852 0.226707
Si Si4 0.809741 0.642491 0.490437
Si Si5 0.655670 0.005326 0.239883
Si Si6 0.021818 0.783505 0.769440
Si Si7 0.697583 0.833516 0.551647
O O1 0.607103 0.112281 0.512714
O O2 0.075026 0.153856 0.251250
O O3 0.840307 0.993008 0.344069
O O4 0.154668 0.038719 0.316262
O O5 0.782803 0.552656 0.749539
O O6 0.943192 0.681093 0.778400
O O7 0.507804 0.407376 0.367979
O O8 0.502496 0.439194 0.248300
O O9 0.007443 0.371202 0.102574
O O10 0.805351 0.734775 0.535516
O O11 0.076669 0.568572 0.395720
O O12 0.861918 0.681179 0.397990
O O13 0.410831 0.080874 0.362919
O O14 0.385117 0.806482 0.636991
#
# Coordination Sequence:
#
# PCOD9251544 Si02
#       7
#     4   4   4   4   4   4   4
#     4  11  21  41  66  96 129 179 225 276 345 409
#     4  11  22  43  69  96 136 173 227 292 334 408
#     4  12  24  42  71  99 138 182 224 278 345 412
#     4  11  23  43  68  99 136 178 229 282 338 408
#     4  11  24  46  66 100 139 183 227 278 348 407
#     4  11  23  41  68 101 131 175 235 287 343 401
#     4  11  21  43  72  96 126 182 235 274 333 418
#
# _framework density 21.066317999999999
#
# number of rings (size 3 to 8) (size 9 to 14) (size 15 to 20)
#    0.000    0.857    4.286    6.000    0.000    0.571 
#   10.286    0.000    0.000    0.000    0.000    0.000 
#    0.000    0.000    0.000    0.000    0.000    0.000 
#
# Total GULP energy -156333.087011 kJ/mol
# GULP energy per Si atom -5583.324536 kJ/mol
# Density = 2.101837 g / cm^3
# Si number density = 21.066318 Si / 1000 Ang^3
#
#
#
# Elastic Constant Matrix: (Units=GPa)
#
#
# Indices 1 2 3 4 5 6 
#
# 1 75.7350 27.8217 16.5460 0.0000 -10.2375 0.0000
# 2 27.8217 107.4946 36.3956 0.0000 -5.2836 0.0000
# 3 16.5460 36.3956 131.1920 0.0000 -15.9809 0.0000
# 4 0.0000 0.0000 0.0000 35.8767 0.0000 -7.4497
# 5 -10.2375 -5.2836 -15.9809 0.0000 6.4443 0.0000
# 6 0.0000 0.0000 0.0000 -7.4497 0.0000 25.0740
#
#
#
# Elastic Compliance Matrix: (Units=1/GPa)
#
#
# Indices 1 2 3 4 5 6 
#
# 1 0.018592 -0.004145 0.002850 0.000000 0.033205 0.000000
# 2 -0.004145 0.011208 -0.003252 0.000000 -0.005459 0.000000
# 3 0.002850 -0.003252 0.012024 0.000000 0.031679 0.000000
# 4 0.000000 0.000000 0.000000 0.029706 0.000000 0.008826
# 5 0.033205 -0.005459 0.031679 0.000000 0.282011 0.000000
# 6 0.000000 0.000000 0.000000 0.008826 0.000000 0.042504
#
#
# Mechanical properties :
#
#
# Convention : Reuss Voigt Hill
#
# Bulk Modulus (GPa) = 30.55168 52.88314 41.71741
# Shear Modulus (GPa) = 12.01781 29.05624 20.53702
#
# Velocity S-wave (km/s) = 2.39105 3.71789 3.12569
# Velocity P-wave (km/s) = 4.70712 6.60211 5.73345
#
# Compressibility (1/GPa) = 0.03273142
#
# Stress axis : x y z
#
# Youngs Moduli (GPa) = 53.78514 89.22055 83.16700
#
# Poissons Ratio (x) = 0.36981 -0.23701
# Poissons Ratio (y) = 0.22293 0.27042
# Poissons Ratio (z) = -0.15328 0.29011
#
# Static dielectric constant tensor:
#      x y z
#    x 1.758470 0.000000 -0.006060 
#    y 0.000000 1.785900 0.000000 
#    z -0.006060 0.000000 1.785220 
# 
# From -- ./inp_files/65906.got.cif
#   From: 2010.05.17/outbox.cif.g08.bks.cpg/sg14_33_cif.got.tgz:65906.got - 2010.06.03 17:49:19.
