data_PCOD9251913
_publ_section_title
;
Structure prediction by ZEFSAII (Michael W. Deem and Ramdas Pophale) SiO2 
 PCOD9251913
Probable space group: P 21/C
;
_chemical_formula_sum "Si O2"
_cell_formula_units_Z 28
_cell_length_a 5.299181
_cell_length_b 19.026111
_cell_length_c 10.396671
_cell_angle_alpha 90.000000
_cell_angle_beta 91.056149
_cell_angle_gamma 90.000000
_cell_volume 1048.043462
_symmetry_space_group_name_H-M "P 21/C"
_symmetry_group_IT_number 14
_symmetry_cell_setting 'monoclinic'
loop_
_space_group_symop_operation_xyz
x,y,z
-x,1/2+y,1/2-z
-x,-y,-z
x,1/2-y,1/2+z
loop_
_atom_site_type_symbol
_atom_site_label
_atom_site_fract_x
_atom_site_fract_y
_atom_site_fract_z
Si Si1 0.765036 0.593658 0.003409
Si Si2 0.599204 0.017069 0.674732
Si Si3 0.019658 0.887090 0.239568
Si Si4 0.732666 0.412172 0.679915
Si Si5 0.378434 0.244277 0.507135
Si Si6 0.291641 0.748595 0.237590
Si Si7 0.216375 0.106917 0.023651
O O1 0.795791 0.540596 0.120584
O O2 0.752582 0.673970 0.044171
O O3 0.500499 0.567821 0.939083
O O4 0.944953 0.592878 0.883073
O O5 0.726864 0.068002 0.779184
O O6 0.366210 0.970216 0.721798
O O7 0.062015 0.803372 0.239696
O O8 0.827802 0.907586 0.126327
O O9 0.753581 0.334820 0.746156
O O10 0.492719 0.409170 0.580074
O O11 0.989895 0.425317 0.605130
O O12 0.571473 0.264033 0.395993
O O13 0.529434 0.230472 0.640406
O O14 0.192996 0.308286 0.534012
#
# Coordination Sequence:
#
# PCOD9251913 Si02
#       7
#     4   4   4   4   4   4   4
#     4  11  24  46  74 110 146 199 256 316 383 459
#     4  11  26  47  73 109 154 198 259 309 392 458
#     4  12  25  45  76 110 149 205 251 324 377 470
#     4  11  26  50  72 113 151 206 249 318 376 471
#     4  11  22  47  76 112 148 199 252 324 379 459
#     4  11  23  45  76 109 156 193 259 313 386 447
#     4  11  27  46  77 111 154 196 259 308 393 442
#
# _framework density 26.716446000000001
#
# number of rings (size 3 to 8) (size 9 to 14) (size 15 to 20)
#    0.000    0.857    2.857    3.857    4.000    2.286 
#    2.571    0.000    0.000    0.000    0.000    0.000 
#    0.000    0.000    0.000    0.000    0.000    0.000 
#
# Total GULP energy -157027.098269 kJ/mol
# GULP energy per Si atom -5608.110652 kJ/mol
# Density = 2.665564 g / cm^3
# Si number density = 26.716446 Si / 1000 Ang^3
#
#
#
# Elastic Constant Matrix: (Units=GPa)
#
#
# Indices 1 2 3 4 5 6 
#
# 1 94.1464 11.6180 57.7373 0.0000 -3.3053 0.0000
# 2 11.6180 125.0087 15.6092 0.0000 -8.1596 0.0000
# 3 57.7373 15.6092 99.0548 0.0000 -8.0406 0.0000
# 4 0.0000 0.0000 0.0000 26.9770 0.0000 -3.4236
# 5 -3.3053 -8.1596 -8.0406 0.0000 53.2560 0.0000
# 6 0.0000 0.0000 0.0000 -3.4236 0.0000 38.5050
#
#
#
# Elastic Compliance Matrix: (Units=1/GPa)
#
#
# Indices 1 2 3 4 5 6 
#
# 1 0.016557 -0.000368 -0.009632 0.000000 -0.000483 0.000000
# 2 -0.000368 0.008229 -0.000994 0.000000 0.001088 0.000000
# 3 -0.009632 -0.000994 0.016002 0.000000 0.001666 0.000000
# 4 0.000000 0.000000 0.000000 0.037492 0.000000 0.003333
# 5 -0.000483 0.001088 0.001666 0.000000 0.019165 0.000000
# 6 0.000000 0.000000 0.000000 0.003333 0.000000 0.026267
#
#
# Mechanical properties :
#
#
# Convention : Reuss Voigt Hill
#
# Bulk Modulus (GPa) = 53.19180 54.23767 53.71473
# Shear Modulus (GPa) = 32.90197 39.29729 36.09963
#
# Velocity S-wave (km/s) = 3.51312 3.83940 3.67987
# Velocity P-wave (km/s) = 6.03398 6.32455 6.18097
#
# Compressibility (1/GPa) = 0.01879989
#
# Stress axis : x y z
#
# Youngs Moduli (GPa) = 60.39612 121.52521 62.49309
#
# Poissons Ratio (x) = 0.04467 0.60195
# Poissons Ratio (y) = 0.02220 0.06213
# Poissons Ratio (z) = 0.58175 0.12081
#
# Static dielectric constant tensor:
#      x y z
#    x 2.106310 0.000000 -0.044590 
#    y 0.000000 2.058230 0.000000 
#    z -0.044590 0.000000 2.054730 
# 
# From -- ./inp_files/21556.got.cif
#   From: 2010.05.17/outbox.cif.g08.bks.cpg/sg14_11_cif.got.tgz:21556.got - 2010.06.03 17:49:19.
