data_PCOD9251466
_publ_section_title
;
Structure prediction by ZEFSAII (Michael W. Deem and Ramdas Pophale) SiO2 
 PCOD9251466
Probable space group: P 21/C
;
_chemical_formula_sum "Si O2"
_cell_formula_units_Z 32
_cell_length_a 26.917335
_cell_length_b 8.908296
_cell_length_c 9.672198
_cell_angle_alpha 90.000000
_cell_angle_beta 50.442277
_cell_angle_gamma 90.000000
_cell_volume 1788.120936
_symmetry_space_group_name_H-M "P 21/C"
_symmetry_group_IT_number 14
_symmetry_cell_setting 'monoclinic'
loop_
_space_group_symop_operation_xyz
x,y,z
-x,1/2+y,1/2-z
-x,-y,-z
x,1/2-y,1/2+z
loop_
_atom_site_type_symbol
_atom_site_label
_atom_site_fract_x
_atom_site_fract_y
_atom_site_fract_z
Si Si1 0.543715 0.563432 0.302285
Si Si2 0.675036 0.587811 0.491961
Si Si3 0.946849 0.407578 0.679849
Si Si4 0.182703 0.091315 0.258586
Si Si5 0.820755 0.890737 0.414546
Si Si6 0.466668 0.073065 0.690034
Si Si7 0.679619 0.603215 0.154605
Si Si8 0.053416 0.902277 0.486331
O O1 0.500000 0.500000 0.500000
O O2 0.537892 0.745147 0.305385
O O3 0.513891 0.483016 0.224627
O O4 0.617872 0.522100 0.200580
O O5 0.746238 0.517552 0.387608
O O6 0.607009 0.515853 0.656417
O O7 0.668940 0.621527 0.338437
O O8 0.680346 0.737638 0.574896
O O9 0.879903 0.498415 0.786614
O O10 0.943213 0.252410 0.603427
O O11 0.000000 0.500000 0.500000
O O12 0.960547 0.389025 0.822062
O O13 0.173072 0.236313 0.179862
O O14 0.181555 0.147009 0.418949
O O15 0.122912 0.980956 0.348864
O O16 0.750807 0.962468 0.505501
O O17 0.500000 0.000000 0.500000
O O18 0.000000 0.000000 0.500000
#
# Coordination Sequence:
#
# PCOD9251466 Si02
#       8
#     4   4   4   4   4   4   4   4
#     4  11  21  38  58  83 113 151 190 241 292 346
#     4   9  18  34  56  81 109 147 189 235 279 340
#     4  11  23  39  60  85 119 153 191 233 286 341
#     4   9  19  36  59  84 111 144 189 233 279 334
#     4   9  19  36  58  85 110 146 189 233 277 335
#     4  11  23  36  58  83 115 149 196 239 293 350
#     4   9  18  33  57  80 111 146 190 233 281 338
#     4  11  23  39  60  86 118 153 190 235 285 339
#
# _framework density 17.895882
#
# number of rings (size 3 to 8) (size 9 to 14) (size 15 to 20)
#    0.000    2.000    1.250    2.250    5.250    4.000 
#    0.000    2.500    0.000    0.000    0.000    0.000 
#    0.000    0.000    0.000    0.000    0.000    0.000 
#
# Total GULP energy -178209.933788 kJ/mol
# GULP energy per Si atom -5569.060431 kJ/mol
# Density = 1.785515 g / cm^3
# Si number density = 17.895882 Si / 1000 Ang^3
#
#
#
# Elastic Constant Matrix: (Units=GPa)
#
#
# Indices 1 2 3 4 5 6 
#
# 1 166.7867 55.4844 90.1076 0.0000 -9.7533 0.0000
# 2 55.4844 74.3393 48.9051 0.0000 -0.1830 0.0000
# 3 90.1076 48.9051 142.5980 0.0000 -8.8215 0.0000
# 4 0.0000 0.0000 0.0000 28.3559 0.0000 4.9613
# 5 -9.7533 -0.1830 -8.8215 0.0000 34.3290 0.0000
# 6 0.0000 0.0000 0.0000 4.9613 0.0000 28.1131
#
#
#
# Elastic Compliance Matrix: (Units=1/GPa)
#
#
# Indices 1 2 3 4 5 6 
#
# 1 0.010154 -0.004416 -0.004801 0.000000 0.001628 0.000000
# 2 -0.004416 0.019364 -0.003985 0.000000 -0.002176 0.000000
# 3 -0.004801 -0.003985 0.011510 0.000000 0.001573 0.000000
# 4 0.000000 0.000000 0.000000 0.036390 0.000000 -0.006422
# 5 0.001628 -0.002176 0.001573 0.000000 0.029985 0.000000
# 6 0.000000 0.000000 0.000000 -0.006422 0.000000 0.036704
#
#
# Mechanical properties :
#
#
# Convention : Reuss Voigt Hill
#
# Bulk Modulus (GPa) = 68.38052 85.85757 77.11905
# Shear Modulus (GPa) = 28.50862 30.77472 29.64167
#
# Velocity S-wave (km/s) = 3.99560 4.15137 4.07423
# Velocity P-wave (km/s) = 7.71878 8.42964 8.08203
#
# Compressibility (1/GPa) = 0.01462405
#
# Stress axis : x y z
#
# Youngs Moduli (GPa) = 98.48713 51.64180 86.87765
#
# Poissons Ratio (x) = 0.22805 0.41709
# Poissons Ratio (y) = 0.43492 0.34623
# Poissons Ratio (z) = 0.47282 0.20580
#
# Static dielectric constant tensor:
#      x y z
#    x 1.644600 0.000000 -0.036670 
#    y 0.000000 2.325180 0.000000 
#    z -0.036670 0.000000 1.609260 
# 
# From -- ./inp_files/19366.got.cif
#   From: 2010.05.17/outbox.cif.g08.bks.cpg/sg14_10_cif.got.tgz:19366.got - 2010.06.03 17:49:19.
