data_PCOD9251841
_publ_section_title
;
Structure prediction by ZEFSAII (Michael W. Deem and Ramdas Pophale) SiO2 
 PCOD9251841
Probable space group: P 21/C
;
_chemical_formula_sum "Si O2"
_cell_formula_units_Z 28
_cell_length_a 9.635943
_cell_length_b 10.462361
_cell_length_c 27.567769
_cell_angle_alpha 90.000000
_cell_angle_beta 152.003211
_cell_angle_gamma 90.000000
_cell_volume 1304.635096
_symmetry_space_group_name_H-M "P 21/C"
_symmetry_group_IT_number 14
_symmetry_cell_setting 'monoclinic'
loop_
_space_group_symop_operation_xyz
x,y,z
-x,1/2+y,1/2-z
-x,-y,-z
x,1/2-y,1/2+z
loop_
_atom_site_type_symbol
_atom_site_label
_atom_site_fract_x
_atom_site_fract_y
_atom_site_fract_z
Si Si1 0.222466 0.586879 0.924084
Si Si2 0.255533 0.780471 0.268054
Si Si3 0.884864 0.741621 0.744403
Si Si4 0.737400 0.404631 0.818609
Si Si5 0.919755 0.850850 0.485676
Si Si6 0.261106 0.807919 0.010876
Si Si7 0.877634 0.965590 0.822910
O O1 0.319448 0.705587 0.986563
O O2 0.084978 0.636185 0.832014
O O3 0.968316 0.512970 0.874699
O O4 0.500000 0.500000 0.000000
O O5 0.324464 0.679954 0.247317
O O6 0.569616 0.834151 0.383973
O O7 0.056536 0.719844 0.248687
O O8 0.080363 0.899068 0.189927
O O9 0.568409 0.680422 0.634019
O O10 0.859679 0.857127 0.775267
O O11 0.440602 0.463506 0.749042
O O12 0.897773 0.320505 0.909407
O O13 0.032629 0.759169 0.477545
O O14 0.000000 0.000000 0.500000
O O15 0.117001 0.926528 0.937695
#
# Coordination Sequence:
#
# PCOD9251841 Si02
#       7
#     4   4   4   4   4   4   4
#     4  11  24  42  71 101 135 178 238 291 338 419
#     4  12  26  44  69 104 139 182 233 293 352 415
#     4  11  26  43  70 100 142 184 231 283 361 400
#     4  12  24  41  72 104 133 178 243 283 345 417
#     4  12  21  41  74  97 129 180 233 287 343 407
#     4  11  22  44  67  97 137 183 225 290 352 404
#     4  11  25  45  68 100 144 178 234 294 339 419
#
# _framework density 21.461940999999999
#
# number of rings (size 3 to 8) (size 9 to 14) (size 15 to 20)
#    0.000    0.571    5.714    1.714    6.000    1.714 
#    2.571    1.429    0.000    0.000    0.000    0.000 
#    0.000    0.000    0.000    0.000    0.000    0.000 
#
# Total GULP energy -156681.299881 kJ/mol
# GULP energy per Si atom -5595.760710 kJ/mol
# Density = 2.141309 g / cm^3
# Si number density = 21.461941 Si / 1000 Ang^3
#
#
#
# Elastic Constant Matrix: (Units=GPa)
#
#
# Indices 1 2 3 4 5 6 
#
# 1 104.5430 3.5528 14.2770 0.0000 4.7307 0.0000
# 2 3.5528 23.8692 3.9620 0.0000 4.1457 0.0000
# 3 14.2770 3.9620 79.8792 0.0000 -6.0127 0.0000
# 4 0.0000 0.0000 0.0000 21.7477 0.0000 -1.7901
# 5 4.7307 4.1457 -6.0127 0.0000 34.5590 0.0000
# 6 0.0000 0.0000 0.0000 -1.7901 0.0000 21.2154
#
#
#
# Elastic Compliance Matrix: (Units=1/GPa)
#
#
# Indices 1 2 3 4 5 6 
#
# 1 0.009919 -0.000897 -0.001847 0.000000 -0.001572 0.000000
# 2 -0.000897 0.043383 -0.002406 0.000000 -0.005500 0.000000
# 3 -0.001847 -0.002406 0.013182 0.000000 0.002835 0.000000
# 4 0.000000 0.000000 0.000000 0.046303 0.000000 0.003907
# 5 -0.001572 -0.005500 0.002835 0.000000 0.030304 0.000000
# 6 0.000000 0.000000 0.000000 0.003907 0.000000 0.047465
#
#
# Mechanical properties :
#
#
# Convention : Reuss Voigt Hill
#
# Bulk Modulus (GPa) = 17.79815 27.98613 22.89214
# Shear Modulus (GPa) = 22.77037 27.93772 25.35405
#
# Velocity S-wave (km/s) = 3.26078 3.61187 3.44080
# Velocity P-wave (km/s) = 4.74213 5.51927 5.14539
#
# Compressibility (1/GPa) = 0.05618562
#
# Stress axis : x y z
#
# Youngs Moduli (GPa) = 100.81431 23.05049 75.86298
#
# Poissons Ratio (x) = 0.02068 0.14009
# Poissons Ratio (y) = 0.09043 0.18249
# Poissons Ratio (z) = 0.18617 0.05545
#
# Static dielectric constant tensor:
#      x y z
#    x 1.788670 0.000000 -0.027190 
#    y 0.000000 1.792210 0.000000 
#    z -0.027190 0.000000 1.802460 
# 
# From -- ./inp_files/76663.got.cif
#   From: 2010.05.17/outbox.cif.g08.bks.cpg/sg14_39_cif.got.tgz:76663.got - 2010.06.03 17:49:19.
