data_PCOD9251951
_publ_section_title
;
Structure prediction by ZEFSAII (Michael W. Deem and Ramdas Pophale) SiO2 
 PCOD9251951
Probable space group: P 21/C
;
_chemical_formula_sum "Si O2"
_cell_formula_units_Z 24
_cell_length_a 10.839469
_cell_length_b 22.098487
_cell_length_c 13.490483
_cell_angle_alpha 90.000000
_cell_angle_beta 20.081959
_cell_angle_gamma 90.000000
_cell_volume 1109.565084
_symmetry_space_group_name_H-M "P 21/C"
_symmetry_group_IT_number 14
_symmetry_cell_setting 'monoclinic'
loop_
_space_group_symop_operation_xyz
x,y,z
-x,1/2+y,1/2-z
-x,-y,-z
x,1/2-y,1/2+z
loop_
_atom_site_type_symbol
_atom_site_label
_atom_site_fract_x
_atom_site_fract_y
_atom_site_fract_z
Si Si1 0.075421 0.735919 0.054084
Si Si2 0.992631 0.853110 0.217866
Si Si3 0.075462 0.235923 0.554062
Si Si4 0.007344 0.853114 0.782144
Si Si5 0.628225 0.929912 0.219124
Si Si6 0.371763 0.929909 0.780879
O O1 0.935244 0.686943 0.238496
O O2 0.898766 0.801003 0.209266
O O3 0.999977 0.716755 0.000012
O O4 0.499980 0.749999 0.750010
O O5 0.064730 0.813052 0.261513
O O6 0.676241 0.898254 0.486051
O O7 0.306747 0.892199 0.930605
O O8 0.898811 0.301007 0.709239
O O9 0.323746 0.898257 0.513952
O O10 0.693231 0.892205 0.069402
O O11 0.543598 0.000002 0.264007
O O12 0.999995 0.927500 0.999999
#
# Coordination Sequence:
#
# PCOD9251951 Si02
#       6
#     4   4   4   4   4   4
#     4  11  25  42  67 101 132 176 216 271 333 396
#     4  11  23  40  64  94 134 169 214 275 329 389
#     4  11  25  42  67 101 132 176 216 271 333 396
#     4  11  23  40  64  94 134 169 214 275 329 389
#     4  11  23  39  64  97 133 174 223 275 327 382
#     4  11  23  39  64  97 133 174 223 275 327 382
#
# _framework density 21.630095000000001
#
# number of rings (size 3 to 8) (size 9 to 14) (size 15 to 20)
#    0.000    1.000    3.333    3.000    4.667    6.667 
#    0.000    0.000    0.000    6.000    0.000    0.000 
#    0.000    0.000    0.000    0.000    0.000    0.000 
#
# Total GULP energy -134309.195931 kJ/mol
# GULP energy per Si atom -5596.216497 kJ/mol
# Density = 2.158086 g / cm^3
# Si number density = 21.630095 Si / 1000 Ang^3
#
#
#
# Elastic Constant Matrix: (Units=GPa)
#
#
# Indices 1 2 3 4 5 6 
#
# 1 71.3918 13.6201 13.6312 0.0000 20.8044 0.0000
# 2 13.6201 163.7650 34.6543 0.0000 20.1804 0.0000
# 3 13.6312 34.6543 107.7415 0.0000 19.3863 0.0000
# 4 0.0000 0.0000 0.0000 39.0116 0.0000 11.6145
# 5 20.8044 20.1804 19.3863 0.0000 36.6991 0.0000
# 6 0.0000 0.0000 0.0000 11.6145 0.0000 12.6920
#
#
#
# Elastic Compliance Matrix: (Units=1/GPa)
#
#
# Indices 1 2 3 4 5 6 
#
# 1 0.016804 -0.000175 -0.000412 0.000000 -0.009212 0.000000
# 2 -0.000175 0.006816 -0.001672 0.000000 -0.002765 0.000000
# 3 -0.000412 -0.001672 0.010679 0.000000 -0.004488 0.000000
# 4 0.000000 0.000000 0.000000 0.035232 0.000000 -0.032241
# 5 -0.009212 -0.002765 -0.004488 0.000000 0.036362 0.000000
# 6 0.000000 0.000000 0.000000 -0.032241 0.000000 0.108294
#
#
# Mechanical properties :
#
#
# Convention : Reuss Voigt Hill
#
# Bulk Modulus (GPa) = 33.58092 51.85661 42.71877
# Shear Modulus (GPa) = 21.86917 36.41339 29.14128
#
# Velocity S-wave (km/s) = 3.18316 4.10745 3.67448
# Velocity P-wave (km/s) = 5.39155 6.82064 6.14776
#
# Compressibility (1/GPa) = 0.02977881
#
# Stress axis : x y z
#
# Youngs Moduli (GPa) = 59.51044 146.72407 93.64102
#
# Poissons Ratio (x) = 0.02570 0.03859
# Poissons Ratio (y) = 0.01043 0.15661
# Poissons Ratio (z) = 0.02452 0.24539
#
# Static dielectric constant tensor:
#      x y z
#    x 1.792840 0.000000 -0.011140 
#    y 0.000000 1.773600 0.000000 
#    z -0.011140 0.000000 1.830370 
# 
# From -- ./inp_files/45544.got.cif
#   From: 2010.05.17/outbox.cif.g08.bks.cpg/sg14_23_cif.got.tgz:45544.got - 2010.06.03 17:49:19.
