data_PCOD9251111
_publ_section_title
;
Structure prediction by ZEFSAII (Michael W. Deem and Ramdas Pophale) SiO2 
 PCOD9251111
Probable space group: P 21/C
;
_chemical_formula_sum "Si O2"
_cell_formula_units_Z 16
_cell_length_a 7.287697
_cell_length_b 13.258894
_cell_length_c 8.572394
_cell_angle_alpha 90.000000
_cell_angle_beta 50.926669
_cell_angle_gamma 90.000000
_cell_volume 643.060191
_symmetry_space_group_name_H-M "P 21/C"
_symmetry_group_IT_number 14
_symmetry_cell_setting 'monoclinic'
loop_
_space_group_symop_operation_xyz
x,y,z
-x,1/2+y,1/2-z
-x,-y,-z
x,1/2-y,1/2+z
loop_
_atom_site_type_symbol
_atom_site_label
_atom_site_fract_x
_atom_site_fract_y
_atom_site_fract_z
Si Si1 0.589664 0.074158 0.586270
Si Si2 0.236726 0.973986 0.199443
Si Si3 0.863672 0.862322 0.969349
Si Si4 0.094510 0.769550 0.137267
O O1 0.749533 0.009513 0.622822
O O2 0.729408 0.174884 0.462797
O O3 0.500000 0.000000 0.500000
O O4 0.365673 0.113510 0.806487
O O5 0.185614 0.857610 0.198775
O O6 0.078249 0.038473 0.164321
O O7 0.500000 0.000000 0.000000
O O8 0.853657 0.776053 0.841507
O O9 0.052013 0.820626 0.992651
#
# Coordination Sequence:
#
# PCOD9251111 Si02
#       4
#     4   4   4   4
#     4  11  28  49  79 112 155 200 254 317 385 455
#     4  10  25  48  73 111 154 197 253 314 382 458
#     4  11  28  47  77 110 151 197 262 311 383 458
#     4  12  26  49  76 110 152 203 254 317 387 449
#
# _framework density 24.881031
#
# number of rings (size 3 to 8) (size 9 to 14) (size 15 to 20)
#    0.000    1.000    2.500    0.750   17.500    3.000 
#    0.000    0.000    0.000    0.000    0.000    0.000 
#    0.000    0.000    0.000    0.000    0.000    0.000 
#
# Total GULP energy -89492.049637 kJ/mol
# GULP energy per Si atom -5593.253102 kJ/mol
# Density = 2.482440 g / cm^3
# Si number density = 24.881031 Si / 1000 Ang^3
#
#
#
# Elastic Constant Matrix: (Units=GPa)
#
#
# Indices 1 2 3 4 5 6 
#
# 1 121.7643 78.9685 65.4984 0.0000 34.0482 0.0000
# 2 78.9685 164.3281 81.2311 0.0000 13.8196 0.0000
# 3 65.4984 81.2311 149.5557 0.0000 26.3613 0.0000
# 4 0.0000 0.0000 0.0000 55.8398 0.0000 5.8675
# 5 34.0482 13.8196 26.3613 0.0000 54.7743 0.0000
# 6 0.0000 0.0000 0.0000 5.8675 0.0000 51.1486
#
#
#
# Elastic Compliance Matrix: (Units=1/GPa)
#
#
# Indices 1 2 3 4 5 6 
#
# 1 0.014892 -0.005404 -0.002399 0.000000 -0.006739 0.000000
# 2 -0.005404 0.010280 -0.003663 0.000000 0.002528 0.000000
# 3 -0.002399 -0.003663 0.010163 0.000000 -0.002476 0.000000
# 4 0.000000 0.000000 0.000000 0.018127 0.000000 -0.002079
# 5 -0.006739 0.002528 -0.002476 0.000000 0.022999 0.000000
# 6 0.000000 0.000000 0.000000 -0.002079 0.000000 0.019789
#
#
# Mechanical properties :
#
#
# Convention : Reuss Voigt Hill
#
# Bulk Modulus (GPa) = 80.61908 98.56046 89.58977
# Shear Modulus (GPa) = 40.54607 46.34920 43.44763
#
# Velocity S-wave (km/s) = 4.04121 4.32074 4.18331
# Velocity P-wave (km/s) = 7.36528 8.03681 7.70836
#
# Compressibility (1/GPa) = 0.01240401
#
# Stress axis : x y z
#
# Youngs Moduli (GPa) = 67.15008 97.27528 98.39692
#
# Poissons Ratio (x) = 0.52565 0.23607
# Poissons Ratio (y) = 0.36286 0.36039
# Poissons Ratio (z) = 0.16110 0.35629
#
# Static dielectric constant tensor:
#      x y z
#    x 2.053020 0.000000 -0.027810 
#    y 0.000000 2.016520 0.000000 
#    z -0.027810 0.000000 2.028370 
# 
# From -- ./inp_files/7806.got.cif
#   From: 2010.05.17/outbox.cif.g08.bks.cpg/sg14_4_cif.got.tgz:7806.got - 2010.06.03 17:49:19.
