data_PCOD9251240
_publ_section_title
;
Structure prediction by ZEFSAII (Michael W. Deem and Ramdas Pophale) SiO2 
 PCOD9251240
Probable space group: P 21/C
;
_chemical_formula_sum "Si O2"
_cell_formula_units_Z 12
_cell_length_a 4.935169
_cell_length_b 10.604011
_cell_length_c 9.260493
_cell_angle_alpha 90.000000
_cell_angle_beta 115.785369
_cell_angle_gamma 90.000000
_cell_volume 436.371327
_symmetry_space_group_name_H-M "P 21/C"
_symmetry_group_IT_number 14
_symmetry_cell_setting 'monoclinic'
loop_
_space_group_symop_operation_xyz
x,y,z
-x,1/2+y,1/2-z
-x,-y,-z
x,1/2-y,1/2+z
loop_
_atom_site_type_symbol
_atom_site_label
_atom_site_fract_x
_atom_site_fract_y
_atom_site_fract_z
Si Si1 0.510758 0.981385 0.172609
Si Si2 0.544053 0.861790 0.579626
Si Si3 0.067421 0.685675 0.754476
O O1 0.505288 0.110316 0.262938
O O2 0.816963 0.904620 0.270591
O O3 0.761050 0.102884 0.826208
O O4 0.500000 0.000000 0.000000
O O5 0.868460 0.798266 0.644126
O O6 0.302548 0.781474 0.434964
O O7 0.500000 0.000000 0.500000
#
# Coordination Sequence:
#
# PCOD9251240 Si02
#       3
#     4   4   4
#     4  11  26  49  80 119 159 210 277 349 415 488
#     4  10  26  52  78 116 164 214 275 341 408 496
#     4  11  26  49  80 113 158 220 272 336 417 492
#
# _framework density 27.499513
#
# number of rings (size 3 to 8) (size 9 to 14) (size 15 to 20)
#    0.000    1.333    0.000    2.000    0.000   24.000 
#    0.000    6.667    0.000    0.000    0.000    0.000 
#    0.000    0.000    0.000    0.000    0.000    0.000 
#
# Total GULP energy -67380.041254 kJ/mol
# GULP energy per Si atom -5615.003438 kJ/mol
# Density = 2.743692 g / cm^3
# Si number density = 27.499513 Si / 1000 Ang^3
#
#
#
# Elastic Constant Matrix: (Units=GPa)
#
#
# Indices 1 2 3 4 5 6 
#
# 1 223.0818 71.6049 90.2664 0.0000 13.3593 0.0000
# 2 71.6049 125.2248 84.3942 0.0000 15.4522 0.0000
# 3 90.2664 84.3942 227.4139 0.0000 4.6447 0.0000
# 4 0.0000 0.0000 0.0000 66.0212 0.0000 2.0226
# 5 13.3593 15.4522 4.6447 0.0000 62.5263 0.0000
# 6 0.0000 0.0000 0.0000 2.0226 0.0000 75.7845
#
#
#
# Elastic Compliance Matrix: (Units=1/GPa)
#
#
# Indices 1 2 3 4 5 6 
#
# 1 0.005841 -0.002286 -0.001458 0.000000 -0.000575 0.000000
# 2 -0.002286 0.011898 -0.003463 0.000000 -0.002195 0.000000
# 3 -0.001458 -0.003463 0.006247 0.000000 0.000703 0.000000
# 4 0.000000 0.000000 0.000000 0.015159 0.000000 -0.000405
# 5 -0.000575 -0.002195 0.000703 0.000000 0.016606 0.000000
# 6 0.000000 0.000000 0.000000 -0.000405 0.000000 0.013206
#
#
# Mechanical properties :
#
#
# Convention : Reuss Voigt Hill
#
# Bulk Modulus (GPa) = 104.48804 118.69463 111.59134
# Shear Modulus (GPa) = 57.76227 62.83007 60.29617
#
# Velocity S-wave (km/s) = 4.58808 4.78511 4.68763
# Velocity P-wave (km/s) = 8.13302 8.58987 8.36457
#
# Compressibility (1/GPa) = 0.00957047
#
# Stress axis : x y z
#
# Youngs Moduli (GPa) = 171.20429 84.05093 160.08101
#
# Poissons Ratio (x) = 0.19216 0.23344
# Poissons Ratio (y) = 0.39141 0.55435
# Poissons Ratio (z) = 0.24966 0.29106
#
# Static dielectric constant tensor:
#      x y z
#    x 2.106990 0.000000 -0.023070 
#    y 0.000000 2.243400 0.000000 
#    z -0.023070 0.000000 2.129430 
# 
# From -- ./inp_files/4749.got.cif
#   From: 2010.05.17/outbox.cif.g08.bks.cpg/sg14_3_cif.got.tgz:4749.got - 2010.06.03 17:49:19.
