data_PCOD9251930
_publ_section_title
;
Structure prediction by ZEFSAII (Michael W. Deem and Ramdas Pophale) SiO2 
 PCOD9251930
Probable space group: P 21/C
;
_chemical_formula_sum "Si O2"
_cell_formula_units_Z 24
_cell_length_a 16.473672
_cell_length_b 9.472384
_cell_length_c 13.805038
_cell_angle_alpha 90.000000
_cell_angle_beta 25.618187
_cell_angle_gamma 90.000000
_cell_volume 931.418517
_symmetry_space_group_name_H-M "P 21/C"
_symmetry_group_IT_number 14
_symmetry_cell_setting 'monoclinic'
loop_
_space_group_symop_operation_xyz
x,y,z
-x,1/2+y,1/2-z
-x,-y,-z
x,1/2-y,1/2+z
loop_
_atom_site_type_symbol
_atom_site_label
_atom_site_fract_x
_atom_site_fract_y
_atom_site_fract_z
Si Si1 0.582951 0.394152 0.739526
Si Si2 0.183989 0.316102 0.211160
Si Si3 0.316009 0.316103 0.288842
Si Si4 0.174089 0.646483 0.931990
Si Si5 0.917049 0.105846 0.260475
Si Si6 0.674089 0.146485 0.931991
O O1 0.570097 0.543146 0.805689
O O2 0.703930 0.287059 0.674775
O O3 0.676807 0.425918 0.534213
O O4 0.381137 0.320643 0.942116
O O5 0.249997 0.325083 0.250003
O O6 0.070095 0.456853 0.305689
O O7 0.040934 0.188726 0.354461
O O8 0.118863 0.320643 0.557886
O O9 0.459066 0.188728 0.145539
O O10 0.176808 0.574080 0.034211
O O11 0.250000 0.582134 0.749999
O O12 0.796070 0.212939 0.325225
#
# Coordination Sequence:
#
# PCOD9251930 Si02
#       6
#     4   4   4   4   4   4
#     4  11  23  37  64  93 122 154 205 255 295 352
#     4  12  21  39  67  93 115 160 209 248 294 358
#     4  12  21  39  67  93 115 160 209 248 294 358
#     4  11  23  41  61  91 125 159 200 249 305 356
#     4  11  23  37  64  93 122 154 205 255 295 352
#     4  11  23  41  61  91 125 159 200 249 305 356
#
# _framework density 25.767150000000001
#
# number of rings (size 3 to 8) (size 9 to 14) (size 15 to 20)
#    0.000    0.667    6.667    3.000    0.000    0.000 
#    0.000    1.667    0.000    0.000    0.000    0.000 
#    0.000    0.000    0.000    0.000    0.000    0.000 
#
# Total GULP energy -134409.923726 kJ/mol
# GULP energy per Si atom -5600.413489 kJ/mol
# Density = 2.570850 g / cm^3
# Si number density = 25.767150 Si / 1000 Ang^3
#
#
#
# Elastic Constant Matrix: (Units=GPa)
#
#
# Indices 1 2 3 4 5 6 
#
# 1 98.9563 14.4667 37.2151 0.0000 20.1344 0.0000
# 2 14.4667 25.3452 -2.0338 0.0000 -9.2848 0.0000
# 3 37.2151 -2.0338 128.1819 0.0000 3.3977 0.0000
# 4 0.0000 0.0000 0.0000 17.4825 0.0000 -3.7753
# 5 20.1344 -9.2848 3.3977 0.0000 72.4735 0.0000
# 6 0.0000 0.0000 0.0000 -3.7753 0.0000 10.8804
#
#
#
# Elastic Compliance Matrix: (Units=1/GPa)
#
#
# Indices 1 2 3 4 5 6 
#
# 1 0.014205 -0.010299 -0.004153 0.000000 -0.005071 0.000000
# 2 -0.010299 0.048899 0.003528 0.000000 0.008960 0.000000
# 3 -0.004153 0.003528 0.009032 0.000000 0.001182 0.000000
# 4 0.000000 0.000000 0.000000 0.061833 0.000000 0.021455
# 5 -0.005071 0.008960 0.001182 0.000000 0.016299 0.000000
# 6 0.000000 0.000000 0.000000 0.021455 0.000000 0.099353
#
#
# Mechanical properties :
#
#
# Convention : Reuss Voigt Hill
#
# Bulk Modulus (GPa) = 19.88512 39.08660 29.48586
# Shear Modulus (GPa) = 17.34720 33.68964 25.51842
#
# Velocity S-wave (km/s) = 2.59748 3.61981 3.15039
# Velocity P-wave (km/s) = 4.09022 5.71601 4.97004
#
# Compressibility (1/GPa) = 0.05028885
#
# Stress axis : x y z
#
# Youngs Moduli (GPa) = 70.39909 20.45022 110.71976
#
# Poissons Ratio (x) = 0.21061 0.45982
# Poissons Ratio (y) = 0.72503 -0.39066
# Poissons Ratio (z) = 0.29237 -0.07216
#
# Static dielectric constant tensor:
#      x y z
#    x 1.951970 0.000000 0.015930 
#    y 0.000000 1.962100 0.000000 
#    z 0.015930 0.000000 2.096830 
# 
# From -- ./inp_files/32693.got.cif
#   From: 2010.05.17/outbox.cif.g08.bks.cpg/sg14_17_cif.got.tgz:32693.got - 2010.06.03 17:49:19.
