data_PCOD9251981
_publ_section_title
;
Structure prediction by ZEFSAII (Michael W. Deem and Ramdas Pophale) SiO2 
 PCOD9251981
Probable space group: P 21/C
;
_chemical_formula_sum "Si O2"
_cell_formula_units_Z 20
_cell_length_a 10.517364
_cell_length_b 8.470398
_cell_length_c 9.721041
_cell_angle_alpha 90.000000
_cell_angle_beta 100.308907
_cell_angle_gamma 90.000000
_cell_volume 852.031357
_symmetry_space_group_name_H-M "P 21/C"
_symmetry_group_IT_number 14
_symmetry_cell_setting 'monoclinic'
loop_
_space_group_symop_operation_xyz
x,y,z
-x,1/2+y,1/2-z
-x,-y,-z
x,1/2-y,1/2+z
loop_
_atom_site_type_symbol
_atom_site_label
_atom_site_fract_x
_atom_site_fract_y
_atom_site_fract_z
Si Si1 0.557048 0.882551 0.124403
Si Si2 0.721250 0.400671 0.339451
Si Si3 0.756968 0.873378 0.594439
Si Si4 0.892966 0.947670 0.087089
Si Si5 0.206988 0.552895 0.173746
O O1 0.429666 0.853607 0.191001
O O2 0.621565 0.726469 0.069482
O O3 0.667891 0.964284 0.236945
O O4 0.500000 0.000000 0.000000
O O5 0.754844 0.539620 0.240138
O O6 0.769312 0.461125 0.497256
O O7 0.792165 0.239998 0.315971
O O8 0.861603 0.736842 0.586507
O O9 0.783454 0.000471 0.481701
O O10 0.908450 0.995787 0.249000
O O11 0.000000 0.000000 0.000000
#
# Coordination Sequence:
#
# PCOD9251981 Si02
#       5
#     4   4   4   4   4
#     4  11  23  40  66  98 136 175 220 265 331 398
#     4  12  24  43  67  99 137 176 224 272 335 403
#     4  11  25  44  70  97 140 179 219 280 334 396
#     4  11  25  46  68  93 129 177 229 280 337 394
#     4  11  25  42  68 101 134 177 224 273 336 401
#
# _framework density 23.473313999999998
#
# number of rings (size 3 to 8) (size 9 to 14) (size 15 to 20)
#    0.000    0.800    4.000    4.800    2.800    4.800 
#    0.000    3.000    0.000    0.000    0.000    0.000 
#    0.000    0.000    0.000    0.000    0.000    0.000 
#
# Total GULP energy -111785.006250 kJ/mol
# GULP energy per Si atom -5589.250312 kJ/mol
# Density = 2.341989 g / cm^3
# Si number density = 23.473314 Si / 1000 Ang^3
#
#
#
# Elastic Constant Matrix: (Units=GPa)
#
#
# Indices 1 2 3 4 5 6 
#
# 1 93.8633 17.4034 7.5638 0.0000 -30.1310 0.0000
# 2 17.4034 102.6149 -0.2773 0.0000 -16.9238 0.0000
# 3 7.5638 -0.2773 75.2612 0.0000 -23.2157 0.0000
# 4 0.0000 0.0000 0.0000 47.1327 0.0000 -12.5339
# 5 -30.1310 -16.9238 -23.2157 0.0000 30.5851 0.0000
# 6 0.0000 0.0000 0.0000 -12.5339 0.0000 14.5928
#
#
#
# Elastic Compliance Matrix: (Units=1/GPa)
#
#
# Indices 1 2 3 4 5 6 
#
# 1 0.016658 0.000508 0.004540 0.000000 0.020138 0.000000
# 2 0.000508 0.011094 0.002661 0.000000 0.008659 0.000000
# 3 0.004540 0.002661 0.019161 0.000000 0.020488 0.000000
# 4 0.000000 0.000000 0.000000 0.027497 0.000000 0.023618
# 5 0.020138 0.008659 0.020488 0.000000 0.072878 0.000000
# 6 0.000000 0.000000 0.000000 0.023618 0.000000 0.088812
#
#
# Mechanical properties :
#
#
# Convention : Reuss Voigt Hill
#
# Bulk Modulus (GPa) = 16.04342 35.67989 25.86166
# Shear Modulus (GPa) = 20.70738 34.93210 27.81974
#
# Velocity S-wave (km/s) = 2.97335 3.86186 3.44636
# Velocity P-wave (km/s) = 4.31710 5.92608 5.18439
#
# Compressibility (1/GPa) = 0.06233084
#
# Stress axis : x y z
#
# Youngs Moduli (GPa) = 60.03063 90.13628 52.19022
#
# Poissons Ratio (x) = -0.04582 -0.23692
# Poissons Ratio (y) = -0.03051 -0.13888
# Poissons Ratio (z) = -0.27252 -0.23985
#
# Static dielectric constant tensor:
#      x y z
#    x 2.090640 0.000000 -0.056050 
#    y 0.000000 1.827110 0.000000 
#    z -0.056050 0.000000 1.885620 
# 
# From -- ./inp_files/11843.got.cif
#   From: 2010.05.17/outbox.cif.g08.bks.cpg/sg14_6_cif.got.tgz:11843.got - 2010.06.03 17:49:19.
