data_PCOD9251749
_publ_section_title
;
Structure prediction by ZEFSAII (Michael W. Deem and Ramdas Pophale) SiO2 
 PCOD9251749
Probable space group: P 21/C
;
_chemical_formula_sum "Si O2"
_cell_formula_units_Z 32
_cell_length_a 6.293085
_cell_length_b 8.627824
_cell_length_c 26.131726
_cell_angle_alpha 90.000000
_cell_angle_beta 76.964387
_cell_angle_gamma 90.000000
_cell_volume 1382.275130
_symmetry_space_group_name_H-M "P 21/C"
_symmetry_group_IT_number 14
_symmetry_cell_setting 'monoclinic'
loop_
_space_group_symop_operation_xyz
x,y,z
-x,1/2+y,1/2-z
-x,-y,-z
x,1/2-y,1/2+z
loop_
_atom_site_type_symbol
_atom_site_label
_atom_site_fract_x
_atom_site_fract_y
_atom_site_fract_z
Si Si1 0.274208 0.519024 0.717436
Si Si2 0.571984 0.524110 0.879249
Si Si3 0.891215 0.760748 0.411255
Si Si4 0.091925 0.501020 0.331752
Si Si5 0.478850 0.179017 0.987697
Si Si6 0.539071 0.254914 0.207328
Si Si7 0.423800 0.190829 0.871593
Si Si8 0.202440 0.610997 0.973885
O O1 0.375146 0.629073 0.754653
O O2 0.320184 0.341992 0.730422
O O3 0.408117 0.564160 0.658890
O O4 0.027855 0.545843 0.713871
O O5 0.809523 0.586982 0.884283
O O6 0.495179 0.651619 0.842775
O O7 0.535288 0.357542 0.855242
O O8 0.407247 0.523465 0.936951
O O9 0.700893 0.738443 0.462818
O O10 0.932190 0.609617 0.374647
O O11 0.106196 0.786859 0.432971
O O12 0.282113 0.621112 0.307800
O O13 0.197204 0.356941 0.356627
O O14 0.403620 0.183531 0.933449
O O15 0.697671 0.279622 0.987301
O O16 0.500000 0.000000 0.000000
O O17 0.000000 0.500000 0.000000
#
# Coordination Sequence:
#
# PCOD9251749 Si02
#       8
#     4   4   4   4   4   4   4   4
#     4  11  25  46  69  97 134 170 221 282 342 406
#     4  11  23  42  66  95 135 175 222 277 343 399
#     4  11  22  41  66  92 133 184 219 277 335 398
#     4  11  24  44  68  96 134 175 227 277 343 411
#     4  11  24  39  63  94 136 178 229 272 336 394
#     4  11  24  45  70  96 129 173 218 279 344 407
#     4  11  25  42  64 101 135 174 225 282 331 407
#     4  11  23  39  62  96 133 178 227 275 329 402
#
# _framework density 23.150241000000001
#
# number of rings (size 3 to 8) (size 9 to 14) (size 15 to 20)
#    0.000    1.000    2.500    3.750    3.500   11.000 
#    2.250    0.000    0.000    0.000    0.000    0.000 
#    0.000    0.000    0.000    0.000    0.000    0.000 
#
# Total GULP energy -178837.313330 kJ/mol
# GULP energy per Si atom -5588.666042 kJ/mol
# Density = 2.309755 g / cm^3
# Si number density = 23.150241 Si / 1000 Ang^3
#
#
#
# Elastic Constant Matrix: (Units=GPa)
#
#
# Indices 1 2 3 4 5 6 
#
# 1 82.7233 35.7130 24.7158 0.0000 31.9467 0.0000
# 2 35.7130 115.3355 33.3363 0.0000 26.2096 0.0000
# 3 24.7158 33.3363 66.8828 0.0000 24.8607 0.0000
# 4 0.0000 0.0000 0.0000 39.0044 0.0000 10.8223
# 5 31.9467 26.2096 24.8607 0.0000 39.4464 0.0000
# 6 0.0000 0.0000 0.0000 10.8223 0.0000 39.5445
#
#
#
# Elastic Compliance Matrix: (Units=1/GPa)
#
#
# Indices 1 2 3 4 5 6 
#
# 1 0.018309 -0.002572 -0.000793 0.000000 -0.012619 0.000000
# 2 -0.002572 0.011184 -0.003443 0.000000 -0.003178 0.000000
# 3 -0.000793 -0.003443 0.020727 0.000000 -0.010133 0.000000
# 4 0.000000 0.000000 0.000000 0.027745 0.000000 -0.007593
# 5 -0.012619 -0.003178 -0.010133 0.000000 0.044069 0.000000
# 6 0.000000 0.000000 0.000000 -0.007593 0.000000 0.027366
#
#
# Mechanical properties :
#
#
# Convention : Reuss Voigt Hill
#
# Bulk Modulus (GPa) = 27.31925 50.27465 38.79695
# Shear Modulus (GPa) = 28.53581 35.01082 31.77332
#
# Velocity S-wave (km/s) = 3.51470 3.89309 3.70872
# Velocity P-wave (km/s) = 5.31952 6.47858 5.92745
#
# Compressibility (1/GPa) = 0.03660422
#
# Stress axis : x y z
#
# Youngs Moduli (GPa) = 54.61663 89.41225 48.24597
#
# Poissons Ratio (x) = 0.23001 0.03827
# Poissons Ratio (y) = 0.14050 0.16609
# Poissons Ratio (z) = 0.04332 0.30781
#
# Static dielectric constant tensor:
#      x y z
#    x 1.952290 0.000000 -0.013520 
#    y 0.000000 1.988660 0.000000 
#    z -0.013520 0.000000 1.873220 
# 
# From -- ./inp_files/78812.got.cif
#   From: 2010.05.17/outbox.cif.g08.bks.cpg/sg14_40_cif.got.tgz:78812.got - 2010.06.03 17:49:19.
