data_PCOD9251129
_publ_section_title
;
Structure prediction by ZEFSAII (Michael W. Deem and Ramdas Pophale) SiO2 
 PCOD9251129
Probable space group: P 21/C
;
_chemical_formula_sum "Si O2"
_cell_formula_units_Z 16
_cell_length_a 4.713287
_cell_length_b 9.000349
_cell_length_c 16.304682
_cell_angle_alpha 90.000000
_cell_angle_beta 123.658533
_cell_angle_gamma 90.000000
_cell_volume 575.710836
_symmetry_space_group_name_H-M "P 21/C"
_symmetry_group_IT_number 14
_symmetry_cell_setting 'monoclinic'
loop_
_space_group_symop_operation_xyz
x,y,z
-x,1/2+y,1/2-z
-x,-y,-z
x,1/2-y,1/2+z
loop_
_atom_site_type_symbol
_atom_site_label
_atom_site_fract_x
_atom_site_fract_y
_atom_site_fract_z
Si Si1 0.742428 0.315593 0.327730
Si Si2 0.260604 0.632982 0.489406
Si Si3 0.004014 0.833084 0.310202
Si Si4 0.381824 0.564238 0.079548
O O1 0.861968 0.387804 0.434293
O O2 0.961695 0.307663 0.281542
O O3 0.656808 0.149773 0.341593
O O4 0.382588 0.384632 0.243647
O O5 0.500000 0.500000 0.500000
O O6 0.034920 0.688839 0.375548
O O7 0.455867 0.791954 0.533859
O O8 0.307706 0.950508 0.375187
O O9 0.000000 0.500000 0.000000
#
# Coordination Sequence:
#
# PCOD9251129 Si02
#       4
#     4   4   4   4
#     4  10  29  42  79 110 154 201 268 324 403 477
#     4  10  26  45  76 113 160 197 270 333 405 471
#     4  12  25  49  75 109 156 207 268 324 409 488
#     4  10  25  49  80 109 157 215 272 331 414 484
#
# _framework density 27.791729
#
# number of rings (size 3 to 8) (size 9 to 14) (size 15 to 20)
#    1.500    0.000    0.000    2.250   10.500    0.000 
#    0.000    6.250    0.000    0.000    0.000    0.000 
#    0.000    0.000    0.000    0.000    0.000    0.000 
#
# Total GULP energy -89338.814983 kJ/mol
# GULP energy per Si atom -5583.675936 kJ/mol
# Density = 2.772847 g / cm^3
# Si number density = 27.791729 Si / 1000 Ang^3
#
#
#
# Elastic Constant Matrix: (Units=GPa)
#
#
# Indices 1 2 3 4 5 6 
#
# 1 142.7276 35.3187 58.7155 0.0000 -9.8309 0.0000
# 2 35.3187 107.0618 65.8677 0.0000 -5.3351 0.0000
# 3 58.7155 65.8677 171.1389 0.0000 -3.0414 0.0000
# 4 0.0000 0.0000 0.0000 54.5851 0.0000 -12.4779
# 5 -9.8309 -5.3351 -3.0414 0.0000 70.4815 0.0000
# 6 0.0000 0.0000 0.0000 -12.4779 0.0000 32.6848
#
#
#
# Elastic Compliance Matrix: (Units=1/GPa)
#
#
# Indices 1 2 3 4 5 6 
#
# 1 0.008357 -0.001252 -0.002368 0.000000 0.000969 0.000000
# 2 -0.001252 0.012463 -0.004357 0.000000 0.000581 0.000000
# 3 -0.002368 -0.004357 0.008327 0.000000 -0.000301 0.000000
# 4 0.000000 0.000000 0.000000 0.020072 0.000000 0.007663
# 5 0.000969 0.000581 -0.000301 0.000000 0.014354 0.000000
# 6 0.000000 0.000000 0.000000 0.007663 0.000000 0.033521
#
#
# Mechanical properties :
#
#
# Convention : Reuss Voigt Hill
#
# Bulk Modulus (GPa) = 75.79497 82.30357 79.04927
# Shear Modulus (GPa) = 42.57316 48.95204 45.76260
#
# Velocity S-wave (km/s) = 3.91815 4.20144 4.06227
# Velocity P-wave (km/s) = 6.91382 7.29485 7.10689
#
# Compressibility (1/GPa) = 0.01319349
#
# Stress axis : x y z
#
# Youngs Moduli (GPa) = 119.65933 80.23917 120.08749
#
# Poissons Ratio (x) = 0.10043 0.28440
# Poissons Ratio (y) = 0.14977 0.52321
# Poissons Ratio (z) = 0.28338 0.34959
#
# Static dielectric constant tensor:
#      x y z
#    x 2.318390 0.000000 -0.080170 
#    y 0.000000 2.245290 0.000000 
#    z -0.080170 0.000000 2.351000 
# 
# From -- ./inp_files/46326.got.cif
#   From: 2010.05.17/outbox.cif.g08.bks.cpg/sg14_24_cif.got.tgz:46326.got - 2010.06.03 17:49:19.
