data_PCOD9251413
_publ_section_title
;
Structure prediction by ZEFSAII (Michael W. Deem and Ramdas Pophale) SiO2 
 PCOD9251413
Probable space group: P 21/C
;
_chemical_formula_sum "Si O2"
_cell_formula_units_Z 24
_cell_length_a 23.584924
_cell_length_b 5.649814
_cell_length_c 23.587813
_cell_angle_alpha 90.000000
_cell_angle_beta 158.628783
_cell_angle_gamma 90.000000
_cell_volume 1145.368988
_symmetry_space_group_name_H-M "P 21/C"
_symmetry_group_IT_number 14
_symmetry_cell_setting 'monoclinic'
loop_
_space_group_symop_operation_xyz
x,y,z
-x,1/2+y,1/2-z
-x,-y,-z
x,1/2-y,1/2+z
loop_
_atom_site_type_symbol
_atom_site_label
_atom_site_fract_x
_atom_site_fract_y
_atom_site_fract_z
Si Si1 0.935542 0.571445 0.827107
Si Si2 0.081494 0.305289 0.808425
Si Si3 0.409496 0.116621 0.676108
Si Si4 0.777636 0.697723 0.888750
Si Si5 0.679646 0.469131 0.677009
Si Si6 0.859548 0.115170 0.903876
O O1 0.915895 0.739288 0.755566
O O2 0.775225 0.526622 0.709469
O O3 0.049652 0.348155 0.923093
O O4 0.047079 0.681001 0.978199
O O5 0.989509 0.554657 0.732949
O O6 0.254395 0.348068 0.993736
O O7 0.508872 0.362400 0.761638
O O8 0.347166 0.105782 0.682908
O O9 0.735847 0.614788 0.785184
O O10 0.778108 0.976348 0.878707
O O11 0.500000 0.500000 0.500000
O O12 0.730508 0.204420 0.740679
O O13 0.000000 0.000000 0.000000
#
# Coordination Sequence:
#
# PCOD9251413 Si02
#       6
#     4   4   4   4   4   4
#     4  11  23  42  71  99 136 182 239 291 348 437
#     4  12  26  48  76 108 139 193 254 298 351 441
#     4  12  29  49  71 107 147 192 240 303 373 421
#     4  11  23  46  70  94 140 189 230 289 357 438
#     4  11  25  40  64 108 140 174 226 294 366 416
#     4  11  20  42  70  97 133 183 233 279 355 439
#
# _framework density 20.953944
#
# number of rings (size 3 to 8) (size 9 to 14) (size 15 to 20)
#    0.000    0.667    5.000    3.000    7.000    0.667 
#    3.000    0.000    0.000    0.000    0.000    0.000 
#    0.000    0.000    0.000    0.000    0.000    0.000 
#
# Total GULP energy -133636.511832 kJ/mol
# GULP energy per Si atom -5568.187993 kJ/mol
# Density = 2.090625 g / cm^3
# Si number density = 20.953944 Si / 1000 Ang^3
#
#
#
# Elastic Constant Matrix: (Units=GPa)
#
#
# Indices 1 2 3 4 5 6 
#
# 1 91.8139 17.6480 27.9278 0.0000 15.5671 0.0000
# 2 17.6480 86.3587 47.5584 0.0000 7.3468 0.0000
# 3 27.9278 47.5584 146.6514 0.0000 2.5652 0.0000
# 4 0.0000 0.0000 0.0000 30.1814 0.0000 2.2880
# 5 15.5671 7.3468 2.5652 0.0000 23.8816 0.0000
# 6 0.0000 0.0000 0.0000 2.2880 0.0000 32.7221
#
#
#
# Elastic Compliance Matrix: (Units=1/GPa)
#
#
# Indices 1 2 3 4 5 6 
#
# 1 0.013043 -0.000843 -0.002070 0.000000 -0.008020 0.000000
# 2 -0.000843 0.014515 -0.004486 0.000000 -0.003434 0.000000
# 3 -0.002070 -0.004486 0.008637 0.000000 0.001802 0.000000
# 4 0.000000 0.000000 0.000000 0.033310 0.000000 -0.002329
# 5 -0.008020 -0.003434 0.001802 0.000000 0.047964 0.000000
# 6 0.000000 0.000000 0.000000 -0.002329 0.000000 0.030723
#
#
# Mechanical properties :
#
#
# Convention : Reuss Voigt Hill
#
# Bulk Modulus (GPa) = 46.73976 56.78803 51.76390
# Shear Modulus (GPa) = 29.39059 32.80303 31.09681
#
# Velocity S-wave (km/s) = 3.74923 3.96091 3.85652
# Velocity P-wave (km/s) = 6.41067 6.93387 6.67740
#
# Compressibility (1/GPa) = 0.02139506
#
# Stress axis : x y z
#
# Youngs Moduli (GPa) = 76.66813 68.89554 115.78703
#
# Poissons Ratio (x) = 0.05808 0.23970
# Poissons Ratio (y) = 0.06464 0.51947
# Poissons Ratio (z) = 0.15872 0.30910
#
# Static dielectric constant tensor:
#      x y z
#    x 1.675800 0.000000 -0.078340 
#    y 0.000000 1.892160 0.000000 
#    z -0.078340 0.000000 1.590360 
# 
# From -- ./inp_files/71661.got.cif
#   From: 2010.05.17/outbox.cif.g08.bks.cpg/sg14_36_cif.got.tgz:71661.got - 2010.06.03 17:49:19.
