data_PCOD9251476
_publ_section_title
;
Structure prediction by ZEFSAII (Michael W. Deem and Ramdas Pophale) SiO2 
 PCOD9251476
Probable space group: P 21/C
;
_chemical_formula_sum "Si O2"
_cell_formula_units_Z 24
_cell_length_a 22.639828
_cell_length_b 8.119563
_cell_length_c 17.096666
_cell_angle_alpha 90.000000
_cell_angle_beta 159.553296
_cell_angle_gamma 90.000000
_cell_volume 1097.894179
_symmetry_space_group_name_H-M "P 21/C"
_symmetry_group_IT_number 14
_symmetry_cell_setting 'monoclinic'
loop_
_space_group_symop_operation_xyz
x,y,z
-x,1/2+y,1/2-z
-x,-y,-z
x,1/2-y,1/2+z
loop_
_atom_site_type_symbol
_atom_site_label
_atom_site_fract_x
_atom_site_fract_y
_atom_site_fract_z
Si Si1 0.589713 0.240981 0.563988
Si Si2 0.835268 0.440966 0.487989
Si Si3 0.727003 0.550732 0.801042
Si Si4 0.957394 0.248454 0.273228
Si Si5 0.400268 0.639065 0.200125
Si Si6 0.533402 0.495452 0.215108
O O1 0.683275 0.418358 0.679655
O O2 0.402195 0.294754 0.360646
O O3 0.568262 0.130079 0.461121
O O4 0.699792 0.133075 0.760579
O O5 0.947838 0.300909 0.669004
O O6 0.725451 0.517556 0.422973
O O7 0.950263 0.580759 0.596070
O O8 0.673910 0.458927 0.817154
O O9 0.919718 0.610086 0.038922
O O10 0.761683 0.284417 0.047139
O O11 0.501452 0.526040 0.266310
O O12 0.504972 0.803639 0.350918
#
# Coordination Sequence:
#
# PCOD9251476 Si02
#       6
#     4   4   4   4   4   4
#     4  11  22  38  64  98 122 166 215 264 312 373
#     4  11  21  38  64  92 124 164 213 261 309 376
#     4  11  22  37  66  94 125 167 217 260 308 382
#     4  11  21  39  64  92 124 163 215 256 310 383
#     4  11  24  41  64  96 127 172 207 262 320 376
#     4  11  23  39  61  94 129 161 212 259 317 376
#
# _framework density 21.860029999999998
#
# number of rings (size 3 to 8) (size 9 to 14) (size 15 to 20)
#    0.000    1.000    6.667    1.500    0.000    0.000 
#    0.000    1.667    0.000    2.000    0.000    0.000 
#    0.000    0.000    0.000    0.000    0.000    0.000 
#
# Total GULP energy -133770.630109 kJ/mol
# GULP energy per Si atom -5573.776255 kJ/mol
# Density = 2.181028 g / cm^3
# Si number density = 21.860030 Si / 1000 Ang^3
#
#
#
# Elastic Constant Matrix: (Units=GPa)
#
#
# Indices 1 2 3 4 5 6 
#
# 1 33.3056 27.1414 2.4361 0.0000 -2.4921 0.0000
# 2 27.1414 104.6814 33.7307 0.0000 -5.6412 0.0000
# 3 2.4361 33.7307 94.9207 0.0000 -10.1000 0.0000
# 4 0.0000 0.0000 0.0000 59.4055 0.0000 -11.3805
# 5 -2.4921 -5.6412 -10.1000 0.0000 12.8573 0.0000
# 6 0.0000 0.0000 0.0000 -11.3805 0.0000 30.1792
#
#
#
# Elastic Compliance Matrix: (Units=1/GPa)
#
#
# Indices 1 2 3 4 5 6 
#
# 1 0.039120 -0.010967 0.003479 0.000000 0.005504 0.000000
# 2 -0.010967 0.013904 -0.004623 0.000000 0.000343 0.000000
# 3 0.003479 -0.004623 0.013034 0.000000 0.008885 0.000000
# 4 0.000000 0.000000 0.000000 0.018144 0.000000 0.006842
# 5 0.005504 0.000343 0.008885 0.000000 0.085974 0.000000
# 6 0.000000 0.000000 0.000000 0.006842 0.000000 0.035716
#
#
# Mechanical properties :
#
#
# Convention : Reuss Voigt Hill
#
# Bulk Modulus (GPa) = 23.90318 39.94713 31.92515
# Shear Modulus (GPa) = 20.48678 31.79502 26.14090
#
# Velocity S-wave (km/s) = 3.06466 3.81790 3.46183
# Velocity P-wave (km/s) = 4.84575 6.14401 5.53309
#
# Compressibility (1/GPa) = 0.04183543
#
# Stress axis : x y z
#
# Youngs Moduli (GPa) = 25.56257 71.91926 76.72217
#
# Poissons Ratio (x) = 0.78875 -0.26691
# Poissons Ratio (y) = 0.28035 0.35469
# Poissons Ratio (z) = -0.08893 0.33249
#
# Static dielectric constant tensor:
#      x y z
#    x 1.771600 0.000000 -0.034510 
#    y 0.000000 1.884710 0.000000 
#    z -0.034510 0.000000 1.846380 
# 
# From -- ./inp_files/61745.got.cif
#   From: 2010.05.17/outbox.cif.g08.bks.cpg/sg14_31_cif.got.tgz:61745.got - 2010.06.03 17:49:19.
