data_PCOD9251696
_publ_section_title
;
Structure prediction by ZEFSAII (Michael W. Deem and Ramdas Pophale) SiO2 
 PCOD9251696
Probable space group: P 21/C
;
_chemical_formula_sum "Si O2"
_cell_formula_units_Z 32
_cell_length_a 6.538080
_cell_length_b 25.924584
_cell_length_c 13.246852
_cell_angle_alpha 90.000000
_cell_angle_beta 44.601380
_cell_angle_gamma 90.000000
_cell_volume 1576.583969
_symmetry_space_group_name_H-M "P 21/C"
_symmetry_group_IT_number 14
_symmetry_cell_setting 'monoclinic'
loop_
_space_group_symop_operation_xyz
x,y,z
-x,1/2+y,1/2-z
-x,-y,-z
x,1/2-y,1/2+z
loop_
_atom_site_type_symbol
_atom_site_label
_atom_site_fract_x
_atom_site_fract_y
_atom_site_fract_z
Si Si1 0.078088 0.385804 0.571260
Si Si2 0.846081 0.632165 0.860100
Si Si3 0.151236 0.004504 0.131532
Si Si4 0.108330 0.968761 0.365966
Si Si5 0.736113 0.729808 0.032714
Si Si6 0.401340 0.822798 0.044796
Si Si7 0.286418 0.081280 0.788685
Si Si8 0.309431 0.703960 0.345678
O O1 0.032851 0.444578 0.618491
O O2 0.338957 0.364315 0.547610
O O3 0.195153 0.383652 0.414944
O O4 0.807167 0.347493 0.669672
O O5 0.646510 0.612263 0.837578
O O6 0.933915 0.583587 0.899089
O O7 0.133475 0.653215 0.700797
O O8 0.725446 0.678361 0.969569
O O9 0.085673 0.003319 0.273523
O O10 0.985910 0.955609 0.141972
O O11 0.500000 0.000000 0.000000
O O12 0.439630 0.951697 0.270723
O O13 0.000000 0.000000 0.500000
O O14 0.528687 0.773043 0.056762
O O15 0.611273 0.719971 0.188246
O O16 0.061211 0.752738 0.918052
O O17 0.328435 0.807698 0.956859
#
# Coordination Sequence:
#
# PCOD9251696 Si02
#       8
#     4   4   4   4   4   4   4   4
#     4  11  22  38  66  98 127 171 222 273 332 393
#     4  11  23  44  68  95 133 180 225 277 341 408
#     4  11  23  39  67  98 128 172 227 273 329 403
#     4  11  26  43  64  98 137 181 225 279 340 406
#     4  11  26  44  66 101 134 173 224 278 338 399
#     4  11  23  42  67  95 130 173 226 270 335 404
#     4  11  22  41  69  92 132 181 214 279 340 389
#     4  11  26  41  69  98 133 172 222 279 332 401
#
# _framework density 20.297046000000002
#
# number of rings (size 3 to 8) (size 9 to 14) (size 15 to 20)
#    0.000    1.000    5.000    1.125    1.750    6.000 
#    0.000    0.000    0.000    0.000    0.000    0.000 
#    0.000    0.000    0.000    0.000    0.000    0.000 
#
# Total GULP energy -178893.236340 kJ/mol
# GULP energy per Si atom -5590.413636 kJ/mol
# Density = 2.025085 g / cm^3
# Si number density = 20.297046 Si / 1000 Ang^3
#
#
#
# Elastic Constant Matrix: (Units=GPa)
#
#
# Indices 1 2 3 4 5 6 
#
# 1 62.2895 5.2669 4.7364 0.0000 18.4961 0.0000
# 2 5.2669 78.3972 33.8606 0.0000 14.8493 0.0000
# 3 4.7364 33.8606 59.2384 0.0000 18.7070 0.0000
# 4 0.0000 0.0000 0.0000 37.8992 0.0000 15.8419
# 5 18.4961 14.8493 18.7070 0.0000 26.4120 0.0000
# 6 0.0000 0.0000 0.0000 15.8419 0.0000 14.8702
#
#
#
# Elastic Compliance Matrix: (Units=1/GPa)
#
#
# Indices 1 2 3 4 5 6 
#
# 1 0.020920 0.000319 0.003643 0.000000 -0.017409 0.000000
# 2 0.000319 0.017187 -0.008666 0.000000 -0.003748 0.000000
# 3 0.003643 -0.008666 0.026806 0.000000 -0.016665 0.000000
# 4 0.000000 0.000000 0.000000 0.047569 0.000000 -0.050677
# 5 -0.017409 -0.003748 -0.016665 0.000000 0.063964 0.000000
# 6 0.000000 0.000000 0.000000 -0.050677 0.000000 0.121237
#
#
# Mechanical properties :
#
#
# Convention : Reuss Voigt Hill
#
# Bulk Modulus (GPa) = 18.01685 31.96143 24.98914
# Shear Modulus (GPa) = 15.35663 26.24036 20.79849
#
# Velocity S-wave (km/s) = 2.75361 3.59948 3.20457
# Velocity P-wave (km/s) = 4.35955 5.74943 5.10204
#
# Compressibility (1/GPa) = 0.05550359
#
# Stress axis : x y z
#
# Youngs Moduli (GPa) = 47.80216 58.18354 37.30544
#
# Poissons Ratio (x) = -0.01854 -0.13590
# Poissons Ratio (y) = -0.01523 0.32329
# Poissons Ratio (z) = -0.17414 0.50421
#
# Static dielectric constant tensor:
#      x y z
#    x 1.704880 0.000000 0.000930 
#    y 0.000000 1.758630 0.000000 
#    z 0.000930 0.000000 1.713970 
# 
# From -- ./inp_files/22361.got.cif
#   From: 2010.05.17/outbox.cif.g08.bks.cpg/sg14_12_cif.got.tgz:22361.got - 2010.06.03 17:49:19.
