data_PCOD9251845
_publ_section_title
;
Structure prediction by ZEFSAII (Michael W. Deem and Ramdas Pophale) SiO2 
 PCOD9251845
Probable space group: P 21/C
;
_chemical_formula_sum "Si O2"
_cell_formula_units_Z 30
_cell_length_a 12.170099
_cell_length_b 14.762251
_cell_length_c 8.121884
_cell_angle_alpha 90.000000
_cell_angle_beta 120.106124
_cell_angle_gamma 90.000000
_cell_volume 1262.317760
_symmetry_space_group_name_H-M "P 21/C"
_symmetry_group_IT_number 14
_symmetry_cell_setting 'monoclinic'
loop_
_space_group_symop_operation_xyz
x,y,z
-x,1/2+y,1/2-z
-x,-y,-z
x,1/2-y,1/2+z
loop_
_atom_site_type_symbol
_atom_site_label
_atom_site_fract_x
_atom_site_fract_y
_atom_site_fract_z
Si Si1 0.610742 0.637010 0.346855
Si Si2 0.000000 0.500000 0.500000
Si Si3 0.196114 0.557807 0.195770
Si Si4 0.102111 0.175997 0.973222
Si Si5 0.752980 0.491874 0.112334
Si Si6 0.067026 0.137789 0.585694
Si Si7 0.622740 0.440727 0.364310
Si Si8 0.584324 0.667018 0.961556
O O1 0.762849 0.624355 0.433265
O O2 0.565628 0.539032 0.372262
O O3 0.606371 0.726809 0.452196
O O4 0.545159 0.655301 0.122592
O O5 0.014233 0.388260 0.515668
O O6 0.098697 0.506570 0.731051
O O7 0.151224 0.452341 0.166851
O O8 0.278771 0.581165 0.417326
O O9 0.262585 0.565487 0.066994
O O10 0.065769 0.613529 0.097250
O O11 0.043266 0.175185 0.749588
O O12 0.131340 0.277174 0.047605
O O13 0.685881 0.455947 0.229593
O O14 0.697450 0.592578 0.035256
O O15 0.516511 0.367050 0.248162
#
# Coordination Sequence:
#
# PCOD9251845 Si02
#       8
#     4   2   4   4   4   4   4   4
#     4  11  22  44  69 104 130 180 238 283 347 413
#     4  12  22  40  70 104 140 184 228 282 358 414
#     4  11  24  45  69 102 141 184 237 284 351 425
#     4  12  23  40  69 103 141 184 230 290 348 424
#     4  11  23  42  71 101 138 186 224 286 353 407
#     4  11  25  40  64 107 141 182 234 286 350 427
#     4  11  25  48  71 100 140 186 234 290 350 416
#     4  11  25  45  72 101 137 181 238 295 341 414
#
# _framework density 23.765808
#
# number of rings (size 3 to 8) (size 9 to 14) (size 15 to 20)
#    0.000    0.800    5.333    3.200    5.600    0.533 
#    2.400    4.000    0.000    0.000    0.000    0.000 
#    0.000    0.000    0.000    0.000    0.000    0.000 
#
# Total GULP energy -167128.591593 kJ/mol
# GULP energy per Si atom -5570.953053 kJ/mol
# Density = 2.371172 g / cm^3
# Si number density = 23.765808 Si / 1000 Ang^3
#
#
#
# Elastic Constant Matrix: (Units=GPa)
#
#
# Indices 1 2 3 4 5 6 
#
# 1 32.1788 4.8329 21.5743 0.0000 -9.1525 0.0000
# 2 4.8329 38.5709 2.5417 0.0000 -2.5324 0.0000
# 3 21.5743 2.5417 161.3561 0.0000 8.8221 0.0000
# 4 0.0000 0.0000 0.0000 23.6764 0.0000 1.3028
# 5 -9.1525 -2.5324 8.8221 0.0000 25.1162 0.0000
# 6 0.0000 0.0000 0.0000 1.3028 0.0000 12.7490
#
#
#
# Elastic Compliance Matrix: (Units=1/GPa)
#
#
# Indices 1 2 3 4 5 6 
#
# 1 0.040546 -0.003576 -0.006274 0.000000 0.016618 0.000000
# 2 -0.003576 0.026465 -0.000014 0.000000 0.001370 0.000000
# 3 -0.006274 -0.000014 0.007302 0.000000 -0.004852 0.000000
# 4 0.000000 0.000000 0.000000 0.042475 0.000000 -0.004340
# 5 0.016618 0.001370 -0.004852 0.000000 0.047713 0.000000
# 6 0.000000 0.000000 0.000000 -0.004340 0.000000 0.078881
#
#
# Mechanical properties :
#
#
# Convention : Reuss Voigt Hill
#
# Bulk Modulus (GPa) = 18.31939 32.22261 25.27100
# Shear Modulus (GPa) = 17.77436 25.85213 21.81325
#
# Velocity S-wave (km/s) = 2.73774 3.30174 3.03288
# Velocity P-wave (km/s) = 4.20935 5.30312 4.78758
#
# Compressibility (1/GPa) = 0.05458698
#
# Stress axis : x y z
#
# Youngs Moduli (GPa) = 24.66321 37.78546 136.95267
#
# Poissons Ratio (x) = 0.13512 0.85918
# Poissons Ratio (y) = 0.08819 0.00187
# Poissons Ratio (z) = 0.15473 0.00052
#
# Static dielectric constant tensor:
#      x y z
#    x -0.203250 0.000000 2.060950 
#    y 0.000000 1.839410 0.000000 
#    z 2.060950 0.000000 -0.068170 
# 
# From -- ./inp_files/16314.got.cif
#   From: 2010.05.17/outbox.cif.g08.bks.cpg/sg14_9_cif.got.tgz:16314.got - 2010.06.03 17:49:19.
