data_PCOD9251051
_publ_section_title
;
Structure prediction by ZEFSAII (Michael W. Deem and Ramdas Pophale) SiO2 
 PCOD9251051
Probable space group: P 21/C
;
_chemical_formula_sum "Si O2"
_cell_formula_units_Z 32
_cell_length_a 20.448547
_cell_length_b 9.803580
_cell_length_c 12.298440
_cell_angle_alpha 90.000000
_cell_angle_beta 33.502521
_cell_angle_gamma 90.000000
_cell_volume 1360.866565
_symmetry_space_group_name_H-M "P 21/C"
_symmetry_group_IT_number 14
_symmetry_cell_setting 'monoclinic'
loop_
_space_group_symop_operation_xyz
x,y,z
-x,1/2+y,1/2-z
-x,-y,-z
x,1/2-y,1/2+z
loop_
_atom_site_type_symbol
_atom_site_label
_atom_site_fract_x
_atom_site_fract_y
_atom_site_fract_z
Si Si1 0.690507 0.146759 0.607282
Si Si2 0.509950 0.554923 0.272561
Si Si3 0.877105 0.337089 0.225454
Si Si4 0.392279 0.570901 0.210498
Si Si5 0.717638 0.749270 0.933417
Si Si6 0.066559 0.126377 0.959628
Si Si7 0.843593 0.929473 0.937730
Si Si8 0.707623 0.490644 0.295787
O O1 0.794842 0.223390 0.398744
O O2 0.625023 0.266916 0.766249
O O3 0.731104 0.031144 0.636308
O O4 0.596992 0.073643 0.659016
O O5 0.417719 0.539717 0.301977
O O6 0.425952 0.559381 0.493192
O O7 0.591646 0.686082 0.139385
O O8 0.900293 0.458140 0.279227
O O9 0.801897 0.400013 0.231438
O O10 0.996769 0.263689 0.024401
O O11 0.267813 0.505628 0.351359
O O12 0.500000 0.500000 0.000000
O O13 0.802812 0.632122 0.770604
O O14 0.782969 0.815742 0.946249
O O15 0.711392 0.859303 0.843927
O O16 0.073345 0.120391 0.080964
O O17 0.000000 0.000000 0.000000
#
# Coordination Sequence:
#
# PCOD9251051 Si02
#       8
#     4   4   4   4   4   4   4   4
#     4  11  25  40  71 104 135 192 233 281 353 430
#     4  12  23  43  68 104 149 176 235 280 350 425
#     4  10  25  47  69  98 139 177 234 297 343 419
#     4  11  24  40  70  99 144 189 226 292 352 417
#     4  11  26  46  68 106 143 182 232 294 348 424
#     4  12  28  45  76 100 133 184 245 289 357 415
#     4  10  25  46  65 102 136 180 231 288 357 410
#     4  11  25  44  71 104 138 187 234 278 367 417
#
# _framework density 23.514427999999999
#
# number of rings (size 3 to 8) (size 9 to 14) (size 15 to 20)
#    0.000    1.000    3.750    2.625   10.500    3.000 
#    0.000    0.000    0.000    0.000    0.000    0.000 
#    0.000    0.000    0.000    0.000    0.000    0.000 
#
# Total GULP energy -179164.428842 kJ/mol
# GULP energy per Si atom -5598.888401 kJ/mol
# Density = 2.346091 g / cm^3
# Si number density = 23.514428 Si / 1000 Ang^3
#
#
#
# Elastic Constant Matrix: (Units=GPa)
#
#
# Indices 1 2 3 4 5 6 
#
# 1 75.8172 28.2516 1.3897 0.0000 -15.7389 0.0000
# 2 28.2516 82.3682 8.8341 0.0000 -12.4038 0.0000
# 3 1.3897 8.8341 46.1051 0.0000 -12.7834 0.0000
# 4 0.0000 0.0000 0.0000 32.1029 0.0000 -8.7976
# 5 -15.7389 -12.4038 -12.7834 0.0000 20.5425 0.0000
# 6 0.0000 0.0000 0.0000 -8.7976 0.0000 29.6844
#
#
#
# Elastic Compliance Matrix: (Units=1/GPa)
#
#
# Indices 1 2 3 4 5 6 
#
# 1 0.017517 -0.004445 0.003989 0.000000 0.013219 0.000000
# 2 -0.004445 0.014489 -0.001403 0.000000 0.004470 0.000000
# 3 0.003989 -0.001403 0.027132 0.000000 0.019093 0.000000
# 4 0.000000 0.000000 0.000000 0.033903 0.000000 0.010048
# 5 0.013219 0.004470 0.019093 0.000000 0.073388 0.000000
# 6 0.000000 0.000000 0.000000 0.010048 0.000000 0.036666
#
#
# Mechanical properties :
#
#
# Convention : Reuss Voigt Hill
#
# Bulk Modulus (GPa) = 18.04418 31.24902 24.64660
# Shear Modulus (GPa) = 22.19391 27.52029 24.85710
#
# Velocity S-wave (km/s) = 3.07553 3.42476 3.25483
# Velocity P-wave (km/s) = 4.50580 5.38115 4.96281
#
# Compressibility (1/GPa) = 0.05541952
#
# Stress axis : x y z
#
# Youngs Moduli (GPa) = 57.08688 69.01846 36.85676
#
# Poissons Ratio (x) = 0.30681 -0.14702
# Poissons Ratio (y) = 0.25377 0.05171
# Poissons Ratio (z) = -0.22772 0.09683
#
# Static dielectric constant tensor:
#      x y z
#    x 1.865940 0.000000 0.028990 
#    y 0.000000 1.910850 0.000000 
#    z 0.028990 0.000000 1.908720 
# 
# From -- ./inp_files/51364.got.cif
#   From: 2010.05.17/outbox.cif.g08.bks.cpg/sg14_26_cif.got.tgz:51364.got - 2010.06.03 17:49:19.
