data_PCOD9251503
_publ_section_title
;
Structure prediction by ZEFSAII (Michael W. Deem and Ramdas Pophale) SiO2 
 PCOD9251503
Probable space group: P 21/C
;
_chemical_formula_sum "Si O2"
_cell_formula_units_Z 28
_cell_length_a 5.292919
_cell_length_b 17.971182
_cell_length_c 12.097042
_cell_angle_alpha 90.000000
_cell_angle_beta 73.411267
_cell_angle_gamma 90.000000
_cell_volume 1102.778392
_symmetry_space_group_name_H-M "P 21/C"
_symmetry_group_IT_number 14
_symmetry_cell_setting 'monoclinic'
loop_
_space_group_symop_operation_xyz
x,y,z
-x,1/2+y,1/2-z
-x,-y,-z
x,1/2-y,1/2+z
loop_
_atom_site_type_symbol
_atom_site_label
_atom_site_fract_x
_atom_site_fract_y
_atom_site_fract_z
Si Si1 0.484233 0.958423 0.327576
Si Si2 0.381193 0.850114 0.984529
Si Si3 0.219817 0.140326 0.232870
Si Si4 0.263044 0.595013 0.087930
Si Si5 0.072131 0.744595 0.875269
Si Si6 0.071368 0.893918 0.218118
Si Si7 0.607679 0.768783 0.590077
O O1 0.328345 0.926265 0.454352
O O2 0.286601 0.946661 0.250664
O O3 0.767937 0.917758 0.274895
O O4 0.568004 0.041220 0.353864
O O5 0.143038 0.887808 0.079377
O O6 0.555612 0.815920 0.062756
O O7 0.548855 0.893688 0.871891
O O8 0.294442 0.776032 0.928445
O O9 0.317880 0.209602 0.295548
O O10 0.038023 0.091303 0.335318
O O11 0.032643 0.179770 0.166887
O O12 0.362933 0.677900 0.096686
O O13 0.123690 0.684960 0.773802
O O14 0.848682 0.708594 0.980668
#
# Coordination Sequence:
#
# PCOD9251503 Si02
#       7
#     4   4   4   4   4   4   4
#     4  11  28  44  73  99 137 186 232 293 335 404
#     4  11  25  40  68 101 137 181 221 283 357 419
#     4  11  24  40  69  99 135 176 228 284 347 422
#     4  11  24  45  68  99 133 179 236 284 345 404
#     4  11  23  41  68 102 133 177 223 286 355 407
#     4  12  25  46  67 103 142 176 232 285 347 410
#     4  11  21  39  69  97 130 171 224 288 341 411
#
# _framework density 25.390415999999998
#
# number of rings (size 3 to 8) (size 9 to 14) (size 15 to 20)
#    0.000    0.857    1.429    6.000   10.000    1.143 
#    0.000    1.429    0.000    0.000    0.000    0.000 
#    0.000    0.000    0.000    0.000    0.000    0.000 
#
# Total GULP energy -156662.696715 kJ/mol
# GULP energy per Si atom -5595.096311 kJ/mol
# Density = 2.533263 g / cm^3
# Si number density = 25.390416 Si / 1000 Ang^3
#
#
#
# Elastic Constant Matrix: (Units=GPa)
#
#
# Indices 1 2 3 4 5 6 
#
# 1 103.2904 22.3650 64.3294 0.0000 -20.4563 0.0000
# 2 22.3650 51.5024 23.4035 0.0000 -12.4479 0.0000
# 3 64.3294 23.4035 213.1372 0.0000 -60.6278 0.0000
# 4 0.0000 0.0000 0.0000 18.7483 0.0000 0.0237
# 5 -20.4563 -12.4479 -60.6278 0.0000 51.7457 0.0000
# 6 0.0000 0.0000 0.0000 0.0237 0.0000 32.0487
#
#
#
# Elastic Compliance Matrix: (Units=1/GPa)
#
#
# Indices 1 2 3 4 5 6 
#
# 1 0.012644 -0.003939 -0.003347 0.000000 0.000130 0.000000
# 2 -0.003939 0.022077 -0.000251 0.000000 0.003459 0.000000
# 3 -0.003347 -0.000251 0.008003 0.000000 0.007994 0.000000
# 4 0.000000 0.000000 0.000000 0.053338 0.000000 -0.000040
# 5 0.000130 0.003459 0.007994 0.000000 0.029574 0.000000
# 6 0.000000 0.000000 0.000000 -0.000040 0.000000 0.031203
#
#
# Mechanical properties :
#
#
# Convention : Reuss Voigt Hill
#
# Bulk Modulus (GPa) = 36.16494 65.34728 50.75611
# Shear Modulus (GPa) = 27.60425 37.69733 32.65079
#
# Velocity S-wave (km/s) = 3.30084 3.85737 3.58990
# Velocity P-wave (km/s) = 5.36673 6.75514 6.10056
#
# Compressibility (1/GPa) = 0.02765109
#
# Stress axis : x y z
#
# Youngs Moduli (GPa) = 79.08609 45.29546 124.94645
#
# Poissons Ratio (x) = 0.17840 0.41820
# Poissons Ratio (y) = 0.31149 0.03142
# Poissons Ratio (z) = 0.26470 0.01139
#
# Static dielectric constant tensor:
#      x y z
#    x 2.032670 0.000000 -0.040350 
#    y 0.000000 1.994500 0.000000 
#    z -0.040350 0.000000 2.004950 
# 
# From -- ./inp_files/21730.got.cif
#   From: 2010.05.17/outbox.cif.g08.bks.cpg/sg14_11_cif.got.tgz:21730.got - 2010.06.03 17:49:19.
