data_PCOD9251055
_publ_section_title
;
Structure prediction by ZEFSAII (Michael W. Deem and Ramdas Pophale) SiO2 
 PCOD9251055
Probable space group: P 21/C
;
_chemical_formula_sum "Si O2"
_cell_formula_units_Z 28
_cell_length_a 5.302969
_cell_length_b 20.734889
_cell_length_c 10.504011
_cell_angle_alpha 90.000000
_cell_angle_beta 69.488509
_cell_angle_gamma 90.000000
_cell_volume 1081.760256
_symmetry_space_group_name_H-M "P 21/C"
_symmetry_group_IT_number 14
_symmetry_cell_setting 'monoclinic'
loop_
_space_group_symop_operation_xyz
x,y,z
-x,1/2+y,1/2-z
-x,-y,-z
x,1/2-y,1/2+z
loop_
_atom_site_type_symbol
_atom_site_label
_atom_site_fract_x
_atom_site_fract_y
_atom_site_fract_z
Si Si1 0.674754 0.664325 0.757259
Si Si2 0.209826 0.395061 0.854707
Si Si3 0.312957 0.779098 0.917347
Si Si4 0.589363 0.073146 0.509496
Si Si5 0.938271 0.395434 0.478220
Si Si6 0.970533 0.229151 0.281843
Si Si7 0.221787 0.012770 0.122946
O O1 0.478921 0.724591 0.813219
O O2 0.931257 0.699142 0.777456
O O3 0.802954 0.649454 0.598355
O O4 0.539427 0.602659 0.841361
O O5 0.437967 0.389906 0.921109
O O6 0.179098 0.325041 0.795544
O O7 0.277388 0.452781 0.745687
O O8 0.908609 0.414528 0.954814
O O9 0.122204 0.799619 0.833950
O O10 0.332644 0.852615 0.966196
O O11 0.216101 0.741891 0.062245
O O12 0.500000 0.000000 0.500000
O O13 0.913715 0.442432 0.359453
O O14 0.016825 0.440846 0.581591
O O15 0.500000 0.000000 0.000000
#
# Coordination Sequence:
#
# PCOD9251055 Si02
#       7
#     4   4   4   4   4   4   4
#     4  11  26  44  74 103 155 198 261 318 399 461
#     4  12  27  49  80 110 152 203 262 317 400 469
#     4  11  24  46  71 106 148 201 258 325 391 477
#     4  12  28  51  79 113 155 206 259 330 396 479
#     4  10  25  46  69 110 148 197 260 317 397 470
#     4  11  25  44  73 109 153 201 262 317 399 468
#     4  11  26  44  75 106 152 199 256 326 392 478
#
# _framework density 25.883738000000001
#
# number of rings (size 3 to 8) (size 9 to 14) (size 15 to 20)
#    0.000    0.857    2.857    2.143   10.000    4.571 
#    0.000    0.000    0.000    0.000    0.000    0.000 
#    0.000    0.000    0.000    0.000    0.000    0.000 
#
# Total GULP energy -156227.229966 kJ/mol
# GULP energy per Si atom -5579.543927 kJ/mol
# Density = 2.582483 g / cm^3
# Si number density = 25.883738 Si / 1000 Ang^3
#
#
#
# Elastic Constant Matrix: (Units=GPa)
#
#
# Indices 1 2 3 4 5 6 
#
# 1 57.9456 -1.2121 34.3919 0.0000 -5.3763 0.0000
# 2 -1.2121 142.3691 13.0962 0.0000 -22.4107 0.0000
# 3 34.3919 13.0962 70.1660 0.0000 -18.3792 0.0000
# 4 0.0000 0.0000 0.0000 31.6281 0.0000 15.3426
# 5 -5.3763 -22.4107 -18.3792 0.0000 40.9934 0.0000
# 6 0.0000 0.0000 0.0000 15.3426 0.0000 -2.0797
#
#
#
# Elastic Compliance Matrix: (Units=1/GPa)
#
#
# Indices 1 2 3 4 5 6 
#
# 1 0.024709 0.001089 -0.012814 0.000000 -0.001910 0.000000
# 2 0.001089 0.007742 -0.000943 0.000000 0.003952 0.000000
# 3 -0.012814 -0.000943 0.022813 0.000000 0.008032 0.000000
# 4 0.000000 0.000000 0.000000 0.006905 0.000000 0.050943
# 5 -0.001910 0.003952 0.008032 0.000000 0.029905 0.000000
# 6 0.000000 0.000000 0.000000 0.050943 0.000000 -0.105016
#
#
# Mechanical properties :
#
#
# Convention : Reuss Voigt Hill
#
# Bulk Modulus (GPa) = 33.41640 40.33697 36.87669
# Shear Modulus (GPa) = 223.49865 29.05535 126.27700
#
# Velocity S-wave (km/s) = 9.30240 3.35406 6.99229
# Velocity P-wave (km/s) = 11.32774 5.53329 8.91445
#
# Compressibility (1/GPa) = 0.02992542
#
# Stress axis : x y z
#
# Youngs Moduli (GPa) = 40.47152 129.16234 43.83512
#
# Poissons Ratio (x) = -0.14060 0.56172
# Poissons Ratio (y) = -0.04405 0.04135
# Poissons Ratio (z) = 0.51862 0.12184
#
# Static dielectric constant tensor:
#      x y z
#    x 2.300230 0.000000 -0.196800 
#    y 0.000000 2.728180 0.000000 
#    z -0.196800 0.000000 2.127210 
# 
# From -- ./inp_files/21691.got.cif
#   From: 2010.05.17/outbox.cif.g08.bks.cpg/sg14_11_cif.got.tgz:21691.got - 2010.06.03 17:49:19.
