data_PCOD9251068
_publ_section_title
;
Structure prediction by ZEFSAII (Michael W. Deem and Ramdas Pophale) SiO2 
 PCOD9251068
Probable space group: P 21/C
;
_chemical_formula_sum "Si O2"
_cell_formula_units_Z 20
_cell_length_a 4.802723
_cell_length_b 8.248813
_cell_length_c 18.859653
_cell_angle_alpha 90.000000
_cell_angle_beta 68.970999
_cell_angle_gamma 90.000000
_cell_volume 697.396859
_symmetry_space_group_name_H-M "P 21/C"
_symmetry_group_IT_number 14
_symmetry_cell_setting 'monoclinic'
loop_
_space_group_symop_operation_xyz
x,y,z
-x,1/2+y,1/2-z
-x,-y,-z
x,1/2-y,1/2+z
loop_
_atom_site_type_symbol
_atom_site_label
_atom_site_fract_x
_atom_site_fract_y
_atom_site_fract_z
Si Si1 0.387229 0.336455 0.878311
Si Si2 0.074137 0.947078 0.107945
Si Si3 0.385271 0.265308 0.518810
Si Si4 0.968552 0.160895 0.238422
Si Si5 0.559939 0.176758 0.661577
O O1 0.740990 0.344082 0.825107
O O2 0.294892 0.498858 0.844178
O O3 0.210858 0.170431 0.875748
O O4 0.305411 0.368729 0.968152
O O5 0.111537 0.111502 0.056987
O O6 0.356574 0.852283 0.050053
O O7 0.129510 0.010081 0.183462
O O8 0.510093 0.213811 0.583196
O O9 0.747154 0.208020 0.194604
O O10 0.227977 0.292800 0.221278
#
# Coordination Sequence:
#
# PCOD9251068 Si02
#       5
#     4   4   4   4   4
#     4  12  26  43  78 105 147 194 251 306 375 435
#     4  10  25  46  73 105 143 197 243 298 369 446
#     4  10  25  46  77 104 146 195 254 301 370 441
#     4  11  28  47  73 106 157 189 247 301 384 440
#     4  11  28  49  70 112 148 193 246 316 363 443
#
# _framework density 28.678077999999999
#
# number of rings (size 3 to 8) (size 9 to 14) (size 15 to 20)
#    0.000    1.200    0.000    2.400   22.400    0.800 
#    0.000    0.000    0.000    0.000    0.000    0.000 
#    0.000    0.000    0.000    0.000    0.000    0.000 
#
# Total GULP energy -111794.697014 kJ/mol
# GULP energy per Si atom -5589.734851 kJ/mol
# Density = 2.861281 g / cm^3
# Si number density = 28.678078 Si / 1000 Ang^3
#
#
#
# Elastic Constant Matrix: (Units=GPa)
#
#
# Indices 1 2 3 4 5 6 
#
# 1 114.9658 12.6397 44.4932 0.0000 -13.4240 0.0000
# 2 12.6397 73.6474 21.4881 0.0000 -13.9217 0.0000
# 3 44.4932 21.4881 174.1894 0.0000 -27.8443 0.0000
# 4 0.0000 0.0000 0.0000 53.6695 0.0000 -17.1507
# 5 -13.4240 -13.9217 -27.8443 0.0000 40.5822 0.0000
# 6 0.0000 0.0000 0.0000 -17.1507 0.0000 49.5821
#
#
#
# Elastic Compliance Matrix: (Units=1/GPa)
#
#
# Indices 1 2 3 4 5 6 
#
# 1 0.009796 -0.000767 -0.002170 0.000000 0.001489 0.000000
# 2 -0.000767 0.014776 -0.000963 0.000000 0.004155 0.000000
# 3 -0.002170 -0.000963 0.007016 0.000000 0.003766 0.000000
# 4 0.000000 0.000000 0.000000 0.020948 0.000000 0.007246
# 5 0.001489 0.004155 0.003766 0.000000 0.029143 0.000000
# 6 0.000000 0.000000 0.000000 0.007246 0.000000 0.022675
#
#
# Mechanical properties :
#
#
# Convention : Reuss Voigt Hill
#
# Bulk Modulus (GPa) = 42.03538 57.78271 49.90905
# Shear Modulus (GPa) = 41.63818 47.71221 44.67520
#
# Velocity S-wave (km/s) = 3.81454 4.08329 3.95120
# Velocity P-wave (km/s) = 5.83870 6.51333 6.18522
#
# Compressibility (1/GPa) = 0.02378948
#
# Stress axis : x y z
#
# Youngs Moduli (GPa) = 102.08195 67.67690 142.53563
#
# Poissons Ratio (x) = 0.05189 0.30925
# Poissons Ratio (y) = 0.07828 0.13723
# Poissons Ratio (z) = 0.22148 0.06516
#
# Static dielectric constant tensor:
#      x y z
#    x 2.329440 0.000000 0.073560 
#    y 0.000000 2.693240 0.000000 
#    z 0.073560 0.000000 2.236770 
# 
# From -- ./inp_files/62995.got.cif
#   From: 2010.05.17/outbox.cif.g08.bks.cpg/sg14_32_cif.got.tgz:62995.got - 2010.06.03 17:49:19.
