data_PCOD9251323
_publ_section_title
;
Structure prediction by ZEFSAII (Michael W. Deem and Ramdas Pophale) SiO2 
 PCOD9251323
Probable space group: P 21/C
;
_chemical_formula_sum "Si O2"
_cell_formula_units_Z 28
_cell_length_a 22.559626
_cell_length_b 9.147401
_cell_length_c 18.770499
_cell_angle_alpha 90.000000
_cell_angle_beta 18.940838
_cell_angle_gamma 90.000000
_cell_volume 1257.311233
_symmetry_space_group_name_H-M "P 21/C"
_symmetry_group_IT_number 14
_symmetry_cell_setting 'monoclinic'
loop_
_space_group_symop_operation_xyz
x,y,z
-x,1/2+y,1/2-z
-x,-y,-z
x,1/2-y,1/2+z
loop_
_atom_site_type_symbol
_atom_site_label
_atom_site_fract_x
_atom_site_fract_y
_atom_site_fract_z
Si Si1 0.160048 0.444078 0.268238
Si Si2 0.162000 0.069101 0.121167
Si Si3 0.109910 0.398117 0.159862
Si Si4 0.364903 0.305917 0.612829
Si Si5 0.882226 0.437647 0.069370
Si Si6 0.621661 0.216964 0.437742
Si Si7 0.503742 0.996401 0.830647
O O1 0.100865 0.422978 0.254564
O O2 0.227462 0.292560 0.224493
O O3 0.317993 0.567144 0.094923
O O4 0.000000 0.500000 0.500000
O O5 0.154868 0.228549 0.093907
O O6 0.076872 0.949678 0.164807
O O7 0.013227 0.075482 0.353832
O O8 0.358468 0.035930 0.933238
O O9 0.287910 0.486814 0.930972
O O10 0.270682 0.436286 0.764514
O O11 0.466437 0.205096 0.554372
O O12 0.483880 0.385564 0.416751
O O13 0.786851 0.290949 0.205024
O O14 0.000000 0.500000 0.000000
O O15 0.562574 0.340706 0.561689
#
# Coordination Sequence:
#
# PCOD9251323 Si02
#       7
#     4   4   4   4   4   4   4
#     4  12  27  45  67 103 145 180 234 299 352 412
#     4  12  26  47  74 104 143 192 234 293 355 424
#     4  12  29  48  71 105 145 189 240 291 361 421
#     4  11  22  45  71 103 137 184 238 288 351 421
#     4  11  19  42  73  98 136 182 231 284 345 420
#     4  11  23  39  72 104 135 182 233 291 351 413
#     4  11  25  47  73 103 142 186 238 290 353 434
#
# _framework density 22.269746000000001
#
# number of rings (size 3 to 8) (size 9 to 14) (size 15 to 20)
#    0.000    0.571    4.286    5.571    4.000    1.143 
#    5.143    0.000    0.000    0.000    0.000    0.000 
#    0.000    0.000    0.000    0.000    0.000    0.000 
#
# Total GULP energy -156761.210707 kJ/mol
# GULP energy per Si atom -5598.614668 kJ/mol
# Density = 2.221906 g / cm^3
# Si number density = 22.269746 Si / 1000 Ang^3
#
#
#
# Elastic Constant Matrix: (Units=GPa)
#
#
# Indices 1 2 3 4 5 6 
#
# 1 97.9936 24.1306 5.5521 0.0000 -32.6988 0.0000
# 2 24.1306 75.7363 -13.6177 0.0000 2.3508 0.0000
# 3 5.5521 -13.6177 41.1893 0.0000 6.2584 0.0000
# 4 0.0000 0.0000 0.0000 27.2294 0.0000 -12.3188
# 5 -32.6988 2.3508 6.2584 0.0000 32.4105 0.0000
# 6 0.0000 0.0000 0.0000 -12.3188 0.0000 36.9779
#
#
#
# Elastic Compliance Matrix: (Units=1/GPa)
#
#
# Indices 1 2 3 4 5 6 
#
# 1 0.020767 -0.009023 -0.009339 0.000000 0.023410 0.000000
# 2 -0.009023 0.018082 0.009042 0.000000 -0.012160 0.000000
# 3 -0.009339 0.009042 0.030966 0.000000 -0.016058 0.000000
# 4 0.000000 0.000000 0.000000 0.043242 0.000000 0.014406
# 5 0.023410 -0.012160 -0.016058 0.000000 0.058455 0.000000
# 6 0.000000 0.000000 0.000000 0.014406 0.000000 0.031842
#
#
# Mechanical properties :
#
#
# Convention : Reuss Voigt Hill
#
# Bulk Modulus (GPa) = 19.54071 27.44993 23.49532
# Shear Modulus (GPa) = 20.91593 32.58049 26.74821
#
# Velocity S-wave (km/s) = 3.06798 3.82906 3.46945
# Velocity P-wave (km/s) = 4.61991 5.64817 5.15972
#
# Compressibility (1/GPa) = 0.05117521
#
# Stress axis : x y z
#
# Youngs Moduli (GPa) = 48.15326 55.30483 32.29330
#
# Poissons Ratio (x) = 0.49899 0.30159
# Poissons Ratio (y) = 0.43446 -0.29199
# Poissons Ratio (z) = 0.44971 -0.50006
#
# Static dielectric constant tensor:
#      x y z
#    x 1.807520 0.000000 -0.046270 
#    y 0.000000 1.811740 0.000000 
#    z -0.046270 0.000000 2.002950 
# 
# From -- ./inp_files/70169.got.cif
#   From: 2010.05.17/outbox.cif.g08.bks.cpg/sg14_36_cif.got.tgz:70169.got - 2010.06.03 17:49:19.
