data_PCOD9251523
_publ_section_title
;
Structure prediction by ZEFSAII (Michael W. Deem and Ramdas Pophale) SiO2 
 PCOD9251523
Probable space group: P 21/C
;
_chemical_formula_sum "Si O2"
_cell_formula_units_Z 24
_cell_length_a 18.762105
_cell_length_b 10.394877
_cell_length_c 12.064936
_cell_angle_alpha 90.000000
_cell_angle_beta 150.624420
_cell_angle_gamma 90.000000
_cell_volume 1154.233376
_symmetry_space_group_name_H-M "P 21/C"
_symmetry_group_IT_number 14
_symmetry_cell_setting 'monoclinic'
loop_
_space_group_symop_operation_xyz
x,y,z
-x,1/2+y,1/2-z
-x,-y,-z
x,1/2-y,1/2+z
loop_
_atom_site_type_symbol
_atom_site_label
_atom_site_fract_x
_atom_site_fract_y
_atom_site_fract_z
Si Si1 0.435493 0.661029 0.171454
Si Si2 0.820439 0.188808 0.500018
Si Si3 0.710815 0.056919 0.753636
Si Si4 0.904056 0.376334 0.881024
Si Si5 0.050899 0.377706 0.496155
Si Si6 0.613696 0.430741 0.362994
O O1 0.563136 0.558638 0.355436
O O2 0.485366 0.809159 0.237811
O O3 0.322020 0.657884 0.119879
O O4 0.355153 0.620851 0.947334
O O5 0.821427 0.335466 0.454090
O O6 0.825678 0.114513 0.392481
O O7 0.956143 0.145404 0.757375
O O8 0.610370 0.043400 0.726639
O O9 0.789320 0.924092 0.825979
O O10 0.773584 0.383939 0.616015
O O11 0.007632 0.251562 0.004762
O O12 0.000000 0.500000 0.000000
O O13 0.000000 0.500000 0.500000
#
# Coordination Sequence:
#
# PCOD9251523 Si02
#       6
#     4   4   4   4   4   4
#     4  11  23  43  68  90 133 176 223 276 330 401
#     4  11  21  40  67  95 132 172 216 275 334 394
#     4  11  21  44  68  94 128 180 224 271 334 403
#     4  12  25  42  64 101 139 166 223 291 336 390
#     4  12  21  42  71  94 132 177 221 265 344 408
#     4  11  24  45  63  96 132 177 224 278 331 401
#
# _framework density 20.793023000000002
#
# number of rings (size 3 to 8) (size 9 to 14) (size 15 to 20)
#    0.000    0.667    8.333    1.500    0.000    2.000 
#    3.000    0.000    0.000    0.000    0.000    0.000 
#    0.000    0.000    0.000    0.000    0.000    0.000 
#
# Total GULP energy -133741.947782 kJ/mol
# GULP energy per Si atom -5572.581158 kJ/mol
# Density = 2.074570 g / cm^3
# Si number density = 20.793023 Si / 1000 Ang^3
#
#
#
# Elastic Constant Matrix: (Units=GPa)
#
#
# Indices 1 2 3 4 5 6 
#
# 1 121.9796 41.9924 12.9317 0.0000 -16.2185 0.0000
# 2 41.9924 150.8397 23.3428 0.0000 20.2130 0.0000
# 3 12.9317 23.3428 28.7768 0.0000 -10.4624 0.0000
# 4 0.0000 0.0000 0.0000 36.2134 0.0000 7.5970
# 5 -16.2185 20.2130 -10.4624 0.0000 26.2648 0.0000
# 6 0.0000 0.0000 0.0000 7.5970 0.0000 40.1336
#
#
#
# Elastic Compliance Matrix: (Units=1/GPa)
#
#
# Indices 1 2 3 4 5 6 
#
# 1 0.011385 -0.005525 0.004055 0.000000 0.012898 0.000000
# 2 -0.005525 0.013182 -0.015364 0.000000 -0.019677 0.000000
# 3 0.004055 -0.015364 0.059169 0.000000 0.037897 0.000000
# 4 0.000000 0.000000 0.000000 0.028756 0.000000 -0.005443
# 5 0.012898 -0.019677 0.037897 0.000000 0.076277 0.000000
# 6 0.000000 0.000000 0.000000 -0.005443 0.000000 0.025947
#
#
# Mechanical properties :
#
#
# Convention : Reuss Voigt Hill
#
# Bulk Modulus (GPa) = 19.97281 50.90331 35.43806
# Shear Modulus (GPa) = 18.86262 35.41097 27.13680
#
# Velocity S-wave (km/s) = 3.01518 4.13125 3.61652
# Velocity P-wave (km/s) = 4.66349 6.87680 5.87531
#
# Compressibility (1/GPa) = 0.05006807
#
# Stress axis : x y z
#
# Youngs Moduli (GPa) = 87.83237 75.86034 16.90078
#
# Poissons Ratio (x) = 0.41917 -0.06853
# Poissons Ratio (y) = 0.48532 0.25966
# Poissons Ratio (z) = -0.35617 1.16550
#
# Static dielectric constant tensor:
#      x y z
#    x 1.741960 0.000000 -0.006330 
#    y 0.000000 1.806070 0.000000 
#    z -0.006330 0.000000 1.759500 
# 
# From -- ./inp_files/33980.got.cif
#   From: 2010.05.17/outbox.cif.g08.bks.cpg/sg14_17_cif.got.tgz:33980.got - 2010.06.03 17:49:19.
