data_PCOD9251551
_publ_section_title
;
Structure prediction by ZEFSAII (Michael W. Deem and Ramdas Pophale) SiO2 
 PCOD9251551
Probable space group: P 21/C
;
_chemical_formula_sum "Si O2"
_cell_formula_units_Z 28
_cell_length_a 28.072558
_cell_length_b 5.275192
_cell_length_c 19.131826
_cell_angle_alpha 90.000000
_cell_angle_beta 26.847992
_cell_angle_gamma 90.000000
_cell_volume 1279.542406
_symmetry_space_group_name_H-M "P 21/C"
_symmetry_group_IT_number 14
_symmetry_cell_setting 'monoclinic'
loop_
_space_group_symop_operation_xyz
x,y,z
-x,1/2+y,1/2-z
-x,-y,-z
x,1/2-y,1/2+z
loop_
_atom_site_type_symbol
_atom_site_label
_atom_site_fract_x
_atom_site_fract_y
_atom_site_fract_z
Si Si1 0.103804 0.588143 0.535671
Si Si2 0.432989 0.605933 0.653531
Si Si3 0.981988 0.896645 0.599524
Si Si4 0.766068 0.699210 0.922567
Si Si5 0.890809 0.306327 0.825555
Si Si6 0.457195 0.184991 0.843262
Si Si7 0.290357 0.388720 0.353790
O O1 0.139005 0.749786 0.556237
O O2 0.194456 0.378409 0.422827
O O3 0.083782 0.738158 0.491217
O O4 0.983986 0.513805 0.711384
O O5 0.500000 0.500000 0.500000
O O6 0.507759 0.645584 0.623010
O O7 0.355856 0.369942 0.767908
O O8 0.366289 0.870926 0.735928
O O9 0.872829 0.744184 0.740256
O O10 0.953126 0.103483 0.696595
O O11 0.000000 0.000000 0.500000
O O12 0.788217 0.417273 0.921818
O O13 0.664154 0.743173 0.010179
O O14 0.757089 0.875685 0.004336
O O15 0.519481 0.423763 0.728487
#
# Coordination Sequence:
#
# PCOD9251551 Si02
#       7
#     4   4   4   4   4   4   4
#     4  11  22  39  72 102 134 194 242 291 359 452
#     4  12  27  48  71 108 149 183 248 319 377 429
#     4  11  26  44  66 108 152 185 241 315 372 436
#     4  11  24  41  72 102 138 193 248 299 364 451
#     4  11  21  41  69 100 142 187 246 297 360 448
#     4  12  25  46  74 106 140 195 252 307 369 444
#     4  12  24  44  76 106 139 196 247 301 363 453
#
# _framework density 21.882822000000001
#
# number of rings (size 3 to 8) (size 9 to 14) (size 15 to 20)
#    0.000    0.571    5.714    2.143    4.000    3.429 
#    2.571    0.000    0.000    0.000    0.000    0.000 
#    0.000    0.000    0.000    0.000    0.000    0.000 
#
# Total GULP energy -156231.655742 kJ/mol
# GULP energy per Si atom -5579.701991 kJ/mol
# Density = 2.183302 g / cm^3
# Si number density = 21.882822 Si / 1000 Ang^3
#
#
#
# Elastic Constant Matrix: (Units=GPa)
#
#
# Indices 1 2 3 4 5 6 
#
# 1 133.0250 8.0737 30.1291 0.0000 -39.6725 0.0000
# 2 8.0737 70.9109 0.0830 0.0000 -19.6130 0.0000
# 3 30.1291 0.0830 61.7882 0.0000 -16.3104 0.0000
# 4 0.0000 0.0000 0.0000 25.0082 0.0000 -13.5376
# 5 -39.6725 -19.6130 -16.3104 0.0000 32.5978 0.0000
# 6 0.0000 0.0000 0.0000 -13.5376 0.0000 25.5682
#
#
#
# Elastic Compliance Matrix: (Units=1/GPa)
#
#
# Indices 1 2 3 4 5 6 
#
# 1 0.012596 0.003060 -0.001859 0.000000 0.016241 0.000000
# 2 0.003060 0.018182 0.002712 0.000000 0.016021 0.000000
# 3 -0.001859 0.002712 0.019496 0.000000 0.009124 0.000000
# 4 0.000000 0.000000 0.000000 0.056053 0.000000 0.029678
# 5 0.016241 0.016021 0.009124 0.000000 0.064647 0.000000
# 6 0.000000 0.000000 0.000000 0.029678 0.000000 0.054825
#
#
# Mechanical properties :
#
#
# Convention : Reuss Voigt Hill
#
# Bulk Modulus (GPa) = 17.21153 38.03287 27.62220
# Shear Modulus (GPa) = 21.06694 31.79738 26.43216
#
# Velocity S-wave (km/s) = 3.10613 3.81606 3.47925
# Velocity P-wave (km/s) = 4.55483 6.06913 5.36567
#
# Compressibility (1/GPa) = 0.05810058
#
# Stress axis : x y z
#
# Youngs Moduli (GPa) = 79.38780 55.00029 51.29327
#
# Poissons Ratio (x) = -0.16830 0.09536
# Poissons Ratio (y) = -0.24293 -0.13913
# Poissons Ratio (z) = 0.14759 -0.14919
#
# Static dielectric constant tensor:
#      x y z
#    x 1.791850 0.000000 -0.015680 
#    y 0.000000 2.052780 0.000000 
#    z -0.015680 0.000000 1.892260 
# 
# From -- ./inp_files/62142.got.cif
#   From: 2010.05.17/outbox.cif.g08.bks.cpg/sg14_32_cif.got.tgz:62142.got - 2010.06.03 17:49:19.
