data_PCOD9251076
_publ_section_title
;
Structure prediction by ZEFSAII (Michael W. Deem and Ramdas Pophale) SiO2 
 PCOD9251076
Probable space group: P 21/C
;
_chemical_formula_sum "Si O2"
_cell_formula_units_Z 18
_cell_length_a 7.637843
_cell_length_b 4.998766
_cell_length_c 19.148286
_cell_angle_alpha 90.000000
_cell_angle_beta 64.512410
_cell_angle_gamma 90.000000
_cell_volume 659.927981
_symmetry_space_group_name_H-M "P 21/C"
_symmetry_group_IT_number 14
_symmetry_cell_setting 'monoclinic'
loop_
_space_group_symop_operation_xyz
x,y,z
-x,1/2+y,1/2-z
-x,-y,-z
x,1/2-y,1/2+z
loop_
_atom_site_type_symbol
_atom_site_label
_atom_site_fract_x
_atom_site_fract_y
_atom_site_fract_z
Si Si1 0.106778 0.486774 0.384518
Si Si2 0.000000 0.000000 0.500000
Si Si3 0.319703 0.873374 0.713214
Si Si4 0.649663 0.118897 0.571421
Si Si5 0.257621 0.144680 0.141194
O O1 0.274734 0.542084 0.299366
O O2 0.154366 0.720080 0.434035
O O3 0.905671 0.536932 0.380883
O O4 0.092734 0.207398 0.424349
O O5 0.223114 0.033134 0.506377
O O6 0.280473 0.569932 0.700331
O O7 0.532683 0.955669 0.649861
O O8 0.806154 0.573548 0.813798
O O9 0.478997 0.313968 0.576086
#
# Coordination Sequence:
#
# PCOD9251076 Si02
#       5
#     4   2   4   4   4
#     4  12  26  46  75 108 153 200 254 316 380 454
#     4  12  28  46  74 114 162 204 254 298 396 450
#     4  10  25  46  77 111 145 190 260 321 376 440
#     4  10  27  46  71 113 145 203 245 315 373 460
#     4  10  25  47  76 110 144 195 258 314 379 439
#
# _framework density 27.275704000000001
#
# number of rings (size 3 to 8) (size 9 to 14) (size 15 to 20)
#    1.333    0.000    0.000    3.333   12.444    0.889 
#    0.000    3.333    0.000    0.000    0.000    0.000 
#    0.000    0.000    0.000    0.000    0.000    0.000 
#
# Total GULP energy -100367.740505 kJ/mol
# GULP energy per Si atom -5575.985584 kJ/mol
# Density = 2.721362 g / cm^3
# Si number density = 27.275704 Si / 1000 Ang^3
#
#
#
# Elastic Constant Matrix: (Units=GPa)
#
#
# Indices 1 2 3 4 5 6 
#
# 1 116.2971 25.0992 47.7496 0.0000 -31.2171 0.0000
# 2 25.0992 88.0682 21.7311 0.0000 -12.0293 0.0000
# 3 47.7496 21.7311 154.7541 0.0000 -49.4007 0.0000
# 4 0.0000 0.0000 0.0000 42.6861 0.0000 8.4760
# 5 -31.2171 -12.0293 -49.4007 0.0000 55.5370 0.0000
# 6 0.0000 0.0000 0.0000 8.4760 0.0000 36.7648
#
#
#
# Elastic Compliance Matrix: (Units=1/GPa)
#
#
# Indices 1 2 3 4 5 6 
#
# 1 0.010872 -0.002107 -0.001751 0.000000 0.004097 0.000000
# 2 -0.002107 0.012262 -0.000841 0.000000 0.000724 0.000000
# 3 -0.001751 -0.000841 0.009424 0.000000 0.007216 0.000000
# 4 0.000000 0.000000 0.000000 0.024551 0.000000 -0.005660
# 5 0.004097 0.000724 0.007216 0.000000 0.026885 0.000000
# 6 0.000000 0.000000 0.000000 -0.005660 0.000000 0.028505
#
#
# Mechanical properties :
#
#
# Convention : Reuss Voigt Hill
#
# Bulk Modulus (GPa) = 43.17635 60.91992 52.04814
# Shear Modulus (GPa) = 38.57587 44.63353 41.60470
#
# Velocity S-wave (km/s) = 3.76479 4.04961 3.90980
# Velocity P-wave (km/s) = 5.89594 6.65201 6.28535
#
# Compressibility (1/GPa) = 0.02316083
#
# Stress axis : x y z
#
# Youngs Moduli (GPa) = 91.97891 81.55551 106.11542
#
# Poissons Ratio (x) = 0.17182 0.18578
# Poissons Ratio (y) = 0.19378 0.08921
# Poissons Ratio (z) = 0.16103 0.06856
#
# Static dielectric constant tensor:
#      x y z
#    x 2.186240 0.000000 -0.022910 
#    y 0.000000 2.369070 0.000000 
#    z -0.022910 0.000000 2.158880 
# 
# From -- ./inp_files/71514.got.cif
#   From: 2010.05.17/outbox.cif.g08.bks.cpg/sg14_36_cif.got.tgz:71514.got - 2010.06.03 17:49:19.
