data_PCOD9251604
_publ_section_title
;
Structure prediction by ZEFSAII (Michael W. Deem and Ramdas Pophale) SiO2 
 PCOD9251604
Probable space group: P 21/C
;
_chemical_formula_sum "Si O2"
_cell_formula_units_Z 16
_cell_length_a 6.699495
_cell_length_b 8.166219
_cell_length_c 19.933787
_cell_angle_alpha 90.000000
_cell_angle_beta 46.123729
_cell_angle_gamma 90.000000
_cell_volume 786.123375
_symmetry_space_group_name_H-M "P 21/C"
_symmetry_group_IT_number 14
_symmetry_cell_setting 'monoclinic'
loop_
_space_group_symop_operation_xyz
x,y,z
-x,1/2+y,1/2-z
-x,-y,-z
x,1/2-y,1/2+z
loop_
_atom_site_type_symbol
_atom_site_label
_atom_site_fract_x
_atom_site_fract_y
_atom_site_fract_z
Si Si1 0.068537 0.309345 0.985679
Si Si2 0.529307 0.689849 0.345547
Si Si3 0.231931 0.385807 0.574415
Si Si4 0.678057 0.900076 0.186109
O O1 0.776822 0.212600 0.052455
O O2 0.214433 0.250205 0.020236
O O3 0.000000 0.500000 0.000000
O O4 0.245026 0.248385 0.881465
O O5 0.738840 0.689803 0.358446
O O6 0.571703 0.830287 0.280809
O O7 0.530605 0.518557 0.305148
O O8 0.500000 0.500000 0.500000
O O9 0.954440 0.493463 0.634121
#
# Coordination Sequence:
#
# PCOD9251604 Si02
#       4
#     4   4   4   4
#     4  11  23  41  64  93 128 169 212 267 325 387
#     4  11  23  42  64  93 128 169 215 267 324 385
#     4  11  21  44  67  88 131 174 210 267 329 385
#     4  11  23  40  65  91 128 167 213 270 323 383
#
# _framework density 20.35304
#
# number of rings (size 3 to 8) (size 9 to 14) (size 15 to 20)
#    0.000    1.000    5.000    3.000    0.000    7.000 
#    4.500    0.000    0.000    0.000    0.000    0.000 
#    0.000    0.000    0.000    0.000    0.000    0.000 
#
# Total GULP energy -89457.342845 kJ/mol
# GULP energy per Si atom -5591.083928 kJ/mol
# Density = 2.030672 g / cm^3
# Si number density = 20.353040 Si / 1000 Ang^3
#
#
#
# Elastic Constant Matrix: (Units=GPa)
#
#
# Indices 1 2 3 4 5 6 
#
# 1 120.7062 30.6082 15.1416 0.0000 34.4085 0.0000
# 2 30.6082 79.0568 -2.5414 0.0000 18.0318 0.0000
# 3 15.1416 -2.5414 55.6733 0.0000 21.2364 0.0000
# 4 0.0000 0.0000 0.0000 42.1993 0.0000 12.7030
# 5 34.4085 18.0318 21.2364 0.0000 31.5274 0.0000
# 6 0.0000 0.0000 0.0000 12.7030 0.0000 31.9869
#
#
#
# Elastic Compliance Matrix: (Units=1/GPa)
#
#
# Indices 1 2 3 4 5 6 
#
# 1 0.012412 -0.001578 0.001851 0.000000 -0.013891 0.000000
# 2 -0.001578 0.015941 0.005353 0.000000 -0.011001 0.000000
# 3 0.001851 0.005353 0.026433 0.000000 -0.022887 0.000000
# 4 0.000000 0.000000 0.000000 0.026915 0.000000 -0.010689
# 5 -0.013891 -0.011001 -0.022887 0.000000 0.068587 0.000000
# 6 0.000000 0.000000 0.000000 -0.010689 0.000000 0.035508
#
#
# Mechanical properties :
#
#
# Convention : Reuss Voigt Hill
#
# Bulk Modulus (GPa) = 15.14256 37.98368 26.56312
# Shear Modulus (GPa) = 25.43806 35.29126 30.36466
#
# Velocity S-wave (km/s) = 3.53914 4.16860 3.86670
# Velocity P-wave (km/s) = 4.91496 6.47090 5.74584
#
# Compressibility (1/GPa) = 0.06603904
#
# Stress axis : x y z
#
# Youngs Moduli (GPa) = 80.56595 62.72980 37.83158
#
# Poissons Ratio (x) = 0.09898 -0.07002
# Poissons Ratio (y) = 0.12712 -0.20252
# Poissons Ratio (z) = -0.14911 -0.33581
#
# Static dielectric constant tensor:
#      x y z
#    x 1.712500 0.000000 0.005230 
#    y 0.000000 1.771760 0.000000 
#    z 0.005230 0.000000 1.710950 
# 
# From -- ./inp_files/36607.got.cif
#   From: 2010.05.17/outbox.cif.g08.bks.cpg/sg14_19_cif.got.tgz:36607.got - 2010.06.03 17:49:19.
