data_PCOD9251842
_publ_section_title
;
Structure prediction by ZEFSAII (Michael W. Deem and Ramdas Pophale) SiO2 
 PCOD9251842
Probable space group: P 21/C
;
_chemical_formula_sum "Si O2"
_cell_formula_units_Z 28
_cell_length_a 15.209721
_cell_length_b 12.693499
_cell_length_c 17.965162
_cell_angle_alpha 90.000000
_cell_angle_beta 158.265973
_cell_angle_gamma 90.000000
_cell_volume 1284.356765
_symmetry_space_group_name_H-M "P 21/C"
_symmetry_group_IT_number 14
_symmetry_cell_setting 'monoclinic'
loop_
_space_group_symop_operation_xyz
x,y,z
-x,1/2+y,1/2-z
-x,-y,-z
x,1/2-y,1/2+z
loop_
_atom_site_type_symbol
_atom_site_label
_atom_site_fract_x
_atom_site_fract_y
_atom_site_fract_z
Si Si1 0.094636 0.000648 0.951775
Si Si2 0.086834 0.345579 0.067933
Si Si3 0.545039 0.478014 0.384288
Si Si4 0.790821 0.181487 0.634343
Si Si5 0.889634 0.084494 0.267294
Si Si6 0.205615 0.904712 0.523548
Si Si7 0.740449 0.617825 0.276588
O O1 0.881786 0.932891 0.819302
O O2 0.262134 0.940523 0.025119
O O3 0.978010 0.099367 0.816569
O O4 0.247598 0.039216 0.143454
O O5 0.333934 0.398427 0.238166
O O6 0.002707 0.369524 0.084739
O O7 0.117742 0.221383 0.085348
O O8 0.897167 0.395786 0.861570
O O9 0.687869 0.488697 0.573088
O O10 0.433430 0.579708 0.255549
O O11 0.860285 0.299897 0.710028
O O12 0.525804 0.151531 0.453352
O O13 0.775281 0.166386 0.533203
O O14 0.132031 0.022510 0.438904
#
# Coordination Sequence:
#
# PCOD9251842 Si02
#       7
#     4   4   4   4   4   4   4
#     4  11  24  44  69  96 130 181 222 271 327 391
#     4  11  25  43  67 100 134 174 220 272 332 397
#     4  11  22  44  68  91 133 172 217 275 326 382
#     4  12  23  45  67  99 132 175 220 275 328 394
#     4  11  23  42  67  95 134 167 220 271 325 387
#     4  11  26  42  69  99 131 175 220 269 336 395
#     4  11  24  44  67  96 135 172 221 278 326 386
#
# _framework density 21.800795999999998
#
# number of rings (size 3 to 8) (size 9 to 14) (size 15 to 20)
#    0.000    0.857    5.714    2.143    2.000    2.286 
#    0.000    0.000    3.143    0.000    0.000    0.000 
#    0.000    0.000    0.000    0.000    0.000    0.000 
#
# Total GULP energy -156407.695665 kJ/mol
# GULP energy per Si atom -5585.989131 kJ/mol
# Density = 2.175118 g / cm^3
# Si number density = 21.800796 Si / 1000 Ang^3
#
#
#
# Elastic Constant Matrix: (Units=GPa)
#
#
# Indices 1 2 3 4 5 6 
#
# 1 130.4810 21.4064 29.8161 0.0000 13.0983 0.0000
# 2 21.4064 56.1887 14.3836 0.0000 4.8164 0.0000
# 3 29.8161 14.3836 92.0310 0.0000 -8.8049 0.0000
# 4 0.0000 0.0000 0.0000 22.3958 0.0000 -15.2716
# 5 13.0983 4.8164 -8.8049 0.0000 32.1951 0.0000
# 6 0.0000 0.0000 0.0000 -15.2716 0.0000 21.1783
#
#
#
# Elastic Compliance Matrix: (Units=1/GPa)
#
#
# Indices 1 2 3 4 5 6 
#
# 1 0.009158 -0.002362 -0.002999 0.000000 -0.004192 0.000000
# 2 -0.002362 0.019578 -0.002550 0.000000 -0.002665 0.000000
# 3 -0.002999 -0.002550 0.012722 0.000000 0.005081 0.000000
# 4 0.000000 0.000000 0.000000 0.087846 0.000000 0.063346
# 5 -0.004192 -0.002665 0.005081 0.000000 0.034555 0.000000
# 6 0.000000 0.000000 0.000000 0.063346 0.000000 0.092897
#
#
# Mechanical properties :
#
#
# Convention : Reuss Voigt Hill
#
# Bulk Modulus (GPa) = 39.00599 45.54588 42.27593
# Shear Modulus (GPa) = 17.78590 29.36015 23.57303
#
# Velocity S-wave (km/s) = 2.85938 3.67379 3.29187
# Velocity P-wave (km/s) = 5.36957 6.23962 5.82087
#
# Compressibility (1/GPa) = 0.02563709
#
# Stress axis : x y z
#
# Youngs Moduli (GPa) = 109.19962 51.07749 78.60368
#
# Poissons Ratio (x) = 0.12063 0.23572
# Poissons Ratio (y) = 0.25790 0.20042
# Poissons Ratio (z) = 0.32747 0.13023
#
# Static dielectric constant tensor:
#      x y z
#    x 1.781990 0.000000 -0.002620 
#    y 0.000000 1.802880 0.000000 
#    z -0.002620 0.000000 1.856700 
# 
# From -- ./inp_files/69400.got.cif
#   From: 2010.05.17/outbox.cif.g08.bks.cpg/sg14_35_cif.got.tgz:69400.got - 2010.06.03 17:49:19.
