data_PCOD9251719
_publ_section_title
;
Structure prediction by ZEFSAII (Michael W. Deem and Ramdas Pophale) SiO2 
 PCOD9251719
Probable space group: P 21/C
;
_chemical_formula_sum "Si O2"
_cell_formula_units_Z 20
_cell_length_a 4.951911
_cell_length_b 11.304316
_cell_length_c 17.887761
_cell_angle_alpha 90.000000
_cell_angle_beta 55.223175
_cell_angle_gamma 90.000000
_cell_volume 822.464609
_symmetry_space_group_name_H-M "P 21/C"
_symmetry_group_IT_number 14
_symmetry_cell_setting 'monoclinic'
loop_
_space_group_symop_operation_xyz
x,y,z
-x,1/2+y,1/2-z
-x,-y,-z
x,1/2-y,1/2+z
loop_
_atom_site_type_symbol
_atom_site_label
_atom_site_fract_x
_atom_site_fract_y
_atom_site_fract_z
Si Si1 0.381760 0.704474 0.327893
Si Si2 0.750000 0.086788 0.000000
Si Si3 0.881761 0.295527 0.327893
Si Si4 0.015351 0.574417 0.829373
Si Si5 0.484649 0.574418 0.170627
O O1 0.390066 0.665475 0.411360
O O2 0.750000 0.750000 0.250000
O O3 0.310761 0.599692 0.279015
O O4 0.105714 0.804621 0.357282
O O5 0.890067 0.165475 0.911360
O O6 0.500000 0.000000 0.000000
O O7 0.000000 0.000000 0.000000
O O8 0.810762 0.400309 0.279015
O O9 0.605714 0.195379 0.357282
O O10 0.163672 0.470543 0.857259
O O11 0.663671 0.529457 0.857259
#
# Coordination Sequence:
#
# PCOD9251719 Si02
#       5
#     4   4   4   4   4
#     4  11  25  44  73 103 147 187 245 289 363 429
#     4  12  30  46  74 112 144 182 246 304 356 422
#     4  11  25  44  73 103 147 187 245 289 363 429
#     4  11  22  39  68  98 134 187 234 283 353 421
#     4  11  22  39  68  98 134 187 234 283 353 421
#
# _framework density 24.317157999999999
#
# number of rings (size 3 to 8) (size 9 to 14) (size 15 to 20)
#    0.000    0.800    4.000    2.400   11.200    0.000 
#    0.000    2.000    0.000    0.000    0.000    0.000 
#    0.000    0.000    0.000    0.000    0.000    0.000 
#
# Total GULP energy -111777.715726 kJ/mol
# GULP energy per Si atom -5588.885786 kJ/mol
# Density = 2.426181 g / cm^3
# Si number density = 24.317158 Si / 1000 Ang^3
#
#
#
# Elastic Constant Matrix: (Units=GPa)
#
#
# Indices 1 2 3 4 5 6 
#
# 1 171.9585 50.2990 52.7912 0.0000 37.6444 0.0000
# 2 50.2990 65.2814 49.3927 0.0000 15.4588 0.0000
# 3 52.7912 49.3927 154.4048 0.0000 36.9449 0.0000
# 4 0.0000 0.0000 0.0000 39.2718 0.0000 29.1590
# 5 37.6444 15.4588 36.9449 0.0000 34.8612 0.0000
# 6 0.0000 0.0000 0.0000 29.1590 0.0000 63.8958
#
#
#
# Elastic Compliance Matrix: (Units=1/GPa)
#
#
# Indices 1 2 3 4 5 6 
#
# 1 0.008961 -0.005473 0.000565 0.000000 -0.007848 0.000000
# 2 -0.005473 0.023763 -0.006194 0.000000 0.001937 0.000000
# 3 0.000565 -0.006194 0.010387 0.000000 -0.008872 0.000000
# 4 0.000000 0.000000 0.000000 0.038513 0.000000 -0.017576
# 5 -0.007848 0.001937 -0.008872 0.000000 0.045703 0.000000
# 6 0.000000 0.000000 0.000000 -0.017576 0.000000 0.023671
#
#
# Mechanical properties :
#
#
# Convention : Reuss Voigt Hill
#
# Bulk Modulus (GPa) = 47.83033 77.40117 62.61575
# Shear Modulus (GPa) = 27.75123 43.54987 35.65055
#
# Velocity S-wave (km/s) = 3.38186 4.23651 3.83308
# Velocity P-wave (km/s) = 5.91281 7.47192 6.73762
#
# Compressibility (1/GPa) = 0.02090724
#
# Stress axis : x y z
#
# Youngs Moduli (GPa) = 111.59521 42.08207 96.27047
#
# Poissons Ratio (x) = 0.23033 -0.05438
# Poissons Ratio (y) = 0.61080 0.59626
# Poissons Ratio (z) = -0.06304 0.26064
#
# Static dielectric constant tensor:
#      x y z
#    x 1.925720 0.000000 -0.035950 
#    y 0.000000 2.143390 0.000000 
#    z -0.035950 0.000000 1.929290 
# 
# From -- ./inp_files/52843.got.cif
#   From: 2010.05.17/outbox.cif.g08.bks.cpg/sg14_27_cif.got.tgz:52843.got - 2010.06.03 17:49:19.
