data_PCOD9251803
_publ_section_title
;
Structure prediction by ZEFSAII (Michael W. Deem and Ramdas Pophale) SiO2 
 PCOD9251803
Probable space group: P 21/C
;
_chemical_formula_sum "Si O2"
_cell_formula_units_Z 28
_cell_length_a 14.584795
_cell_length_b 5.249821
_cell_length_c 18.310752
_cell_angle_alpha 90.000000
_cell_angle_beta 60.731970
_cell_angle_gamma 90.000000
_cell_volume 1223.032194
_symmetry_space_group_name_H-M "P 21/C"
_symmetry_group_IT_number 14
_symmetry_cell_setting 'monoclinic'
loop_
_space_group_symop_operation_xyz
x,y,z
-x,1/2+y,1/2-z
-x,-y,-z
x,1/2-y,1/2+z
loop_
_atom_site_type_symbol
_atom_site_label
_atom_site_fract_x
_atom_site_fract_y
_atom_site_fract_z
Si Si1 0.631471 0.224538 0.615320
Si Si2 0.230905 0.983738 0.839004
Si Si3 0.026870 0.249644 0.442091
Si Si4 0.750127 0.349618 0.299887
Si Si5 0.572295 0.242946 0.476147
Si Si6 0.397289 0.167178 0.244121
Si Si7 0.953787 0.185390 0.804190
O O1 0.743477 0.340657 0.596374
O O2 0.633844 0.213587 0.527968
O O3 0.516173 0.355990 0.672194
O O4 0.618680 0.977478 0.672626
O O5 0.152146 0.215965 0.879461
O O6 0.351984 0.051491 0.772186
O O7 0.195034 0.807407 0.786849
O O8 0.000000 0.500000 0.500000
O O9 0.973840 0.268673 0.382572
O O10 0.000000 0.000000 0.500000
O O11 0.656495 0.215395 0.379259
O O12 0.684920 0.565966 0.283654
O O13 0.838297 0.410919 0.324892
O O14 0.500000 0.500000 0.500000
O O15 0.500000 0.000000 0.500000
O O16 0.974159 0.457610 0.756525
#
# Coordination Sequence:
#
# PCOD9251803 Si02
#       7
#     4   4   4   4   4   4   4
#     4  11  24  40  70 106 145 193 236 295 364 441
#     4  11  25  46  74 102 144 192 246 298 373 449
#     4  12  29  51  75 113 153 193 251 325 382 448
#     4  11  26  45  74 103 142 195 244 301 368 444
#     4  12  28  45  67 105 152 188 239 300 358 434
#     4  11  22  42  72 103 142 189 242 290 361 444
#     4  12  26  50  80 109 145 197 257 314 376 451
#
# _framework density 22.893916999999998
#
# number of rings (size 3 to 8) (size 9 to 14) (size 15 to 20)
#    0.000    0.571    4.286    2.571   10.000    0.000 
#    0.000    0.000    0.000    0.000    0.000    0.000 
#    0.000    0.000    0.000    0.000    0.000    0.000 
#
# Total GULP energy -156255.390670 kJ/mol
# GULP energy per Si atom -5580.549667 kJ/mol
# Density = 2.284181 g / cm^3
# Si number density = 22.893917 Si / 1000 Ang^3
#
#
#
# Elastic Constant Matrix: (Units=GPa)
#
#
# Indices 1 2 3 4 5 6 
#
# 1 148.3019 26.5650 42.8454 0.0000 33.0498 0.0000
# 2 26.5650 80.5906 23.1200 0.0000 20.6630 0.0000
# 3 42.8454 23.1200 95.3632 0.0000 30.8184 0.0000
# 4 0.0000 0.0000 0.0000 31.9322 0.0000 -17.7973
# 5 33.0498 20.6630 30.8184 0.0000 53.2107 0.0000
# 6 0.0000 0.0000 0.0000 -17.7973 0.0000 19.8811
#
#
#
# Elastic Compliance Matrix: (Units=1/GPa)
#
#
# Indices 1 2 3 4 5 6 
#
# 1 0.008402 -0.001222 -0.002393 0.000000 -0.003358 0.000000
# 2 -0.001222 0.014270 -0.001679 0.000000 -0.003810 0.000000
# 3 -0.002393 -0.001679 0.013874 0.000000 -0.005897 0.000000
# 4 0.000000 0.000000 0.000000 0.062499 0.000000 0.055948
# 5 -0.003358 -0.003810 -0.005897 0.000000 0.025773 0.000000
# 6 0.000000 0.000000 0.000000 0.055948 0.000000 0.100383
#
#
# Mechanical properties :
#
#
# Convention : Reuss Voigt Hill
#
# Bulk Modulus (GPa) = 38.52628 56.59072 47.55850
# Shear Modulus (GPa) = 20.45464 36.45317 28.45390
#
# Velocity S-wave (km/s) = 2.99231 3.99465 3.52924
# Velocity P-wave (km/s) = 5.36687 6.78591 6.11767
#
# Compressibility (1/GPa) = 0.02595631
#
# Stress axis : x y z
#
# Youngs Moduli (GPa) = 119.02476 70.07834 72.07503
#
# Poissons Ratio (x) = 0.08563 0.17250
# Poissons Ratio (y) = 0.14544 0.12104
# Poissons Ratio (z) = 0.28487 0.11769
#
# Static dielectric constant tensor:
#      x y z
#    x 1.929810 0.000000 -0.008650 
#    y 0.000000 1.952940 0.000000 
#    z -0.008650 0.000000 1.946150 
# 
# From -- ./inp_files/58548.got.cif
#   From: 2010.05.17/outbox.cif.g08.bks.cpg/sg14_30_cif.got.tgz:58548.got - 2010.06.03 17:49:19.
