data_PCOD9251193
_publ_section_title
;
Structure prediction by ZEFSAII (Michael W. Deem and Ramdas Pophale) SiO2 
 PCOD9251193
Probable space group: P 21/C
;
_chemical_formula_sum "Si O2"
_cell_formula_units_Z 26
_cell_length_a 17.768926
_cell_length_b 9.114793
_cell_length_c 13.709891
_cell_angle_alpha 90.000000
_cell_angle_beta 27.845306
_cell_angle_gamma 90.000000
_cell_volume 1037.143406
_symmetry_space_group_name_H-M "P 21/C"
_symmetry_group_IT_number 14
_symmetry_cell_setting 'monoclinic'
loop_
_space_group_symop_operation_xyz
x,y,z
-x,1/2+y,1/2-z
-x,-y,-z
x,1/2-y,1/2+z
loop_
_atom_site_type_symbol
_atom_site_label
_atom_site_fract_x
_atom_site_fract_y
_atom_site_fract_z
Si Si1 0.500000 0.500000 0.500000
Si Si2 0.159013 0.624082 0.393701
Si Si3 0.652231 0.216501 0.977409
Si Si4 0.848713 0.716179 0.647452
Si Si5 0.847197 0.034519 0.889621
Si Si6 0.206015 0.043149 0.457467
Si Si7 0.353628 0.245066 0.939491
O O1 0.453562 0.600802 0.460791
O O2 0.668836 0.448591 0.247951
O O3 0.136132 0.449108 0.407221
O O4 0.188756 0.631063 0.474124
O O5 0.003865 0.722006 0.540980
O O6 0.296234 0.661462 0.158246
O O7 0.538996 0.264336 0.196448
O O8 0.807922 0.136272 0.842091
O O9 0.831232 0.824071 0.576670
O O10 0.691537 0.750436 0.894687
O O11 0.030626 0.979992 0.681919
O O12 0.730231 0.896758 0.011598
O O13 0.274358 0.112776 0.478935
#
# Coordination Sequence:
#
# PCOD9251193 Si02
#       7
#     2   4   4   4   4   4   4
#     4  10  26  46  66 106 148 180 238 306 342 430
#     4  11  25  44  73 105 139 185 239 294 357 426
#     4  11  27  47  70 109 142 189 235 297 364 423
#     4  11  23  46  70 103 139 183 231 303 350 427
#     4  12  25  45  78 104 137 195 239 289 359 444
#     4  11  23  46  72 104 140 182 244 289 365 420
#     4  11  26  44  69 103 142 184 231 300 359 423
#
# _framework density 25.068857999999999
#
# number of rings (size 3 to 8) (size 9 to 14) (size 15 to 20)
#    0.000    0.923    4.615    0.923    4.308    5.538 
#    2.769    0.000    0.000    0.000    0.000    0.000 
#    0.000    0.000    0.000    0.000    0.000    0.000 
#
# Total GULP energy -145100.671988 kJ/mol
# GULP energy per Si atom -5580.795076 kJ/mol
# Density = 2.501180 g / cm^3
# Si number density = 25.068858 Si / 1000 Ang^3
#
#
#
# Elastic Constant Matrix: (Units=GPa)
#
#
# Indices 1 2 3 4 5 6 
#
# 1 45.2744 10.0674 -5.4899 0.0000 10.0695 0.0000
# 2 10.0674 32.3346 -0.7606 0.0000 8.3543 0.0000
# 3 -5.4899 -0.7606 132.4140 0.0000 -10.5823 0.0000
# 4 0.0000 0.0000 0.0000 32.1266 0.0000 16.9689
# 5 10.0695 8.3543 -10.5823 0.0000 27.2334 0.0000
# 6 0.0000 0.0000 0.0000 16.9689 0.0000 14.4715
#
#
#
# Elastic Compliance Matrix: (Units=1/GPa)
#
#
# Indices 1 2 3 4 5 6 
#
# 1 0.025076 -0.005913 0.000423 0.000000 -0.007294 0.000000
# 2 -0.005913 0.035038 -0.000751 0.000000 -0.008854 0.000000
# 3 0.000423 -0.000751 0.007814 0.000000 0.003111 0.000000
# 4 0.000000 0.000000 0.000000 0.081770 0.000000 -0.095881
# 5 -0.007294 -0.008854 0.003111 0.000000 0.043341 0.000000
# 6 0.000000 0.000000 0.000000 -0.095881 0.000000 0.181529
#
#
# Mechanical properties :
#
#
# Convention : Reuss Voigt Hill
#
# Bulk Modulus (GPa) = 18.03628 24.18411 21.11019
# Shear Modulus (GPa) = 12.32949 28.51338 20.42143
#
# Velocity S-wave (km/s) = 2.22012 3.37620 2.85724
# Velocity P-wave (km/s) = 3.71244 4.98661 4.39594
#
# Compressibility (1/GPa) = 0.05544381
#
# Stress axis : x y z
#
# Youngs Moduli (GPa) = 39.87900 28.54081 127.97761
#
# Poissons Ratio (x) = 0.16876 -0.05411
# Poissons Ratio (y) = 0.23581 0.09617
# Poissons Ratio (z) = -0.01686 0.02145
#
# Static dielectric constant tensor:
#      x y z
#    x 1.971770 0.000000 -0.079350 
#    y 0.000000 2.079060 0.000000 
#    z -0.079350 0.000000 1.989080 
# 
# From -- ./inp_files/33879.got.cif
#   From: 2010.05.17/outbox.cif.g08.bks.cpg/sg14_17_cif.got.tgz:33879.got - 2010.06.03 17:49:19.
