data_PCOD9251100
_publ_section_title
;
Structure prediction by ZEFSAII (Michael W. Deem and Ramdas Pophale) SiO2 
 PCOD9251100
Probable space group: P 21/C
;
_chemical_formula_sum "Si O2"
_cell_formula_units_Z 20
_cell_length_a 17.591270
_cell_length_b 5.117890
_cell_length_c 9.600019
_cell_angle_alpha 90.000000
_cell_angle_beta 125.721366
_cell_angle_gamma 90.000000
_cell_volume 701.688753
_symmetry_space_group_name_H-M "P 21/C"
_symmetry_group_IT_number 14
_symmetry_cell_setting 'monoclinic'
loop_
_space_group_symop_operation_xyz
x,y,z
-x,1/2+y,1/2-z
-x,-y,-z
x,1/2-y,1/2+z
loop_
_atom_site_type_symbol
_atom_site_label
_atom_site_fract_x
_atom_site_fract_y
_atom_site_fract_z
Si Si1 0.814641 0.599074 0.357299
Si Si2 0.791007 0.259928 0.600061
Si Si3 0.490203 0.789184 0.329895
Si Si4 0.006452 0.695569 0.166191
Si Si5 0.655449 0.530225 0.657745
O O1 0.800787 0.361975 0.452860
O O2 0.790186 0.525624 0.171483
O O3 0.921882 0.690931 0.485403
O O4 0.739967 0.817762 0.321367
O O5 0.701491 0.395140 0.573028
O O6 0.889361 0.354594 0.777789
O O7 0.507226 0.581050 0.223625
O O8 0.577084 0.734437 0.524777
O O9 0.397281 0.683359 0.305526
O O10 0.976179 0.426310 0.203651
#
# Coordination Sequence:
#
# PCOD9251100 Si02
#       5
#     4   4   4   4   4
#     4  11  27  47  78 113 158 206 265 316 386 457
#     4  11  27  47  78 112 158 205 261 318 381 462
#     4  11  28  51  77 110 157 199 257 322 400 468
#     4  10  25  47  75 113 161 210 257 318 380 454
#     4  11  28  45  80 112 152 205 258 325 391 468
#
# _framework density 28.502666000000001
#
# number of rings (size 3 to 8) (size 9 to 14) (size 15 to 20)
#    0.000    1.200    0.000    1.800   19.600    2.400 
#    0.000    0.000    0.000    0.000    0.000    0.000 
#    0.000    0.000    0.000    0.000    0.000    0.000 
#
# Total GULP energy -112225.471430 kJ/mol
# GULP energy per Si atom -5611.273572 kJ/mol
# Density = 2.843779 g / cm^3
# Si number density = 28.502666 Si / 1000 Ang^3
#
#
#
# Elastic Constant Matrix: (Units=GPa)
#
#
# Indices 1 2 3 4 5 6 
#
# 1 169.3241 10.2922 45.9837 0.0000 11.1830 0.0000
# 2 10.2922 92.8479 31.9650 0.0000 -6.6409 0.0000
# 3 45.9837 31.9650 122.2523 0.0000 5.2046 0.0000
# 4 0.0000 0.0000 0.0000 56.5804 0.0000 -7.7563
# 5 11.1830 -6.6409 5.2046 0.0000 59.7436 0.0000
# 6 0.0000 0.0000 0.0000 -7.7563 0.0000 44.4596
#
#
#
# Elastic Compliance Matrix: (Units=1/GPa)
#
#
# Indices 1 2 3 4 5 6 
#
# 1 0.006640 0.000039 -0.002464 0.000000 -0.001024 0.000000
# 2 0.000039 0.011989 -0.003218 0.000000 0.001606 0.000000
# 3 -0.002464 -0.003218 0.009981 0.000000 -0.000766 0.000000
# 4 0.000000 0.000000 0.000000 0.018107 0.000000 0.003159
# 5 -0.001024 0.001606 -0.000766 0.000000 0.017175 0.000000
# 6 0.000000 0.000000 0.000000 0.003159 0.000000 0.023043
#
#
# Mechanical properties :
#
#
# Convention : Reuss Voigt Hill
#
# Bulk Modulus (GPa) = 57.72428 62.32290 60.02359
# Shear Modulus (GPa) = 48.07906 51.90228 49.99067
#
# Velocity S-wave (km/s) = 4.11156 4.27190 4.19250
# Velocity P-wave (km/s) = 6.54493 6.80039 6.67388
#
# Compressibility (1/GPa) = 0.01732373
#
# Stress axis : x y z
#
# Youngs Moduli (GPa) = 150.59514 83.41282 100.19391
#
# Poissons Ratio (x) = -0.00326 0.24691
# Poissons Ratio (y) = -0.00588 0.32239
# Poissons Ratio (z) = 0.37111 0.26840
#
# Static dielectric constant tensor:
#      x y z
#    x 2.206450 0.000000 -0.036040 
#    y 0.000000 2.244040 0.000000 
#    z -0.036040 0.000000 2.199890 
# 
# From -- ./inp_files/33246.got.cif
#   From: 2010.05.17/outbox.cif.g08.bks.cpg/sg14_17_cif.got.tgz:33246.got - 2010.06.03 17:49:19.
