data_PCOD9251835
_publ_section_title
;
Structure prediction by ZEFSAII (Michael W. Deem and Ramdas Pophale) SiO2 
 PCOD9251835
Probable space group: P 21/C
;
_chemical_formula_sum "Si O2"
_cell_formula_units_Z 24
_cell_length_a 13.166644
_cell_length_b 11.697934
_cell_length_c 10.364691
_cell_angle_alpha 90.000000
_cell_angle_beta 36.338128
_cell_angle_gamma 90.000000
_cell_volume 945.943402
_symmetry_space_group_name_H-M "P 21/C"
_symmetry_group_IT_number 14
_symmetry_cell_setting 'monoclinic'
loop_
_space_group_symop_operation_xyz
x,y,z
-x,1/2+y,1/2-z
-x,-y,-z
x,1/2-y,1/2+z
loop_
_atom_site_type_symbol
_atom_site_label
_atom_site_fract_x
_atom_site_fract_y
_atom_site_fract_z
Si Si1 0.158832 0.833583 0.455268
Si Si2 0.265502 0.461421 0.187260
Si Si3 0.903637 0.568844 0.887732
Si Si4 0.236044 0.231078 0.104320
Si Si5 0.412345 0.020958 0.800548
Si Si6 0.738929 0.175827 0.918331
O O1 0.228804 0.772654 0.510452
O O2 0.953363 0.811755 0.659530
O O3 0.182132 0.969525 0.442303
O O4 0.744949 0.216816 0.766370
O O5 0.104273 0.472134 0.255278
O O6 0.414096 0.527676 0.958153
O O7 0.303999 0.324794 0.135999
O O8 0.272269 0.493403 0.328788
O O9 0.804978 0.688939 0.978785
O O10 0.092432 0.594379 0.743325
O O11 0.359995 0.128949 0.939485
O O12 0.414043 0.906722 0.884245
#
# Coordination Sequence:
#
# PCOD9251835 Si02
#       6
#     4   4   4   4   4   4
#     4  11  23  40  66  99 138 164 228 269 332 392
#     4   9  24  41  64  95 132 179 221 263 335 395
#     4   9  21  40  63  95 126 169 217 269 327 388
#     4   9  22  37  67  92 130 175 214 274 328 385
#     4  11  22  44  66  95 135 176 220 274 329 396
#     4  11  25  38  68  99 131 175 216 280 325 390
#
# _framework density 25.371494999999999
#
# number of rings (size 3 to 8) (size 9 to 14) (size 15 to 20)
#    1.000    1.000    1.667    0.500    7.000    2.000 
#    3.000    0.833    0.000    0.000    0.000    0.000 
#    0.000    0.000    0.000    0.000    0.000    0.000 
#
# Total GULP energy -134175.244679 kJ/mol
# GULP energy per Si atom -5590.635195 kJ/mol
# Density = 2.531375 g / cm^3
# Si number density = 25.371495 Si / 1000 Ang^3
#
#
#
# Elastic Constant Matrix: (Units=GPa)
#
#
# Indices 1 2 3 4 5 6 
#
# 1 56.8142 -0.3406 21.1017 0.0000 11.5281 0.0000
# 2 -0.3406 86.7859 47.5577 0.0000 1.0398 0.0000
# 3 21.1017 47.5577 95.8787 0.0000 16.5980 0.0000
# 4 0.0000 0.0000 0.0000 18.9650 0.0000 6.9414
# 5 11.5281 1.0398 16.5980 0.0000 41.9863 0.0000
# 6 0.0000 0.0000 0.0000 6.9414 0.0000 27.5252
#
#
#
# Elastic Compliance Matrix: (Units=1/GPa)
#
#
# Indices 1 2 3 4 5 6 
#
# 1 0.020338 0.003076 -0.005391 0.000000 -0.003529 0.000000
# 2 0.003076 0.016627 -0.009347 0.000000 0.002438 0.000000
# 3 -0.005391 -0.009347 0.017128 0.000000 -0.005059 0.000000
# 4 0.000000 0.000000 0.000000 0.058090 0.000000 -0.014649
# 5 -0.003529 0.002438 -0.005059 0.000000 0.026726 0.000000
# 6 0.000000 0.000000 0.000000 -0.014649 0.000000 0.040025
#
#
# Mechanical properties :
#
#
# Convention : Reuss Voigt Hill
#
# Bulk Modulus (GPa) = 32.49820 41.79073 37.14447
# Shear Modulus (GPa) = 23.52775 29.10598 26.31686
#
# Velocity S-wave (km/s) = 3.04851 3.39070 3.22415
# Velocity P-wave (km/s) = 5.02275 5.64237 5.34155
#
# Compressibility (1/GPa) = 0.03077093
#
# Stress axis : x y z
#
# Youngs Moduli (GPa) = 49.16865 60.14182 58.38259
#
# Poissons Ratio (x) = -0.18502 0.31475
# Poissons Ratio (y) = -0.15126 0.54569
# Poissons Ratio (z) = 0.26508 0.56213
#
# Static dielectric constant tensor:
#      x y z
#    x 2.047990 0.000000 -0.016710 
#    y 0.000000 2.009690 0.000000 
#    z -0.016710 0.000000 2.004980 
# 
# From -- ./inp_files/33752.got.cif
#   From: 2010.05.17/outbox.cif.g08.bks.cpg/sg14_17_cif.got.tgz:33752.got - 2010.06.03 17:49:19.
