data_PCOD9251959
_publ_section_title
;
Structure prediction by ZEFSAII (Michael W. Deem and Ramdas Pophale) SiO2 
 PCOD9251959
Probable space group: P 21/C
;
_chemical_formula_sum "Si O2"
_cell_formula_units_Z 24
_cell_length_a 24.893016
_cell_length_b 5.214721
_cell_length_c 9.441587
_cell_angle_alpha 90.000000
_cell_angle_beta 110.096560
_cell_angle_gamma 90.000000
_cell_volume 1150.992036
_symmetry_space_group_name_H-M "P 21/C"
_symmetry_group_IT_number 14
_symmetry_cell_setting 'monoclinic'
loop_
_space_group_symop_operation_xyz
x,y,z
-x,1/2+y,1/2-z
-x,-y,-z
x,1/2-y,1/2+z
loop_
_atom_site_type_symbol
_atom_site_label
_atom_site_fract_x
_atom_site_fract_y
_atom_site_fract_z
Si Si1 0.966964 0.725061 0.048817
Si Si2 0.915765 0.515198 0.273302
Si Si3 0.211468 0.548831 0.874445
Si Si4 0.431414 0.991130 0.930356
Si Si5 0.611417 0.513056 0.280969
Si Si6 0.251963 0.042176 0.084944
O O1 0.933723 0.682736 0.160240
O O2 0.913281 0.810403 0.906705
O O3 0.023298 0.883679 0.140248
O O4 0.000000 0.500000 0.000000
O O5 0.856415 0.383583 0.190722
O O6 0.229743 0.498541 0.727097
O O7 0.225836 0.294708 0.982107
O O8 0.239465 0.793183 0.976161
O O9 0.413511 0.242062 0.825007
O O10 0.407847 0.741603 0.823769
O O11 0.500000 0.000000 0.000000
O O12 0.408663 0.996013 0.072583
O O13 0.679529 0.555429 0.343098
#
# Coordination Sequence:
#
# PCOD9251959 Si02
#       6
#     4   4   4   4   4   4
#     4  11  23  40  61  88 121 155 204 245 340 380
#     4  11  25  40  65  90 122 164 202 273 312 408
#     4  12  27  44  72  96 137 168 236 271 337 388
#     4  12  24  42  69 104 137 180 224 277 331 394
#     4  12  24  44  69  96 143 177 227 274 334 391
#     4  12  26  47  68 102 130 186 221 280 328 397
#
# _framework density 20.851576999999999
#
# number of rings (size 3 to 8) (size 9 to 14) (size 15 to 20)
#    0.000    0.333    1.667    7.500    4.667    0.000 
#    0.000    0.000    0.000    0.000    0.000    0.000 
#    0.000    0.000    0.000    0.000    0.000    0.000 
#
# Total GULP energy -133787.362077 kJ/mol
# GULP energy per Si atom -5574.473420 kJ/mol
# Density = 2.080412 g / cm^3
# Si number density = 20.851577 Si / 1000 Ang^3
#
#
#
# Elastic Constant Matrix: (Units=GPa)
#
#
# Indices 1 2 3 4 5 6 
#
# 1 117.4598 -5.3076 48.7268 0.0000 10.0812 0.0000
# 2 -5.3076 124.0434 71.8033 0.0000 5.3823 0.0000
# 3 48.7268 71.8033 178.4902 0.0000 -11.9829 0.0000
# 4 0.0000 0.0000 0.0000 47.8003 0.0000 8.9987
# 5 10.0812 5.3823 -11.9829 0.0000 62.9852 0.0000
# 6 0.0000 0.0000 0.0000 8.9987 0.0000 29.1949
#
#
#
# Elastic Compliance Matrix: (Units=1/GPa)
#
#
# Indices 1 2 3 4 5 6 
#
# 1 0.010703 0.003103 -0.004358 0.000000 -0.002807 0.000000
# 2 0.003103 0.011596 -0.005685 0.000000 -0.002569 0.000000
# 3 -0.004358 -0.005685 0.009277 0.000000 0.002948 0.000000
# 4 0.000000 0.000000 0.000000 0.022209 0.000000 -0.006845
# 5 -0.002807 -0.002569 0.002948 0.000000 0.017107 0.000000
# 6 0.000000 0.000000 0.000000 -0.006845 0.000000 0.036362
#
#
# Mechanical properties :
#
#
# Convention : Reuss Voigt Hill
#
# Bulk Modulus (GPa) = 56.51085 72.27093 64.39089
# Shear Modulus (GPa) = 39.35975 48.31415 43.83695
#
# Velocity S-wave (km/s) = 4.34938 4.81880 4.59009
# Velocity P-wave (km/s) = 7.23762 8.10531 7.68372
#
# Compressibility (1/GPa) = 0.01769572
#
# Stress axis : x y z
#
# Youngs Moduli (GPa) = 93.43420 86.23345 107.79265
#
# Poissons Ratio (x) = -0.26755 0.46980
# Poissons Ratio (y) = -0.28989 0.61275
# Poissons Ratio (z) = 0.40722 0.49019
#
# Static dielectric constant tensor:
#      x y z
#    x 1.955230 0.000000 -0.154540 
#    y 0.000000 1.565260 0.000000 
#    z -0.154540 0.000000 1.811480 
# 
# From -- ./inp_files/19279.got.cif
#   From: 2010.05.17/outbox.cif.g08.bks.cpg/sg14_10_cif.got.tgz:19279.got - 2010.06.03 17:49:19.
