data_PCOD9251791
_publ_section_title
;
Structure prediction by ZEFSAII (Michael W. Deem and Ramdas Pophale) SiO2 
 PCOD9251791
Probable space group: P 21/C
;
_chemical_formula_sum "Si O2"
_cell_formula_units_Z 28
_cell_length_a 17.461285
_cell_length_b 9.056158
_cell_length_c 13.374644
_cell_angle_alpha 90.000000
_cell_angle_beta 32.057554
_cell_angle_gamma 90.000000
_cell_volume 1122.559837
_symmetry_space_group_name_H-M "P 21/C"
_symmetry_group_IT_number 14
_symmetry_cell_setting 'monoclinic'
loop_
_space_group_symop_operation_xyz
x,y,z
-x,1/2+y,1/2-z
-x,-y,-z
x,1/2-y,1/2+z
loop_
_atom_site_type_symbol
_atom_site_label
_atom_site_fract_x
_atom_site_fract_y
_atom_site_fract_z
Si Si1 0.294560 0.508943 0.476026
Si Si2 0.924153 0.342986 0.567031
Si Si3 0.330504 0.559164 0.931255
Si Si4 0.526284 0.322682 0.595317
Si Si5 0.402971 0.629486 0.151988
Si Si6 0.173202 0.285498 0.149024
Si Si7 0.075858 0.774308 0.212704
O O1 0.331702 0.583492 0.539602
O O2 0.392031 0.585180 0.281614
O O3 0.291937 0.338372 0.502403
O O4 0.135499 0.562627 0.623001
O O5 0.763483 0.362366 0.700385
O O6 0.919348 0.263868 0.677455
O O7 0.000000 0.500000 0.500000
O O8 0.038899 0.257287 0.370526
O O9 0.409164 0.444424 0.766356
O O10 0.431424 0.673691 0.883596
O O11 0.249349 0.439198 0.090015
O O12 0.198611 0.659879 0.033554
O O13 0.520871 0.271115 0.486013
O O14 0.500000 0.500000 0.000000
O O15 0.088153 0.280054 0.138867
#
# Coordination Sequence:
#
# PCOD9251791 Si02
#       7
#     4   4   4   4   4   4   4
#     4  11  24  41  69 101 138 185 229 297 360 423
#     4  12  23  43  70 104 138 184 241 286 353 432
#     4  11  22  42  69 100 140 190 239 294 363 425
#     4  11  24  46  69 104 144 184 246 297 358 436
#     4  12  23  43  71 100 136 185 239 288 359 434
#     4  12  23  42  72 103 142 187 236 296 361 425
#     4  11  23  42  64 103 144 182 234 291 356 418
#
# _framework density 24.942990000000002
#
# number of rings (size 3 to 8) (size 9 to 14) (size 15 to 20)
#    0.000    0.571    5.714    4.286    0.000    0.571 
#    0.000    2.857    0.000    0.000    0.000    0.000 
#    0.000    0.000    0.000    0.000    0.000    0.000 
#
# Total GULP energy -155954.354722 kJ/mol
# GULP energy per Si atom -5569.798383 kJ/mol
# Density = 2.488622 g / cm^3
# Si number density = 24.942990 Si / 1000 Ang^3
#
#
#
# Elastic Constant Matrix: (Units=GPa)
#
#
# Indices 1 2 3 4 5 6 
#
# 1 58.5314 21.7895 14.8148 0.0000 2.7453 0.0000
# 2 21.7895 124.9893 35.0242 0.0000 0.0328 0.0000
# 3 14.8148 35.0242 121.1787 0.0000 -8.5147 0.0000
# 4 0.0000 0.0000 0.0000 51.1495 0.0000 -5.1600
# 5 2.7453 0.0328 -8.5147 0.0000 31.6315 0.0000
# 6 0.0000 0.0000 0.0000 -5.1600 0.0000 32.5240
#
#
#
# Elastic Compliance Matrix: (Units=1/GPa)
#
#
# Indices 1 2 3 4 5 6 
#
# 1 0.018630 -0.002795 -0.001614 0.000000 -0.002048 0.000000
# 2 -0.002795 0.009140 -0.002328 0.000000 -0.000394 0.000000
# 3 -0.001614 -0.002328 0.009308 0.000000 0.002648 0.000000
# 4 0.000000 0.000000 0.000000 0.019869 0.000000 0.003152
# 5 -0.002048 -0.000394 0.002648 0.000000 0.032505 0.000000
# 6 0.000000 0.000000 0.000000 0.003152 0.000000 0.031247
#
#
# Mechanical properties :
#
#
# Convention : Reuss Voigt Hill
#
# Bulk Modulus (GPa) = 42.36274 49.77293 46.06784
# Shear Modulus (GPa) = 35.20126 38.59907 36.90016
#
# Velocity S-wave (km/s) = 3.76076 3.93808 3.85044
# Velocity P-wave (km/s) = 5.98986 6.37777 6.18686
#
# Compressibility (1/GPa) = 0.02360565
#
# Stress axis : x y z
#
# Youngs Moduli (GPa) = 53.67720 109.40525 107.42951
#
# Poissons Ratio (x) = 0.30579 0.17336
# Poissons Ratio (y) = 0.15003 0.25007
# Poissons Ratio (z) = 0.08662 0.25467
#
# Static dielectric constant tensor:
#      x y z
#    x 2.017400 0.000000 -0.001180 
#    y 0.000000 2.069440 0.000000 
#    z -0.001180 0.000000 2.102870 
# 
# From -- ./inp_files/50193.got.cif
#   From: 2010.05.17/outbox.cif.g08.bks.cpg/sg14_26_cif.got.tgz:50193.got - 2010.06.03 17:49:19.
