data_PCOD9251892
_publ_section_title
;
Structure prediction by ZEFSAII (Michael W. Deem and Ramdas Pophale) SiO2 
 PCOD9251892
Probable space group: P 21/C
;
_chemical_formula_sum "Si O2"
_cell_formula_units_Z 28
_cell_length_a 5.989796
_cell_length_b 16.730864
_cell_length_c 14.586241
_cell_angle_alpha 90.000000
_cell_angle_beta 127.566386
_cell_angle_gamma 90.000000
_cell_volume 1158.654252
_symmetry_space_group_name_H-M "P 21/C"
_symmetry_group_IT_number 14
_symmetry_cell_setting 'monoclinic'
loop_
_space_group_symop_operation_xyz
x,y,z
-x,1/2+y,1/2-z
-x,-y,-z
x,1/2-y,1/2+z
loop_
_atom_site_type_symbol
_atom_site_label
_atom_site_fract_x
_atom_site_fract_y
_atom_site_fract_z
Si Si1 0.630286 0.307459 0.902261
Si Si2 0.553770 0.530683 0.183105
Si Si3 0.139102 0.039267 0.873170
Si Si4 0.532978 0.913445 0.887467
Si Si5 0.245327 0.174265 0.765825
Si Si6 0.200578 0.111033 0.554590
Si Si7 0.658309 0.239626 0.615675
O O1 0.419705 0.383396 0.859205
O O2 0.492479 0.237392 0.808176
O O3 0.681965 0.262876 0.011168
O O4 0.915809 0.351599 0.941211
O O5 0.510030 0.553954 0.278971
O O6 0.306004 0.480028 0.072530
O O7 0.827088 0.474238 0.256720
O O8 0.296306 0.108954 0.856253
O O9 0.297618 0.957329 0.889841
O O10 0.176022 0.063755 0.988226
O O11 0.477321 0.819953 0.880334
O O12 0.170179 0.125562 0.655990
O O13 0.973352 0.224460 0.729565
O O14 0.455562 0.166554 0.587453
#
# Coordination Sequence:
#
# PCOD9251892 Si02
#       7
#     4   4   4   4   4   4   4
#     4  11  26  43  68  99 137 176 223 281 335 408
#     4  12  24  44  68 103 135 179 225 277 340 398
#     4  11  23  43  71  96 137 177 222 280 333 398
#     4  11  24  43  68 103 131 177 228 278 335 402
#     4  11  22  46  67  98 137 177 221 279 332 394
#     4  11  25  43  68  99 137 178 225 279 337 401
#     4  11  24  44  69  99 133 178 226 272 340 403
#
# _framework density 24.165966000000001
#
# number of rings (size 3 to 8) (size 9 to 14) (size 15 to 20)
#    0.000    0.857    4.286    2.571    0.000    6.286 
#    0.000    0.000    0.000    0.000    0.000    0.000 
#    0.000    0.000    0.000    0.000    0.000    0.000 
#
# Total GULP energy -156582.331302 kJ/mol
# GULP energy per Si atom -5592.226118 kJ/mol
# Density = 2.411096 g / cm^3
# Si number density = 24.165966 Si / 1000 Ang^3
#
#
#
# Elastic Constant Matrix: (Units=GPa)
#
#
# Indices 1 2 3 4 5 6 
#
# 1 28.3670 -1.9838 10.0287 0.0000 8.2550 0.0000
# 2 -1.9838 119.1957 21.9815 0.0000 3.9861 0.0000
# 3 10.0287 21.9815 65.0352 0.0000 17.0013 0.0000
# 4 0.0000 0.0000 0.0000 38.3185 0.0000 2.6626
# 5 8.2550 3.9861 17.0013 0.0000 32.2211 0.0000
# 6 0.0000 0.0000 0.0000 2.6626 0.0000 23.5319
#
#
#
# Elastic Compliance Matrix: (Units=1/GPa)
#
#
# Indices 1 2 3 4 5 6 
#
# 1 0.039289 0.001765 -0.004601 0.000000 -0.007856 0.000000
# 2 0.001765 0.009036 -0.003382 0.000000 0.000215 0.000000
# 3 -0.004601 -0.003382 0.019501 0.000000 -0.008693 0.000000
# 4 0.000000 0.000000 0.000000 0.026304 0.000000 -0.002976
# 5 -0.007856 0.000215 -0.008693 0.000000 0.037608 0.000000
# 6 0.000000 0.000000 0.000000 -0.002976 0.000000 0.042832
#
#
# Mechanical properties :
#
#
# Convention : Reuss Voigt Hill
#
# Bulk Modulus (GPa) = 18.05424 30.29452 24.17438
# Shear Modulus (GPa) = 24.33450 30.98574 27.66012
#
# Velocity S-wave (km/s) = 3.17673 3.58467 3.38685
# Velocity P-wave (km/s) = 4.57631 5.44944 5.03185
#
# Compressibility (1/GPa) = 0.05538865
#
# Stress axis : x y z
#
# Youngs Moduli (GPa) = 25.45269 110.67451 51.27839
#
# Poissons Ratio (x) = -0.19536 0.23595
# Poissons Ratio (y) = -0.04493 0.17344
# Poissons Ratio (z) = 0.11712 0.37433
#
# Static dielectric constant tensor:
#      x y z
#    x 1.939560 0.000000 0.045530 
#    y 0.000000 1.877910 0.000000 
#    z 0.045530 0.000000 2.020350 
# 
# From -- ./inp_files/37782.got.cif
#   From: 2010.05.17/outbox.cif.g08.bks.cpg/sg14_19_cif.got.tgz:37782.got - 2010.06.03 17:49:19.
