data_PCOD9251278
_publ_section_title
;
Structure prediction by ZEFSAII (Michael W. Deem and Ramdas Pophale) SiO2 
 PCOD9251278
Probable space group: P 21/C
;
_chemical_formula_sum "Si O2"
_cell_formula_units_Z 24
_cell_length_a 26.808483
_cell_length_b 4.969876
_cell_length_c 29.373797
_cell_angle_alpha 90.000000
_cell_angle_beta 19.677011
_cell_angle_gamma 90.000000
_cell_volume 1317.781924
_symmetry_space_group_name_H-M "P 21/C"
_symmetry_group_IT_number 14
_symmetry_cell_setting 'monoclinic'
loop_
_space_group_symop_operation_xyz
x,y,z
-x,1/2+y,1/2-z
-x,-y,-z
x,1/2-y,1/2+z
loop_
_atom_site_type_symbol
_atom_site_label
_atom_site_fract_x
_atom_site_fract_y
_atom_site_fract_z
Si Si1 0.886502 0.940914 0.137618
Si Si2 0.112486 0.545169 0.801183
Si Si3 0.004560 0.695894 0.304820
Si Si4 0.817419 0.687958 0.384820
Si Si5 0.408068 0.456660 0.489775
Si Si6 0.440689 0.466274 0.102628
O O1 0.945384 0.709257 0.120855
O O2 0.726182 0.860133 0.255980
O O3 0.854963 0.213515 0.192373
O O4 0.000000 0.000000 0.000000
O O5 0.009728 0.685085 0.851055
O O6 0.262845 0.443167 0.647329
O O7 0.086382 0.408558 0.226776
O O8 0.850238 0.725107 0.410148
O O9 0.110823 0.899167 0.186524
O O10 0.654172 0.652705 0.504776
O O11 0.462179 0.760205 0.450763
O O12 0.536558 0.259775 0.395848
O O13 0.500000 0.500000 0.000000
#
# Coordination Sequence:
#
# PCOD9251278 Si02
#       6
#     4   4   4   4   4   4
#     4  12  25  37  51  75 109 146 183 220 255 312
#     4  11  19  35  54  76 105 142 177 214 269 314
#     4   9  17  29  49  74 109 140 164 211 273 329
#     4   9  17  29  46  79 111 132 165 215 274 322
#     4  11  19  32  55  80 105 137 173 219 268 317
#     4  12  21  35  53  77 105 144 180 214 265 315
#
# _framework density 18.212419000000001
#
# number of rings (size 3 to 8) (size 9 to 14) (size 15 to 20)
#    0.000    1.333    3.333    6.000    0.000    0.000 
#    0.000    0.000    0.000    0.000    0.000    4.667 
#    0.000    2.667    0.000    0.000    0.000    0.000 
#
# Total GULP energy -133674.134236 kJ/mol
# GULP energy per Si atom -5569.755593 kJ/mol
# Density = 1.817097 g / cm^3
# Si number density = 18.212419 Si / 1000 Ang^3
#
#
#
# Elastic Constant Matrix: (Units=GPa)
#
#
# Indices 1 2 3 4 5 6 
#
# 1 96.2053 14.2602 39.6468 0.0000 -16.2091 0.0000
# 2 14.2602 81.7151 2.1662 0.0000 -1.6319 0.0000
# 3 39.6468 2.1662 46.4723 0.0000 -5.5625 0.0000
# 4 0.0000 0.0000 0.0000 12.0869 0.0000 -5.8291
# 5 -16.2091 -1.6319 -5.5625 0.0000 16.0135 0.0000
# 6 0.0000 0.0000 0.0000 -5.8291 0.0000 30.5158
#
#
#
# Elastic Compliance Matrix: (Units=1/GPa)
#
#
# Indices 1 2 3 4 5 6 
#
# 1 0.019147 -0.002675 -0.014527 0.000000 0.014062 0.000000
# 2 -0.002675 0.012645 0.001589 0.000000 -0.000867 0.000000
# 3 -0.014527 0.001589 0.033489 0.000000 -0.002910 0.000000
# 4 0.000000 0.000000 0.000000 0.091130 0.000000 0.017408
# 5 0.014062 -0.000867 -0.002910 0.000000 0.075582 0.000000
# 6 0.000000 0.000000 0.000000 0.017408 0.000000 0.036095
#
#
# Mechanical properties :
#
#
# Convention : Reuss Voigt Hill
#
# Bulk Modulus (GPa) = 29.36429 37.39323 33.37876
# Shear Modulus (GPa) = 16.09447 22.94453 19.51950
#
# Velocity S-wave (km/s) = 2.97595 3.55326 3.27734
# Velocity P-wave (km/s) = 5.28834 6.11641 5.71739
#
# Compressibility (1/GPa) = 0.03405497
#
# Stress axis : x y z
#
# Youngs Moduli (GPa) = 52.22786 79.08216 29.86042
#
# Poissons Ratio (x) = 0.21158 0.43378
# Poissons Ratio (y) = 0.13973 -0.04746
# Poissons Ratio (z) = 0.75871 -0.12568
#
# Static dielectric constant tensor:
#      x y z
#    x 1.766350 0.000000 -0.062480 
#    y 0.000000 1.636850 0.000000 
#    z -0.062480 0.000000 1.606850 
# 
# From -- ./inp_files/80719.got.cif
#   From: 2010.05.17/outbox.cif.g08.bks.cpg/sg14_41_cif.got.tgz:80719.got - 2010.06.03 17:49:19.
