data_PCOD9251308
_publ_section_title
;
Structure prediction by ZEFSAII (Michael W. Deem and Ramdas Pophale) SiO2 
 PCOD9251308
Probable space group: P 21/C
;
_chemical_formula_sum "Si O2"
_cell_formula_units_Z 16
_cell_length_a 7.872561
_cell_length_b 6.754914
_cell_length_c 19.249285
_cell_angle_alpha 90.000000
_cell_angle_beta 133.879686
_cell_angle_gamma 90.000000
_cell_volume 737.842007
_symmetry_space_group_name_H-M "P 21/C"
_symmetry_group_IT_number 14
_symmetry_cell_setting 'monoclinic'
loop_
_space_group_symop_operation_xyz
x,y,z
-x,1/2+y,1/2-z
-x,-y,-z
x,1/2-y,1/2+z
loop_
_atom_site_type_symbol
_atom_site_label
_atom_site_fract_x
_atom_site_fract_y
_atom_site_fract_z
Si Si1 0.258232 0.549269 0.047230
Si Si2 0.143507 0.104677 0.365725
Si Si3 0.687231 0.305306 0.198894
Si Si4 0.501424 0.421160 0.422302
O O1 0.475118 0.460679 0.154492
O O2 0.285113 0.783896 0.041880
O O3 0.267445 0.446805 0.973568
O O4 0.000000 0.500000 0.000000
O O5 0.290164 0.264787 0.364187
O O6 0.890935 0.211771 0.305576
O O7 0.168331 0.908939 0.324295
O O8 0.547036 0.109571 0.137414
O O9 0.500000 0.500000 0.500000
#
# Coordination Sequence:
#
# PCOD9251308 Si02
#       4
#     4   4   4   4
#     4  11  25  42  57  91 136 166 201 256 327 388
#     4  11  21  38  65  91 118 155 216 264 303 373
#     4  11  21  38  65  92 114 160 216 264 305 365
#     4  11  19  39  67  84 115 164 213 260 306 359
#
# _framework density 21.684861000000001
#
# number of rings (size 3 to 8) (size 9 to 14) (size 15 to 20)
#    0.000    1.000    7.500    1.500    0.000    1.000 
#    4.500    0.000    0.000    0.000    0.000    0.000 
#    0.000    0.000    0.000    0.000    0.000    0.000 
#
# Total GULP energy -89089.792202 kJ/mol
# GULP energy per Si atom -5568.112013 kJ/mol
# Density = 2.163551 g / cm^3
# Si number density = 21.684861 Si / 1000 Ang^3
#
#
#
# Elastic Constant Matrix: (Units=GPa)
#
#
# Indices 1 2 3 4 5 6 
#
# 1 65.1482 20.0997 1.8176 0.0000 30.1812 0.0000
# 2 20.0997 134.8826 16.2912 0.0000 10.5431 0.0000
# 3 1.8176 16.2912 56.7141 0.0000 18.8716 0.0000
# 4 0.0000 0.0000 0.0000 36.8853 0.0000 12.3772
# 5 30.1812 10.5431 18.8716 0.0000 22.6470 0.0000
# 6 0.0000 0.0000 0.0000 12.3772 0.0000 25.0462
#
#
#
# Elastic Compliance Matrix: (Units=1/GPa)
#
#
# Indices 1 2 3 4 5 6 
#
# 1 0.092455 -0.007421 0.053988 0.000000 -0.164747 0.000000
# 2 -0.007421 0.008372 -0.005757 0.000000 0.010789 0.000000
# 3 0.053988 -0.005757 0.056184 0.000000 -0.116087 0.000000
# 4 0.000000 0.000000 0.000000 0.032501 0.000000 -0.016061
# 5 -0.164747 0.010789 -0.116087 0.000000 0.355424 0.000000
# 6 0.000000 0.000000 0.000000 -0.016061 0.000000 0.047863
#
#
# Mechanical properties :
#
#
# Convention : Reuss Voigt Hill
#
# Bulk Modulus (GPa) = 4.19056 37.01798 20.60427
# Shear Modulus (GPa) = 8.46424 31.48478 19.97451
#
# Velocity S-wave (km/s) = 1.97782 3.81455 3.03830
# Velocity P-wave (km/s) = 2.67439 6.04226 4.67233
#
# Compressibility (1/GPa) = 0.23863172
#
# Stress axis : x y z
#
# Youngs Moduli (GPa) = 10.81604 119.45088 17.79875
#
# Poissons Ratio (x) = 0.88639 -0.96092
# Poissons Ratio (y) = 0.08026 0.10247
# Poissons Ratio (z) = -0.58394 0.68769
#
# Static dielectric constant tensor:
#      x y z
#    x 1.871870 0.000000 -0.032360 
#    y 0.000000 1.883240 0.000000 
#    z -0.032360 0.000000 1.974180 
# 
# From -- ./inp_files/38311.got.cif
#   From: 2010.05.17/outbox.cif.g08.bks.cpg/sg14_20_cif.got.tgz:38311.got - 2010.06.03 17:49:19.
