data_PCOD9251322
_publ_section_title
;
Structure prediction by ZEFSAII (Michael W. Deem and Ramdas Pophale) SiO2 
 PCOD9251322
Probable space group: P 21/C
;
_chemical_formula_sum "Si O2"
_cell_formula_units_Z 28
_cell_length_a 9.325670
_cell_length_b 13.618481
_cell_length_c 11.800723
_cell_angle_alpha 90.000000
_cell_angle_beta 67.340146
_cell_angle_gamma 90.000000
_cell_volume 1383.021087
_symmetry_space_group_name_H-M "P 21/C"
_symmetry_group_IT_number 14
_symmetry_cell_setting 'monoclinic'
loop_
_space_group_symop_operation_xyz
x,y,z
-x,1/2+y,1/2-z
-x,-y,-z
x,1/2-y,1/2+z
loop_
_atom_site_type_symbol
_atom_site_label
_atom_site_fract_x
_atom_site_fract_y
_atom_site_fract_z
Si Si1 0.796046 0.114264 0.333330
Si Si2 0.500833 0.912428 0.717622
Si Si3 0.689629 0.698082 0.966752
Si Si4 0.980842 0.947998 0.382794
Si Si5 0.254139 0.817071 0.220818
Si Si6 0.478956 0.384030 0.526651
Si Si7 0.574199 0.130291 0.620110
O O1 0.675341 0.085290 0.272700
O O2 0.846871 0.223109 0.284260
O O3 0.696271 0.120294 0.480116
O O4 0.922761 0.032761 0.316501
O O5 0.597568 0.844034 0.603145
O O6 0.519012 0.878128 0.839273
O O7 0.557707 0.023912 0.682362
O O8 0.853790 0.640908 0.921295
O O9 0.666832 0.816725 0.971456
O O10 0.587532 0.661627 0.889201
O O11 0.141112 0.904664 0.288773
O O12 0.000000 0.000000 0.500000
O O13 0.357754 0.800966 0.302132
O O14 0.372892 0.837262 0.082505
O O15 0.500000 0.500000 0.500000
#
# Coordination Sequence:
#
# PCOD9251322 Si02
#       7
#     4   4   4   4   4   4   4
#     4  11  22  41  70  97 128 180 231 286 342 413
#     4  11  20  40  74  97 128 172 242 284 331 409
#     4  11  23  43  72 103 126 187 242 284 343 424
#     4  12  25  46  71 102 141 183 237 294 353 425
#     4  12  25  42  67 102 142 178 223 290 362 408
#     4  12  26  39  65 105 145 180 227 295 349 414
#     4  11  19  42  73  98 124 175 243 278 333 409
#
# _framework density 20.245535
#
# number of rings (size 3 to 8) (size 9 to 14) (size 15 to 20)
#    0.000    0.571    8.571    1.714    0.000    1.143 
#    0.000    0.714    0.000    0.000    0.000    0.000 
#    0.000    0.000    0.000    0.000    0.000    0.000 
#
# Total GULP energy -156320.853840 kJ/mol
# GULP energy per Si atom -5582.887637 kJ/mol
# Density = 2.019946 g / cm^3
# Si number density = 20.245535 Si / 1000 Ang^3
#
#
#
# Elastic Constant Matrix: (Units=GPa)
#
#
# Indices 1 2 3 4 5 6 
#
# 1 72.0476 32.3174 32.0517 0.0000 9.8523 0.0000
# 2 32.3174 135.6282 24.6604 0.0000 3.9364 0.0000
# 3 32.0517 24.6604 78.2495 0.0000 15.6739 0.0000
# 4 0.0000 0.0000 0.0000 15.4407 0.0000 5.5130
# 5 9.8523 3.9364 15.6739 0.0000 23.3839 0.0000
# 6 0.0000 0.0000 0.0000 5.5130 0.0000 40.1271
#
#
#
# Elastic Compliance Matrix: (Units=1/GPa)
#
#
# Indices 1 2 3 4 5 6 
#
# 1 0.018377 -0.003219 -0.005857 0.000000 -0.003275 0.000000
# 2 -0.003219 0.008388 -0.001518 0.000000 0.000961 0.000000
# 3 -0.005857 -0.001518 0.017455 0.000000 -0.008977 0.000000
# 4 0.000000 0.000000 0.000000 0.068105 0.000000 -0.009357
# 5 -0.003275 0.000961 -0.008977 0.000000 0.049999 0.000000
# 6 0.000000 0.000000 0.000000 -0.009357 0.000000 0.026206
#
#
# Mechanical properties :
#
#
# Convention : Reuss Voigt Hill
#
# Bulk Modulus (GPa) = 43.41541 51.55383 47.48462
# Shear Modulus (GPa) = 22.99959 28.91674 25.95817
#
# Velocity S-wave (km/s) = 3.37417 3.78339 3.58462
# Velocity P-wave (km/s) = 6.05566 6.67869 6.37479
#
# Compressibility (1/GPa) = 0.02303329
#
# Stress axis : x y z
#
# Youngs Moduli (GPa) = 54.41589 119.21616 57.28999
#
# Poissons Ratio (x) = 0.38374 0.33554
# Poissons Ratio (y) = 0.17516 0.08694
# Poissons Ratio (z) = 0.31871 0.18092
#
# Static dielectric constant tensor:
#      x y z
#    x 1.721340 0.000000 0.005880 
#    y 0.000000 1.818450 0.000000 
#    z 0.005880 0.000000 1.680390 
# 
# From -- ./inp_files/25123.got.cif
#   From: 2010.05.17/outbox.cif.g08.bks.cpg/sg14_13_cif.got.tgz:25123.got - 2010.06.03 17:49:19.
