data_PCOD9251769
_publ_section_title
;
Structure prediction by ZEFSAII (Michael W. Deem and Ramdas Pophale) SiO2 
 PCOD9251769
Probable space group: P 21/C
;
_chemical_formula_sum "Si O2"
_cell_formula_units_Z 20
_cell_length_a 7.258358
_cell_length_b 9.093009
_cell_length_c 18.679962
_cell_angle_alpha 90.000000
_cell_angle_beta 47.364215
_cell_angle_gamma 90.000000
_cell_volume 907.000474
_symmetry_space_group_name_H-M "P 21/C"
_symmetry_group_IT_number 14
_symmetry_cell_setting 'monoclinic'
loop_
_space_group_symop_operation_xyz
x,y,z
-x,1/2+y,1/2-z
-x,-y,-z
x,1/2-y,1/2+z
loop_
_atom_site_type_symbol
_atom_site_label
_atom_site_fract_x
_atom_site_fract_y
_atom_site_fract_z
Si Si1 0.235653 0.399547 0.464868
Si Si2 0.955856 0.867374 0.830557
Si Si3 0.904162 0.614849 0.083540
Si Si4 0.866443 0.697435 0.713311
Si Si5 0.618160 0.122578 0.751630
O O1 0.204776 0.237512 0.440323
O O2 0.493590 0.440270 0.357542
O O3 0.000000 0.500000 0.500000
O O4 0.219981 0.385015 0.553813
O O5 0.188262 0.757045 0.788634
O O6 0.842974 0.789654 0.791205
O O7 0.046881 0.032764 0.791467
O O8 0.041306 0.716433 0.108575
O O9 0.740861 0.511822 0.177669
O O10 0.000000 0.500000 0.000000
O O11 0.605807 0.678251 0.740237
#
# Coordination Sequence:
#
# PCOD9251769 Si02
#       5
#     4   4   4   4   4
#     4  11  23  43  70 101 137 182 231 280 342 418
#     4  12  24  47  68 105 142 177 236 278 347 410
#     4  11  22  41  71 100 133 181 228 280 340 407
#     4  11  25  43  70 102 140 181 225 291 333 414
#     4  11  24  46  73 100 139 184 227 288 350 398
#
# _framework density 22.050702999999999
#
# number of rings (size 3 to 8) (size 9 to 14) (size 15 to 20)
#    0.000    0.800    6.000    3.600    0.000    0.000 
#    3.600    4.000    0.000    0.000    0.000    0.000 
#    0.000    0.000    0.000    0.000    0.000    0.000 
#
# Total GULP energy -111530.935174 kJ/mol
# GULP energy per Si atom -5576.546759 kJ/mol
# Density = 2.200051 g / cm^3
# Si number density = 22.050703 Si / 1000 Ang^3
#
#
#
# Elastic Constant Matrix: (Units=GPa)
#
#
# Indices 1 2 3 4 5 6 
#
# 1 73.6662 35.6236 32.6451 0.0000 21.7014 0.0000
# 2 35.6236 184.3138 66.6914 0.0000 6.5037 0.0000
# 3 32.6451 66.6914 185.3467 0.0000 27.4335 0.0000
# 4 0.0000 0.0000 0.0000 48.5922 0.0000 17.6204
# 5 21.7014 6.5037 27.4335 0.0000 40.3517 0.0000
# 6 0.0000 0.0000 0.0000 17.6204 0.0000 28.8553
#
#
#
# Elastic Compliance Matrix: (Units=1/GPa)
#
#
# Indices 1 2 3 4 5 6 
#
# 1 0.017848 -0.002838 -0.000855 0.000000 -0.008560 0.000000
# 2 -0.002838 0.006701 -0.002199 0.000000 0.001941 0.000000
# 3 -0.000855 -0.002199 0.006912 0.000000 -0.003885 0.000000
# 4 0.000000 0.000000 0.000000 0.026432 0.000000 -0.016141
# 5 -0.008560 0.001941 -0.003885 0.000000 0.031714 0.000000
# 6 0.000000 0.000000 0.000000 -0.016141 0.000000 0.044512
#
#
# Mechanical properties :
#
#
# Convention : Reuss Voigt Hill
#
# Bulk Modulus (GPa) = 50.82104 79.24965 65.03535
# Shear Modulus (GPa) = 32.79495 44.11760 38.45627
#
# Velocity S-wave (km/s) = 3.86067 4.47781 4.18064
# Velocity P-wave (km/s) = 6.55519 7.92162 7.27058
#
# Compressibility (1/GPa) = 0.01967689
#
# Stress axis : x y z
#
# Youngs Moduli (GPa) = 56.02912 149.22915 144.67450
#
# Poissons Ratio (x) = 0.42351 0.12376
# Poissons Ratio (y) = 0.15901 0.31808
# Poissons Ratio (z) = 0.04793 0.32810
#
# Static dielectric constant tensor:
#      x y z
#    x 1.886710 0.000000 -0.069790 
#    y 0.000000 1.850500 0.000000 
#    z -0.069790 0.000000 1.985810 
# 
# From -- ./inp_files/54411.got.cif
#   From: 2010.05.17/outbox.cif.g08.bks.cpg/sg14_28_cif.got.tgz:54411.got - 2010.06.03 17:49:19.
