data_PCOD9251157
_publ_section_title
;
Structure prediction by ZEFSAII (Michael W. Deem and Ramdas Pophale) SiO2 
 PCOD9251157
Probable space group: P 21/C
;
_chemical_formula_sum "Si O2"
_cell_formula_units_Z 30
_cell_length_a 10.626195
_cell_length_b 5.012133
_cell_length_c 27.024239
_cell_angle_alpha 90.000000
_cell_angle_beta 58.281230
_cell_angle_gamma 90.000000
_cell_volume 1224.331690
_symmetry_space_group_name_H-M "P 21/C"
_symmetry_group_IT_number 14
_symmetry_cell_setting 'monoclinic'
loop_
_space_group_symop_operation_xyz
x,y,z
-x,1/2+y,1/2-z
-x,-y,-z
x,1/2-y,1/2+z
loop_
_atom_site_type_symbol
_atom_site_label
_atom_site_fract_x
_atom_site_fract_y
_atom_site_fract_z
Si Si1 0.500000 0.000000 0.500000
Si Si2 0.801756 0.812624 0.610990
Si Si3 0.466404 0.940037 0.825488
Si Si4 0.177568 0.012238 0.601356
Si Si5 0.992595 0.313834 0.720192
Si Si6 0.093098 0.507068 0.559240
Si Si7 0.693248 0.179846 0.552985
Si Si8 0.271648 0.651116 0.783826
O O1 0.789932 0.412244 0.507235
O O2 0.611153 0.034543 0.525208
O O3 0.634787 0.701428 0.647475
O O4 0.925458 0.585905 0.581328
O O5 0.803559 0.004710 0.563542
O O6 0.817629 0.962331 0.660099
O O7 0.634417 0.997612 0.777076
O O8 0.429414 0.784679 0.883144
O O9 0.391446 0.793589 0.794061
O O10 0.110545 0.147995 0.663702
O O11 0.113530 0.204715 0.571182
O O12 0.353813 0.033317 0.565270
O O13 0.136362 0.708527 0.595591
O O14 0.043143 0.598591 0.729476
O O15 0.845516 0.344908 0.717366
#
# Coordination Sequence:
#
# PCOD9251157 Si02
#       8
#     2   4   4   4   4   4   4   4
#     4  10  26  50  70  96 156 182 246 296 368 438
#     4  11  23  44  72 102 142 183 242 301 363 441
#     4  11  24  42  72 103 140 184 245 297 380 422
#     4  11  25  48  72 104 139 199 233 299 368 429
#     4  12  28  46  74 108 143 195 250 301 369 444
#     4  11  24  46  75 101 146 181 243 296 366 424
#     4  10  26  43  68 109 131 196 234 301 365 441
#     4  11  24  44  68 104 146 189 237 310 366 439
#
# _framework density 24.503166
#
# number of rings (size 3 to 8) (size 9 to 14) (size 15 to 20)
#    0.000    1.067    2.667    2.000    9.333    3.733 
#    0.000    0.000    0.000    0.000    0.000    0.000 
#    0.000    0.000    0.000    0.000    0.000    0.000 
#
# Total GULP energy -167489.684952 kJ/mol
# GULP energy per Si atom -5582.989498 kJ/mol
# Density = 2.444740 g / cm^3
# Si number density = 24.503166 Si / 1000 Ang^3
#
#
#
# Elastic Constant Matrix: (Units=GPa)
#
#
# Indices 1 2 3 4 5 6 
#
# 1 84.0388 7.3657 30.6628 0.0000 -13.7028 0.0000
# 2 7.3657 64.8111 8.4013 0.0000 7.8056 0.0000
# 3 30.6628 8.4013 122.0363 0.0000 -4.8019 0.0000
# 4 0.0000 0.0000 0.0000 36.0510 0.0000 5.0116
# 5 -13.7028 7.8056 -4.8019 0.0000 46.1753 0.0000
# 6 0.0000 0.0000 0.0000 5.0116 0.0000 10.4726
#
#
#
# Elastic Compliance Matrix: (Units=1/GPa)
#
#
# Indices 1 2 3 4 5 6 
#
# 1 0.013879 -0.001650 -0.003214 0.000000 0.004063 0.000000
# 2 -0.001650 0.016121 -0.000825 0.000000 -0.003301 0.000000
# 3 -0.003214 -0.000825 0.009064 0.000000 0.000128 0.000000
# 4 0.000000 0.000000 0.000000 0.029715 0.000000 -0.014220
# 5 0.004063 -0.003301 0.000128 0.000000 0.023434 0.000000
# 6 0.000000 0.000000 0.000000 -0.014220 0.000000 0.102292
#
#
# Mechanical properties :
#
#
# Convention : Reuss Voigt Hill
#
# Bulk Modulus (GPa) = 36.11917 40.41622 38.26770
# Shear Modulus (GPa) = 23.24374 33.50354 28.37364
#
# Velocity S-wave (km/s) = 3.08328 3.70173 3.40657
# Velocity P-wave (km/s) = 5.23909 5.89920 5.57892
#
# Compressibility (1/GPa) = 0.02768613
#
# Stress axis : x y z
#
# Youngs Moduli (GPa) = 72.05112 62.02904 110.33120
#
# Poissons Ratio (x) = 0.10236 0.35458
# Poissons Ratio (y) = 0.11889 0.09104
# Poissons Ratio (z) = 0.23155 0.05118
#
# Static dielectric constant tensor:
#      x y z
#    x 1.863550 0.000000 0.032990 
#    y 0.000000 1.977350 0.000000 
#    z 0.032990 0.000000 1.993740 
# 
# From -- ./inp_files/79243.got.cif
#   From: 2010.05.17/outbox.cif.g08.bks.cpg/sg14_40_cif.got.tgz:79243.got - 2010.06.03 17:49:19.
