data_PCOD9251485
_publ_section_title
;
Structure prediction by ZEFSAII (Michael W. Deem and Ramdas Pophale) SiO2 
 PCOD9251485
Probable space group: P 21/C
;
_chemical_formula_sum "Si O2"
_cell_formula_units_Z 20
_cell_length_a 9.861172
_cell_length_b 5.030870
_cell_length_c 21.843660
_cell_angle_alpha 90.000000
_cell_angle_beta 136.448984
_cell_angle_gamma 90.000000
_cell_volume 746.648795
_symmetry_space_group_name_H-M "P 21/C"
_symmetry_group_IT_number 14
_symmetry_cell_setting 'monoclinic'
loop_
_space_group_symop_operation_xyz
x,y,z
-x,1/2+y,1/2-z
-x,-y,-z
x,1/2-y,1/2+z
loop_
_atom_site_type_symbol
_atom_site_label
_atom_site_fract_x
_atom_site_fract_y
_atom_site_fract_z
Si Si1 0.167624 0.336846 0.115813
Si Si2 0.276006 0.845565 0.219337
Si Si3 0.388587 0.293109 0.574118
Si Si4 0.949518 0.033498 0.199052
Si Si5 0.729137 0.201359 0.528250
O O1 0.246599 0.627154 0.157582
O O2 0.197608 0.257567 0.055392
O O3 0.948324 0.306695 0.069993
O O4 0.303574 0.130746 0.197828
O O5 0.432436 0.775880 0.322500
O O6 0.069462 0.870989 0.187378
O O7 0.392080 0.590698 0.551605
O O8 0.361507 0.088140 0.509439
O O9 0.763617 0.173627 0.106602
O O10 0.077554 0.293149 0.261678
#
# Coordination Sequence:
#
# PCOD9251485 Si02
#       5
#     4   4   4   4   4
#     4  11  21  39  61  89 127 167 189 222 292 373
#     4  11  23  39  62  91 119 159 203 236 289 359
#     4  12  22  38  60  95 129 150 187 251 295 343
#     4  11  23  44  64  80 111 161 208 249 294 353
#     4  11  23  38  61  91 119 157 201 240 292 354
#
# _framework density 26.786356999999999
#
# number of rings (size 3 to 8) (size 9 to 14) (size 15 to 20)
#    0.000    0.800    0.000   10.800    0.000    0.000 
#    0.000    6.000    0.000    0.000    0.000    0.000 
#    0.000    0.000    0.000    0.000    0.000    0.000 
#
# Total GULP energy -112156.140426 kJ/mol
# GULP energy per Si atom -5607.807021 kJ/mol
# Density = 2.672539 g / cm^3
# Si number density = 26.786357 Si / 1000 Ang^3
#
#
#
# Elastic Constant Matrix: (Units=GPa)
#
#
# Indices 1 2 3 4 5 6 
#
# 1 59.0641 0.0326 -3.5825 0.0000 5.7170 0.0000
# 2 0.0326 112.9380 18.6040 0.0000 4.5149 0.0000
# 3 -3.5825 18.6040 97.9301 0.0000 6.9073 0.0000
# 4 0.0000 0.0000 0.0000 50.7489 0.0000 5.7213
# 5 5.7170 4.5149 6.9073 0.0000 39.8219 0.0000
# 6 0.0000 0.0000 0.0000 5.7213 0.0000 -3.5792
#
#
#
# Elastic Compliance Matrix: (Units=1/GPa)
#
#
# Indices 1 2 3 4 5 6 
#
# 1 0.017233 -0.000036 0.000822 0.000000 -0.002613 0.000000
# 2 -0.000036 0.009162 -0.001690 0.000000 -0.000741 0.000000
# 3 0.000822 -0.001690 0.010688 0.000000 -0.001780 0.000000
# 4 0.000000 0.000000 0.000000 0.016696 0.000000 0.026689
# 5 -0.002613 -0.000741 -0.001780 0.000000 0.025880 0.000000
# 6 0.000000 0.000000 0.000000 0.026689 0.000000 -0.236730
#
#
# Mechanical properties :
#
#
# Convention : Reuss Voigt Hill
#
# Bulk Modulus (GPa) = 28.34805 33.33784 30.84294
# Shear Modulus (GPa) = -34.84218 34.39019 -0.22599
#
# Velocity S-wave (km/s) = -3.61049 3.58700 -0.29078
# Velocity P-wave (km/s) = 2.60286 5.44319 3.38034
#
# Compressibility (1/GPa) = 0.03527580
#
# Stress axis : x y z
#
# Youngs Moduli (GPa) = 58.02655 109.14208 93.56312
#
# Poissons Ratio (x) = 0.00391 -0.07686
# Poissons Ratio (y) = 0.00208 0.15809
# Poissons Ratio (z) = -0.04767 0.18441
#
# Static dielectric constant tensor:
#      x y z
#    x 2.210000 0.000000 -0.008540 
#    y 0.000000 2.001120 0.000000 
#    z -0.008540 0.000000 2.091060 
# 
# From -- ./inp_files/50871.got.cif
#   From: 2010.05.17/outbox.cif.g08.bks.cpg/sg14_26_cif.got.tgz:50871.got - 2010.06.03 17:49:19.
