data_PCOD9251020
_publ_section_title
;
Structure prediction by ZEFSAII (Michael W. Deem and Ramdas Pophale) SiO2 
 PCOD9251020
Probable space group: P 21/C
;
_chemical_formula_sum "Si O2"
_cell_formula_units_Z 28
_cell_length_a 11.201055
_cell_length_b 12.392667
_cell_length_c 8.616853
_cell_angle_alpha 90.000000
_cell_angle_beta 111.239529
_cell_angle_gamma 90.000000
_cell_volume 1114.866407
_symmetry_space_group_name_H-M "P 21/C"
_symmetry_group_IT_number 14
_symmetry_cell_setting 'monoclinic'
loop_
_space_group_symop_operation_xyz
x,y,z
-x,1/2+y,1/2-z
-x,-y,-z
x,1/2-y,1/2+z
loop_
_atom_site_type_symbol
_atom_site_label
_atom_site_fract_x
_atom_site_fract_y
_atom_site_fract_z
Si Si1 0.701564 0.464466 0.292431
Si Si2 0.519021 0.658623 0.641600
Si Si3 0.930072 0.664681 0.103248
Si Si4 0.729266 0.644407 0.508650
Si Si5 0.756410 0.533720 0.823348
Si Si6 0.105695 0.691657 0.467190
Si Si7 0.665323 0.153480 0.461954
O O1 0.592882 0.424013 0.363436
O O2 0.728097 0.589426 0.340150
O O3 0.828660 0.397139 0.393097
O O4 0.654862 0.428388 0.101216
O O5 0.584521 0.655997 0.503416
O O6 0.641109 0.880062 0.298975
O O7 0.459032 0.775919 0.629220
O O8 0.815754 0.751204 0.072359
O O9 0.011067 0.644106 0.294585
O O10 0.869074 0.560729 0.993992
O O11 0.024046 0.724054 0.028043
O O12 0.788451 0.557521 0.659946
O O13 0.704011 0.415821 0.830960
O O14 0.222403 0.760701 0.448908
#
# Coordination Sequence:
#
# PCOD9251020 Si02
#       7
#     4   4   4   4   4   4   4
#     4  11  24  43  72 104 135 190 238 292 358 429
#     4   9  24  46  68 101 144 180 232 306 358 423
#     4  12  24  47  66 101 146 193 233 299 359 409
#     4  10  25  45  68 103 140 183 237 294 358 422
#     4  10  26  44  71 104 138 191 235 301 352 435
#     4  11  25  45  70 102 147 186 241 295 349 425
#     4  11  25  45  75 107 138 189 246 292 361 427
#
# _framework density 25.115117000000001
#
# number of rings (size 3 to 8) (size 9 to 14) (size 15 to 20)
#    0.857    0.571    2.857    0.429    6.000    5.143 
#    0.000    0.000    0.000    0.000    0.000    0.000 
#    0.000    0.000    0.000    0.000    0.000    0.000 
#
# Total GULP energy -156700.069136 kJ/mol
# GULP energy per Si atom -5596.431041 kJ/mol
# Density = 2.505795 g / cm^3
# Si number density = 25.115117 Si / 1000 Ang^3
#
#
#
# Elastic Constant Matrix: (Units=GPa)
#
#
# Indices 1 2 3 4 5 6 
#
# 1 75.4511 24.8536 10.6076 0.0000 5.5334 0.0000
# 2 24.8536 67.8519 22.5724 0.0000 5.3003 0.0000
# 3 10.6076 22.5724 76.3898 0.0000 24.1049 0.0000
# 4 0.0000 0.0000 0.0000 56.4853 0.0000 13.5913
# 5 5.5334 5.3003 24.1049 0.0000 31.2501 0.0000
# 6 0.0000 0.0000 0.0000 13.5913 0.0000 60.1796
#
#
#
# Elastic Compliance Matrix: (Units=1/GPa)
#
#
# Indices 1 2 3 4 5 6 
#
# 1 0.015168 -0.005439 0.000076 0.000000 -0.001822 0.000000
# 2 -0.005439 0.018333 -0.005266 0.000000 0.001916 0.000000
# 3 0.000076 -0.005266 0.018978 0.000000 -0.013759 0.000000
# 4 0.000000 0.000000 0.000000 0.018721 0.000000 -0.004228
# 5 -0.001822 0.001916 -0.013759 0.000000 0.042611 0.000000
# 6 0.000000 0.000000 0.000000 -0.004228 0.000000 0.017572
#
#
# Mechanical properties :
#
#
# Convention : Reuss Voigt Hill
#
# Bulk Modulus (GPa) = 32.03114 37.30666 34.66890
# Shear Modulus (GPa) = 30.66584 40.36028 35.51306
#
# Velocity S-wave (km/s) = 3.49809 4.01310 3.76441
# Velocity P-wave (km/s) = 5.39415 6.02991 5.72087
#
# Compressibility (1/GPa) = 0.03121962
#
# Stress axis : x y z
#
# Youngs Moduli (GPa) = 65.92767 54.54785 52.69232
#
# Poissons Ratio (x) = 0.29668 -0.00399
# Poissons Ratio (y) = 0.35857 0.27750
# Poissons Ratio (z) = -0.00499 0.28727
#
# Static dielectric constant tensor:
#      x y z
#    x 1.976170 0.000000 -0.020830 
#    y 0.000000 1.980980 0.000000 
#    z -0.020830 0.000000 1.948860 
# 
# From -- ./inp_files/13126.got.cif
#   From: 2010.05.17/outbox.cif.g08.bks.cpg/sg14_7_cif.got.tgz:13126.got - 2010.06.03 17:49:19.
