data_PCOD9251491
_publ_section_title
;
Structure prediction by ZEFSAII (Michael W. Deem and Ramdas Pophale) SiO2 
 PCOD9251491
Probable space group: P 21/C
;
_chemical_formula_sum "Si O2"
_cell_formula_units_Z 32
_cell_length_a 12.938015
_cell_length_b 17.404119
_cell_length_c 7.405325
_cell_angle_alpha 90.000000
_cell_angle_beta 133.671886
_cell_angle_gamma 90.000000
_cell_volume 1206.107236
_symmetry_space_group_name_H-M "P 21/C"
_symmetry_group_IT_number 14
_symmetry_cell_setting 'monoclinic'
loop_
_space_group_symop_operation_xyz
x,y,z
-x,1/2+y,1/2-z
-x,-y,-z
x,1/2-y,1/2+z
loop_
_atom_site_type_symbol
_atom_site_label
_atom_site_fract_x
_atom_site_fract_y
_atom_site_fract_z
Si Si1 0.284266 0.372689 0.359066
Si Si2 0.977430 0.414611 0.832821
Si Si3 0.420688 0.927285 0.677173
Si Si4 0.060811 0.689947 0.549012
Si Si5 0.128484 0.947107 0.409343
Si Si6 0.673881 0.199868 0.155827
Si Si7 0.741895 0.790169 0.786609
Si Si8 0.465366 0.851867 0.370217
O O1 0.135332 0.404483 0.107928
O O2 0.418582 0.430500 0.548563
O O3 0.259069 0.333244 0.523906
O O4 0.314560 0.297081 0.276218
O O5 0.999010 0.492147 0.742091
O O6 0.876647 0.423337 0.884969
O O7 0.937896 0.349188 0.645254
O O8 0.284888 0.981621 0.550150
O O9 0.359942 0.851868 0.710407
O O10 0.432906 0.917622 0.476197
O O11 0.170566 0.760598 0.675305
O O12 0.900489 0.714677 0.400137
O O13 0.098836 0.624137 0.740533
O O14 0.377927 0.653137 0.581589
O O15 0.579650 0.276324 0.071016
O O16 0.632833 0.841778 0.539929
#
# Coordination Sequence:
#
# PCOD9251491 Si02
#       8
#     4   4   4   4   4   4   4   4
#     4  11  23  42  66 100 133 175 215 268 334 405
#     4  11  27  46  69  90 133 179 229 277 325 378
#     4  11  25  41  68  95 134 169 220 270 330 401
#     4  12  26  42  68 101 133 173 222 273 329 405
#     4  11  25  49  66  94 128 181 231 277 321 384
#     4  12  23  37  64 102 136 166 212 261 338 398
#     4  11  23  40  65 101 140 169 212 262 346 406
#     4  11  21  39  61  94 136 174 200 261 331 400
#
# _framework density 26.531635999999999
#
# number of rings (size 3 to 8) (size 9 to 14) (size 15 to 20)
#    0.000    0.750    5.000    1.875    5.250    3.500 
#    0.000    0.000    0.000    1.500    0.000    0.000 
#    0.000    0.000    0.000    0.000    0.000    0.000 
#
# Total GULP energy -179213.904115 kJ/mol
# GULP energy per Si atom -5600.434504 kJ/mol
# Density = 2.647125 g / cm^3
# Si number density = 26.531636 Si / 1000 Ang^3
#
#
#
# Elastic Constant Matrix: (Units=GPa)
#
#
# Indices 1 2 3 4 5 6 
#
# 1 120.8364 22.9575 52.6679 0.0000 -9.2370 0.0000
# 2 22.9575 60.0810 21.6666 0.0000 -14.1629 0.0000
# 3 52.6679 21.6666 148.6699 0.0000 -1.1940 0.0000
# 4 0.0000 0.0000 0.0000 24.0206 0.0000 -2.4130
# 5 -9.2370 -14.1629 -1.1940 0.0000 55.2458 0.0000
# 6 0.0000 0.0000 0.0000 -2.4130 0.0000 36.9837
#
#
#
# Elastic Compliance Matrix: (Units=1/GPa)
#
#
# Indices 1 2 3 4 5 6 
#
# 1 0.010248 -0.002505 -0.003257 0.000000 0.001001 0.000000
# 2 -0.002505 0.019346 -0.001896 0.000000 0.004500 0.000000
# 3 -0.003257 -0.001896 0.008150 0.000000 -0.000854 0.000000
# 4 0.000000 0.000000 0.000000 0.041906 0.000000 0.002734
# 5 0.001001 0.004500 -0.000854 0.000000 0.019403 0.000000
# 6 0.000000 0.000000 0.000000 0.002734 0.000000 0.027217
#
#
# Mechanical properties :
#
#
# Convention : Reuss Voigt Hill
#
# Bulk Modulus (GPa) = 44.58945 58.24126 51.41536
# Shear Modulus (GPa) = 33.54318 38.73638 36.13978
#
# Velocity S-wave (km/s) = 3.55952 3.82515 3.69472
# Velocity P-wave (km/s) = 5.80828 6.44269 6.13370
#
# Compressibility (1/GPa) = 0.02242683
#
# Stress axis : x y z
#
# Youngs Moduli (GPa) = 97.58157 51.69070 122.70469
#
# Poissons Ratio (x) = 0.12950 0.39968
# Poissons Ratio (y) = 0.24446 0.23262
# Poissons Ratio (z) = 0.31785 0.09799
#
# Static dielectric constant tensor:
#      x y z
#    x 2.058590 0.000000 0.041400 
#    y 0.000000 2.160070 0.000000 
#    z 0.041400 0.000000 2.131910 
# 
# From -- ./inp_files/33086.got.cif
#   From: 2010.05.17/outbox.cif.g08.bks.cpg/sg14_17_cif.got.tgz:33086.got - 2010.06.03 17:49:19.
