data_PCOD9251810
_publ_section_title
;
Structure prediction by ZEFSAII (Michael W. Deem and Ramdas Pophale) SiO2 
 PCOD9251810
Probable space group: P 21/C
;
_chemical_formula_sum "Si O2"
_cell_formula_units_Z 28
_cell_length_a 26.648037
_cell_length_b 8.854019
_cell_length_c 11.541541
_cell_angle_alpha 90.000000
_cell_angle_beta 149.010543
_cell_angle_gamma 90.000000
_cell_volume 1402.089636
_symmetry_space_group_name_H-M "P 21/C"
_symmetry_group_IT_number 14
_symmetry_cell_setting 'monoclinic'
loop_
_space_group_symop_operation_xyz
x,y,z
-x,1/2+y,1/2-z
-x,-y,-z
x,1/2-y,1/2+z
loop_
_atom_site_type_symbol
_atom_site_label
_atom_site_fract_x
_atom_site_fract_y
_atom_site_fract_z
Si Si1 0.394218 0.015080 0.937131
Si Si2 0.622216 0.480418 0.858943
Si Si3 0.270592 0.808403 0.860461
Si Si4 0.099863 0.262194 0.519052
Si Si5 0.902417 0.407462 0.571712
Si Si6 0.809184 0.551900 0.614747
Si Si7 0.294514 0.304161 0.786592
O O1 0.358645 0.027768 0.734509
O O2 0.329780 0.893439 0.876886
O O3 0.375404 0.177553 0.955696
O O4 0.509262 0.986482 0.162390
O O5 0.652552 0.305908 0.928816
O O6 0.684985 0.570727 0.076560
O O7 0.181520 0.706728 0.636746
O O8 0.227571 0.930049 0.865115
O O9 0.087867 0.444051 0.490797
O O10 0.132103 0.183904 0.702947
O O11 0.190382 0.231193 0.611851
O O12 0.002804 0.182370 0.281920
O O13 0.872659 0.472468 0.639596
O O14 0.718021 0.621862 0.363844
#
# Coordination Sequence:
#
# PCOD9251810 Si02
#       7
#     4   4   4   4   4   4   4
#     4  11  25  42  71  92 131 174 218 277 329 390
#     4  11  24  45  64 101 128 168 226 272 329 395
#     4  12  23  45  67 100 132 176 215 277 331 391
#     4  11  22  43  66  95 135 174 217 267 323 389
#     4  11  25  43  67 100 136 174 225 269 324 396
#     4  11  23  43  68  96 139 173 215 271 330 394
#     4  11  23  45  66  98 133 173 216 273 328 395
#
# _framework density 19.970192999999998
#
# number of rings (size 3 to 8) (size 9 to 14) (size 15 to 20)
#    0.000    0.857    4.286    3.857    0.000    1.143 
#    0.000    5.000    0.000    0.000    0.000    0.000 
#    0.000    0.000    0.000    0.000    0.000    0.000 
#
# Total GULP energy -156416.714374 kJ/mol
# GULP energy per Si atom -5586.311228 kJ/mol
# Density = 1.992474 g / cm^3
# Si number density = 19.970193 Si / 1000 Ang^3
#
#
#
# Elastic Constant Matrix: (Units=GPa)
#
#
# Indices 1 2 3 4 5 6 
#
# 1 77.2880 45.4998 34.0891 0.0000 -2.8482 0.0000
# 2 45.4998 109.5962 43.0348 0.0000 -3.1811 0.0000
# 3 34.0891 43.0348 82.6905 0.0000 -15.3053 0.0000
# 4 0.0000 0.0000 0.0000 40.2980 0.0000 -3.7893
# 5 -2.8482 -3.1811 -15.3053 0.0000 19.9953 0.0000
# 6 0.0000 0.0000 0.0000 -3.7893 0.0000 34.6081
#
#
#
# Elastic Compliance Matrix: (Units=1/GPa)
#
#
# Indices 1 2 3 4 5 6 
#
# 1 0.018458 -0.005760 -0.005004 0.000000 -0.002117 0.000000
# 2 -0.005760 0.013443 -0.005101 0.000000 -0.002586 0.000000
# 3 -0.005004 -0.005101 0.019257 0.000000 0.013216 0.000000
# 4 0.000000 0.000000 0.000000 0.025073 0.000000 0.002745
# 5 -0.002117 -0.002586 0.013216 0.000000 0.059415 0.000000
# 6 0.000000 0.000000 0.000000 0.002745 0.000000 0.029196
#
#
# Mechanical properties :
#
#
# Convention : Reuss Voigt Hill
#
# Bulk Modulus (GPa) = 51.46594 57.20245 54.33419
# Shear Modulus (GPa) = 24.62488 28.77703 26.70096
#
# Velocity S-wave (km/s) = 3.51534 3.80017 3.66052
# Velocity P-wave (km/s) = 6.50416 6.92540 6.71808
#
# Compressibility (1/GPa) = 0.01943033
#
# Stress axis : x y z
#
# Youngs Moduli (GPa) = 54.17595 74.38612 51.93015
#
# Poissons Ratio (x) = 0.42845 0.25984
# Poissons Ratio (y) = 0.31204 0.26487
# Poissons Ratio (z) = 0.27108 0.37941
#
# Static dielectric constant tensor:
#      x y z
#    x 1.684310 0.000000 -0.008240 
#    y 0.000000 1.721400 0.000000 
#    z -0.008240 0.000000 1.688750 
# 
# From -- ./inp_files/36194.got.cif
#   From: 2010.05.17/outbox.cif.g08.bks.cpg/sg14_19_cif.got.tgz:36194.got - 2010.06.03 17:49:19.
