data_PCOD9251844
_publ_section_title
;
Structure prediction by ZEFSAII (Michael W. Deem and Ramdas Pophale) SiO2 
 PCOD9251844
Probable space group: P 21/C
;
_chemical_formula_sum "Si O2"
_cell_formula_units_Z 32
_cell_length_a 11.401733
_cell_length_b 9.123931
_cell_length_c 27.414384
_cell_angle_alpha 90.000000
_cell_angle_beta 28.373756
_cell_angle_gamma 90.000000
_cell_volume 1355.274275
_symmetry_space_group_name_H-M "P 21/C"
_symmetry_group_IT_number 14
_symmetry_cell_setting 'monoclinic'
loop_
_space_group_symop_operation_xyz
x,y,z
-x,1/2+y,1/2-z
-x,-y,-z
x,1/2-y,1/2+z
loop_
_atom_site_type_symbol
_atom_site_label
_atom_site_fract_x
_atom_site_fract_y
_atom_site_fract_z
Si Si1 0.444064 0.195270 0.904335
Si Si2 0.309871 0.883146 0.933134
Si Si3 0.933144 0.930207 0.472253
Si Si4 0.363704 0.734587 0.308950
Si Si5 0.543399 0.376211 0.054918
Si Si6 0.801120 0.560326 0.675824
Si Si7 0.616860 0.840119 0.960025
Si Si8 0.140253 0.926498 0.741992
O O1 0.697066 0.281816 0.809755
O O2 0.455721 0.034826 0.878160
O O3 0.246528 0.295302 0.949639
O O4 0.347346 0.188510 0.995721
O O5 0.257764 0.820375 0.899400
O O6 0.462560 0.760665 0.905829
O O7 0.056451 0.920233 0.053791
O O8 0.179467 0.862224 0.358626
O O9 0.774501 0.031131 0.492715
O O10 0.000000 0.000000 0.500000
O O11 0.344527 0.589479 0.283954
O O12 0.627092 0.804897 0.224561
O O13 0.547195 0.291093 0.002201
O O14 0.300563 0.478363 0.145217
O O15 0.861199 0.534599 0.710493
O O16 0.866238 0.863708 0.837696
O O17 0.500000 0.000000 0.000000
#
# Coordination Sequence:
#
# PCOD9251844 Si02
#       8
#     4   4   4   4   4   4   4   4
#     4  11  25  45  76 105 144 196 243 304 369 433
#     4  12  23  47  70 106 147 193 246 300 371 433
#     4  11  22  44  69 103 149 186 234 299 361 439
#     4  12  26  42  70 107 146 201 243 300 370 445
#     4  11  25  43  79 107 143 198 243 302 375 438
#     4  12  26  44  69 107 146 195 250 302 369 448
#     4  12  25  48  76 108 145 187 248 316 367 430
#     4  11  25  48  71 105 151 186 249 304 368 443
#
# _framework density 23.611457000000001
#
# number of rings (size 3 to 8) (size 9 to 14) (size 15 to 20)
#    0.000    0.500    6.250    1.125    5.250    3.000 
#    0.000    0.000    0.000    0.000    0.000    0.000 
#    0.000    0.000    0.000    0.000    0.000    0.000 
#
# Total GULP energy -178988.375617 kJ/mol
# GULP energy per Si atom -5593.386738 kJ/mol
# Density = 2.355772 g / cm^3
# Si number density = 23.611457 Si / 1000 Ang^3
#
#
#
# Elastic Constant Matrix: (Units=GPa)
#
#
# Indices 1 2 3 4 5 6 
#
# 1 78.6464 33.4660 1.7965 0.0000 4.2675 0.0000
# 2 33.4660 128.6241 28.6038 0.0000 -7.9141 0.0000
# 3 1.7965 28.6038 60.5918 0.0000 -9.2293 0.0000
# 4 0.0000 0.0000 0.0000 33.8242 0.0000 4.3190
# 5 4.2675 -7.9141 -9.2293 0.0000 29.4268 0.0000
# 6 0.0000 0.0000 0.0000 4.3190 0.0000 35.6952
#
#
#
# Elastic Compliance Matrix: (Units=1/GPa)
#
#
# Indices 1 2 3 4 5 6 
#
# 1 0.014652 -0.004242 0.001124 0.000000 -0.002913 0.000000
# 2 -0.004242 0.009949 -0.004274 0.000000 0.001950 0.000000
# 3 0.001124 -0.004274 0.019206 0.000000 0.004711 0.000000
# 4 0.000000 0.000000 0.000000 0.030029 0.000000 -0.003633
# 5 -0.002913 0.001950 0.004711 0.000000 0.036407 0.000000
# 6 0.000000 0.000000 0.000000 -0.003633 0.000000 0.028455
#
#
# Mechanical properties :
#
#
# Convention : Reuss Voigt Hill
#
# Bulk Modulus (GPa) = 34.45351 43.95498 39.20425
# Shear Modulus (GPa) = 30.64592 33.38897 32.01745
#
# Velocity S-wave (km/s) = 3.60658 3.76453 3.68640
# Velocity P-wave (km/s) = 5.65392 6.12797 5.89571
#
# Compressibility (1/GPa) = 0.02902462
#
# Stress axis : x y z
#
# Youngs Moduli (GPa) = 68.24807 100.51689 52.06806
#
# Poissons Ratio (x) = 0.42635 -0.05854
# Poissons Ratio (y) = 0.28948 0.22252
# Poissons Ratio (z) = -0.07673 0.42957
#
# Static dielectric constant tensor:
#      x y z
#    x 1.982300 0.000000 0.035440 
#    y 0.000000 1.923160 0.000000 
#    z 0.035440 0.000000 2.006570 
# 
# From -- ./inp_files/79961.got.cif
#   From: 2010.05.17/outbox.cif.g08.bks.cpg/sg14_40_cif.got.tgz:79961.got - 2010.06.03 17:49:19.
