data_PCOD9251973
_publ_section_title
;
Structure prediction by ZEFSAII (Michael W. Deem and Ramdas Pophale) SiO2 
 PCOD9251973
Probable space group: P 21/C
;
_chemical_formula_sum "Si O2"
_cell_formula_units_Z 20
_cell_length_a 12.373665
_cell_length_b 7.356062
_cell_length_c 8.925525
_cell_angle_alpha 90.000000
_cell_angle_beta 84.143936
_cell_angle_gamma 90.000000
_cell_volume 808.174494
_symmetry_space_group_name_H-M "P 21/C"
_symmetry_group_IT_number 14
_symmetry_cell_setting 'monoclinic'
loop_
_space_group_symop_operation_xyz
x,y,z
-x,1/2+y,1/2-z
-x,-y,-z
x,1/2-y,1/2+z
loop_
_atom_site_type_symbol
_atom_site_label
_atom_site_fract_x
_atom_site_fract_y
_atom_site_fract_z
Si Si1 0.893472 0.379429 0.993043
Si Si2 0.246835 0.345851 0.169518
Si Si3 0.606830 0.674848 0.125851
Si Si4 0.824534 0.062434 0.841900
Si Si5 0.411323 0.606654 0.613487
O O1 0.825283 0.486689 0.873757
O O2 0.910680 0.176161 0.927393
O O3 0.838773 0.383247 0.165265
O O4 0.000000 0.500000 0.000000
O O5 0.307446 0.322836 0.319274
O O6 0.179519 0.157353 0.153945
O O7 0.350477 0.351187 0.045104
O O8 0.614842 0.505920 0.233958
O O9 0.480329 0.720091 0.146079
O O10 0.709288 0.130860 0.929743
O O11 0.500000 0.500000 0.500000
#
# Coordination Sequence:
#
# PCOD9251973 Si02
#       5
#     4   4   4   4   4
#     4  12  30  49  76 104 137 195 241 304 364 405
#     4  11  24  48  69 103 148 184 239 294 353 427
#     4  11  23  40  68 100 144 191 228 286 353 436
#     4  11  28  48  71 110 143 183 245 294 352 440
#     4  11  23  40  65 104 141 185 227 281 360 424
#
# _framework density 24.747131
#
# number of rings (size 3 to 8) (size 9 to 14) (size 15 to 20)
#    0.000    0.800    8.000    0.000   11.200    1.600 
#    0.000    0.000    0.000    0.000    0.000    0.000 
#    0.000    0.000    0.000    0.000    0.000    0.000 
#
# Total GULP energy -111735.791568 kJ/mol
# GULP energy per Si atom -5586.789578 kJ/mol
# Density = 2.469081 g / cm^3
# Si number density = 24.747131 Si / 1000 Ang^3
#
#
#
# Elastic Constant Matrix: (Units=GPa)
#
#
# Indices 1 2 3 4 5 6 
#
# 1 75.7952 10.5567 2.1344 0.0000 -3.3920 0.0000
# 2 10.5567 98.2692 22.4247 0.0000 3.7422 0.0000
# 3 2.1344 22.4247 77.7876 0.0000 -11.9272 0.0000
# 4 0.0000 0.0000 0.0000 29.6442 0.0000 12.5626
# 5 -3.3920 3.7422 -11.9272 0.0000 15.7770 0.0000
# 6 0.0000 0.0000 0.0000 12.5626 0.0000 34.7696
#
#
#
# Elastic Compliance Matrix: (Units=1/GPa)
#
#
# Indices 1 2 3 4 5 6 
#
# 1 0.013595 -0.001777 0.000738 0.000000 0.003902 0.000000
# 2 -0.001777 0.011582 -0.004264 0.000000 -0.006353 0.000000
# 3 0.000738 -0.004264 0.016112 0.000000 0.013350 0.000000
# 4 0.000000 0.000000 0.000000 0.039832 0.000000 -0.014392
# 5 0.003902 -0.006353 0.013350 0.000000 0.075822 0.000000
# 6 0.000000 0.000000 0.000000 -0.014392 0.000000 0.033961
#
#
# Mechanical properties :
#
#
# Convention : Reuss Voigt Hill
#
# Bulk Modulus (GPa) = 32.59386 35.78705 34.19045
# Shear Modulus (GPa) = 23.61410 30.48725 27.05068
#
# Velocity S-wave (km/s) = 3.09239 3.51372 3.30977
# Velocity P-wave (km/s) = 5.09410 5.56365 5.33404
#
# Compressibility (1/GPa) = 0.03068062
#
# Stress axis : x y z
#
# Youngs Moduli (GPa) = 73.55722 86.34026 62.06718
#
# Poissons Ratio (x) = 0.15346 -0.04578
# Poissons Ratio (y) = 0.13074 0.26467
# Poissons Ratio (z) = -0.05426 0.36818
#
# Static dielectric constant tensor:
#      x y z
#    x 2.200400 0.000000 0.091670 
#    y 0.000000 2.011740 0.000000 
#    z 0.091670 0.000000 1.916300 
# 
# From -- ./inp_files/11798.got.cif
#   From: 2010.05.17/outbox.cif.g08.bks.cpg/sg14_6_cif.got.tgz:11798.got - 2010.06.03 17:49:19.
