data_PCOD9251579
_publ_section_title
;
Structure prediction by ZEFSAII (Michael W. Deem and Ramdas Pophale) SiO2 
 PCOD9251579
Probable space group: P 21/C
;
_chemical_formula_sum "Si O2"
_cell_formula_units_Z 24
_cell_length_a 14.014002
_cell_length_b 10.174305
_cell_length_c 13.772148
_cell_angle_alpha 90.000000
_cell_angle_beta 147.849268
_cell_angle_gamma 90.000000
_cell_volume 1044.964190
_symmetry_space_group_name_H-M "P 21/C"
_symmetry_group_IT_number 14
_symmetry_cell_setting 'monoclinic'
loop_
_space_group_symop_operation_xyz
x,y,z
-x,1/2+y,1/2-z
-x,-y,-z
x,1/2-y,1/2+z
loop_
_atom_site_type_symbol
_atom_site_label
_atom_site_fract_x
_atom_site_fract_y
_atom_site_fract_z
Si Si1 0.858568 0.343532 0.075658
Si Si2 0.083864 0.860637 0.591161
Si Si3 0.212458 0.007066 0.209269
Si Si4 0.369340 0.752786 0.449116
Si Si5 0.713692 0.737741 0.337917
Si Si6 0.172879 0.136265 0.381153
O O1 0.691589 0.303493 0.997819
O O2 0.893420 0.496882 0.130866
O O3 0.021339 0.247998 0.244298
O O4 0.833494 0.320641 0.940675
O O5 0.238755 0.861949 0.803414
O O6 0.917676 0.772180 0.483244
O O7 0.000000 0.000000 0.500000
O O8 0.301181 0.081174 0.194150
O O9 0.230081 0.097536 0.321454
O O10 0.310876 0.872500 0.326268
O O11 0.000000 0.000000 0.000000
O O12 0.571546 0.707988 0.637679
O O13 0.688879 0.801128 0.422260
#
# Coordination Sequence:
#
# PCOD9251579 Si02
#       6
#     4   4   4   4   4   4
#     4  11  21  43  65  95 131 175 222 278 336 403
#     4  12  23  44  68  93 134 178 221 277 342 401
#     4  11  21  44  72  96 133 185 225 279 339 408
#     4  11  25  41  66  98 135 174 228 275 341 407
#     4  12  23  41  67 100 134 170 226 279 340 402
#     4  11  22  39  69  95 131 177 226 273 340 403
#
# _framework density 22.967292
#
# number of rings (size 3 to 8) (size 9 to 14) (size 15 to 20)
#    0.000    0.667    6.667    1.500    0.000    2.000 
#    0.000    8.333    0.000    0.000    0.000    0.000 
#    0.000    0.000    0.000    0.000    0.000    0.000 
#
# Total GULP energy -133961.795083 kJ/mol
# GULP energy per Si atom -5581.741462 kJ/mol
# Density = 2.291502 g / cm^3
# Si number density = 22.967292 Si / 1000 Ang^3
#
#
#
# Elastic Constant Matrix: (Units=GPa)
#
#
# Indices 1 2 3 4 5 6 
#
# 1 74.2974 17.1781 25.0869 0.0000 -33.2821 0.0000
# 2 17.1781 69.6051 11.4155 0.0000 -16.6412 0.0000
# 3 25.0869 11.4155 127.7849 0.0000 -15.3268 0.0000
# 4 0.0000 0.0000 0.0000 25.0143 0.0000 -10.1840
# 5 -33.2821 -16.6412 -15.3268 0.0000 29.1918 0.0000
# 6 0.0000 0.0000 0.0000 -10.1840 0.0000 28.9649
#
#
#
# Elastic Compliance Matrix: (Units=1/GPa)
#
#
# Indices 1 2 3 4 5 6 
#
# 1 0.027930 0.000914 -0.001796 0.000000 0.031422 0.000000
# 2 0.000914 0.016680 -0.000431 0.000000 0.010324 0.000000
# 3 -0.001796 -0.000431 0.008475 0.000000 0.002156 0.000000
# 4 0.000000 0.000000 0.000000 0.046656 0.000000 0.016404
# 5 0.031422 0.010324 0.002156 0.000000 0.077098 0.000000
# 6 0.000000 0.000000 0.000000 0.016404 0.000000 0.040292
#
#
# Mechanical properties :
#
#
# Convention : Reuss Voigt Hill
#
# Bulk Modulus (GPa) = 19.81811 42.11650 30.96730
# Shear Modulus (GPa) = 21.13462 31.16800 26.15131
#
# Velocity S-wave (km/s) = 3.03678 3.68783 3.37802
# Velocity P-wave (km/s) = 4.57642 6.04242 5.35978
#
# Compressibility (1/GPa) = 0.05045891
#
# Stress axis : x y z
#
# Youngs Moduli (GPa) = 35.80356 59.95104 117.98828
#
# Poissons Ratio (x) = -0.05479 0.21192
# Poissons Ratio (y) = -0.03272 0.05088
# Poissons Ratio (z) = 0.06431 0.02585
#
# Static dielectric constant tensor:
#      x y z
#    x 1.935790 0.000000 0.001690 
#    y 0.000000 1.926270 0.000000 
#    z 0.001690 0.000000 1.860790 
# 
# From -- ./inp_files/47034.got.cif
#   From: 2010.05.17/outbox.cif.g08.bks.cpg/sg14_24_cif.got.tgz:47034.got - 2010.06.03 17:49:19.
