data_PCOD9251853
_publ_section_title
;
Structure prediction by ZEFSAII (Michael W. Deem and Ramdas Pophale) SiO2 
 PCOD9251853
Probable space group: P 21/C
;
_chemical_formula_sum "Si O2"
_cell_formula_units_Z 20
_cell_length_a 7.521135
_cell_length_b 16.496306
_cell_length_c 6.762992
_cell_angle_alpha 90.000000
_cell_angle_beta 78.442394
_cell_angle_gamma 90.000000
_cell_volume 822.077200
_symmetry_space_group_name_H-M "P 21/C"
_symmetry_group_IT_number 14
_symmetry_cell_setting 'monoclinic'
loop_
_space_group_symop_operation_xyz
x,y,z
-x,1/2+y,1/2-z
-x,-y,-z
x,1/2-y,1/2+z
loop_
_atom_site_type_symbol
_atom_site_label
_atom_site_fract_x
_atom_site_fract_y
_atom_site_fract_z
Si Si1 0.624293 0.316478 0.304953
Si Si2 0.995625 0.358519 0.039119
Si Si3 0.606658 0.662581 0.004882
Si Si4 0.566656 0.439778 0.652205
Si Si5 0.064684 0.520718 0.267090
O O1 0.521595 0.234413 0.386508
O O2 0.647984 0.366855 0.500874
O O3 0.816170 0.311532 0.148733
O O4 0.483875 0.359367 0.183880
O O5 0.998327 0.443739 0.157360
O O6 0.182639 0.313984 0.051273
O O7 0.990423 0.392954 0.816269
O O8 0.591579 0.592766 0.172218
O O9 0.500000 0.500000 0.500000
O O10 0.718906 0.474333 0.762738
O O11 0.000000 0.500000 0.500000
#
# Coordination Sequence:
#
# PCOD9251853 Si02
#       5
#     4   4   4   4   4
#     4  12  26  50  70 106 151 194 247 308 362 451
#     4  11  26  44  76 108 147 191 249 302 370 444
#     4  12  27  48  70 109 147 197 248 301 377 439
#     4  12  25  45  76 107 153 191 247 309 369 439
#     4  11  22  44  74 112 144 188 244 312 371 431
#
# _framework density 24.328616
#
# number of rings (size 3 to 8) (size 9 to 14) (size 15 to 20)
#    0.000    0.400    6.000    2.400    2.800    3.200 
#    0.000    0.000    0.000    0.000    0.000    0.000 
#    0.000    0.000    0.000    0.000    0.000    0.000 
#
# Total GULP energy -111926.541914 kJ/mol
# GULP energy per Si atom -5596.327096 kJ/mol
# Density = 2.427324 g / cm^3
# Si number density = 24.328616 Si / 1000 Ang^3
#
#
#
# Elastic Constant Matrix: (Units=GPa)
#
#
# Indices 1 2 3 4 5 6 
#
# 1 164.8613 14.7418 0.9719 0.0000 -13.3956 0.0000
# 2 14.7418 55.8640 6.3655 0.0000 -10.4287 0.0000
# 3 0.9719 6.3655 89.2562 0.0000 -3.9853 0.0000
# 4 0.0000 0.0000 0.0000 30.2790 0.0000 0.8794
# 5 -13.3956 -10.4287 -3.9853 0.0000 35.3638 0.0000
# 6 0.0000 0.0000 0.0000 0.8794 0.0000 34.0452
#
#
#
# Elastic Compliance Matrix: (Units=1/GPa)
#
#
# Indices 1 2 3 4 5 6 
#
# 1 0.006347 -0.001309 0.000115 0.000000 0.002031 0.000000
# 2 -0.001309 0.019323 -0.001137 0.000000 0.005074 0.000000
# 3 0.000115 -0.001137 0.011328 0.000000 0.000985 0.000000
# 4 0.000000 0.000000 0.000000 0.033051 0.000000 -0.000854
# 5 0.002031 0.005074 0.000985 0.000000 0.030654 0.000000
# 6 0.000000 0.000000 0.000000 -0.000854 0.000000 0.029395
#
#
# Mechanical properties :
#
#
# Convention : Reuss Voigt Hill
#
# Bulk Modulus (GPa) = 30.92605 39.34888 35.13746
# Shear Modulus (GPa) = 34.35523 39.13108 36.74316
#
# Velocity S-wave (km/s) = 3.76191 4.01489 3.89046
# Velocity P-wave (km/s) = 5.62216 6.14015 5.88686
#
# Compressibility (1/GPa) = 0.03233520
#
# Stress axis : x y z
#
# Youngs Moduli (GPa) = 157.55208 51.75222 88.28052
#
# Poissons Ratio (x) = 0.06773 -0.01015
# Poissons Ratio (y) = 0.20621 0.10040
# Poissons Ratio (z) = -0.01811 0.05885
#
# Static dielectric constant tensor:
#      x y z
#    x 2.004070 0.000000 -0.008880 
#    y 0.000000 1.996670 0.000000 
#    z -0.008880 0.000000 1.948820 
# 
# From -- ./inp_files/1150.got.cif
#   From: 2010.05.17/outbox.cif.g08.bks.cpg/sg14_1_cif.got.tgz:1150.got - 2010.06.03 17:49:19.
