data_PCOD9251135
_publ_section_title
;
Structure prediction by ZEFSAII (Michael W. Deem and Ramdas Pophale) SiO2 
 PCOD9251135
Probable space group: P 21/C
;
_chemical_formula_sum "Si O2"
_cell_formula_units_Z 16
_cell_length_a 7.470569
_cell_length_b 5.417145
_cell_length_c 19.489602
_cell_angle_alpha 90.000000
_cell_angle_beta 50.524283
_cell_angle_gamma 90.000000
_cell_volume 608.814281
_symmetry_space_group_name_H-M "P 21/C"
_symmetry_group_IT_number 14
_symmetry_cell_setting 'monoclinic'
loop_
_space_group_symop_operation_xyz
x,y,z
-x,1/2+y,1/2-z
-x,-y,-z
x,1/2-y,1/2+z
loop_
_atom_site_type_symbol
_atom_site_label
_atom_site_fract_x
_atom_site_fract_y
_atom_site_fract_z
Si Si1 0.164873 0.622599 0.092044
Si Si2 0.389948 0.643124 0.177810
Si Si3 0.764496 0.874707 0.001935
Si Si4 0.232197 0.669221 0.860840
O O1 0.199981 0.624059 0.164942
O O2 0.283790 0.373468 0.032978
O O3 0.898425 0.578795 0.134123
O O4 0.247656 0.879517 0.039889
O O5 0.549040 0.402494 0.147986
O O6 0.290222 0.692720 0.276889
O O7 0.574127 0.850129 0.107538
O O8 0.034290 0.807240 0.952080
#
# Coordination Sequence:
#
# PCOD9251135 Si02
#       4
#     4   4   4   4
#     4  10  26  49  73 106 146 192 248 304 364 438
#     4  12  25  48  75 107 151 193 245 307 369 440
#     4  10  25  51  73 107 145 194 246 306 365 436
#     4  10  29  42  74 110 145 192 246 296 376 428
#
# _framework density 26.280593
#
# number of rings (size 3 to 8) (size 9 to 14) (size 15 to 20)
#    1.500    0.000    0.000    2.250    7.000    5.000 
#    0.000    0.000    0.000    0.000    0.000    0.000 
#    0.000    0.000    0.000    0.000    0.000    0.000 
#
# Total GULP energy -89609.320475 kJ/mol
# GULP energy per Si atom -5600.582530 kJ/mol
# Density = 2.622078 g / cm^3
# Si number density = 26.280593 Si / 1000 Ang^3
#
#
#
# Elastic Constant Matrix: (Units=GPa)
#
#
# Indices 1 2 3 4 5 6 
#
# 1 81.1195 14.3355 9.5420 0.0000 29.0585 0.0000
# 2 14.3355 157.1647 21.5757 0.0000 12.1724 0.0000
# 3 9.5420 21.5757 84.6237 0.0000 19.7702 0.0000
# 4 0.0000 0.0000 0.0000 43.8226 0.0000 -4.5333
# 5 29.0585 12.1724 19.7702 0.0000 41.4793 0.0000
# 6 0.0000 0.0000 0.0000 -4.5333 0.0000 21.7245
#
#
#
# Elastic Compliance Matrix: (Units=1/GPa)
#
#
# Indices 1 2 3 4 5 6 
#
# 1 0.016607 -0.000742 0.001107 0.000000 -0.011944 0.000000
# 2 -0.000742 0.006687 -0.001445 0.000000 -0.000754 0.000000
# 3 0.001107 -0.001445 0.013664 0.000000 -0.006864 0.000000
# 4 0.000000 0.000000 0.000000 0.023323 0.000000 0.004867
# 5 -0.011944 -0.000754 -0.006864 0.000000 0.035969 0.000000
# 6 0.000000 0.000000 0.000000 0.004867 0.000000 0.047047
#
#
# Mechanical properties :
#
#
# Convention : Reuss Voigt Hill
#
# Bulk Modulus (GPa) = 28.73678 45.97936 37.35807
# Shear Modulus (GPa) = 31.83580 39.90225 35.86902
#
# Velocity S-wave (km/s) = 3.48427 3.90078 3.69839
# Velocity P-wave (km/s) = 5.21010 6.14993 5.69942
#
# Compressibility (1/GPa) = 0.03479861
#
# Stress axis : x y z
#
# Youngs Moduli (GPa) = 60.21588 149.53955 73.18329
#
# Poissons Ratio (x) = 0.11091 -0.08101
# Poissons Ratio (y) = 0.04466 0.10576
# Poissons Ratio (z) = -0.06666 0.21611
#
# Static dielectric constant tensor:
#      x y z
#    x 2.102060 0.000000 -0.057340 
#    y 0.000000 2.100180 0.000000 
#    z -0.057340 0.000000 2.050820 
# 
# From -- ./inp_files/53827.got.cif
#   From: 2010.05.17/outbox.cif.g08.bks.cpg/sg14_27_cif.got.tgz:53827.got - 2010.06.03 17:49:19.
