data_PCOD9251256
_publ_section_title
;
Structure prediction by ZEFSAII (Michael W. Deem and Ramdas Pophale) SiO2 
 PCOD9251256
Probable space group: P 21/C
;
_chemical_formula_sum "Si O2"
_cell_formula_units_Z 28
_cell_length_a 20.070477
_cell_length_b 8.253855
_cell_length_c 18.205582
_cell_angle_alpha 90.000000
_cell_angle_beta 156.936397
_cell_angle_gamma 90.000000
_cell_volume 1181.492912
_symmetry_space_group_name_H-M "P 21/C"
_symmetry_group_IT_number 14
_symmetry_cell_setting 'monoclinic'
loop_
_space_group_symop_operation_xyz
x,y,z
-x,1/2+y,1/2-z
-x,-y,-z
x,1/2-y,1/2+z
loop_
_atom_site_type_symbol
_atom_site_label
_atom_site_fract_x
_atom_site_fract_y
_atom_site_fract_z
Si Si1 0.340009 0.160271 0.897210
Si Si2 0.159668 0.667824 0.682195
Si Si3 0.148250 0.737633 0.004521
Si Si4 0.492596 0.168168 0.904746
Si Si5 0.190245 0.420713 0.832109
Si Si6 0.315228 0.750953 0.029170
Si Si7 0.049456 0.560201 0.161099
O O1 0.336348 0.298908 0.954413
O O2 0.481258 0.024659 0.059209
O O3 0.163772 0.065229 0.730512
O O4 0.360805 0.215588 0.834236
O O5 0.178463 0.688505 0.615163
O O6 0.337799 0.740044 0.894062
O O7 0.136347 0.496763 0.697951
O O8 0.023106 0.785894 0.582472
O O9 0.294947 0.768566 0.095013
O O10 0.970046 0.822656 0.798399
O O11 0.108366 0.545613 0.972415
O O12 0.507464 0.212311 0.833571
O O13 0.252355 0.569899 0.943993
O O14 0.173880 0.874845 0.851604
#
# Coordination Sequence:
#
# PCOD9251256 Si02
#       7
#     4   4   4   4   4   4   4
#     4   8  14  29  53  64  77 114 155 186 203 246
#     4   9  18  28  42  67  90 113 143 180 219 260
#     4  11  17  28  45  63  93 118 137 176 226 265
#     4   8  16  31  48  65  84 112 151 178 212 260
#     4   9  18  29  45  68  87 112 151 183 213 251
#     4   9  18  28  42  67  90 113 143 180 219 259
#     4   8  17  30  45  63  82 114 152 176 208 260
#
# _framework density 23.698830000000001
#
# number of rings (size 3 to 8) (size 9 to 14) (size 15 to 20)
#    0.000    3.714    0.000    1.714    0.000    2.286 
#    0.000    0.000    0.000   13.714    0.000    0.000 
#    0.000    0.000    0.000    0.000    0.000    0.000 
#
# Total GULP energy -156114.558651 kJ/mol
# GULP energy per Si atom -5575.519952 kJ/mol
# Density = 2.364489 g / cm^3
# Si number density = 23.698830 Si / 1000 Ang^3
#
#
#
# Elastic Constant Matrix: (Units=GPa)
#
#
# Indices 1 2 3 4 5 6 
#
# 1 169.0669 26.7532 8.3862 0.0000 16.8276 0.0000
# 2 26.7532 69.6992 3.9177 0.0000 8.7864 0.0000
# 3 8.3862 3.9177 37.3134 0.0000 8.1229 0.0000
# 4 0.0000 0.0000 0.0000 4.8482 0.0000 5.4163
# 5 16.8276 8.7864 8.1229 0.0000 20.5457 0.0000
# 6 0.0000 0.0000 0.0000 5.4163 0.0000 22.1760
#
#
#
# Elastic Compliance Matrix: (Units=1/GPa)
#
#
# Indices 1 2 3 4 5 6 
#
# 1 0.006693 -0.001983 -0.000314 0.000000 -0.004510 0.000000
# 2 -0.001983 0.015754 -0.000104 0.000000 -0.005072 0.000000
# 3 -0.000314 -0.000104 0.029341 0.000000 -0.011298 0.000000
# 4 0.000000 0.000000 0.000000 0.283663 0.000000 -0.069282
# 5 -0.004510 -0.005072 -0.011298 0.000000 0.059001 0.000000
# 6 0.000000 0.000000 0.000000 -0.069282 0.000000 0.062015
#
#
# Mechanical properties :
#
#
# Convention : Reuss Voigt Hill
#
# Bulk Modulus (GPa) = 21.28353 39.35487 30.31920
# Shear Modulus (GPa) = 10.48368 25.31547 17.89958
#
# Velocity S-wave (km/s) = 2.10554 3.27190 2.75124
# Velocity P-wave (km/s) = 3.86153 5.56022 4.78683
#
# Compressibility (1/GPa) = 0.04698470
#
# Stress axis : x y z
#
# Youngs Moduli (GPa) = 149.40912 63.47716 34.08186
#
# Poissons Ratio (x) = 0.12587 0.01071
# Poissons Ratio (y) = 0.29626 0.00356
# Poissons Ratio (z) = 0.04697 0.00662
#
# Static dielectric constant tensor:
#      x y z
#    x 1.950460 0.000000 -0.020540 
#    y 0.000000 1.950330 0.000000 
#    z -0.020540 0.000000 2.010250 
# 
# From -- ./inp_files/69697.got.cif
#   From: 2010.05.17/outbox.cif.g08.bks.cpg/sg14_35_cif.got.tgz:69697.got - 2010.06.03 17:49:19.
