data_PCOD9251056
_publ_section_title
;
Structure prediction by ZEFSAII (Michael W. Deem and Ramdas Pophale) SiO2 
 PCOD9251056
Probable space group: P 21/C
;
_chemical_formula_sum "Si O2"
_cell_formula_units_Z 24
_cell_length_a 7.979010
_cell_length_b 23.877774
_cell_length_c 5.741918
_cell_angle_alpha 90.000000
_cell_angle_beta 116.712213
_cell_angle_gamma 90.000000
_cell_volume 977.204145
_symmetry_space_group_name_H-M "P 21/C"
_symmetry_group_IT_number 14
_symmetry_cell_setting 'monoclinic'
loop_
_space_group_symop_operation_xyz
x,y,z
-x,1/2+y,1/2-z
-x,-y,-z
x,1/2-y,1/2+z
loop_
_atom_site_type_symbol
_atom_site_label
_atom_site_fract_x
_atom_site_fract_y
_atom_site_fract_z
Si Si1 0.570458 0.556958 0.654141
Si Si2 0.863545 0.501708 0.137574
Si Si3 0.654027 0.390762 0.135306
Si Si4 0.735377 0.265650 0.253048
Si Si5 0.159983 0.230637 0.104568
Si Si6 0.761633 0.897803 0.855528
O O1 0.500000 0.500000 0.500000
O O2 0.403152 0.595354 0.634273
O O3 0.723251 0.589294 0.601105
O O4 0.673175 0.532253 0.939279
O O5 0.792479 0.439555 0.144254
O O6 0.895028 0.549412 0.357199
O O7 0.000000 0.500000 0.000000
O O8 0.739681 0.330119 0.180152
O O9 0.457522 0.391548 0.869017
O O10 0.651252 0.262211 0.464246
O O11 0.948652 0.245560 0.436383
O O12 0.244437 0.244789 0.899798
O O13 0.153862 0.163335 0.134109
#
# Coordination Sequence:
#
# PCOD9251056 Si02
#       6
#     4   4   4   4   4   4
#     4  11  21  42  64  93 141 176 218 276 341 410
#     4  11  25  40  65 102 136 173 227 279 344 410
#     4  11  24  42  66 100 134 180 224 282 342 409
#     4  10  25  46  69  98 137 179 231 288 342 401
#     4  10  25  46  69  98 136 181 230 287 343 402
#     4  11  24  43  67  97 137 179 224 281 342 410
#
# _framework density 24.559861999999999
#
# number of rings (size 3 to 8) (size 9 to 14) (size 15 to 20)
#    0.000    1.333    3.333    1.000    9.333    6.000 
#    0.000    0.000    0.000    0.000    0.000    0.000 
#    0.000    0.000    0.000    0.000    0.000    0.000 
#
# Total GULP energy -133697.369182 kJ/mol
# GULP energy per Si atom -5570.723716 kJ/mol
# Density = 2.450396 g / cm^3
# Si number density = 24.559862 Si / 1000 Ang^3
#
#
#
# Elastic Constant Matrix: (Units=GPa)
#
#
# Indices 1 2 3 4 5 6 
#
# 1 87.8879 36.5756 23.6421 0.0000 -20.7597 0.0000
# 2 36.5756 155.3842 17.0181 0.0000 -24.9697 0.0000
# 3 23.6421 17.0181 92.7742 0.0000 -4.9476 0.0000
# 4 0.0000 0.0000 0.0000 33.6904 0.0000 -12.5899
# 5 -20.7597 -24.9697 -4.9476 0.0000 44.5412 0.0000
# 6 0.0000 0.0000 0.0000 -12.5899 0.0000 45.2831
#
#
#
# Elastic Compliance Matrix: (Units=1/GPa)
#
#
# Indices 1 2 3 4 5 6 
#
# 1 0.014304 -0.002224 -0.002966 0.000000 0.005090 0.000000
# 2 -0.002224 0.007530 -0.000649 0.000000 0.003113 0.000000
# 3 -0.002966 -0.000649 0.011629 0.000000 -0.000454 0.000000
# 4 0.000000 0.000000 0.000000 0.033123 0.000000 0.009209
# 5 0.005090 0.003113 -0.000454 0.000000 0.026518 0.000000
# 6 0.000000 0.000000 0.000000 0.009209 0.000000 0.024644
#
#
# Mechanical properties :
#
#
# Convention : Reuss Voigt Hill
#
# Bulk Modulus (GPa) = 45.89890 54.50197 50.20044
# Shear Modulus (GPa) = 36.57958 41.95698 39.26828
#
# Velocity S-wave (km/s) = 3.86347 4.13771 4.00294
# Velocity P-wave (km/s) = 6.21538 6.71321 6.46909
#
# Compressibility (1/GPa) = 0.02178701
#
# Stress axis : x y z
#
# Youngs Moduli (GPa) = 69.91097 132.79403 85.98919
#
# Poissons Ratio (x) = 0.29535 0.25502
# Poissons Ratio (y) = 0.15549 0.05577
# Poissons Ratio (z) = 0.20733 0.08612
#
# Static dielectric constant tensor:
#      x y z
#    x 1.971540 0.000000 -0.048070 
#    y 0.000000 1.730180 0.000000 
#    z -0.048070 0.000000 1.828510 
# 
# From -- ./inp_files/1679.got.cif
#   From: 2010.05.17/outbox.cif.g08.bks.cpg/sg14_1_cif.got.tgz:1679.got - 2010.06.03 17:49:19.
