data_PCOD9251762
_publ_section_title
;
Structure prediction by ZEFSAII (Michael W. Deem and Ramdas Pophale) SiO2 
 PCOD9251762
Probable space group: P 21/C
;
_chemical_formula_sum "Si O2"
_cell_formula_units_Z 20
_cell_length_a 6.907255
_cell_length_b 7.120501
_cell_length_c 23.225362
_cell_angle_alpha 90.000000
_cell_angle_beta 54.258659
_cell_angle_gamma 90.000000
_cell_volume 927.158301
_symmetry_space_group_name_H-M "P 21/C"
_symmetry_group_IT_number 14
_symmetry_cell_setting 'monoclinic'
loop_
_space_group_symop_operation_xyz
x,y,z
-x,1/2+y,1/2-z
-x,-y,-z
x,1/2-y,1/2+z
loop_
_atom_site_type_symbol
_atom_site_label
_atom_site_fract_x
_atom_site_fract_y
_atom_site_fract_z
Si Si1 0.509138 0.712649 0.666813
Si Si2 0.742259 0.095506 0.475508
Si Si3 0.791110 0.106401 0.185500
Si Si4 0.308947 0.948691 0.084173
Si Si5 0.223625 0.595264 0.905530
O O1 0.292903 0.816326 0.738047
O O2 0.657234 0.580642 0.685319
O O3 0.428308 0.593139 0.625224
O O4 0.665535 0.888268 0.617755
O O5 0.801120 0.251105 0.418697
O O6 0.718228 0.183710 0.543009
O O7 0.500000 0.000000 0.500000
O O8 0.942738 0.939216 0.448025
O O9 0.703600 0.267913 0.157306
O O10 0.077244 0.080724 0.131283
O O11 0.500000 0.000000 0.000000
#
# Coordination Sequence:
#
# PCOD9251762 Si02
#       5
#     4   4   4   4   4
#     4  12  26  48  72 103 146 196 240 304 372 440
#     4  11  22  41  69 104 141 185 235 298 360 426
#     4  12  27  47  72 105 146 189 248 300 371 443
#     4  12  27  46  74 112 146 188 251 306 363 440
#     4  11  24  43  73  98 143 188 238 295 362 435
#
# _framework density 21.571290000000001
#
# number of rings (size 3 to 8) (size 9 to 14) (size 15 to 20)
#    0.000    0.400    6.000    2.400    2.800    4.800 
#    3.600    0.000    0.000    0.000    0.000    0.000 
#    0.000    0.000    0.000    0.000    0.000    0.000 
#
# Total GULP energy -111726.937667 kJ/mol
# GULP energy per Si atom -5586.346883 kJ/mol
# Density = 2.152219 g / cm^3
# Si number density = 21.571290 Si / 1000 Ang^3
#
#
#
# Elastic Constant Matrix: (Units=GPa)
#
#
# Indices 1 2 3 4 5 6 
#
# 1 117.7074 29.4061 58.8527 0.0000 -5.3575 0.0000
# 2 29.4061 69.8166 25.5279 0.0000 0.7638 0.0000
# 3 58.8527 25.5279 131.8711 0.0000 -4.7256 0.0000
# 4 0.0000 0.0000 0.0000 46.9193 0.0000 2.1749
# 5 -5.3575 0.7638 -4.7256 0.0000 31.2380 0.0000
# 6 0.0000 0.0000 0.0000 2.1749 0.0000 25.2680
#
#
#
# Elastic Compliance Matrix: (Units=1/GPa)
#
#
# Indices 1 2 3 4 5 6 
#
# 1 0.011628 -0.003265 -0.004508 0.000000 0.001392 0.000000
# 2 -0.003265 0.016352 -0.001752 0.000000 -0.001225 0.000000
# 3 -0.004508 -0.001752 0.009962 0.000000 0.000777 0.000000
# 4 0.000000 0.000000 0.000000 0.021399 0.000000 -0.001842
# 5 0.001392 -0.001225 0.000777 0.000000 0.032399 0.000000
# 6 0.000000 0.000000 0.000000 -0.001842 0.000000 0.039734
#
#
# Mechanical properties :
#
#
# Convention : Reuss Voigt Hill
#
# Bulk Modulus (GPa) = 52.92957 60.77429 56.85193
# Shear Modulus (GPa) = 31.88327 34.39228 33.13778
#
# Velocity S-wave (km/s) = 3.84870 3.99727 3.92369
# Velocity P-wave (km/s) = 6.65885 7.03840 6.85125
#
# Compressibility (1/GPa) = 0.01889303
#
# Stress axis : x y z
#
# Youngs Moduli (GPa) = 85.99582 61.15275 100.38146
#
# Poissons Ratio (x) = 0.19965 0.45250
# Poissons Ratio (y) = 0.28076 0.17591
# Poissons Ratio (z) = 0.38765 0.10716
#
# Static dielectric constant tensor:
#      x y z
#    x 1.778960 0.000000 -0.032550 
#    y 0.000000 1.787920 0.000000 
#    z -0.032550 0.000000 1.858490 
# 
# From -- ./inp_files/62980.got.cif
#   From: 2010.05.17/outbox.cif.g08.bks.cpg/sg14_32_cif.got.tgz:62980.got - 2010.06.03 17:49:19.
