data_PCOD9251180
_publ_section_title
;
Structure prediction by ZEFSAII (Michael W. Deem and Ramdas Pophale) SiO2 
 PCOD9251180
Probable space group: P 21/C
;
_chemical_formula_sum "Si O2"
_cell_formula_units_Z 18
_cell_length_a 12.459675
_cell_length_b 10.274678
_cell_length_c 9.692427
_cell_angle_alpha 90.000000
_cell_angle_beta 30.201990
_cell_angle_gamma 90.000000
_cell_volume 624.192572
_symmetry_space_group_name_H-M "P 21/C"
_symmetry_group_IT_number 14
_symmetry_cell_setting 'monoclinic'
loop_
_space_group_symop_operation_xyz
x,y,z
-x,1/2+y,1/2-z
-x,-y,-z
x,1/2-y,1/2+z
loop_
_atom_site_type_symbol
_atom_site_label
_atom_site_fract_x
_atom_site_fract_y
_atom_site_fract_z
Si Si1 0.705305 0.026346 0.577679
Si Si2 0.687249 0.839671 0.101413
Si Si3 0.267610 0.723295 0.592909
Si Si4 0.079508 0.327697 0.365384
Si Si5 0.000000 0.500000 0.000000
O O1 0.469832 0.044046 0.770148
O O2 0.770042 0.179431 0.491379
O O3 0.845774 0.939306 0.319060
O O4 0.773860 0.999658 0.656929
O O5 0.522761 0.718249 0.312120
O O6 0.807306 0.851466 0.112370
O O7 0.833771 0.805754 0.805298
O O8 0.112851 0.602379 0.766652
O O9 0.169250 0.811403 0.826348
#
# Coordination Sequence:
#
# PCOD9251180 Si02
#       5
#     4   4   4   4   2
#     4  10  26  46  74 111 146 197 251 313 366 448
#     4  10  26  44  74 112 146 187 256 303 376 452
#     4  10  27  46  72 110 143 196 247 305 375 440
#     4  12  23  49  75 106 148 200 242 311 383 433
#     4  12  24  46  78 102 154 196 244 308 372 436
#
# _framework density 28.837254000000001
#
# number of rings (size 3 to 8) (size 9 to 14) (size 15 to 20)
#    1.333    0.000    0.000    4.000    6.222    1.778 
#    0.000    4.444    0.000    0.000    0.000    0.000 
#    0.000    0.000    0.000    0.000    0.000    0.000 
#
# Total GULP energy -100246.687557 kJ/mol
# GULP energy per Si atom -5569.260420 kJ/mol
# Density = 2.877162 g / cm^3
# Si number density = 28.837254 Si / 1000 Ang^3
#
#
#
# Elastic Constant Matrix: (Units=GPa)
#
#
# Indices 1 2 3 4 5 6 
#
# 1 219.4835 12.9997 45.2995 0.0000 38.9207 0.0000
# 2 12.9997 60.0903 -27.9670 0.0000 8.4818 0.0000
# 3 45.2995 -27.9670 139.7942 0.0000 -6.9957 0.0000
# 4 0.0000 0.0000 0.0000 61.0271 0.0000 2.8382
# 5 38.9207 8.4818 -6.9957 0.0000 42.8853 0.0000
# 6 0.0000 0.0000 0.0000 2.8382 0.0000 34.9528
#
#
#
# Elastic Compliance Matrix: (Units=1/GPa)
#
#
# Indices 1 2 3 4 5 6 
#
# 1 0.006227 -0.001776 -0.002660 0.000000 -0.005734 0.000000
# 2 -0.001776 0.019262 0.004355 0.000000 -0.001488 0.000000
# 3 -0.002660 0.004355 0.009038 0.000000 0.003027 0.000000
# 4 0.000000 0.000000 0.000000 0.016448 0.000000 -0.001336
# 5 -0.005734 -0.001488 0.003027 0.000000 0.029310 0.000000
# 6 0.000000 0.000000 0.000000 -0.001336 0.000000 0.028718
#
#
# Mechanical properties :
#
#
# Convention : Reuss Voigt Hill
#
# Bulk Modulus (GPa) = 29.09932 53.33694 41.21813
# Shear Modulus (GPa) = 41.45170 53.70876 47.58023
#
# Velocity S-wave (km/s) = 3.79547 4.32033 4.06637
# Velocity P-wave (km/s) = 5.41481 6.58961 6.03089
#
# Compressibility (1/GPa) = 0.03436506
#
# Stress axis : x y z
#
# Youngs Moduli (GPa) = 160.58592 51.91438 110.64357
#
# Poissons Ratio (x) = 0.09219 0.29432
# Poissons Ratio (y) = 0.28517 -0.48181
# Poissons Ratio (z) = 0.42718 -0.22607
#
# Static dielectric constant tensor:
#      x y z
#    x 1.792000 0.000000 -0.281470 
#    y 0.000000 2.016270 0.000000 
#    z -0.281470 0.000000 2.082900 
# 
# From -- ./inp_files/12141.got.cif
#   From: 2010.05.17/outbox.cif.g08.bks.cpg/sg14_7_cif.got.tgz:12141.got - 2010.06.03 17:49:19.
