data_PCOD9251800
_publ_section_title
;
Structure prediction by ZEFSAII (Michael W. Deem and Ramdas Pophale) SiO2 
 PCOD9251800
Probable space group: P 21/C
;
_chemical_formula_sum "Si O2"
_cell_formula_units_Z 20
_cell_length_a 4.908134
_cell_length_b 12.462010
_cell_length_c 14.160301
_cell_angle_alpha 90.000000
_cell_angle_beta 86.046652
_cell_angle_gamma 90.000000
_cell_volume 864.056943
_symmetry_space_group_name_H-M "P 21/C"
_symmetry_group_IT_number 14
_symmetry_cell_setting 'monoclinic'
loop_
_space_group_symop_operation_xyz
x,y,z
-x,1/2+y,1/2-z
-x,-y,-z
x,1/2-y,1/2+z
loop_
_atom_site_type_symbol
_atom_site_label
_atom_site_fract_x
_atom_site_fract_y
_atom_site_fract_z
Si Si1 0.406019 0.738245 0.351449
Si Si2 0.233797 0.764980 0.145666
Si Si3 0.747650 0.906445 0.111069
Si Si4 0.739358 0.079735 0.512345
Si Si5 0.071480 0.393852 0.601313
O O1 0.298140 0.723332 0.248550
O O2 0.347742 0.858932 0.388318
O O3 0.703539 0.683491 0.354938
O O4 0.189832 0.675786 0.421913
O O5 0.438038 0.868360 0.132579
O O6 0.271308 0.670553 0.068981
O O7 0.926148 0.805390 0.139727
O O8 0.780531 0.927341 0.998730
O O9 0.910318 0.006839 0.153759
O O10 0.500000 0.000000 0.500000
O O11 0.000000 0.000000 0.500000
#
# Coordination Sequence:
#
# PCOD9251800 Si02
#       5
#     4   4   4   4   4
#     4  12  25  44  69 101 140 182 237 290 345 426
#     4  12  25  44  69 101 140 182 237 290 345 426
#     4  11  22  42  71  99 132 173 225 291 359 410
#     4  12  26  46  69  96 143 190 228 278 352 420
#     4  11  22  42  71  99 132 173 225 291 359 410
#
# _framework density 23.146623000000002
#
# number of rings (size 3 to 8) (size 9 to 14) (size 15 to 20)
#    0.000    0.400    4.000    4.800    0.000    8.000 
#    0.000    0.000    0.000    0.000    0.000    0.000 
#    0.000    0.000    0.000    0.000    0.000    0.000 
#
# Total GULP energy -111488.095723 kJ/mol
# GULP energy per Si atom -5574.404786 kJ/mol
# Density = 2.309394 g / cm^3
# Si number density = 23.146623 Si / 1000 Ang^3
#
#
#
# Elastic Constant Matrix: (Units=GPa)
#
#
# Indices 1 2 3 4 5 6 
#
# 1 151.9415 42.5677 9.0380 0.0000 14.6204 0.0000
# 2 42.5677 118.1992 35.5078 0.0000 11.4145 0.0000
# 3 9.0380 35.5078 88.4407 0.0000 14.3423 0.0000
# 4 0.0000 0.0000 0.0000 21.6823 0.0000 1.2599
# 5 14.6204 11.4145 14.3423 0.0000 23.0380 0.0000
# 6 0.0000 0.0000 0.0000 1.2599 0.0000 68.3925
#
#
#
# Elastic Compliance Matrix: (Units=1/GPa)
#
#
# Indices 1 2 3 4 5 6 
#
# 1 0.007665 -0.002646 0.000951 0.000000 -0.004146 0.000000
# 2 -0.002646 0.010679 -0.003817 0.000000 -0.001236 0.000000
# 3 0.000951 -0.003817 0.013941 0.000000 -0.007391 0.000000
# 4 0.000000 0.000000 0.000000 0.046170 0.000000 -0.000851
# 5 -0.004146 -0.001236 -0.007391 0.000000 0.051251 0.000000
# 6 0.000000 0.000000 0.000000 -0.000851 0.000000 0.014637
#
#
# Mechanical properties :
#
#
# Convention : Reuss Voigt Hill
#
# Bulk Modulus (GPa) = 47.03151 59.20095 53.11623
# Shear Modulus (GPa) = 30.77804 40.72042 35.74923
#
# Velocity S-wave (km/s) = 3.65046 4.19888 3.93424
# Velocity P-wave (km/s) = 6.17502 7.00995 6.60569
#
# Compressibility (1/GPa) = 0.02126234
#
# Stress axis : x y z
#
# Youngs Moduli (GPa) = 130.46186 93.64097 71.73182
#
# Poissons Ratio (x) = 0.24776 -0.06824
# Poissons Ratio (y) = 0.34519 0.27378
# Poissons Ratio (z) = -0.12410 0.35740
#
# Static dielectric constant tensor:
#      x y z
#    x 1.820800 0.000000 -0.039950 
#    y 0.000000 2.062980 0.000000 
#    z -0.039950 0.000000 1.926010 
# 
# From -- ./inp_files/37015.got.cif
#   From: 2010.05.17/outbox.cif.g08.bks.cpg/sg14_19_cif.got.tgz:37015.got - 2010.06.03 17:49:19.
