data_PCOD9251613
_publ_section_title
;
Structure prediction by ZEFSAII (Michael W. Deem and Ramdas Pophale) SiO2 
 PCOD9251613
Probable space group: P 21/C
;
_chemical_formula_sum "Si O2"
_cell_formula_units_Z 32
_cell_length_a 11.400661
_cell_length_b 10.006926
_cell_length_c 10.389725
_cell_angle_alpha 90.000000
_cell_angle_beta 76.088511
_cell_angle_gamma 90.000000
_cell_volume 1150.550315
_symmetry_space_group_name_H-M "P 21/C"
_symmetry_group_IT_number 14
_symmetry_cell_setting 'monoclinic'
loop_
_space_group_symop_operation_xyz
x,y,z
-x,1/2+y,1/2-z
-x,-y,-z
x,1/2-y,1/2+z
loop_
_atom_site_type_symbol
_atom_site_label
_atom_site_fract_x
_atom_site_fract_y
_atom_site_fract_z
Si Si1 0.393355 0.863229 0.637418
Si Si2 0.506371 0.003621 0.186598
Si Si3 0.982790 0.332936 0.415531
Si Si4 0.017738 0.556727 0.234083
Si Si5 0.163282 0.334039 0.037563
Si Si6 0.744794 0.256424 0.573127
Si Si7 0.396821 0.303257 0.529890
Si Si8 0.233502 0.990607 0.295726
O O1 0.442530 0.005038 0.681401
O O2 0.320311 0.822499 0.528640
O O3 0.518923 0.791962 0.575466
O O4 0.322241 0.823067 0.787056
O O5 0.598729 0.934884 0.063407
O O6 0.368130 0.948404 0.217556
O O7 0.471078 0.148921 0.135634
O O8 0.045805 0.469523 0.353312
O O9 0.843645 0.353043 0.488810
O O10 0.065822 0.266627 0.503434
O O11 0.970624 0.212146 0.309706
O O12 0.874026 0.534149 0.265648
O O13 0.094762 0.462026 0.115804
O O14 0.266599 0.258956 0.092154
O O15 0.240837 0.392905 0.898335
O O16 0.818699 0.139188 0.621786
#
# Coordination Sequence:
#
# PCOD9251613 Si02
#       8
#     4   4   4   4   4   4   4   4
#     4  12  25  44  70 105 145 191 245 306 382 456
#     4  11  25  45  67 107 148 196 249 317 382 451
#     4  11  25  45  74 106 148 198 260 317 386 459
#     4  11  24  45  71 106 145 200 254 319 384 456
#     4  11  23  44  69 103 141 194 252 309 377 465
#     4  12  24  45  73 104 145 198 247 310 379 462
#     4  11  25  43  69 103 150 192 244 313 386 448
#     4  11  21  44  72  95 143 197 250 304 378 454
#
# _framework density 27.812778999999999
#
# number of rings (size 3 to 8) (size 9 to 14) (size 15 to 20)
#    0.000    0.750    6.250    1.500    3.500    1.500 
#    2.250    0.625    0.000    0.000    0.000    0.000 
#    0.000    0.000    0.000    0.000    0.000    0.000 
#
# Total GULP energy -178589.517560 kJ/mol
# GULP energy per Si atom -5580.922424 kJ/mol
# Density = 2.774948 g / cm^3
# Si number density = 27.812779 Si / 1000 Ang^3
#
#
#
# Elastic Constant Matrix: (Units=GPa)
#
#
# Indices 1 2 3 4 5 6 
#
# 1 114.3905 40.9458 32.8311 0.0000 -7.2070 0.0000
# 2 40.9458 76.4033 32.6639 0.0000 2.0122 0.0000
# 3 32.8311 32.6639 119.5824 0.0000 -4.9359 0.0000
# 4 0.0000 0.0000 0.0000 52.2780 0.0000 -2.9529
# 5 -7.2070 2.0122 -4.9359 0.0000 37.0944 0.0000
# 6 0.0000 0.0000 0.0000 -2.9529 0.0000 38.2277
#
#
#
# Elastic Compliance Matrix: (Units=1/GPa)
#
#
# Indices 1 2 3 4 5 6 
#
# 1 0.011272 -0.005455 -0.001510 0.000000 0.002285 0.000000
# 2 -0.005455 0.017527 -0.003391 0.000000 -0.002462 0.000000
# 3 -0.001510 -0.003391 0.009752 0.000000 0.001188 0.000000
# 4 0.000000 0.000000 0.000000 0.019212 0.000000 0.001484
# 5 0.002285 -0.002462 0.001188 0.000000 0.027694 0.000000
# 6 0.000000 0.000000 0.000000 0.001484 0.000000 0.026274
#
#
# Mechanical properties :
#
#
# Convention : Reuss Voigt Hill
#
# Bulk Modulus (GPa) = 56.06201 58.13978 57.10090
# Shear Modulus (GPa) = 36.12950 39.11572 37.62261
#
# Velocity S-wave (km/s) = 3.60811 3.75426 3.68191
# Velocity P-wave (km/s) = 6.12851 6.30412 6.21694
#
# Compressibility (1/GPa) = 0.01783739
#
# Stress axis : x y z
#
# Youngs Moduli (GPa) = 88.71404 57.05556 102.53837
#
# Poissons Ratio (x) = 0.31126 0.15486
# Poissons Ratio (y) = 0.48397 0.34774
# Poissons Ratio (z) = 0.13398 0.19349
#
# Static dielectric constant tensor:
#      x y z
#    x 2.171780 0.000000 0.037400 
#    y 0.000000 2.390610 0.000000 
#    z 0.037400 0.000000 2.340310 
# 
# From -- ./inp_files/29341.got.cif
#   From: 2010.05.17/outbox.cif.g08.bks.cpg/sg14_15_cif.got.tgz:29341.got - 2010.06.03 17:49:19.
