data_PCOD9251501
_publ_section_title
;
Structure prediction by ZEFSAII (Michael W. Deem and Ramdas Pophale) SiO2 
 PCOD9251501
Probable space group: P 21/C
;
_chemical_formula_sum "Si O2"
_cell_formula_units_Z 32
_cell_length_a 11.062569
_cell_length_b 15.601735
_cell_length_c 14.636318
_cell_angle_alpha 90.000000
_cell_angle_beta 37.883947
_cell_angle_gamma 90.000000
_cell_volume 1551.223691
_symmetry_space_group_name_H-M "P 21/C"
_symmetry_group_IT_number 14
_symmetry_cell_setting 'monoclinic'
loop_
_space_group_symop_operation_xyz
x,y,z
-x,1/2+y,1/2-z
-x,-y,-z
x,1/2-y,1/2+z
loop_
_atom_site_type_symbol
_atom_site_label
_atom_site_fract_x
_atom_site_fract_y
_atom_site_fract_z
Si Si1 0.565675 0.151225 0.170085
Si Si2 0.708761 0.839316 0.999372
Si Si3 0.787950 0.517957 0.585124
Si Si4 0.713821 0.291436 0.227918
Si Si5 0.847818 0.804550 0.555239
Si Si6 0.448977 0.418674 0.095298
Si Si7 0.273480 0.765050 0.573321
Si Si8 0.164568 0.235188 0.736503
O O1 0.657991 0.220307 0.185912
O O2 0.337247 0.132161 0.328173
O O3 0.692930 0.067359 0.102320
O O4 0.583228 0.198705 0.063040
O O5 0.813732 0.917300 0.985596
O O6 0.476740 0.851505 0.155605
O O7 0.790243 0.756461 0.005360
O O8 0.746227 0.815319 0.872832
O O9 0.649204 0.552426 0.750385
O O10 0.000000 0.500000 0.500000
O O11 0.723840 0.245448 0.319904
O O12 0.926628 0.333718 0.085667
O O13 0.837686 0.748557 0.653668
O O14 0.292470 0.351019 0.143054
O O15 0.500000 0.500000 0.000000
O O16 0.642727 0.359897 0.997652
O O17 0.060455 0.738023 0.662970
#
# Coordination Sequence:
#
# PCOD9251501 Si02
#       8
#     4   4   4   4   4   4   4   4
#     4  11  23  41  67  96 138 179 228 288 351 418
#     4  11  23  41  68  96 137 179 231 283 352 420
#     4  12  26  44  67 103 141 178 235 300 351 414
#     4  11  21  39  68  98 127 179 234 279 344 421
#     4  11  21  40  66  95 129 180 234 278 338 431
#     4  12  26  45  70 108 143 172 245 308 338 409
#     4  12  23  42  68 101 141 187 227 283 359 431
#     4  12  23  42  70 102 137 187 231 282 365 429
#
# _framework density 20.628874
#
# number of rings (size 3 to 8) (size 9 to 14) (size 15 to 20)
#    0.000    0.500    6.250    3.000    3.500    0.000 
#    0.000    3.125    0.000    0.000    0.000    0.000 
#    0.000    0.000    0.000    0.000    0.000    0.000 
#
# Total GULP energy -178668.994816 kJ/mol
# GULP energy per Si atom -5583.406088 kJ/mol
# Density = 2.058192 g / cm^3
# Si number density = 20.628874 Si / 1000 Ang^3
#
#
#
# Elastic Constant Matrix: (Units=GPa)
#
#
# Indices 1 2 3 4 5 6 
#
# 1 78.8934 -4.8522 24.5177 0.0000 -12.0890 0.0000
# 2 -4.8522 55.2517 8.9206 0.0000 -0.8705 0.0000
# 3 24.5177 8.9206 93.2553 0.0000 -6.5154 0.0000
# 4 0.0000 0.0000 0.0000 17.3399 0.0000 -1.4919
# 5 -12.0890 -0.8705 -6.5154 0.0000 53.8539 0.0000
# 6 0.0000 0.0000 0.0000 -1.4919 0.0000 34.0471
#
#
#
# Elastic Compliance Matrix: (Units=1/GPa)
#
#
# Indices 1 2 3 4 5 6 
#
# 1 0.014395 0.001917 -0.003772 0.000000 0.002806 0.000000
# 2 0.001917 0.018639 -0.002255 0.000000 0.000459 0.000000
# 3 -0.003772 -0.002255 0.011970 0.000000 0.000565 0.000000
# 4 0.000000 0.000000 0.000000 0.057889 0.000000 0.002537
# 5 0.002806 0.000459 0.000565 0.000000 0.019274 0.000000
# 6 0.000000 0.000000 0.000000 0.002537 0.000000 0.029482
#
#
# Mechanical properties :
#
#
# Convention : Reuss Voigt Hill
#
# Bulk Modulus (GPa) = 27.18491 31.61915 29.40203
# Shear Modulus (GPa) = 29.04768 34.30245 31.67507
#
# Velocity S-wave (km/s) = 3.75655 4.08221 3.92276
# Velocity P-wave (km/s) = 5.65882 6.13027 5.89925
#
# Compressibility (1/GPa) = 0.03678512
#
# Stress axis : x y z
#
# Youngs Moduli (GPa) = 69.46617 53.65180 83.54113
#
# Poissons Ratio (x) = -0.10287 0.31512
# Poissons Ratio (y) = -0.13320 0.18838
# Poissons Ratio (z) = 0.26203 0.12098
#
# Static dielectric constant tensor:
#      x y z
#    x 1.739830 0.000000 -0.039900 
#    y 0.000000 1.789400 0.000000 
#    z -0.039900 0.000000 1.809030 
# 
# From -- ./inp_files/45093.got.cif
#   From: 2010.05.17/outbox.cif.g08.bks.cpg/sg14_23_cif.got.tgz:45093.got - 2010.06.03 17:49:19.
