data_PCOD9251343
_publ_section_title
;
Structure prediction by ZEFSAII (Michael W. Deem and Ramdas Pophale) SiO2 
 PCOD9251343
Probable space group: P 21/C
;
_chemical_formula_sum "Si O2"
_cell_formula_units_Z 28
_cell_length_a 7.679052
_cell_length_b 13.349584
_cell_length_c 12.648139
_cell_angle_alpha 90.000000
_cell_angle_beta 118.870214
_cell_angle_gamma 90.000000
_cell_volume 1135.442332
_symmetry_space_group_name_H-M "P 21/C"
_symmetry_group_IT_number 14
_symmetry_cell_setting 'monoclinic'
loop_
_space_group_symop_operation_xyz
x,y,z
-x,1/2+y,1/2-z
-x,-y,-z
x,1/2-y,1/2+z
loop_
_atom_site_type_symbol
_atom_site_label
_atom_site_fract_x
_atom_site_fract_y
_atom_site_fract_z
Si Si1 0.477071 0.317886 0.675018
Si Si2 0.164204 0.737363 0.868472
Si Si3 0.327171 0.940306 0.321329
Si Si4 0.054539 0.397541 0.793310
Si Si5 0.322238 0.023524 0.799603
Si Si6 0.631614 0.325850 0.384906
Si Si7 0.759579 0.866332 0.440002
O O1 0.648610 0.275772 0.646470
O O2 0.521560 0.435384 0.686232
O O3 0.529843 0.271322 0.804194
O O4 0.284765 0.253005 0.583346
O O5 0.188407 0.619603 0.863929
O O6 0.975216 0.786268 0.758845
O O7 0.195548 0.785616 0.991105
O O8 0.300455 0.890577 0.197166
O O9 0.553883 0.918930 0.419186
O O10 0.247613 0.051640 0.301543
O O11 0.863695 0.465427 0.703960
O O12 0.073446 0.389708 0.925562
O O13 0.464642 0.106492 0.895498
O O14 0.230952 0.083040 0.672229
#
# Coordination Sequence:
#
# PCOD9251343 Si02
#       7
#     4   4   4   4   4   4   4
#     4   8  18  36  57  80 111 150 190 221 281 340
#     4   9  20  38  57  79 118 152 182 235 283 336
#     4   9  21  40  57  82 113 153 189 228 289 339
#     4  11  20  35  57  89 114 143 194 237 284 331
#     4   9  19  36  60  85 111 148 193 238 279 329
#     4   9  19  39  59  80 114 153 190 224 285 346
#     4   9  19  37  57  82 116 151 188 234 277 349
#
# _framework density 24.659993
#
# number of rings (size 3 to 8) (size 9 to 14) (size 15 to 20)
#    0.000    3.429    0.000    0.857    2.000    2.857 
#   12.857    2.857    0.000    0.000    0.000    0.000 
#    0.000    0.000    0.000    0.000    0.000    0.000 
#
# Total GULP energy -156209.642728 kJ/mol
# GULP energy per Si atom -5578.915812 kJ/mol
# Density = 2.460387 g / cm^3
# Si number density = 24.659993 Si / 1000 Ang^3
#
#
#
# Elastic Constant Matrix: (Units=GPa)
#
#
# Indices 1 2 3 4 5 6 
#
# 1 64.3635 22.0806 3.3649 0.0000 9.3771 0.0000
# 2 22.0806 64.1957 1.6703 0.0000 6.5929 0.0000
# 3 3.3649 1.6703 51.0495 0.0000 4.1989 0.0000
# 4 0.0000 0.0000 0.0000 11.9452 0.0000 7.1700
# 5 9.3771 6.5929 4.1989 0.0000 16.2789 0.0000
# 6 0.0000 0.0000 0.0000 7.1700 0.0000 35.9670
#
#
#
# Elastic Compliance Matrix: (Units=1/GPa)
#
#
# Indices 1 2 3 4 5 6 
#
# 1 0.018688 -0.005553 -0.000357 0.000000 -0.008423 0.000000
# 2 -0.005553 0.017904 0.000116 0.000000 -0.004082 0.000000
# 3 -0.000357 0.000116 0.020020 0.000000 -0.005005 0.000000
# 4 0.000000 0.000000 0.000000 0.095094 0.000000 -0.018957
# 5 -0.008423 -0.004082 -0.005005 0.000000 0.069225 0.000000
# 6 0.000000 0.000000 0.000000 -0.018957 0.000000 0.031582
#
#
# Mechanical properties :
#
#
# Convention : Reuss Voigt Hill
#
# Bulk Modulus (GPa) = 22.21114 25.98224 24.09669
# Shear Modulus (GPa) = 17.91403 23.00443 20.45923
#
# Velocity S-wave (km/s) = 2.69818 3.05760 2.88349
# Velocity P-wave (km/s) = 4.32821 4.79836 4.56934
#
# Compressibility (1/GPa) = 0.04502245
#
# Stress axis : x y z
#
# Youngs Moduli (GPa) = 53.51083 55.85436 49.94943
#
# Poissons Ratio (x) = 0.31018 0.01784
# Poissons Ratio (y) = 0.29717 -0.00579
# Poissons Ratio (z) = 0.01912 -0.00648
#
# Static dielectric constant tensor:
#      x y z
#    x 2.027800 0.000000 -0.008970 
#    y 0.000000 1.997060 0.000000 
#    z -0.008970 0.000000 1.917670 
# 
# From -- ./inp_files/41280.got.cif
#   From: 2010.05.17/outbox.cif.g08.bks.cpg/sg14_21_cif.got.tgz:41280.got - 2010.06.03 17:49:19.
