data_PCOD9251554
_publ_section_title
;
Structure prediction by ZEFSAII (Michael W. Deem and Ramdas Pophale) SiO2 
 PCOD9251554
Probable space group: P 21/C
;
_chemical_formula_sum "Si O2"
_cell_formula_units_Z 32
_cell_length_a 12.950173
_cell_length_b 8.778123
_cell_length_c 22.637253
_cell_angle_alpha 90.000000
_cell_angle_beta 33.187277
_cell_angle_gamma 90.000000
_cell_volume 1408.600437
_symmetry_space_group_name_H-M "P 21/C"
_symmetry_group_IT_number 14
_symmetry_cell_setting 'monoclinic'
loop_
_space_group_symop_operation_xyz
x,y,z
-x,1/2+y,1/2-z
-x,-y,-z
x,1/2-y,1/2+z
loop_
_atom_site_type_symbol
_atom_site_label
_atom_site_fract_x
_atom_site_fract_y
_atom_site_fract_z
Si Si1 0.009923 0.156371 0.107062
Si Si2 0.342405 0.381747 0.358600
Si Si3 0.558981 0.253419 0.464674
Si Si4 0.040647 0.014400 0.342975
Si Si5 0.350979 0.636618 0.959672
Si Si6 0.414185 0.849224 0.682215
Si Si7 0.407429 0.355551 0.729810
Si Si8 0.809732 0.553521 0.358626
O O1 0.071922 0.077189 0.138622
O O2 0.015186 0.339627 0.116147
O O3 0.794935 0.118041 0.195105
O O4 0.150311 0.108033 0.987660
O O5 0.483077 0.286299 0.333545
O O6 0.455921 0.538264 0.296639
O O7 0.324187 0.279967 0.309232
O O8 0.607119 0.129422 0.490740
O O9 0.606203 0.202686 0.376250
O O10 0.688667 0.398742 0.418630
O O11 0.342512 0.309241 0.571729
O O12 0.235417 0.055374 0.282129
O O13 0.071316 0.042065 0.258456
O O14 0.870644 0.122929 0.445085
O O15 0.451221 0.493990 0.881782
O O16 0.455082 0.785258 0.885472
#
# Coordination Sequence:
#
# PCOD9251554 Si02
#       8
#     4   4   4   4   4   4   4   4
#     4  12  25  44  76 107 150 194 241 298 364 438
#     4  12  26  50  75 104 138 194 245 305 365 428
#     4  11  21  41  70 100 151 190 232 298 360 432
#     4  12  25  46  73 108 147 193 239 299 372 434
#     4  12  26  44  72 111 144 190 241 300 363 446
#     4  12  24  46  70 108 146 188 241 297 363 434
#     4  12  28  51  78 103 144 191 248 309 367 431
#     4  11  22  40  69 108 143 193 237 288 368 438
#
# _framework density 22.717585
#
# number of rings (size 3 to 8) (size 9 to 14) (size 15 to 20)
#    0.000    0.250    6.250    2.625    0.000    4.500 
#    0.000    1.875    0.000    0.000    0.000    0.000 
#    0.000    0.000    0.000    0.000    0.000    0.000 
#
# Total GULP energy -179289.401220 kJ/mol
# GULP energy per Si atom -5602.793788 kJ/mol
# Density = 2.266588 g / cm^3
# Si number density = 22.717585 Si / 1000 Ang^3
#
#
#
# Elastic Constant Matrix: (Units=GPa)
#
#
# Indices 1 2 3 4 5 6 
#
# 1 47.3772 -1.8663 23.5645 0.0000 4.3082 0.0000
# 2 -1.8663 39.3932 11.7671 0.0000 -3.2832 0.0000
# 3 23.5645 11.7671 131.6888 0.0000 -16.5174 0.0000
# 4 0.0000 0.0000 0.0000 27.4093 0.0000 3.2200
# 5 4.3082 -3.2832 -16.5174 0.0000 43.0707 0.0000
# 6 0.0000 0.0000 0.0000 3.2200 0.0000 31.0956
#
#
#
# Elastic Compliance Matrix: (Units=1/GPa)
#
#
# Indices 1 2 3 4 5 6 
#
# 1 0.024082 0.002298 -0.005037 0.000000 -0.004165 0.000000
# 2 0.002298 0.026355 -0.002672 0.000000 0.000755 0.000000
# 3 -0.005037 -0.002672 0.009215 0.000000 0.003834 0.000000
# 4 0.000000 0.000000 0.000000 0.036933 0.000000 -0.003824
# 5 -0.004165 0.000755 0.003834 0.000000 0.025162 0.000000
# 6 0.000000 0.000000 0.000000 -0.003824 0.000000 0.032555
#
#
# Mechanical properties :
#
#
# Convention : Reuss Voigt Hill
#
# Bulk Modulus (GPa) = 20.47885 31.70996 26.09441
# Shear Modulus (GPa) = 27.56353 32.64804 30.10579
#
# Velocity S-wave (km/s) = 3.48704 3.79506 3.64431
# Velocity P-wave (km/s) = 5.02461 5.76124 5.40549
#
# Compressibility (1/GPa) = 0.04883086
#
# Stress axis : x y z
#
# Youngs Moduli (GPa) = 41.52503 37.94359 108.52346
#
# Poissons Ratio (x) = -0.08721 0.54664
# Poissons Ratio (y) = -0.09544 0.28993
# Poissons Ratio (z) = 0.20916 0.10137
#
# Static dielectric constant tensor:
#      x y z
#    x 1.813350 0.000000 0.022960 
#    y 0.000000 1.848240 0.000000 
#    z 0.022960 0.000000 1.821350 
# 
# From -- ./inp_files/73849.got.cif
#   From: 2010.05.17/outbox.cif.g08.bks.cpg/sg14_37_cif.got.tgz:73849.got - 2010.06.03 17:49:19.
