data_PCOD9251030
_publ_section_title
;
Structure prediction by ZEFSAII (Michael W. Deem and Ramdas Pophale) SiO2 
 PCOD9251030
Probable space group: P 21/C
;
_chemical_formula_sum "Si O2"
_cell_formula_units_Z 20
_cell_length_a 15.325861
_cell_length_b 5.304064
_cell_length_c 18.516870
_cell_angle_alpha 90.000000
_cell_angle_beta 147.782065
_cell_angle_gamma 90.000000
_cell_volume 802.496974
_symmetry_space_group_name_H-M "P 21/C"
_symmetry_group_IT_number 14
_symmetry_cell_setting 'monoclinic'
loop_
_space_group_symop_operation_xyz
x,y,z
-x,1/2+y,1/2-z
-x,-y,-z
x,1/2-y,1/2+z
loop_
_atom_site_type_symbol
_atom_site_label
_atom_site_fract_x
_atom_site_fract_y
_atom_site_fract_z
Si Si1 0.156199 0.496794 0.451609
Si Si2 0.261712 0.512677 0.271987
Si Si3 0.191356 0.676652 0.851770
Si Si4 0.230830 0.497328 0.668400
Si Si5 0.566663 0.703725 0.935573
O O1 0.192425 0.761791 0.437384
O O2 0.155989 0.495999 0.537040
O O3 0.301924 0.316566 0.526882
O O4 0.983999 0.418565 0.296272
O O5 0.223430 0.569086 0.328469
O O6 0.206626 0.251778 0.199162
O O7 0.452347 0.576321 0.389212
O O8 0.177071 0.748398 0.171591
O O9 0.334424 0.473013 0.939030
O O10 0.428158 0.532339 0.800441
#
# Coordination Sequence:
#
# PCOD9251030 Si02
#       5
#     4   4   4   4   4
#     4  12  27  44  73 106 149 184 240 295 364 415
#     4  10  26  47  78 103 142 189 244 288 355 423
#     4  12  26  47  72 108 146 186 236 300 361 423
#     4  10  27  46  75 105 140 192 240 291 348 429
#     4  10  25  45  72 105 140 191 238 296 341 435
#
# _framework density 24.922211999999998
#
# number of rings (size 3 to 8) (size 9 to 14) (size 15 to 20)
#    1.200    0.000    2.000    1.800   11.200    3.200 
#    0.000    0.000    0.000    0.000    0.000    0.000 
#    0.000    0.000    0.000    0.000    0.000    0.000 
#
# Total GULP energy -111952.182005 kJ/mol
# GULP energy per Si atom -5597.609100 kJ/mol
# Density = 2.486549 g / cm^3
# Si number density = 24.922212 Si / 1000 Ang^3
#
#
#
# Elastic Constant Matrix: (Units=GPa)
#
#
# Indices 1 2 3 4 5 6 
#
# 1 50.5030 10.1805 43.3992 0.0000 6.6182 0.0000
# 2 10.1805 124.2509 44.6168 0.0000 -9.9933 0.0000
# 3 43.3992 44.6168 130.8368 0.0000 0.4519 0.0000
# 4 0.0000 0.0000 0.0000 28.1568 0.0000 -2.6804
# 5 6.6182 -9.9933 0.4519 0.0000 56.7548 0.0000
# 6 0.0000 0.0000 0.0000 -2.6804 0.0000 39.8587
#
#
#
# Elastic Compliance Matrix: (Units=1/GPa)
#
#
# Indices 1 2 3 4 5 6 
#
# 1 0.028362 0.000916 -0.009710 0.000000 -0.003069 0.000000
# 2 0.000916 0.009356 -0.003500 0.000000 0.001568 0.000000
# 3 -0.009710 -0.003500 0.012056 0.000000 0.000420 0.000000
# 4 0.000000 0.000000 0.000000 0.035744 0.000000 0.002404
# 5 -0.003069 0.001568 0.000420 0.000000 0.018250 0.000000
# 6 0.000000 0.000000 0.000000 0.002404 0.000000 0.025250
#
#
# Mechanical properties :
#
#
# Convention : Reuss Voigt Hill
#
# Bulk Modulus (GPa) = 39.70278 55.77597 47.73938
# Shear Modulus (GPa) = 30.86393 38.78034 34.82214
#
# Velocity S-wave (km/s) = 3.52292 3.94897 3.74201
# Velocity P-wave (km/s) = 5.70204 6.57427 6.15363
#
# Compressibility (1/GPa) = 0.02518715
#
# Stress axis : x y z
#
# Youngs Moduli (GPa) = 35.25827 106.88274 82.94747
#
# Poissons Ratio (x) = -0.09789 0.80539
# Poissons Ratio (y) = -0.03229 0.29029
# Poissons Ratio (z) = 0.34234 0.37406
#
# Static dielectric constant tensor:
#      x y z
#    x 1.977560 0.000000 0.014390 
#    y 0.000000 2.017780 0.000000 
#    z 0.014390 0.000000 1.967850 
# 
# From -- ./inp_files/59912.got.cif
#   From: 2010.05.17/outbox.cif.g08.bks.cpg/sg14_30_cif.got.tgz:59912.got - 2010.06.03 17:49:19.
