data_PCOD9251296
_publ_section_title
;
Structure prediction by ZEFSAII (Michael W. Deem and Ramdas Pophale) SiO2 
 PCOD9251296
Probable space group: P 21/C
;
_chemical_formula_sum "Si O2"
_cell_formula_units_Z 28
_cell_length_a 12.400440
_cell_length_b 16.035103
_cell_length_c 8.258313
_cell_angle_alpha 90.000000
_cell_angle_beta 116.846750
_cell_angle_gamma 90.000000
_cell_volume 1465.112554
_symmetry_space_group_name_H-M "P 21/C"
_symmetry_group_IT_number 14
_symmetry_cell_setting 'monoclinic'
loop_
_space_group_symop_operation_xyz
x,y,z
-x,1/2+y,1/2-z
-x,-y,-z
x,1/2-y,1/2+z
loop_
_atom_site_type_symbol
_atom_site_label
_atom_site_fract_x
_atom_site_fract_y
_atom_site_fract_z
Si Si1 0.030133 0.420225 0.627371
Si Si2 0.608190 0.921603 0.901890
Si Si3 0.690201 0.924980 0.598577
Si Si4 0.655221 0.469883 0.755049
Si Si5 0.923583 0.418509 0.894334
Si Si6 0.257357 0.259261 0.391953
Si Si7 0.920873 0.759383 0.476082
O O1 0.164403 0.433684 0.791296
O O2 0.035376 0.333937 0.531741
O O3 0.000000 0.500000 0.500000
O O4 0.935356 0.415225 0.708386
O O5 0.639895 0.951873 0.741031
O O6 0.463889 0.912834 0.819806
O O7 0.648739 0.980715 0.079031
O O8 0.677886 0.835259 0.978744
O O9 0.645896 0.971426 0.408027
O O10 0.668730 0.825784 0.566129
O O11 0.785279 0.426468 0.852298
O O12 0.000000 0.500000 0.000000
O O13 0.987924 0.333865 0.997139
O O14 0.213966 0.282597 0.182121
O O15 0.120115 0.243556 0.364134
#
# Coordination Sequence:
#
# PCOD9251296 Si02
#       7
#     4   4   4   4   4   4   4
#     4  11  23  37  62  93 123 167 211 262 320 380
#     4  11  23  41  65  91 127 164 216 266 301 387
#     4  11  21  41  65  94 121 162 218 257 314 379
#     4  11  25  41  63  94 129 166 211 256 328 374
#     4  12  22  39  63  92 128 164 203 260 328 382
#     4  11  19  37  64  90 115 159 211 261 306 365
#     4  11  22  37  61  94 126 157 214 265 311 385
#
# _framework density 19.111159000000001
#
# number of rings (size 3 to 8) (size 9 to 14) (size 15 to 20)
#    0.000    0.857    7.143    3.000    2.000    0.000 
#    0.000    1.429    3.143    0.000    0.000    0.000 
#    0.000    0.000    0.000    0.000    0.000    0.000 
#
# Total GULP energy -156108.528280 kJ/mol
# GULP energy per Si atom -5575.304581 kJ/mol
# Density = 1.906766 g / cm^3
# Si number density = 19.111159 Si / 1000 Ang^3
#
#
#
# Elastic Constant Matrix: (Units=GPa)
#
#
# Indices 1 2 3 4 5 6 
#
# 1 98.2290 41.5066 29.0266 0.0000 5.3613 0.0000
# 2 41.5066 98.1795 43.7732 0.0000 6.3458 0.0000
# 3 29.0266 43.7732 55.9253 0.0000 -8.0056 0.0000
# 4 0.0000 0.0000 0.0000 26.7261 0.0000 -2.8078
# 5 5.3613 6.3458 -8.0056 0.0000 42.1363 0.0000
# 6 0.0000 0.0000 0.0000 -2.8078 0.0000 28.9363
#
#
#
# Elastic Compliance Matrix: (Units=1/GPa)
#
#
# Indices 1 2 3 4 5 6 
#
# 1 0.013027 -0.003441 -0.004349 0.000000 -0.001966 0.000000
# 2 -0.003441 0.017565 -0.012622 0.000000 -0.004606 0.000000
# 3 -0.004349 -0.012622 0.031218 0.000000 0.008385 0.000000
# 4 0.000000 0.000000 0.000000 0.037802 0.000000 0.003668
# 5 -0.001966 -0.004606 0.008385 0.000000 0.026269 0.000000
# 6 0.000000 0.000000 0.000000 0.003668 0.000000 0.034915
#
#
# Mechanical properties :
#
#
# Convention : Reuss Voigt Hill
#
# Bulk Modulus (GPa) = 47.65127 53.43851 50.54489
# Shear Modulus (GPa) = 23.96758 28.76158 26.36458
#
# Velocity S-wave (km/s) = 3.54519 3.88359 3.71824
# Velocity P-wave (km/s) = 6.46109 6.93775 6.70366
#
# Compressibility (1/GPa) = 0.02098580
#
# Stress axis : x y z
#
# Youngs Moduli (GPa) = 76.76482 56.93060 32.03297
#
# Poissons Ratio (x) = 0.19590 0.13932
# Poissons Ratio (y) = 0.26416 0.40431
# Poissons Ratio (z) = 0.33387 0.71856
#
# Static dielectric constant tensor:
#      x y z
#    x 1.677850 0.000000 -0.053750 
#    y 0.000000 1.667690 0.000000 
#    z -0.053750 0.000000 1.723090 
# 
# From -- ./inp_files/12806.got.cif
#   From: 2010.05.17/outbox.cif.g08.bks.cpg/sg14_7_cif.got.tgz:12806.got - 2010.06.03 17:49:19.
