data_PCOD9251154
_publ_section_title
;
Structure prediction by ZEFSAII (Michael W. Deem and Ramdas Pophale) SiO2 
 PCOD9251154
Probable space group: P 21/C
;
_chemical_formula_sum "Si O2"
_cell_formula_units_Z 20
_cell_length_a 5.304897
_cell_length_b 8.866627
_cell_length_c 16.037623
_cell_angle_alpha 90.000000
_cell_angle_beta 81.718206
_cell_angle_gamma 90.000000
_cell_volume 746.487641
_symmetry_space_group_name_H-M "P 21/C"
_symmetry_group_IT_number 14
_symmetry_cell_setting 'monoclinic'
loop_
_space_group_symop_operation_xyz
x,y,z
-x,1/2+y,1/2-z
-x,-y,-z
x,1/2-y,1/2+z
loop_
_atom_site_type_symbol
_atom_site_label
_atom_site_fract_x
_atom_site_fract_y
_atom_site_fract_z
Si Si1 0.752406 0.898906 0.498363
Si Si2 0.586653 0.331943 0.411489
Si Si3 0.731324 0.367515 0.583277
Si Si4 0.305991 0.282446 0.181473
Si Si5 0.953553 0.018039 0.797898
O O1 0.653355 0.779626 0.572222
O O2 0.790916 0.811464 0.409019
O O3 0.500000 0.000000 0.500000
O O4 0.000000 0.000000 0.500000
O O5 0.747448 0.305691 0.488970
O O6 0.481789 0.502033 0.415233
O O7 0.771119 0.338567 0.323692
O O8 0.605959 0.243674 0.650519
O O9 0.953789 0.457780 0.616495
O O10 0.199836 0.424426 0.236918
O O11 0.194711 0.129140 0.227946
#
# Coordination Sequence:
#
# PCOD9251154 Si02
#       5
#     4   4   4   4   4
#     4  11  27  47  74 106 149 189 246 301 361 438
#     4   9  21  40  67 103 127 191 240 289 363 431
#     4   9  20  41  67  94 135 183 244 293 357 441
#     4  10  26  43  64 109 136 195 240 303 372 441
#     4  11  23  43  71  95 151 181 247 302 373 433
#
# _framework density 26.792138000000001
#
# number of rings (size 3 to 8) (size 9 to 14) (size 15 to 20)
#    0.000    2.000    0.000    1.800   11.200    3.200 
#    0.000    0.000    0.000    0.000    0.000    0.000 
#    0.000    0.000    0.000    0.000    0.000    0.000 
#
# Total GULP energy -111775.195706 kJ/mol
# GULP energy per Si atom -5588.759785 kJ/mol
# Density = 2.673116 g / cm^3
# Si number density = 26.792138 Si / 1000 Ang^3
#
#
#
# Elastic Constant Matrix: (Units=GPa)
#
#
# Indices 1 2 3 4 5 6 
#
# 1 101.4688 34.7874 37.9714 0.0000 -19.8211 0.0000
# 2 34.7874 117.2591 52.9874 0.0000 -29.3843 0.0000
# 3 37.9714 52.9874 79.0837 0.0000 -5.8578 0.0000
# 4 0.0000 0.0000 0.0000 52.3755 0.0000 -26.3297
# 5 -19.8211 -29.3843 -5.8578 0.0000 42.6649 0.0000
# 6 0.0000 0.0000 0.0000 -26.3297 0.0000 56.4375
#
#
#
# Elastic Compliance Matrix: (Units=1/GPa)
#
#
# Indices 1 2 3 4 5 6 
#
# 1 0.013093 0.000179 -0.006008 0.000000 0.005381 0.000000
# 2 0.000179 0.015061 -0.009499 0.000000 0.009152 0.000000
# 3 -0.006008 -0.009499 0.021421 0.000000 -0.006392 0.000000
# 4 0.000000 0.000000 0.000000 0.024943 0.000000 0.011636
# 5 0.005381 0.009152 -0.006392 0.000000 0.031364 0.000000
# 6 0.000000 0.000000 0.000000 0.011636 0.000000 0.023147
#
#
# Mechanical properties :
#
#
# Convention : Reuss Voigt Hill
#
# Bulk Modulus (GPa) = 52.85803 61.03377 56.94590
# Shear Modulus (GPa) = 30.12210 41.76659 35.94435
#
# Velocity S-wave (km/s) = 3.35668 3.95259 3.66676
# Velocity P-wave (km/s) = 5.89871 6.60761 6.26320
#
# Compressibility (1/GPa) = 0.01891860
#
# Stress axis : x y z
#
# Youngs Moduli (GPa) = 76.37451 66.39744 46.68413
#
# Poissons Ratio (x) = -0.01188 0.28048
# Poissons Ratio (y) = -0.01367 0.44346
# Poissons Ratio (z) = 0.45886 0.63071
#
# Static dielectric constant tensor:
#      x y z
#    x 2.137040 0.000000 -0.000810 
#    y 0.000000 2.106290 0.000000 
#    z -0.000810 0.000000 2.126460 
# 
# From -- ./inp_files/63013.got.cif
#   From: 2010.05.17/outbox.cif.g08.bks.cpg/sg14_32_cif.got.tgz:63013.got - 2010.06.03 17:49:19.
