data_PCOD9251992
_publ_section_title
;
Structure prediction by ZEFSAII (Michael W. Deem and Ramdas Pophale) SiO2 
 PCOD9251992
Probable space group: P 21/C
;
_chemical_formula_sum "Si O2"
_cell_formula_units_Z 28
_cell_length_a 8.827035
_cell_length_b 8.669767
_cell_length_c 17.303375
_cell_angle_alpha 90.000000
_cell_angle_beta 86.303521
_cell_angle_gamma 90.000000
_cell_volume 1321.443623
_symmetry_space_group_name_H-M "P 21/C"
_symmetry_group_IT_number 14
_symmetry_cell_setting 'monoclinic'
loop_
_space_group_symop_operation_xyz
x,y,z
-x,1/2+y,1/2-z
-x,-y,-z
x,1/2-y,1/2+z
loop_
_atom_site_type_symbol
_atom_site_label
_atom_site_fract_x
_atom_site_fract_y
_atom_site_fract_z
Si Si1 0.984388 0.348220 0.244194
Si Si2 0.465496 0.659500 0.296108
Si Si3 0.802491 0.102819 0.305232
Si Si4 0.232397 0.882348 0.381905
Si Si5 0.271068 0.234133 0.329564
Si Si6 0.357160 0.599088 0.038942
Si Si7 0.483753 0.413009 0.419390
O O1 0.045682 0.521571 0.231315
O O2 0.133864 0.280637 0.279205
O O3 0.849102 0.284548 0.303649
O O4 0.910399 0.315649 0.161740
O O5 0.331762 0.582011 0.251004
O O6 0.382753 0.797177 0.344570
O O7 0.584860 0.720434 0.231244
O O8 0.534042 0.535006 0.352590
O O9 0.742950 0.032395 0.387372
O O10 0.243497 0.861857 0.472894
O O11 0.242591 0.064506 0.365149
O O12 0.317387 0.354527 0.395639
O O13 0.425865 0.754233 0.073412
O O14 0.500000 0.500000 0.000000
O O15 0.500000 0.500000 0.500000
#
# Coordination Sequence:
#
# PCOD9251992 Si02
#       7
#     4   4   4   4   4   4   4
#     4  11  25  43  67 103 135 188 235 286 353 431
#     4  11  23  40  72 100 132 183 239 298 341 416
#     4  11  24  44  71  99 142 182 237 291 350 430
#     4  11  24  44  66  97 145 184 225 292 362 430
#     4  12  23  43  71  99 136 188 241 287 353 424
#     4  12  25  44  70 108 143 184 236 297 362 421
#     4  12  24  40  67 107 138 174 231 305 352 410
#
# _framework density 21.188946999999999
#
# number of rings (size 3 to 8) (size 9 to 14) (size 15 to 20)
#    0.000    0.571    7.143    0.857    4.000    0.571 
#    0.000    0.000    0.000    3.429    0.000    0.000 
#    0.000    0.000    0.000    0.000    0.000    0.000 
#
# Total GULP energy -156066.119233 kJ/mol
# GULP energy per Si atom -5573.789973 kJ/mol
# Density = 2.114072 g / cm^3
# Si number density = 21.188947 Si / 1000 Ang^3
#
#
#
# Elastic Constant Matrix: (Units=GPa)
#
#
# Indices 1 2 3 4 5 6 
#
# 1 79.5912 42.2531 48.5991 0.0000 26.1233 0.0000
# 2 42.2531 66.0472 33.3757 0.0000 10.8435 0.0000
# 3 48.5991 33.3757 133.1490 0.0000 27.7690 0.0000
# 4 0.0000 0.0000 0.0000 38.7873 0.0000 12.9279
# 5 26.1233 10.8435 27.7690 0.0000 40.7438 0.0000
# 6 0.0000 0.0000 0.0000 12.9279 0.0000 36.1745
#
#
#
# Elastic Compliance Matrix: (Units=1/GPa)
#
#
# Indices 1 2 3 4 5 6 
#
# 1 0.024658 -0.012187 -0.003875 0.000000 -0.009925 0.000000
# 2 -0.012187 0.023490 -0.002058 0.000000 0.002965 0.000000
# 3 -0.003875 -0.002058 0.010268 0.000000 -0.003966 0.000000
# 4 0.000000 0.000000 0.000000 0.029268 0.000000 -0.010460
# 5 -0.009925 0.002965 -0.003966 0.000000 0.032821 0.000000
# 6 0.000000 0.000000 0.000000 -0.010460 0.000000 0.031382
#
#
# Mechanical properties :
#
#
# Convention : Reuss Voigt Hill
#
# Bulk Modulus (GPa) = 45.09568 58.58257 51.83912
# Shear Modulus (GPa) = 25.57294 33.44510 29.50902
#
# Velocity S-wave (km/s) = 3.47782 3.97725 3.73589
# Velocity P-wave (km/s) = 6.12011 6.98563 6.56715
#
# Compressibility (1/GPa) = 0.02217507
#
# Stress axis : x y z
#
# Youngs Moduli (GPa) = 40.55523 42.57044 97.39112
#
# Poissons Ratio (x) = 0.51880 0.37742
# Poissons Ratio (y) = 0.49424 0.20047
# Poissons Ratio (z) = 0.15716 0.08763
#
# Static dielectric constant tensor:
#      x y z
#    x 1.808020 0.000000 0.022280 
#    y 0.000000 1.861580 0.000000 
#    z 0.022280 0.000000 1.767300 
# 
# From -- ./inp_files/54883.got.cif
#   From: 2010.05.17/outbox.cif.g08.bks.cpg/sg14_28_cif.got.tgz:54883.got - 2010.06.03 17:49:19.
