data_PCOD9251182
_publ_section_title
;
Structure prediction by ZEFSAII (Michael W. Deem and Ramdas Pophale) SiO2 
 PCOD9251182
Probable space group: P 21/C
;
_chemical_formula_sum "Si O2"
_cell_formula_units_Z 20
_cell_length_a 25.189470
_cell_length_b 4.969067
_cell_length_c 9.705412
_cell_angle_alpha 90.000000
_cell_angle_beta 142.803623
_cell_angle_gamma 90.000000
_cell_volume 734.411018
_symmetry_space_group_name_H-M "P 21/C"
_symmetry_group_IT_number 14
_symmetry_cell_setting 'monoclinic'
loop_
_space_group_symop_operation_xyz
x,y,z
-x,1/2+y,1/2-z
-x,-y,-z
x,1/2-y,1/2+z
loop_
_atom_site_type_symbol
_atom_site_label
_atom_site_fract_x
_atom_site_fract_y
_atom_site_fract_z
Si Si1 0.940809 0.857874 0.648415
Si Si2 0.354608 0.050573 0.201076
Si Si3 0.491002 0.698659 0.641178
Si Si4 0.802753 0.916580 0.576314
Si Si5 0.216305 0.794077 0.726050
O O1 0.892256 0.807666 0.694018
O O2 0.864433 0.005620 0.401830
O O3 0.014709 0.088070 0.812893
O O4 0.427167 0.251918 0.290008
O O5 0.405374 0.829245 0.395298
O O6 0.279148 0.221846 0.119287
O O7 0.306145 0.908105 0.972648
O O8 0.488731 0.395593 0.688091
O O9 0.799546 0.018719 0.726212
O O10 0.787328 0.180678 0.446094
#
# Coordination Sequence:
#
# PCOD9251182 Si02
#       5
#     4   4   4   4   4
#     4  10  26  49  75 115 157 208 260 329 389 461
#     4  11  26  46  77 110 159 207 259 324 394 471
#     4  11  28  48  76 113 159 203 261 322 394 476
#     4  10  26  46  77 112 154 206 263 319 388 468
#     4  10  26  44  79 110 155 207 262 322 386 472
#
# _framework density 27.232703000000001
#
# number of rings (size 3 to 8) (size 9 to 14) (size 15 to 20)
#    1.200    0.400    0.000    1.200   14.000    4.800 
#    0.000    0.000    0.000    0.000    0.000    0.000 
#    0.000    0.000    0.000    0.000    0.000    0.000 
#
# Total GULP energy -112139.354471 kJ/mol
# GULP energy per Si atom -5606.967724 kJ/mol
# Density = 2.717072 g / cm^3
# Si number density = 27.232703 Si / 1000 Ang^3
#
#
#
# Elastic Constant Matrix: (Units=GPa)
#
#
# Indices 1 2 3 4 5 6 
#
# 1 109.1869 34.5003 24.2676 0.0000 29.6224 0.0000
# 2 34.5003 104.5048 20.2543 0.0000 18.7344 0.0000
# 3 24.2676 20.2543 113.2503 0.0000 7.4432 0.0000
# 4 0.0000 0.0000 0.0000 36.8844 0.0000 -3.9344
# 5 29.6224 18.7344 7.4432 0.0000 49.9274 0.0000
# 6 0.0000 0.0000 0.0000 -3.9344 0.0000 42.3873
#
#
#
# Elastic Compliance Matrix: (Units=1/GPa)
#
#
# Indices 1 2 3 4 5 6 
#
# 1 0.011940 -0.002557 -0.001715 0.000000 -0.005869 0.000000
# 2 -0.002557 0.011101 -0.001276 0.000000 -0.002458 0.000000
# 3 -0.001715 -0.001276 0.009420 0.000000 0.000092 0.000000
# 4 0.000000 0.000000 0.000000 0.027383 0.000000 0.002542
# 5 -0.005869 -0.002458 0.000092 0.000000 0.024420 0.000000
# 6 0.000000 0.000000 0.000000 0.002542 0.000000 0.023828
#
#
# Mechanical properties :
#
#
# Convention : Reuss Voigt Hill
#
# Bulk Modulus (GPa) = 46.80817 53.88737 50.34777
# Shear Modulus (GPa) = 39.58520 42.36781 40.97651
#
# Velocity S-wave (km/s) = 3.81673 3.94860 3.88323
# Velocity P-wave (km/s) = 6.05383 6.37333 6.21563
#
# Compressibility (1/GPa) = 0.02136379
#
# Stress axis : x y z
#
# Youngs Moduli (GPa) = 83.75108 90.08131 106.16030
#
# Poissons Ratio (x) = 0.23036 0.18212
# Poissons Ratio (y) = 0.21417 0.13545
# Poissons Ratio (z) = 0.14367 0.11493
#
# Static dielectric constant tensor:
#      x y z
#    x 2.136720 0.000000 -0.050180 
#    y 0.000000 2.088800 0.000000 
#    z -0.050180 0.000000 2.180540 
# 
# From -- ./inp_files/36339.got.cif
#   From: 2010.05.17/outbox.cif.g08.bks.cpg/sg14_19_cif.got.tgz:36339.got - 2010.06.03 17:49:19.
