data_PCOD9251888
_publ_section_title
;
Structure prediction by ZEFSAII (Michael W. Deem and Ramdas Pophale) SiO2 
 PCOD9251888
Probable space group: P 21/C
;
_chemical_formula_sum "Si O2"
_cell_formula_units_Z 20
_cell_length_a 16.343192
_cell_length_b 14.342765
_cell_length_c 11.178533
_cell_angle_alpha 90.000000
_cell_angle_beta 157.308603
_cell_angle_gamma 90.000000
_cell_volume 1010.834919
_symmetry_space_group_name_H-M "P 21/C"
_symmetry_group_IT_number 14
_symmetry_cell_setting 'monoclinic'
loop_
_space_group_symop_operation_xyz
x,y,z
-x,1/2+y,1/2-z
-x,-y,-z
x,1/2-y,1/2+z
loop_
_atom_site_type_symbol
_atom_site_label
_atom_site_fract_x
_atom_site_fract_y
_atom_site_fract_z
Si Si1 0.830500 0.988271 0.599385
Si Si2 0.440401 0.642692 0.167848
Si Si3 0.764383 0.502501 0.732558
Si Si4 0.523044 0.358422 0.277837
Si Si5 0.311084 0.573527 0.744023
O O1 0.767132 0.970818 0.375522
O O2 0.694761 0.918062 0.501353
O O3 0.759040 0.093842 0.533861
O O4 0.079107 0.969858 0.948077
O O5 0.628103 0.574311 0.467335
O O6 0.508988 0.748773 0.276318
O O7 0.371667 0.637692 0.936963
O O8 0.658942 0.400741 0.571085
O O9 0.000000 0.500000 0.000000
O O10 0.664190 0.381831 0.352311
O O11 0.500000 0.500000 0.000000
#
# Coordination Sequence:
#
# PCOD9251888 Si02
#       5
#     4   4   4   4   4
#     4  11  24  46  69  92 139 177 212 274 336 383
#     4  11  25  41  69  98 133 173 221 274 326 393
#     4  11  22  46  66  94 135 177 214 271 332 392
#     4  11  25  42  66 102 131 171 227 265 331 395
#     4  12  23  46  67  96 133 173 223 274 324 391
#
# _framework density 19.785625
#
# number of rings (size 3 to 8) (size 9 to 14) (size 15 to 20)
#    0.000    0.800    6.000    3.000    5.600    1.600 
#    3.600    0.000    0.000    0.000    0.000    0.000 
#    0.000    0.000    0.000    0.000    0.000    0.000 
#
# Total GULP energy -111506.243832 kJ/mol
# GULP energy per Si atom -5575.312192 kJ/mol
# Density = 1.974059 g / cm^3
# Si number density = 19.785625 Si / 1000 Ang^3
#
#
#
# Elastic Constant Matrix: (Units=GPa)
#
#
# Indices 1 2 3 4 5 6 
#
# 1 99.5663 19.5570 30.0302 0.0000 11.7305 0.0000
# 2 19.5570 114.7024 32.5993 0.0000 9.1826 0.0000
# 3 30.0302 32.5993 106.7011 0.0000 21.9522 0.0000
# 4 0.0000 0.0000 0.0000 7.8865 0.0000 -5.9286
# 5 11.7305 9.1826 21.9522 0.0000 41.2133 0.0000
# 6 0.0000 0.0000 0.0000 -5.9286 0.0000 13.1007
#
#
#
# Elastic Compliance Matrix: (Units=1/GPa)
#
#
# Indices 1 2 3 4 5 6 
#
# 1 0.011196 -0.001071 -0.002490 0.000000 -0.001622 0.000000
# 2 -0.001071 0.009665 -0.002550 0.000000 -0.000490 0.000000
# 3 -0.002490 -0.002550 0.011893 0.000000 -0.005058 0.000000
# 4 0.000000 0.000000 0.000000 0.192176 0.000000 0.086967
# 5 -0.001622 -0.000490 -0.005058 0.000000 0.027529 0.000000
# 6 0.000000 0.000000 0.000000 0.086967 0.000000 0.115687
#
#
# Mechanical properties :
#
#
# Convention : Reuss Voigt Hill
#
# Bulk Modulus (GPa) = 48.71018 53.92699 51.31858
# Shear Modulus (GPa) = 12.91278 28.35899 20.63588
#
# Velocity S-wave (km/s) = 2.55744 3.79002 3.23301
# Velocity P-wave (km/s) = 5.77868 6.81668 6.31903
#
# Compressibility (1/GPa) = 0.02052959
#
# Stress axis : x y z
#
# Youngs Moduli (GPa) = 89.31681 103.46618 84.08641
#
# Poissons Ratio (x) = 0.11086 0.20938
# Poissons Ratio (y) = 0.09570 0.21446
# Poissons Ratio (z) = 0.22241 0.26389
#
# Static dielectric constant tensor:
#      x y z
#    x 1.994930 0.000000 -0.091860 
#    y 0.000000 1.712230 0.000000 
#    z -0.091860 0.000000 1.730520 
# 
# From -- ./inp_files/34070.got.cif
#   From: 2010.05.17/outbox.cif.g08.bks.cpg/sg14_18_cif.got.tgz:34070.got - 2010.06.03 17:49:19.
