data_PCOD9251221
_publ_section_title
;
Structure prediction by ZEFSAII (Michael W. Deem and Ramdas Pophale) SiO2 
 PCOD9251221
Probable space group: P 21/C
;
_chemical_formula_sum "Si O2"
_cell_formula_units_Z 30
_cell_length_a 18.914229
_cell_length_b 5.098665
_cell_length_c 16.159315
_cell_angle_alpha 90.000000
_cell_angle_beta 56.159855
_cell_angle_gamma 90.000000
_cell_volume 1294.366051
_symmetry_space_group_name_H-M "P 21/C"
_symmetry_group_IT_number 14
_symmetry_cell_setting 'monoclinic'
loop_
_space_group_symop_operation_xyz
x,y,z
-x,1/2+y,1/2-z
-x,-y,-z
x,1/2-y,1/2+z
loop_
_atom_site_type_symbol
_atom_site_label
_atom_site_fract_x
_atom_site_fract_y
_atom_site_fract_z
Si Si1 0.158999 0.357712 0.888182
Si Si2 0.506904 0.250350 0.552415
Si Si3 0.555116 0.756623 0.737129
Si Si4 0.700728 0.278549 0.950912
Si Si5 0.266054 0.217237 0.973687
Si Si6 0.022841 0.964188 0.789282
Si Si7 0.197504 0.865354 0.762046
Si Si8 0.000000 0.500000 0.500000
O O1 0.197127 0.318203 0.953816
O O2 0.166989 0.655491 0.851050
O O3 0.063810 0.249934 0.945325
O O4 0.208715 0.147780 0.797078
O O5 0.500000 0.500000 0.500000
O O6 0.437174 0.240716 0.669337
O O7 0.600683 0.257447 0.530871
O O8 0.500000 0.000000 0.500000
O O9 0.488625 0.533354 0.753702
O O10 0.643873 0.719169 0.633439
O O11 0.723173 0.252197 0.839798
O O12 0.724909 0.571656 0.959904
O O13 0.748060 0.066153 0.976919
O O14 0.120935 0.891034 0.746169
O O15 0.984089 0.732226 0.758314
O O16 0.984217 0.987222 0.906988
#
# Coordination Sequence:
#
# PCOD9251221 Si02
#       8
#     4   4   4   4   4   4   4   2
#     4  11  26  46  72 104 135 188 227 297 366 417
#     4  12  26  42  67  97 132 186 229 287 357 409
#     4  12  23  45  66  94 136 173 233 289 333 415
#     4  12  26  45  67 101 142 178 236 291 343 435
#     4  12  25  44  70 101 134 190 234 286 363 420
#     4  11  25  44  74 103 138 189 234 291 369 428
#     4  11  26  46  67 104 143 173 231 297 348 428
#     4  10  26  48  74 104 150 178 250 302 354 454
#
# _framework density 23.177368000000001
#
# number of rings (size 3 to 8) (size 9 to 14) (size 15 to 20)
#    0.000    0.533    2.667    4.800    7.467    4.800 
#    0.000    0.000    0.000    0.000    0.000    0.000 
#    0.000    0.000    0.000    0.000    0.000    0.000 
#
# Total GULP energy -167470.792835 kJ/mol
# GULP energy per Si atom -5582.359761 kJ/mol
# Density = 2.312462 g / cm^3
# Si number density = 23.177368 Si / 1000 Ang^3
#
#
#
# Elastic Constant Matrix: (Units=GPa)
#
#
# Indices 1 2 3 4 5 6 
#
# 1 63.3582 -14.8409 -10.4173 0.0000 12.2625 0.0000
# 2 -14.8409 173.5348 20.2615 0.0000 26.4882 0.0000
# 3 -10.4173 20.2615 97.7037 0.0000 24.6905 0.0000
# 4 0.0000 0.0000 0.0000 39.0626 0.0000 18.1521
# 5 12.2625 26.4882 24.6905 0.0000 37.7106 0.0000
# 6 0.0000 0.0000 0.0000 18.1521 0.0000 33.7055
#
#
#
# Elastic Compliance Matrix: (Units=1/GPa)
#
#
# Indices 1 2 3 4 5 6 
#
# 1 0.019289 0.002840 0.004262 0.000000 -0.011058 0.000000
# 2 0.002840 0.006877 0.000396 0.000000 -0.006013 0.000000
# 3 0.004262 0.000396 0.013214 0.000000 -0.010316 0.000000
# 4 0.000000 0.000000 0.000000 0.034145 0.000000 -0.018389
# 5 -0.011058 -0.006013 -0.010316 0.000000 0.041092 0.000000
# 6 0.000000 0.000000 0.000000 -0.018389 0.000000 0.039572
#
#
# Mechanical properties :
#
#
# Convention : Reuss Voigt Hill
#
# Bulk Modulus (GPa) = 18.39010 36.06703 27.22857
# Shear Modulus (GPa) = 31.78267 44.73531 38.25899
#
# Velocity S-wave (km/s) = 3.70710 4.39809 4.06729
# Velocity P-wave (km/s) = 5.12593 6.43320 5.81641
#
# Compressibility (1/GPa) = 0.05437708
#
# Stress axis : x y z
#
# Youngs Moduli (GPa) = 51.84203 145.41210 75.67598
#
# Poissons Ratio (x) = -0.41295 -0.32254
# Poissons Ratio (y) = -0.14722 -0.02999
# Poissons Ratio (z) = -0.22096 -0.05762
#
# Static dielectric constant tensor:
#      x y z
#    x 1.918850 0.000000 -0.050330 
#    y 0.000000 1.829950 0.000000 
#    z -0.050330 0.000000 1.939700 
# 
# From -- ./inp_files/48124.got.cif
#   From: 2010.05.17/outbox.cif.g08.bks.cpg/sg14_25_cif.got.tgz:48124.got - 2010.06.03 17:49:19.
