data_PCOD9251955
_publ_section_title
;
Structure prediction by ZEFSAII (Michael W. Deem and Ramdas Pophale) SiO2 
 PCOD9251955
Probable space group: P 21/C
;
_chemical_formula_sum "Si O2"
_cell_formula_units_Z 28
_cell_length_a 17.130635
_cell_length_b 4.949786
_cell_length_c 25.773779
_cell_angle_alpha 90.000000
_cell_angle_beta 34.108526
_cell_angle_gamma 90.000000
_cell_volume 1225.509616
_symmetry_space_group_name_H-M "P 21/C"
_symmetry_group_IT_number 14
_symmetry_cell_setting 'monoclinic'
loop_
_space_group_symop_operation_xyz
x,y,z
-x,1/2+y,1/2-z
-x,-y,-z
x,1/2-y,1/2+z
loop_
_atom_site_type_symbol
_atom_site_label
_atom_site_fract_x
_atom_site_fract_y
_atom_site_fract_z
Si Si1 0.004735 0.244020 0.459239
Si Si2 0.723540 0.462060 0.499567
Si Si3 0.412702 0.755233 0.026960
Si Si4 0.483304 0.822985 0.796013
Si Si5 0.708556 0.856790 0.256576
Si Si6 0.781130 0.133386 0.779412
Si Si7 0.898825 0.999050 0.415481
O O1 0.146161 0.291519 0.350783
O O2 0.000000 0.500000 0.500000
O O3 0.000000 0.000000 0.500000
O O4 0.901050 0.126998 0.472267
O O5 0.615144 0.340713 0.517144
O O6 0.648397 0.415321 0.596642
O O7 0.782608 0.768819 0.468486
O O8 0.855881 0.275424 0.411457
O O9 0.266664 0.762425 0.138480
O O10 0.500000 0.500000 0.000000
O O11 0.500000 0.000000 0.000000
O O12 0.459470 0.582211 0.767502
O O13 0.592317 0.707047 0.778134
O O14 0.713825 0.656039 0.302798
O O15 0.715252 0.160855 0.273592
O O16 0.947840 0.113709 0.681103
#
# Coordination Sequence:
#
# PCOD9251955 Si02
#       7
#     4   4   4   4   4   4   4
#     4  11  23  39  68  97 133 187 235 286 336 422
#     4  12  26  45  69 103 143 179 235 296 353 428
#     4  12  26  46  77 104 134 186 241 291 351 428
#     4  12  27  43  65  93 136 186 226 289 352 413
#     4  11  24  44  66  99 131 180 234 285 347 412
#     4  11  23  46  71 100 138 176 229 291 353 421
#     4  11  25  43  68 104 146 178 226 291 360 420
#
# _framework density 22.847638
#
# number of rings (size 3 to 8) (size 9 to 14) (size 15 to 20)
#    0.000    0.571    0.000    9.429    6.000    1.143 
#    0.000    0.000    0.000    0.000    0.000    0.000 
#    0.000    0.000    0.000    0.000    0.000    0.000 
#
# Total GULP energy -156128.195632 kJ/mol
# GULP energy per Si atom -5576.006987 kJ/mol
# Density = 2.279564 g / cm^3
# Si number density = 22.847638 Si / 1000 Ang^3
#
#
#
# Elastic Constant Matrix: (Units=GPa)
#
#
# Indices 1 2 3 4 5 6 
#
# 1 64.4329 14.0062 4.3779 0.0000 15.3283 0.0000
# 2 14.0062 151.6916 17.6263 0.0000 2.5532 0.0000
# 3 4.3779 17.6263 100.4499 0.0000 23.6350 0.0000
# 4 0.0000 0.0000 0.0000 28.3652 0.0000 -1.8969
# 5 15.3283 2.5532 23.6350 0.0000 22.1256 0.0000
# 6 0.0000 0.0000 0.0000 -1.8969 0.0000 45.6686
#
#
#
# Elastic Compliance Matrix: (Units=1/GPa)
#
#
# Indices 1 2 3 4 5 6 
#
# 1 0.019817 -0.001951 0.003548 0.000000 -0.017294 0.000000
# 2 -0.001951 0.006929 -0.001684 0.000000 0.002351 0.000000
# 3 0.003548 -0.001684 0.014197 0.000000 -0.017429 0.000000
# 4 0.000000 0.000000 0.000000 0.035353 0.000000 0.001468
# 5 -0.017294 0.002351 -0.017429 0.000000 0.075524 0.000000
# 6 0.000000 0.000000 0.000000 0.001468 0.000000 0.021958
#
#
# Mechanical properties :
#
#
# Convention : Reuss Voigt Hill
#
# Bulk Modulus (GPa) = 24.52884 43.17723 33.85304
# Shear Modulus (GPa) = 26.66090 37.93615 32.29852
#
# Velocity S-wave (km/s) = 3.41970 4.07922 3.76393
# Velocity P-wave (km/s) = 5.13338 6.41293 5.80849
#
# Compressibility (1/GPa) = 0.04076833
#
# Stress axis : x y z
#
# Youngs Moduli (GPa) = 50.46137 144.33021 70.43781
#
# Poissons Ratio (x) = 0.28158 -0.24989
# Poissons Ratio (y) = 0.09845 0.11861
# Poissons Ratio (z) = -0.17902 0.24303
#
# Static dielectric constant tensor:
#      x y z
#    x 1.940950 0.000000 -0.000780 
#    y 0.000000 1.817990 0.000000 
#    z -0.000780 0.000000 1.934480 
# 
# From -- ./inp_files/67818.got.cif
#   From: 2010.05.17/outbox.cif.g08.bks.cpg/sg14_34_cif.got.tgz:67818.got - 2010.06.03 17:49:19.
