data_PCOD9251421
_publ_section_title
;
Structure prediction by ZEFSAII (Michael W. Deem and Ramdas Pophale) SiO2 
 PCOD9251421
Probable space group: P 21/C
;
_chemical_formula_sum "Si O2"
_cell_formula_units_Z 28
_cell_length_a 16.221601
_cell_length_b 10.214655
_cell_length_c 20.351646
_cell_angle_alpha 90.000000
_cell_angle_beta 18.486739
_cell_angle_gamma 90.000000
_cell_volume 1069.283524
_symmetry_space_group_name_H-M "P 21/C"
_symmetry_group_IT_number 14
_symmetry_cell_setting 'monoclinic'
loop_
_space_group_symop_operation_xyz
x,y,z
-x,1/2+y,1/2-z
-x,-y,-z
x,1/2-y,1/2+z
loop_
_atom_site_type_symbol
_atom_site_label
_atom_site_fract_x
_atom_site_fract_y
_atom_site_fract_z
Si Si1 0.068402 0.359221 0.371336
Si Si2 0.420929 0.542603 0.945656
Si Si3 0.435357 0.511711 0.450440
Si Si4 0.997599 0.639367 0.355541
Si Si5 0.656473 0.278224 0.794240
Si Si6 0.480850 0.956506 0.245219
Si Si7 0.098116 0.086822 0.310731
O O1 0.336783 0.376160 0.208286
O O2 0.006215 0.499506 0.387404
O O3 0.848998 0.319906 0.589994
O O4 0.075682 0.241333 0.314082
O O5 0.459771 0.400229 0.949551
O O6 0.447725 0.522966 0.847818
O O7 0.159401 0.614445 0.167068
O O8 0.519951 0.358722 0.386092
O O9 0.404073 0.552665 0.398431
O O10 0.181305 0.505811 0.687747
O O11 0.669894 0.578951 0.311745
O O12 0.163461 0.732129 0.277190
O O13 0.690208 0.663739 0.582404
O O14 0.181038 0.949502 0.450063
#
# Coordination Sequence:
#
# PCOD9251421 Si02
#       7
#     4   4   4   4   4   4   4
#     4  11  20  43  71  94 128 171 214 263 320 381
#     4  11  22  41  69  99 128 164 216 269 322 373
#     4  11  25  46  67  91 130 177 218 256 316 391
#     4  11  22  41  69  99 128 164 216 269 322 373
#     4  11  20  43  71  94 128 171 214 263 320 381
#     4  12  23  41  62  95 132 165 210 267 319 368
#     4  11  25  46  67  91 130 177 218 256 316 391
#
# _framework density 26.185759999999998
#
# number of rings (size 3 to 8) (size 9 to 14) (size 15 to 20)
#    0.000    0.857    4.286    5.571    0.000    0.000 
#   10.286    0.000    0.000    0.000    0.000    0.000 
#    0.000    0.000    0.000    0.000    0.000    0.000 
#
# Total GULP energy -156644.355306 kJ/mol
# GULP energy per Si atom -5594.441261 kJ/mol
# Density = 2.612616 g / cm^3
# Si number density = 26.185760 Si / 1000 Ang^3
#
#
#
# Elastic Constant Matrix: (Units=GPa)
#
#
# Indices 1 2 3 4 5 6 
#
# 1 105.6353 -16.5177 31.0705 0.0000 16.1283 0.0000
# 2 -16.5177 63.2556 5.5811 0.0000 6.6965 0.0000
# 3 31.0705 5.5811 159.2880 0.0000 15.9339 0.0000
# 4 0.0000 0.0000 0.0000 18.7979 0.0000 5.5995
# 5 16.1283 6.6965 15.9339 0.0000 42.2185 0.0000
# 6 0.0000 0.0000 0.0000 5.5995 0.0000 18.9972
#
#
#
# Elastic Compliance Matrix: (Units=1/GPa)
#
#
# Indices 1 2 3 4 5 6 
#
# 1 0.011206 0.003530 -0.001897 0.000000 -0.004125 0.000000
# 2 0.003530 0.017207 -0.000918 0.000000 -0.003731 0.000000
# 3 -0.001897 -0.000918 0.006852 0.000000 -0.001716 0.000000
# 4 0.000000 0.000000 0.000000 0.058318 0.000000 -0.017189
# 5 -0.004125 -0.003731 -0.001716 0.000000 0.026501 0.000000
# 6 0.000000 0.000000 0.000000 -0.017189 0.000000 0.057706
#
#
# Mechanical properties :
#
#
# Convention : Reuss Voigt Hill
#
# Bulk Modulus (GPa) = 27.25164 40.93852 34.09508
# Shear Modulus (GPa) = 26.51233 36.53905 31.52569
#
# Velocity S-wave (km/s) = 3.18539 3.73953 3.47353
# Velocity P-wave (km/s) = 4.89475 5.85775 5.39777
#
# Compressibility (1/GPa) = 0.03669504
#
# Stress axis : x y z
#
# Youngs Moduli (GPa) = 89.23550 58.11671 145.94822
#
# Poissons Ratio (x) = -0.20517 0.27686
# Poissons Ratio (y) = -0.31503 0.13402
# Poissons Ratio (z) = 0.16927 0.05337
#
# Static dielectric constant tensor:
#      x y z
#    x 2.135810 0.000000 -0.017780 
#    y 0.000000 2.055920 0.000000 
#    z -0.017780 0.000000 2.082860 
# 
# From -- ./inp_files/69375.got.cif
#   From: 2010.05.17/outbox.cif.g08.bks.cpg/sg14_35_cif.got.tgz:69375.got - 2010.06.03 17:49:19.
