data_PCOD9251760
_publ_section_title
;
Structure prediction by ZEFSAII (Michael W. Deem and Ramdas Pophale) SiO2 
 PCOD9251760
Probable space group: P 21/C
;
_chemical_formula_sum "Si O2"
_cell_formula_units_Z 32
_cell_length_a 19.113706
_cell_length_b 8.661770
_cell_length_c 8.444683
_cell_angle_alpha 90.000000
_cell_angle_beta 84.628453
_cell_angle_gamma 90.000000
_cell_volume 1391.949661
_symmetry_space_group_name_H-M "P 21/C"
_symmetry_group_IT_number 14
_symmetry_cell_setting 'monoclinic'
loop_
_space_group_symop_operation_xyz
x,y,z
-x,1/2+y,1/2-z
-x,-y,-z
x,1/2-y,1/2+z
loop_
_atom_site_type_symbol
_atom_site_label
_atom_site_fract_x
_atom_site_fract_y
_atom_site_fract_z
Si Si1 0.707227 0.365767 0.515933
Si Si2 0.145919 0.166722 0.608659
Si Si3 0.149497 0.961807 0.114408
Si Si4 0.714300 0.466171 0.879743
Si Si5 0.574191 0.940983 0.922598
Si Si6 0.056754 0.942427 0.858229
Si Si7 0.429569 0.090539 0.457834
Si Si8 0.948109 0.938081 0.641409
O O1 0.769894 0.424456 0.390547
O O2 0.719205 0.416460 0.694742
O O3 0.715195 0.183162 0.492674
O O4 0.635268 0.444301 0.471730
O O5 0.146672 0.351415 0.621626
O O6 0.002440 0.857537 0.751535
O O7 0.110678 0.148258 0.445204
O O8 0.222737 0.087113 0.599741
O O9 0.094539 0.924337 0.263355
O O10 0.118992 0.886129 0.960281
O O11 0.637189 0.529106 0.931502
O O12 0.577310 0.931903 0.730496
O O13 0.575058 0.771032 0.998856
O O14 0.500000 0.000000 0.000000
O O15 0.097172 0.070745 0.742606
O O16 0.000000 0.000000 0.000000
O O17 0.500000 0.000000 0.500000
O O18 0.000000 0.000000 0.500000
#
# Coordination Sequence:
#
# PCOD9251760 Si02
#       8
#     4   4   4   4   4   4   4   4
#     4  12  27  47  69 102 146 195 239 299 356 429
#     4  11  22  41  69 101 130 179 234 297 356 430
#     4  11  22  41  71  97 136 175 237 294 362 427
#     4  12  27  47  69 101 148 191 245 293 362 424
#     4  12  26  48  79 114 152 193 242 291 351 414
#     4   9  19  42  62  95 133 174 222 289 356 428
#     4  12  26  48  79 114 152 194 240 293 349 417
#     4   9  21  38  66  93 135 170 228 285 363 428
#
# _framework density 22.989338
#
# number of rings (size 3 to 8) (size 9 to 14) (size 15 to 20)
#    0.000    1.000    1.250    5.250    3.500    0.000 
#    0.000   25.000    0.000    0.000    0.000    0.000 
#    0.000    0.000    0.000    0.000    0.000    0.000 
#
# Total GULP energy -178649.801996 kJ/mol
# GULP energy per Si atom -5582.806312 kJ/mol
# Density = 2.293701 g / cm^3
# Si number density = 22.989338 Si / 1000 Ang^3
#
#
#
# Elastic Constant Matrix: (Units=GPa)
#
#
# Indices 1 2 3 4 5 6 
#
# 1 179.6167 34.8183 38.3641 0.0000 -23.9730 0.0000
# 2 34.8183 62.9127 16.2987 0.0000 -5.6554 0.0000
# 3 38.3641 16.2987 115.3457 0.0000 -1.9971 0.0000
# 4 0.0000 0.0000 0.0000 29.5707 0.0000 -0.9799
# 5 -23.9730 -5.6554 -1.9971 0.0000 44.8508 0.0000
# 6 0.0000 0.0000 0.0000 -0.9799 0.0000 37.4939
#
#
#
# Elastic Compliance Matrix: (Units=1/GPa)
#
#
# Indices 1 2 3 4 5 6 
#
# 1 0.006996 -0.003104 -0.001832 0.000000 0.003267 0.000000
# 2 -0.003104 0.018053 -0.001509 0.000000 0.000550 0.000000
# 3 -0.001832 -0.001509 0.009479 0.000000 -0.000747 0.000000
# 4 0.000000 0.000000 0.000000 0.033847 0.000000 0.000885
# 5 0.003267 0.000550 -0.000747 0.000000 0.024078 0.000000
# 6 0.000000 0.000000 0.000000 0.000885 0.000000 0.026694
#
#
# Mechanical properties :
#
#
# Convention : Reuss Voigt Hill
#
# Bulk Modulus (GPa) = 46.21252 59.64860 52.93056
# Shear Modulus (GPa) = 35.90656 40.27601 38.09128
#
# Velocity S-wave (km/s) = 3.95635 4.19016 4.07493
# Velocity P-wave (km/s) = 6.40434 7.02940 6.72414
#
# Compressibility (1/GPa) = 0.02163916
#
# Stress axis : x y z
#
# Youngs Moduli (GPa) = 142.93208 55.39176 105.49444
#
# Poissons Ratio (x) = 0.17193 0.19325
# Poissons Ratio (y) = 0.44363 0.15920
# Poissons Ratio (z) = 0.26183 0.08359
#
# Static dielectric constant tensor:
#      x y z
#    x 1.864430 0.000000 -0.019020 
#    y 0.000000 1.695910 0.000000 
#    z -0.019020 0.000000 1.930690 
# 
# From -- ./inp_files/18618.got.cif
#   From: 2010.05.17/outbox.cif.g08.bks.cpg/sg14_10_cif.got.tgz:18618.got - 2010.06.03 17:49:19.
