data_PCOD9251645
_publ_section_title
;
Structure prediction by ZEFSAII (Michael W. Deem and Ramdas Pophale) SiO2 
 PCOD9251645
Probable space group: P 21/C
;
_chemical_formula_sum "Si O2"
_cell_formula_units_Z 20
_cell_length_a 8.615971
_cell_length_b 8.673562
_cell_length_c 10.759760
_cell_angle_alpha 90.000000
_cell_angle_beta 99.844615
_cell_angle_gamma 90.000000
_cell_volume 792.249166
_symmetry_space_group_name_H-M "P 21/C"
_symmetry_group_IT_number 14
_symmetry_cell_setting 'monoclinic'
loop_
_space_group_symop_operation_xyz
x,y,z
-x,1/2+y,1/2-z
-x,-y,-z
x,1/2-y,1/2+z
loop_
_atom_site_type_symbol
_atom_site_label
_atom_site_fract_x
_atom_site_fract_y
_atom_site_fract_z
Si Si1 0.223860 0.679432 0.427662
Si Si2 0.486035 0.183707 0.685883
Si Si3 0.958367 0.059545 0.690236
Si Si4 0.769844 0.473011 0.926891
Si Si5 0.714222 0.520852 0.363311
O O1 0.373693 0.730448 0.367689
O O2 0.074139 0.757981 0.339700
O O3 0.237259 0.510538 0.487057
O O4 0.230645 0.791277 0.550781
O O5 0.399647 0.048222 0.598731
O O6 0.351583 0.311938 0.682000
O O7 0.567708 0.092444 0.809314
O O8 0.865697 0.018452 0.800709
O O9 0.137431 0.017556 0.685602
O O10 0.864870 0.974038 0.563256
#
# Coordination Sequence:
#
# PCOD9251645 Si02
#       5
#     4   4   4   4   4
#     4   9  19  37  56  78 114 139 178 229 263 318
#     4  11  22  34  57  83 110 143 181 225 269 319
#     4   8  20  37  60  75 110 149 177 213 279 322
#     4   9  18  39  57  76 108 149 175 220 271 320
#     4  11  22  35  55  87 107 144 183 223 268 323
#
# _framework density 25.244582999999999
#
# number of rings (size 3 to 8) (size 9 to 14) (size 15 to 20)
#    1.200    1.200    0.000    2.400    2.800    1.600 
#    0.000    1.000    0.000    0.000    0.000    0.000 
#    0.000    0.000    0.000    0.000    0.000    0.000 
#
# Total GULP energy -111583.699610 kJ/mol
# GULP energy per Si atom -5579.184980 kJ/mol
# Density = 2.518713 g / cm^3
# Si number density = 25.244583 Si / 1000 Ang^3
#
#
#
# Elastic Constant Matrix: (Units=GPa)
#
#
# Indices 1 2 3 4 5 6 
#
# 1 53.4438 13.3510 9.2946 0.0000 2.8442 0.0000
# 2 13.3510 57.7704 -11.8388 0.0000 -2.8156 0.0000
# 3 9.2946 -11.8388 44.7745 0.0000 -14.7120 0.0000
# 4 0.0000 0.0000 0.0000 23.0706 0.0000 1.7142
# 5 2.8442 -2.8156 -14.7120 0.0000 22.6294 0.0000
# 6 0.0000 0.0000 0.0000 1.7142 0.0000 30.7385
#
#
#
# Elastic Compliance Matrix: (Units=1/GPa)
#
#
# Indices 1 2 3 4 5 6 
#
# 1 0.023084 -0.007987 -0.010407 0.000000 -0.010661 0.000000
# 2 -0.007987 0.021952 0.011050 0.000000 0.010919 0.000000
# 3 -0.010407 0.011050 0.035985 0.000000 0.026077 0.000000
# 4 0.000000 0.000000 0.000000 0.043525 0.000000 -0.002427
# 5 -0.010661 0.010919 0.026077 0.000000 0.063842 0.000000
# 6 0.000000 0.000000 0.000000 -0.002427 0.000000 0.032668
#
#
# Mechanical properties :
#
#
# Convention : Reuss Voigt Hill
#
# Bulk Modulus (GPa) = 15.07513 19.73360 17.40437
# Shear Modulus (GPa) = 19.39079 24.96651 22.17865
#
# Velocity S-wave (km/s) = 2.77450 3.14822 2.96725
# Velocity P-wave (km/s) = 4.03093 4.58792 4.31841
#
# Compressibility (1/GPa) = 0.06633441
#
# Stress axis : x y z
#
# Youngs Moduli (GPa) = 43.32074 45.55311 27.78959
#
# Poissons Ratio (x) = 0.36383 0.28919
# Poissons Ratio (y) = 0.34600 -0.30708
# Poissons Ratio (z) = 0.45082 -0.50337
#
# Static dielectric constant tensor:
#      x y z
#    x 1.986710 0.000000 0.054980 
#    y 0.000000 2.053500 0.000000 
#    z 0.054980 0.000000 2.058100 
# 
# From -- ./inp_files/23132.got.cif
#   From: 2010.05.17/outbox.cif.g08.bks.cpg/sg14_12_cif.got.tgz:23132.got - 2010.06.03 17:49:19.
