data_PCOD9251557
_publ_section_title
;
Structure prediction by ZEFSAII (Michael W. Deem and Ramdas Pophale) SiO2 
 PCOD9251557
Probable space group: P 21/C
;
_chemical_formula_sum "Si O2"
_cell_formula_units_Z 24
_cell_length_a 9.473647
_cell_length_b 7.782571
_cell_length_c 21.202627
_cell_angle_alpha 90.000000
_cell_angle_beta 131.901225
_cell_angle_gamma 90.000000
_cell_volume 1163.526791
_symmetry_space_group_name_H-M "P 21/C"
_symmetry_group_IT_number 14
_symmetry_cell_setting 'monoclinic'
loop_
_space_group_symop_operation_xyz
x,y,z
-x,1/2+y,1/2-z
-x,-y,-z
x,1/2-y,1/2+z
loop_
_atom_site_type_symbol
_atom_site_label
_atom_site_fract_x
_atom_site_fract_y
_atom_site_fract_z
Si Si1 0.422643 0.638848 0.682960
Si Si2 0.279172 0.088420 0.253013
Si Si3 0.290168 0.128351 0.039293
Si Si4 0.921262 0.309718 0.979366
Si Si5 0.419776 0.597079 0.915429
Si Si6 0.154454 0.853409 0.908519
O O1 0.624235 0.731331 0.737974
O O2 0.369382 0.553538 0.733173
O O3 0.392687 0.492764 0.620965
O O4 0.264944 0.781757 0.618360
O O5 0.054181 0.096473 0.176996
O O6 0.333016 0.035794 0.339800
O O7 0.408324 0.299619 0.064673
O O8 0.083216 0.179730 0.003175
O O9 0.264419 0.021692 0.966871
O O10 0.870645 0.259356 0.035544
O O11 0.000000 0.500000 0.000000
O O12 0.268906 0.740696 0.892647
O O13 0.500000 0.500000 0.000000
#
# Coordination Sequence:
#
# PCOD9251557 Si02
#       6
#     4   4   4   4   4   4
#     4  11  23  42  69 100 135 171 230 287 331 395
#     4  12  25  43  66 103 140 174 231 286 339 395
#     4  11  21  46  71  94 131 179 226 279 329 405
#     4  11  21  41  72  99 128 176 223 276 332 402
#     4  12  27  45  65  98 140 182 225 268 345 416
#     4  11  24  44  67  98 136 174 227 276 338 398
#
# _framework density 20.626942
#
# number of rings (size 3 to 8) (size 9 to 14) (size 15 to 20)
#    0.000    0.667    3.333    6.500    2.333    2.667 
#    3.000    0.000    0.000    0.000    0.000    0.000 
#    0.000    0.000    0.000    0.000    0.000    0.000 
#
# Total GULP energy -134345.005602 kJ/mol
# GULP energy per Si atom -5597.708567 kJ/mol
# Density = 2.057999 g / cm^3
# Si number density = 20.626942 Si / 1000 Ang^3
#
#
#
# Elastic Constant Matrix: (Units=GPa)
#
#
# Indices 1 2 3 4 5 6 
#
# 1 58.9993 -13.7476 7.0719 0.0000 3.5664 0.0000
# 2 -13.7476 53.1797 5.5927 0.0000 -1.0590 0.0000
# 3 7.0719 5.5927 101.4669 0.0000 -11.3544 0.0000
# 4 0.0000 0.0000 0.0000 21.8637 0.0000 4.7443
# 5 3.5664 -1.0590 -11.3544 0.0000 25.0665 0.0000
# 6 0.0000 0.0000 0.0000 4.7443 0.0000 43.0677
#
#
#
# Elastic Compliance Matrix: (Units=1/GPa)
#
#
# Indices 1 2 3 4 5 6 
#
# 1 0.018529 0.004927 -0.001933 0.000000 -0.003303 0.000000
# 2 0.004927 0.020227 -0.001518 0.000000 -0.000534 0.000000
# 3 -0.001933 -0.001518 0.010637 0.000000 0.005029 0.000000
# 4 0.000000 0.000000 0.000000 0.046858 0.000000 -0.005162
# 5 -0.003303 -0.000534 0.005029 0.000000 0.042619 0.000000
# 6 0.000000 0.000000 0.000000 -0.005162 0.000000 0.023788
#
#
# Mechanical properties :
#
#
# Convention : Reuss Voigt Hill
#
# Bulk Modulus (GPa) = 19.10374 23.49775 21.30075
# Shear Modulus (GPa) = 28.22424 32.31485 30.26954
#
# Velocity S-wave (km/s) = 3.70309 3.96237 3.83492
# Velocity P-wave (km/s) = 5.25029 5.68773 5.47338
#
# Compressibility (1/GPa) = 0.05234577
#
# Stress axis : x y z
#
# Youngs Moduli (GPa) = 53.96984 49.43890 94.01545
#
# Poissons Ratio (x) = -0.24361 0.18170
# Poissons Ratio (y) = -0.26593 0.14272
# Poissons Ratio (z) = 0.10431 0.07505
#
# Static dielectric constant tensor:
#      x y z
#    x 1.713530 0.000000 -0.000670 
#    y 0.000000 1.734490 0.000000 
#    z -0.000670 0.000000 1.710300 
# 
# From -- ./inp_files/64731.got.cif
#   From: 2010.05.17/outbox.cif.g08.bks.cpg/sg14_33_cif.got.tgz:64731.got - 2010.06.03 17:49:19.
