data_PCOD9251367
_publ_section_title
;
Structure prediction by ZEFSAII (Michael W. Deem and Ramdas Pophale) SiO2 
 PCOD9251367
Probable space group: P 21/C
;
_chemical_formula_sum "Si O2"
_cell_formula_units_Z 20
_cell_length_a 6.945984
_cell_length_b 18.860498
_cell_length_c 9.123155
_cell_angle_alpha 90.000000
_cell_angle_beta 51.154452
_cell_angle_gamma 90.000000
_cell_volume 930.850655
_symmetry_space_group_name_H-M "P 21/C"
_symmetry_group_IT_number 14
_symmetry_cell_setting 'monoclinic'
loop_
_space_group_symop_operation_xyz
x,y,z
-x,1/2+y,1/2-z
-x,-y,-z
x,1/2-y,1/2+z
loop_
_atom_site_type_symbol
_atom_site_label
_atom_site_fract_x
_atom_site_fract_y
_atom_site_fract_z
Si Si1 0.814463 0.328251 0.482057
Si Si2 0.943010 0.034458 0.373582
Si Si3 0.803787 0.551424 0.680786
Si Si4 0.381923 0.398565 0.508526
Si Si5 0.103591 0.682205 0.224218
O O1 0.611753 0.373422 0.491402
O O2 0.847014 0.253310 0.387230
O O3 0.762418 0.320394 0.681366
O O4 0.061534 0.374558 0.353710
O O5 0.838424 0.114169 0.405382
O O6 0.216941 0.043293 0.171266
O O7 0.775062 0.986248 0.349023
O O8 0.000000 0.000000 0.500000
O O9 0.588303 0.569857 0.668795
O O10 0.000000 0.500000 0.500000
O O11 0.186975 0.332045 0.598766
#
# Coordination Sequence:
#
# PCOD9251367 Si02
#       5
#     4   4   4   4   4
#     4  11  20  38  60  84 119 157 199 235 298 354
#     4   9  19  40  60  85 121 151 191 250 294 333
#     4   9  18  37  60  83 116 153 189 242 291 348
#     4   8  20  38  59  84 113 152 197 230 296 348
#     4   9  23  37  57  85 120 151 194 245 284 354
#
# _framework density 21.485723
#
# number of rings (size 3 to 8) (size 9 to 14) (size 15 to 20)
#    1.200    1.600    2.000    0.000    2.800    6.400 
#    0.000    3.000    4.400    0.000    0.000    0.000 
#    0.000    0.000    0.000    0.000    0.000    0.000 
#
# Total GULP energy -111405.630771 kJ/mol
# GULP energy per Si atom -5570.281539 kJ/mol
# Density = 2.143682 g / cm^3
# Si number density = 21.485723 Si / 1000 Ang^3
#
#
#
# Elastic Constant Matrix: (Units=GPa)
#
#
# Indices 1 2 3 4 5 6 
#
# 1 119.9786 50.0631 43.1821 0.0000 43.7792 0.0000
# 2 50.0631 155.2624 69.1685 0.0000 42.1668 0.0000
# 3 43.1821 69.1685 36.9557 0.0000 25.0024 0.0000
# 4 0.0000 0.0000 0.0000 37.7398 0.0000 13.3085
# 5 43.7792 42.1668 25.0024 0.0000 35.0565 0.0000
# 6 0.0000 0.0000 0.0000 13.3085 0.0000 32.6203
#
#
#
# Elastic Compliance Matrix: (Units=1/GPa)
#
#
# Indices 1 2 3 4 5 6 
#
# 1 0.035554 0.039050 -0.102062 0.000000 -0.018579 0.000000
# 2 0.039050 0.083505 -0.195129 0.000000 -0.010042 0.000000
# 3 -0.102062 -0.195129 0.515014 0.000000 -0.005147 0.000000
# 4 0.000000 0.000000 0.000000 0.030950 0.000000 -0.012627
# 5 -0.018579 -0.010042 -0.005147 0.000000 0.067477 0.000000
# 6 0.000000 0.000000 0.000000 -0.012627 0.000000 0.035807
#
#
# Mechanical properties :
#
#
# Convention : Reuss Voigt Hill
#
# Bulk Modulus (GPa) = 8.48963 70.78046 39.63505
# Shear Modulus (GPa) = 3.77686 31.06886 17.42286
#
# Velocity S-wave (km/s) = 1.32728 3.80679 2.85073
# Velocity P-wave (km/s) = 2.51172 7.23441 5.41505
#
# Compressibility (1/GPa) = 0.11779073
#
# Stress axis : x y z
#
# Youngs Moduli (GPa) = 28.12652 11.97527 1.94170
#
# Poissons Ratio (x) = -0.46763 0.19817
# Poissons Ratio (y) = -1.09834 0.37888
# Poissons Ratio (z) = 2.87065 2.33672
#
# Static dielectric constant tensor:
#      x y z
#    x 1.815510 0.000000 -0.037380 
#    y 0.000000 1.758610 0.000000 
#    z -0.037380 0.000000 1.846230 
# 
# From -- ./inp_files/5731.got.cif
#   From: 2010.05.17/outbox.cif.g08.bks.cpg/sg14_3_cif.got.tgz:5731.got - 2010.06.03 17:49:19.
