data_PCOD9251585
_publ_section_title
;
Structure prediction by ZEFSAII (Michael W. Deem and Ramdas Pophale) SiO2 
 PCOD9251585
Probable space group: P 21/C
;
_chemical_formula_sum "Si O2"
_cell_formula_units_Z 16
_cell_length_a 5.174090
_cell_length_b 9.585834
_cell_length_c 14.119696
_cell_angle_alpha 90.000000
_cell_angle_beta 71.297146
_cell_angle_gamma 90.000000
_cell_volume 663.327966
_symmetry_space_group_name_H-M "P 21/C"
_symmetry_group_IT_number 14
_symmetry_cell_setting 'monoclinic'
loop_
_space_group_symop_operation_xyz
x,y,z
-x,1/2+y,1/2-z
-x,-y,-z
x,1/2-y,1/2+z
loop_
_atom_site_type_symbol
_atom_site_label
_atom_site_fract_x
_atom_site_fract_y
_atom_site_fract_z
Si Si1 0.459549 0.414236 0.855280
Si Si2 0.100120 0.793025 0.550918
Si Si3 0.085377 0.065778 0.780902
Si Si4 0.214566 0.734831 0.321963
O O1 0.149576 0.402549 0.921255
O O2 0.613714 0.553329 0.802726
O O3 0.649728 0.352476 0.916684
O O4 0.503858 0.316814 0.757953
O O5 0.975075 0.658076 0.619627
O O6 0.194200 0.753808 0.435460
O O7 0.898608 0.134292 0.722828
O O8 0.032982 0.903388 0.813466
#
# Coordination Sequence:
#
# PCOD9251585 Si02
#       4
#     4   4   4   4
#     4   9  24  38  64  97 128 163 216 268 309 382
#     4  11  21  43  67  95 125 178 209 263 328 379
#     4   9  21  44  63 101 130 168 216 270 317 382
#     4   9  21  42  67  94 134 166 217 265 321 385
#
# _framework density 24.120798000000001
#
# number of rings (size 3 to 8) (size 9 to 14) (size 15 to 20)
#    1.500    1.000    0.000    0.750    0.000   10.000 
#    0.000    6.250    0.000    0.000    0.000    0.000 
#    0.000    0.000    0.000    0.000    0.000    0.000 
#
# Total GULP energy -89373.999980 kJ/mol
# GULP energy per Si atom -5585.874999 kJ/mol
# Density = 2.406590 g / cm^3
# Si number density = 24.120798 Si / 1000 Ang^3
#
#
#
# Elastic Constant Matrix: (Units=GPa)
#
#
# Indices 1 2 3 4 5 6 
#
# 1 83.7413 26.3466 62.8627 0.0000 -1.2945 0.0000
# 2 26.3466 86.0057 48.7461 0.0000 5.3533 0.0000
# 3 62.8627 48.7461 232.3779 0.0000 19.0353 0.0000
# 4 0.0000 0.0000 0.0000 31.8161 0.0000 -6.1188
# 5 -1.2945 5.3533 19.0353 0.0000 27.6760 0.0000
# 6 0.0000 0.0000 0.0000 -6.1188 0.0000 28.2358
#
#
#
# Elastic Compliance Matrix: (Units=1/GPa)
#
#
# Indices 1 2 3 4 5 6 
#
# 1 0.015939 -0.002841 -0.004050 0.000000 0.004081 0.000000
# 2 -0.002841 0.013715 -0.001992 0.000000 -0.001415 0.000000
# 3 -0.004050 -0.001992 0.006147 0.000000 -0.004032 0.000000
# 4 0.000000 0.000000 0.000000 0.032797 0.000000 0.007107
# 5 0.004081 -0.001415 -0.004032 0.000000 0.039370 0.000000
# 6 0.000000 0.000000 0.000000 0.007107 0.000000 0.036956
#
#
# Mechanical properties :
#
#
# Convention : Reuss Voigt Hill
#
# Bulk Modulus (GPa) = 55.45218 75.33731 65.39474
# Shear Modulus (GPa) = 29.63790 35.15690 32.39740
#
# Velocity S-wave (km/s) = 3.50912 3.82191 3.66885
# Velocity P-wave (km/s) = 6.28155 7.12581 6.71696
#
# Compressibility (1/GPa) = 0.01803356
#
# Stress axis : x y z
#
# Youngs Moduli (GPa) = 62.74025 72.91368 162.67616
#
# Poissons Ratio (x) = 0.20716 0.65884
# Poissons Ratio (y) = 0.17825 0.32413
# Poissons Ratio (z) = 0.25410 0.14528
#
# Static dielectric constant tensor:
#      x y z
#    x 1.960830 0.000000 -0.028860 
#    y 0.000000 2.033770 0.000000 
#    z -0.028860 0.000000 1.869730 
# 
# From -- ./inp_files/36741.got.cif
#   From: 2010.05.17/outbox.cif.g08.bks.cpg/sg14_19_cif.got.tgz:36741.got - 2010.06.03 17:49:19.
