data_PCOD9251326
_publ_section_title
;
Structure prediction by ZEFSAII (Michael W. Deem and Ramdas Pophale) SiO2 
 PCOD9251326
Probable space group: P 21/C
;
_chemical_formula_sum "Si O2"
_cell_formula_units_Z 30
_cell_length_a 14.509368
_cell_length_b 9.045717
_cell_length_c 18.098650
_cell_angle_alpha 90.000000
_cell_angle_beta 32.682496
_cell_angle_gamma 90.000000
_cell_volume 1282.678843
_symmetry_space_group_name_H-M "P 21/C"
_symmetry_group_IT_number 14
_symmetry_cell_setting 'monoclinic'
loop_
_space_group_symop_operation_xyz
x,y,z
-x,1/2+y,1/2-z
-x,-y,-z
x,1/2-y,1/2+z
loop_
_atom_site_type_symbol
_atom_site_label
_atom_site_fract_x
_atom_site_fract_y
_atom_site_fract_z
Si Si1 0.380839 0.951734 0.265118
Si Si2 0.618277 0.596194 0.473400
Si Si3 0.406277 0.770397 0.880768
Si Si4 0.127146 0.792591 0.331101
Si Si5 0.004840 0.003761 0.296117
Si Si6 0.030399 0.654568 0.632814
Si Si7 0.000000 0.000000 0.000000
Si Si8 0.551899 0.164982 0.480714
O O1 0.393844 0.863413 0.331979
O O2 0.211334 0.905952 0.334073
O O3 0.429145 0.123616 0.241022
O O4 0.531363 0.890735 0.110637
O O5 0.500000 0.500000 0.500000
O O6 0.795428 0.518502 0.354810
O O7 0.616973 0.749259 0.432688
O O8 0.236446 0.869749 0.983014
O O9 0.412784 0.705018 0.958518
O O10 0.042427 0.653902 0.427373
O O11 0.286516 0.725974 0.175541
O O12 0.996944 0.883293 0.366700
O O13 0.962566 0.170240 0.350162
O O14 0.944817 0.936016 0.258704
O O15 0.955537 0.598973 0.606362
O O16 0.500000 0.000000 0.500000
#
# Coordination Sequence:
#
# PCOD9251326 Si02
#       8
#     4   4   4   4   4   4   2   4
#     4  11  23  44  71 101 143 180 225 305 357 406
#     4  11  19  44  71  97 133 181 230 291 345 408
#     4  12  24  47  66 108 144 180 241 291 362 423
#     4  11  23  48  68 101 143 186 239 293 362 421
#     4  12  24  48  76  99 140 199 243 287 361 439
#     4  12  27  47  72 102 146 194 241 299 357 443
#     4  12  28  48  66 104 152 182 244 302 358 444
#     4  11  24  40  73 104 135 182 237 290 344 427
#
# _framework density 23.388551
#
# number of rings (size 3 to 8) (size 9 to 14) (size 15 to 20)
#    0.000    0.533    8.000    0.800    5.600    0.533 
#    2.400    0.000    0.000    0.000    0.000    0.000 
#    0.000    0.000    0.000    0.000    0.000    0.000 
#
# Total GULP energy -167122.862606 kJ/mol
# GULP energy per Si atom -5570.762087 kJ/mol
# Density = 2.333532 g / cm^3
# Si number density = 23.388551 Si / 1000 Ang^3
#
#
#
# Elastic Constant Matrix: (Units=GPa)
#
#
# Indices 1 2 3 4 5 6 
#
# 1 66.2900 26.9651 32.8927 0.0000 39.4294 0.0000
# 2 26.9651 145.5121 24.5095 0.0000 29.1802 0.0000
# 3 32.8927 24.5095 49.5255 0.0000 30.6415 0.0000
# 4 0.0000 0.0000 0.0000 49.5992 0.0000 11.0032
# 5 39.4294 29.1802 30.6415 0.0000 41.4561 0.0000
# 6 0.0000 0.0000 0.0000 11.0032 0.0000 41.7752
#
#
#
# Elastic Compliance Matrix: (Units=1/GPa)
#
#
# Indices 1 2 3 4 5 6 
#
# 1 0.035394 0.000340 -0.004974 0.000000 -0.030226 0.000000
# 2 0.000340 0.008026 -0.000926 0.000000 -0.005289 0.000000
# 3 -0.004974 -0.000926 0.038001 0.000000 -0.022705 0.000000
# 4 0.000000 0.000000 0.000000 0.021413 0.000000 -0.005640
# 5 -0.030226 -0.005289 -0.022705 0.000000 0.073375 0.000000
# 6 0.000000 0.000000 0.000000 -0.005640 0.000000 0.025423
#
#
# Mechanical properties :
#
#
# Convention : Reuss Voigt Hill
#
# Bulk Modulus (GPa) = 14.22455 47.78468 31.00461
# Shear Modulus (GPa) = 21.16986 38.36345 29.76666
#
# Velocity S-wave (km/s) = 3.01181 4.05441 3.57137
# Velocity P-wave (km/s) = 4.26494 6.51098 5.50375
#
# Compressibility (1/GPa) = 0.07030100
#
# Stress axis : x y z
#
# Youngs Moduli (GPa) = 28.25366 124.59994 26.31495
#
# Poissons Ratio (x) = -0.04242 0.13090
# Poissons Ratio (y) = -0.00962 0.02436
# Poissons Ratio (z) = 0.14054 0.11536
#
# Static dielectric constant tensor:
#      x y z
#    x 1.940800 0.000000 -0.049110 
#    y 0.000000 1.975300 0.000000 
#    z -0.049110 0.000000 1.768240 
# 
# From -- ./inp_files/59063.got.cif
#   From: 2010.05.17/outbox.cif.g08.bks.cpg/sg14_30_cif.got.tgz:59063.got - 2010.06.03 17:49:19.
