data_PCOD9251674
_publ_section_title
;
Structure prediction by ZEFSAII (Michael W. Deem and Ramdas Pophale) SiO2 
 PCOD9251674
Probable space group: P 21/C
;
_chemical_formula_sum "Si O2"
_cell_formula_units_Z 20
_cell_length_a 29.236172
_cell_length_b 5.177871
_cell_length_c 18.467604
_cell_angle_alpha 90.000000
_cell_angle_beta 21.530295
_cell_angle_gamma 90.000000
_cell_volume 1025.983140
_symmetry_space_group_name_H-M "P 21/C"
_symmetry_group_IT_number 14
_symmetry_cell_setting 'monoclinic'
loop_
_space_group_symop_operation_xyz
x,y,z
-x,1/2+y,1/2-z
-x,-y,-z
x,1/2-y,1/2+z
loop_
_atom_site_type_symbol
_atom_site_label
_atom_site_fract_x
_atom_site_fract_y
_atom_site_fract_z
Si Si1 0.775142 0.773914 0.967480
Si Si2 0.088260 0.253397 0.880183
Si Si3 0.110072 0.723481 0.123607
Si Si4 0.836040 0.643544 0.068592
Si Si5 0.419093 0.251320 0.135880
O O1 0.807260 0.766565 0.836000
O O2 0.841658 0.522175 0.902488
O O3 0.832183 0.030614 0.920755
O O4 0.633861 0.757237 0.204129
O O5 0.148748 0.292541 0.869877
O O6 0.000000 0.500000 0.000000
O O7 0.000000 0.000000 0.000000
O O8 0.961434 0.735351 0.349129
O O9 0.152263 0.653267 0.979197
O O10 0.705872 0.743498 0.229074
O O11 0.500000 0.500000 0.000000
O O12 0.500000 0.000000 0.000000
#
# Coordination Sequence:
#
# PCOD9251674 Si02
#       5
#     4   4   4   4   4
#     4  11  22  43  63  97 134 166 210 274 328 389
#     4  12  24  40  65 104 139 165 200 268 356 406
#     4  11  22  37  66  97 129 165 209 275 334 383
#     4  11  23  40  67  96 133 165 222 264 332 383
#     4  11  25  42  63  88 126 180 231 263 300 372
#
# _framework density 19.493499
#
# number of rings (size 3 to 8) (size 9 to 14) (size 15 to 20)
#    0.000    0.800    4.000    4.800    0.000    6.400 
#    0.000    2.000    0.000    0.000    0.000    0.000 
#    0.000    0.000    0.000    0.000    0.000    0.000 
#
# Total GULP energy -111663.958606 kJ/mol
# GULP energy per Si atom -5583.197930 kJ/mol
# Density = 1.944913 g / cm^3
# Si number density = 19.493499 Si / 1000 Ang^3
#
#
#
# Elastic Constant Matrix: (Units=GPa)
#
#
# Indices 1 2 3 4 5 6 
#
# 1 125.7997 39.8710 62.8151 0.0000 30.5592 0.0000
# 2 39.8710 161.5306 60.1505 0.0000 -0.5990 0.0000
# 3 62.8151 60.1505 174.8111 0.0000 19.6380 0.0000
# 4 0.0000 0.0000 0.0000 36.6021 0.0000 -1.2314
# 5 30.5592 -0.5990 19.6380 0.0000 49.4325 0.0000
# 6 0.0000 0.0000 0.0000 -1.2314 0.0000 22.2451
#
#
#
# Elastic Compliance Matrix: (Units=1/GPa)
#
#
# Indices 1 2 3 4 5 6 
#
# 1 0.011352 -0.001781 -0.002800 0.000000 -0.005927 0.000000
# 2 -0.001781 0.007438 -0.002149 0.000000 0.002045 0.000000
# 3 -0.002800 -0.002149 0.007614 0.000000 -0.001320 0.000000
# 4 0.000000 0.000000 0.000000 0.027372 0.000000 0.001515
# 5 -0.005927 0.002045 -0.001320 0.000000 0.024443 0.000000
# 6 0.000000 0.000000 0.000000 0.001515 0.000000 0.045038
#
#
# Mechanical properties :
#
#
# Convention : Reuss Voigt Hill
#
# Bulk Modulus (GPa) = 77.26081 87.53494 82.39788
# Shear Modulus (GPa) = 35.45291 41.60958 38.53125
#
# Velocity S-wave (km/s) = 4.26925 4.62512 4.45074
# Velocity P-wave (km/s) = 8.00139 8.57464 8.29297
#
# Compressibility (1/GPa) = 0.01294317
#
# Stress axis : x y z
#
# Youngs Moduli (GPa) = 88.09289 134.43930 131.32877
#
# Poissons Ratio (x) = 0.23946 0.36776
# Poissons Ratio (y) = 0.15691 0.28224
# Poissons Ratio (z) = 0.24669 0.28893
#
# Static dielectric constant tensor:
#      x y z
#    x 1.728630 0.000000 0.055370 
#    y 0.000000 1.769930 0.000000 
#    z 0.055370 0.000000 1.722970 
# 
# From -- ./inp_files/62429.got.cif
#   From: 2010.05.17/outbox.cif.g08.bks.cpg/sg14_32_cif.got.tgz:62429.got - 2010.06.03 17:49:19.
