data_PCOD9251187
_publ_section_title
;
Structure prediction by ZEFSAII (Michael W. Deem and Ramdas Pophale) SiO2 
 PCOD9251187
Probable space group: P 21/C
;
_chemical_formula_sum "Si O2"
_cell_formula_units_Z 18
_cell_length_a 15.505599
_cell_length_b 7.077276
_cell_length_c 15.055268
_cell_angle_alpha 90.000000
_cell_angle_beta 25.222512
_cell_angle_gamma 90.000000
_cell_volume 704.028347
_symmetry_space_group_name_H-M "P 21/C"
_symmetry_group_IT_number 14
_symmetry_cell_setting 'monoclinic'
loop_
_space_group_symop_operation_xyz
x,y,z
-x,1/2+y,1/2-z
-x,-y,-z
x,1/2-y,1/2+z
loop_
_atom_site_type_symbol
_atom_site_label
_atom_site_fract_x
_atom_site_fract_y
_atom_site_fract_z
Si Si1 0.069205 0.623843 0.821728
Si Si2 0.764792 0.562333 0.656459
Si Si3 0.963966 0.270045 0.337442
Si Si4 0.354524 0.103089 0.542451
Si Si5 0.500000 0.000000 0.000000
O O1 0.973901 0.427217 0.877641
O O2 0.269196 0.577447 0.690585
O O3 0.126830 0.728854 0.675818
O O4 0.885918 0.743042 0.034754
O O5 0.768884 0.519334 0.757860
O O6 0.853151 0.416339 0.504200
O O7 0.525635 0.548257 0.859092
O O8 0.198340 0.336688 0.112693
O O9 0.451783 0.298340 0.489272
#
# Coordination Sequence:
#
# PCOD9251187 Si02
#       5
#     4   4   4   4   2
#     4  11  25  48  76 111 156 198 256 318 390 457
#     4  11  25  45  77 107 153 198 249 322 379 462
#     4  11  24  48  72 109 151 198 253 320 383 458
#     4  10  26  45  72 114 144 201 257 306 392 456
#     4  10  26  46  74 112 152 200 258 304 386 472
#
# _framework density 25.567152
#
# number of rings (size 3 to 8) (size 9 to 14) (size 15 to 20)
#    0.000    1.333    2.222    0.667   12.444    1.778 
#    8.000    0.000    0.000    0.000    0.000    0.000 
#    0.000    0.000    0.000    0.000    0.000    0.000 
#
# Total GULP energy -100296.134409 kJ/mol
# GULP energy per Si atom -5572.007467 kJ/mol
# Density = 2.550896 g / cm^3
# Si number density = 25.567152 Si / 1000 Ang^3
#
#
#
# Elastic Constant Matrix: (Units=GPa)
#
#
# Indices 1 2 3 4 5 6 
#
# 1 112.1510 36.4312 83.5965 0.0000 -26.6492 0.0000
# 2 36.4312 135.0206 72.2194 0.0000 -11.3485 0.0000
# 3 83.5965 72.2194 153.2790 0.0000 -16.1752 0.0000
# 4 0.0000 0.0000 0.0000 71.6737 0.0000 -6.4093
# 5 -26.6492 -11.3485 -16.1752 0.0000 23.7253 0.0000
# 6 0.0000 0.0000 0.0000 -6.4093 0.0000 33.6902
#
#
#
# Elastic Compliance Matrix: (Units=1/GPa)
#
#
# Indices 1 2 3 4 5 6 
#
# 1 0.019317 0.001150 -0.009406 0.000000 0.015835 0.000000
# 2 0.001150 0.010032 -0.005077 0.000000 0.002629 0.000000
# 3 -0.009406 -0.005077 0.013657 0.000000 -0.003682 0.000000
# 4 0.000000 0.000000 0.000000 0.014194 0.000000 0.002700
# 5 0.015835 0.002629 -0.003682 0.000000 0.058683 0.000000
# 6 0.000000 0.000000 0.000000 0.002700 0.000000 0.030196
#
#
# Mechanical properties :
#
#
# Convention : Reuss Voigt Hill
#
# Bulk Modulus (GPa) = 61.19518 87.21609 74.20564
# Shear Modulus (GPa) = 28.05988 39.69807 33.87897
#
# Velocity S-wave (km/s) = 3.31644 3.94470 3.64414
# Velocity P-wave (km/s) = 6.21708 7.41176 6.84055
#
# Compressibility (1/GPa) = 0.01634116
#
# Stress axis : x y z
#
# Youngs Moduli (GPa) = 51.76865 99.67786 73.22155
#
# Poissons Ratio (x) = -0.11461 0.68871
# Poissons Ratio (y) = -0.05953 0.37171
# Poissons Ratio (z) = 0.48693 0.50602
#
# Static dielectric constant tensor:
#      x y z
#    x 1.946290 0.000000 0.027590 
#    y 0.000000 2.089500 0.000000 
#    z 0.027590 0.000000 2.050850 
# 
# From -- ./inp_files/60031.got.cif
#   From: 2010.05.17/outbox.cif.g08.bks.cpg/sg14_31_cif.got.tgz:60031.got - 2010.06.03 17:49:19.
