data_PCOD9251681
_publ_section_title
;
Structure prediction by ZEFSAII (Michael W. Deem and Ramdas Pophale) SiO2 
 PCOD9251681
Probable space group: P 21/C
;
_chemical_formula_sum "Si O2"
_cell_formula_units_Z 24
_cell_length_a 13.350867
_cell_length_b 13.718198
_cell_length_c 8.802121
_cell_angle_alpha 90.000000
_cell_angle_beta 137.712065
_cell_angle_gamma 90.000000
_cell_volume 1084.717097
_symmetry_space_group_name_H-M "P 21/C"
_symmetry_group_IT_number 14
_symmetry_cell_setting 'monoclinic'
loop_
_space_group_symop_operation_xyz
x,y,z
-x,1/2+y,1/2-z
-x,-y,-z
x,1/2-y,1/2+z
loop_
_atom_site_type_symbol
_atom_site_label
_atom_site_fract_x
_atom_site_fract_y
_atom_site_fract_z
Si Si1 0.911865 0.855098 0.795867
Si Si2 0.808905 0.831556 0.355069
Si Si3 0.290529 0.042787 0.997168
Si Si4 0.463158 0.632415 0.542537
Si Si5 0.206478 0.555061 0.717593
Si Si6 0.561774 0.329386 0.828347
O O1 0.913157 0.832044 0.618835
O O2 0.822764 0.771760 0.785858
O O3 0.839951 0.961740 0.734985
O O4 0.073701 0.867564 0.051958
O O5 0.641476 0.855938 0.225223
O O6 0.833850 0.915626 0.256473
O O7 0.390501 0.136420 0.153853
O O8 0.403013 0.969291 0.037639
O O9 0.233949 0.988756 0.081738
O O10 0.416770 0.717602 0.604972
O O11 0.398045 0.652148 0.301804
O O12 0.346117 0.605222 0.951923
#
# Coordination Sequence:
#
# PCOD9251681 Si02
#       6
#     4   4   4   4   4   4
#     4  11  24  41  63  87 124 168 209 251 296 380
#     4  11  22  42  65  91 122 162 208 251 312 371
#     4  11  23  40  66  95 124 160 206 264 316 364
#     4  11  22  38  63  95 122 157 205 259 315 367
#     4  11  24  41  60  91 125 164 209 252 311 365
#     4  11  22  38  62  89 126 160 201 262 313 365
#
# _framework density 22.125585000000001
#
# number of rings (size 3 to 8) (size 9 to 14) (size 15 to 20)
#    0.000    1.000    0.000    9.500    0.000    3.333 
#    0.000    0.000    0.000    0.000    0.000    0.000 
#    0.000    0.000    0.000    0.000    0.000    0.000 
#
# Total GULP energy -134265.021063 kJ/mol
# GULP energy per Si atom -5594.375878 kJ/mol
# Density = 2.207523 g / cm^3
# Si number density = 22.125585 Si / 1000 Ang^3
#
#
#
# Elastic Constant Matrix: (Units=GPa)
#
#
# Indices 1 2 3 4 5 6 
#
# 1 25.5871 8.5608 22.8332 0.0000 -9.9639 0.0000
# 2 8.5608 85.6356 39.7052 0.0000 -12.6733 0.0000
# 3 22.8332 39.7052 74.4494 0.0000 -25.8113 0.0000
# 4 0.0000 0.0000 0.0000 36.8550 0.0000 -12.3753
# 5 -9.9639 -12.6733 -25.8113 0.0000 24.1198 0.0000
# 6 0.0000 0.0000 0.0000 -12.3753 0.0000 35.5824
#
#
#
# Elastic Compliance Matrix: (Units=1/GPa)
#
#
# Indices 1 2 3 4 5 6 
#
# 1 0.055185 0.002974 -0.016003 0.000000 0.007234 0.000000
# 2 0.002974 0.015693 -0.009534 0.000000 -0.000729 0.000000
# 3 -0.016003 -0.009534 0.030836 0.000000 0.021379 0.000000
# 4 0.000000 0.000000 0.000000 0.030721 0.000000 0.010685
# 5 0.007234 -0.000729 0.021379 0.000000 0.066944 0.000000
# 6 0.000000 0.000000 0.000000 0.010685 0.000000 0.031820
#
#
# Mechanical properties :
#
#
# Convention : Reuss Voigt Hill
#
# Bulk Modulus (GPa) = 17.67149 36.43005 27.05077
# Shear Modulus (GPa) = 16.93844 26.94964 21.94404
#
# Velocity S-wave (km/s) = 2.76988 3.49382 3.15269
# Velocity P-wave (km/s) = 4.27011 5.72508 5.05027
#
# Compressibility (1/GPa) = 0.05658834
#
# Stress axis : x y z
#
# Youngs Moduli (GPa) = 18.12089 63.72411 32.42928
#
# Poissons Ratio (x) = -0.18949 0.51895
# Poissons Ratio (y) = -0.05388 0.30917
# Poissons Ratio (z) = 0.28998 0.60753
#
# Static dielectric constant tensor:
#      x y z
#    x 1.827210 0.000000 -0.007870 
#    y 0.000000 1.776710 0.000000 
#    z -0.007870 0.000000 1.791580 
# 
# From -- ./inp_files/16339.got.cif
#   From: 2010.05.17/outbox.cif.g08.bks.cpg/sg14_9_cif.got.tgz:16339.got - 2010.06.03 17:49:19.
