data_PCOD9251212
_publ_section_title
;
Structure prediction by ZEFSAII (Michael W. Deem and Ramdas Pophale) SiO2 
 PCOD9251212
Probable space group: P 21/C
;
_chemical_formula_sum "Si O2"
_cell_formula_units_Z 20
_cell_length_a 7.544782
_cell_length_b 12.223159
_cell_length_c 8.358047
_cell_angle_alpha 90.000000
_cell_angle_beta 80.441524
_cell_angle_gamma 90.000000
_cell_volume 760.086910
_symmetry_space_group_name_H-M "P 21/C"
_symmetry_group_IT_number 14
_symmetry_cell_setting 'monoclinic'
loop_
_space_group_symop_operation_xyz
x,y,z
-x,1/2+y,1/2-z
-x,-y,-z
x,1/2-y,1/2+z
loop_
_atom_site_type_symbol
_atom_site_label
_atom_site_fract_x
_atom_site_fract_y
_atom_site_fract_z
Si Si1 0.890607 0.410213 0.618300
Si Si2 0.334936 0.447585 0.123659
Si Si3 0.280545 0.665143 0.643132
Si Si4 0.485489 0.207770 0.172195
Si Si5 0.829986 0.941847 0.664702
O O1 0.722895 0.481043 0.714846
O O2 0.862375 0.322479 0.478779
O O3 0.000000 0.500000 0.500000
O O4 0.015623 0.385942 0.751793
O O5 0.397570 0.326360 0.157127
O O6 0.500000 0.500000 0.000000
O O7 0.163423 0.446356 0.028850
O O8 0.457972 0.654190 0.504635
O O9 0.337283 0.765271 0.746516
O O10 0.224221 0.561038 0.755837
O O11 0.342908 0.134213 0.280352
#
# Coordination Sequence:
#
# PCOD9251212 Si02
#       5
#     4   4   4   4   4
#     4  10  26  47  71 104 153 192 230 312 382 423
#     4  12  24  45  77 110 144 192 254 300 362 444
#     4  11  25  45  70 103 150 189 251 299 367 442
#     4  12  25  43  74 109 141 200 250 298 364 448
#     4  11  24  48  72 105 152 195 244 313 371 434
#
# _framework density 26.312781999999999
#
# number of rings (size 3 to 8) (size 9 to 14) (size 15 to 20)
#    0.000    0.800    4.000    2.400    5.600    0.000 
#   10.800    0.000    0.000    0.000    0.000    0.000 
#    0.000    0.000    0.000    0.000    0.000    0.000 
#
# Total GULP energy -111825.337816 kJ/mol
# GULP energy per Si atom -5591.266891 kJ/mol
# Density = 2.625289 g / cm^3
# Si number density = 26.312782 Si / 1000 Ang^3
#
#
#
# Elastic Constant Matrix: (Units=GPa)
#
#
# Indices 1 2 3 4 5 6 
#
# 1 91.2767 13.2660 14.5059 0.0000 27.6040 0.0000
# 2 13.2660 82.4030 34.4276 0.0000 -10.5037 0.0000
# 3 14.5059 34.4276 132.5699 0.0000 7.8917 0.0000
# 4 0.0000 0.0000 0.0000 48.3582 0.0000 10.4786
# 5 27.6040 -10.5037 7.8917 0.0000 58.4134 0.0000
# 6 0.0000 0.0000 0.0000 10.4786 0.0000 31.2564
#
#
#
# Elastic Compliance Matrix: (Units=1/GPa)
#
#
# Indices 1 2 3 4 5 6 
#
# 1 0.013506 -0.002919 -0.000311 0.000000 -0.006865 0.000000
# 2 -0.002919 0.014767 -0.003786 0.000000 0.004546 0.000000
# 3 -0.000311 -0.003786 0.008662 0.000000 -0.001704 0.000000
# 4 0.000000 0.000000 0.000000 0.022299 0.000000 -0.007476
# 5 -0.006865 0.004546 -0.001704 0.000000 0.021411 0.000000
# 6 0.000000 0.000000 0.000000 -0.007476 0.000000 0.034500
#
#
# Mechanical properties :
#
#
# Convention : Reuss Voigt Hill
#
# Bulk Modulus (GPa) = 43.66545 47.84985 45.75765
# Shear Modulus (GPa) = 36.54684 43.87560 40.21122
#
# Velocity S-wave (km/s) = 3.73089 4.08789 3.91346
# Velocity P-wave (km/s) = 5.93213 6.36440 6.15206
#
# Compressibility (1/GPa) = 0.02290140
#
# Stress axis : x y z
#
# Youngs Moduli (GPa) = 74.04341 67.71955 115.44853
#
# Poissons Ratio (x) = 0.19770 0.03590
# Poissons Ratio (y) = 0.21616 0.43709
# Poissons Ratio (z) = 0.02302 0.25639
#
# Static dielectric constant tensor:
#      x y z
#    x 2.329610 0.000000 -0.009190 
#    y 0.000000 2.126440 0.000000 
#    z -0.009190 0.000000 2.130270 
# 
# From -- ./inp_files/7872.got.cif
#   From: 2010.05.17/outbox.cif.g08.bks.cpg/sg14_4_cif.got.tgz:7872.got - 2010.06.03 17:49:19.
