data_PCOD9251607
_publ_section_title
;
Structure prediction by ZEFSAII (Michael W. Deem and Ramdas Pophale) SiO2 
 PCOD9251607
Probable space group: P 21/C
;
_chemical_formula_sum "Si O2"
_cell_formula_units_Z 32
_cell_length_a 8.971544
_cell_length_b 6.736197
_cell_length_c 27.901122
_cell_angle_alpha 90.000000
_cell_angle_beta 97.949536
_cell_angle_gamma 90.000000
_cell_volume 1669.975121
_symmetry_space_group_name_H-M "P 21/C"
_symmetry_group_IT_number 14
_symmetry_cell_setting 'monoclinic'
loop_
_space_group_symop_operation_xyz
x,y,z
-x,1/2+y,1/2-z
-x,-y,-z
x,1/2-y,1/2+z
loop_
_atom_site_type_symbol
_atom_site_label
_atom_site_fract_x
_atom_site_fract_y
_atom_site_fract_z
Si Si1 0.702924 0.274570 0.086025
Si Si2 0.638950 0.280890 0.815523
Si Si3 0.629048 0.879155 0.034790
Si Si4 0.156471 0.465412 0.231047
Si Si5 0.173273 0.697788 0.803214
Si Si6 0.177159 0.034297 0.497747
Si Si7 0.637086 0.580384 0.258189
Si Si8 0.566598 0.442835 0.916793
O O1 0.788305 0.309555 0.139456
O O2 0.532622 0.356447 0.085918
O O3 0.702053 0.044482 0.071939
O O4 0.775687 0.397441 0.045465
O O5 0.797981 0.372878 0.806993
O O6 0.523573 0.361799 0.770117
O O7 0.633461 0.044914 0.807141
O O8 0.592956 0.361711 0.864815
O O9 0.536357 0.715037 0.059841
O O10 0.758115 0.755824 0.011962
O O11 0.500000 0.000000 0.000000
O O12 0.176047 0.579556 0.282186
O O13 0.989262 0.390793 0.215694
O O14 0.265049 0.277105 0.232226
O O15 0.288180 0.563309 0.777995
O O16 0.278367 0.968681 0.547614
O O17 0.000000 0.000000 0.500000
#
# Coordination Sequence:
#
# PCOD9251607 Si02
#       8
#     4   4   4   4   4   4   4   4
#     4  11  23  42  70  95 122 177 222 261 327 399
#     4  11  24  38  65  92 125 164 210 260 320 379
#     4  11  21  44  69  91 126 175 221 261 324 394
#     4  11  24  42  61  88 132 165 211 269 321 377
#     4  11  24  41  66  90 126 172 214 263 323 388
#     4  11  25  44  64  96 140 166 213 287 329 380
#     4  11  22  42  60  91 128 164 207 263 315 380
#     4  11  23  42  67  95 127 170 215 268 323 392
#
# _framework density 19.161963
#
# number of rings (size 3 to 8) (size 9 to 14) (size 15 to 20)
#    0.000    1.000    6.250    0.750    3.500    1.500 
#    2.250    0.000    0.000    0.000    0.000    0.000 
#    0.000    0.000    0.000    0.000    0.000    0.000 
#
# Total GULP energy -178688.257228 kJ/mol
# GULP energy per Si atom -5584.008038 kJ/mol
# Density = 1.911835 g / cm^3
# Si number density = 19.161963 Si / 1000 Ang^3
#
#
#
# Elastic Constant Matrix: (Units=GPa)
#
#
# Indices 1 2 3 4 5 6 
#
# 1 106.0216 36.6388 34.9836 0.0000 -2.6899 0.0000
# 2 36.6388 93.4412 13.5407 0.0000 7.0362 0.0000
# 3 34.9836 13.5407 79.4329 0.0000 5.3914 0.0000
# 4 0.0000 0.0000 0.0000 21.5655 0.0000 -4.8730
# 5 -2.6899 7.0362 5.3914 0.0000 21.3094 0.0000
# 6 0.0000 0.0000 0.0000 -4.8730 0.0000 28.3578
#
#
#
# Elastic Compliance Matrix: (Units=1/GPa)
#
#
# Indices 1 2 3 4 5 6 
#
# 1 0.012851 -0.004625 -0.005174 0.000000 0.004458 0.000000
# 2 -0.004625 0.012857 0.000176 0.000000 -0.004874 0.000000
# 3 -0.005174 0.000176 0.015146 0.000000 -0.004543 0.000000
# 4 0.000000 0.000000 0.000000 0.048244 0.000000 0.008290
# 5 0.004458 -0.004874 -0.004543 0.000000 0.050249 0.000000
# 6 0.000000 0.000000 0.000000 0.008290 0.000000 0.036688
#
#
# Mechanical properties :
#
#
# Convention : Reuss Voigt Hill
#
# Bulk Modulus (GPa) = 46.27842 49.91355 48.09598
# Shear Modulus (GPa) = 24.69350 27.16206 25.92778
#
# Velocity S-wave (km/s) = 3.59370 3.76905 3.68242
# Velocity P-wave (km/s) = 6.43609 6.71162 6.57530
#
# Compressibility (1/GPa) = 0.02160834
#
# Stress axis : x y z
#
# Youngs Moduli (GPa) = 77.81770 77.77996 66.02291
#
# Poissons Ratio (x) = 0.35971 0.34159
# Poissons Ratio (y) = 0.35989 -0.01162
# Poissons Ratio (z) = 0.40262 -0.01368
#
# Static dielectric constant tensor:
#      x y z
#    x 1.678900 0.000000 -0.011550 
#    y 0.000000 1.728460 0.000000 
#    z -0.011550 0.000000 1.654250 
# 
# From -- ./inp_files/79244.got.cif
#   From: 2010.05.17/outbox.cif.g08.bks.cpg/sg14_40_cif.got.tgz:79244.got - 2010.06.03 17:49:19.
