data_PCOD9251811
_publ_section_title
;
Structure prediction by ZEFSAII (Michael W. Deem and Ramdas Pophale) SiO2 
 PCOD9251811
Probable space group: P 21/C
;
_chemical_formula_sum "Si O2"
_cell_formula_units_Z 28
_cell_length_a 20.215451
_cell_length_b 8.063798
_cell_length_c 18.004722
_cell_angle_alpha 90.000000
_cell_angle_beta 22.175281
_cell_angle_gamma 90.000000
_cell_volume 1107.793775
_symmetry_space_group_name_H-M "P 21/C"
_symmetry_group_IT_number 14
_symmetry_cell_setting 'monoclinic'
loop_
_space_group_symop_operation_xyz
x,y,z
-x,1/2+y,1/2-z
-x,-y,-z
x,1/2-y,1/2+z
loop_
_atom_site_type_symbol
_atom_site_label
_atom_site_fract_x
_atom_site_fract_y
_atom_site_fract_z
Si Si1 0.261014 0.076332 0.162965
Si Si2 0.635271 0.286734 0.917041
Si Si3 0.049908 0.582370 0.116119
Si Si4 0.259559 0.935148 0.537603
Si Si5 0.509421 0.777555 0.674833
Si Si6 0.780082 0.079484 0.114927
Si Si7 0.218037 0.226917 0.357975
O O1 0.174386 0.185944 0.317489
O O2 0.143643 0.049222 0.212259
O O3 0.295382 0.899749 0.163146
O O4 0.435854 0.164262 0.951840
O O5 0.688875 0.388706 0.789101
O O6 0.726876 0.369103 0.893151
O O7 0.426757 0.262772 0.144209
O O8 0.090387 0.584893 0.161279
O O9 0.103954 0.761263 0.026666
O O10 0.164149 0.431852 0.962426
O O11 0.409288 0.832096 0.338097
O O12 0.320393 0.126165 0.474456
O O13 0.373219 0.914092 0.786987
O O14 0.866906 0.900066 0.029306
#
# Coordination Sequence:
#
# PCOD9251811 Si02
#       7
#     4   4   4   4   4   4   4
#     4  12  25  42  70  97 142 177 219 277 338 407
#     4  12  22  43  70 104 129 174 231 285 331 385
#     4  11  27  46  62 102 144 181 217 269 348 407
#     4  11  24  42  69  96 134 176 222 284 335 398
#     4  11  22  43  67 101 127 173 229 283 331 389
#     4  11  23  43  73 101 131 170 236 281 328 396
#     4  12  22  43  71 101 128 176 226 287 325 388
#
# _framework density 25.275461
#
# number of rings (size 3 to 8) (size 9 to 14) (size 15 to 20)
#    0.000    0.571    4.286    5.571    0.000    1.714 
#    2.571    0.000    0.000    0.000    0.000    0.000 
#    0.000    0.000    0.000    0.000    0.000    0.000 
#
# Total GULP energy -156988.899380 kJ/mol
# GULP energy per Si atom -5606.746406 kJ/mol
# Density = 2.521793 g / cm^3
# Si number density = 25.275461 Si / 1000 Ang^3
#
#
#
# Elastic Constant Matrix: (Units=GPa)
#
#
# Indices 1 2 3 4 5 6 
#
# 1 136.8779 24.1561 23.2927 0.0000 2.6948 0.0000
# 2 24.1561 139.0126 26.3947 0.0000 -0.6030 0.0000
# 3 23.2927 26.3947 52.0234 0.0000 7.1788 0.0000
# 4 0.0000 0.0000 0.0000 -24.3880 0.0000 2.6376
# 5 2.6948 -0.6030 7.1788 0.0000 38.5914 0.0000
# 6 0.0000 0.0000 0.0000 2.6376 0.0000 32.8132
#
#
#
# Elastic Compliance Matrix: (Units=1/GPa)
#
#
# Indices 1 2 3 4 5 6 
#
# 1 0.007985 -0.000784 -0.003181 0.000000 0.000022 0.000000
# 2 -0.000784 0.008068 -0.003867 0.000000 0.000900 0.000000
# 3 -0.003181 -0.003867 0.023181 0.000000 -0.004150 0.000000
# 4 0.000000 0.000000 0.000000 -0.040650 0.000000 0.003268
# 5 0.000022 0.000900 -0.004150 0.000000 0.026697 0.000000
# 6 0.000000 0.000000 0.000000 0.003268 0.000000 0.030213
#
#
# Mechanical properties :
#
#
# Convention : Reuss Voigt Hill
#
# Bulk Modulus (GPa) = 42.42357 52.84454 47.63405
# Shear Modulus (GPa) = 63.28153 26.34135 44.81144
#
# Velocity S-wave (km/s) = 5.00910 3.23177 4.21518
# Velocity P-wave (km/s) = 7.09054 5.90581 6.52512
#
# Compressibility (1/GPa) = 0.02357180
#
# Stress axis : x y z
#
# Youngs Moduli (GPa) = 125.23680 123.94911 43.13925
#
# Poissons Ratio (x) = 0.09712 0.13721
# Poissons Ratio (y) = 0.09813 0.16681
# Poissons Ratio (z) = 0.39833 0.47927
#
# Static dielectric constant tensor:
#      x y z
#    x 1.940490 0.000000 -0.032030 
#    y 0.000000 2.001120 0.000000 
#    z -0.032030 0.000000 1.997030 
# 
# From -- ./inp_files/54808.got.cif
#   From: 2010.05.17/outbox.cif.g08.bks.cpg/sg14_28_cif.got.tgz:54808.got - 2010.06.03 17:49:19.
