data_PCOD9251995
_publ_section_title
;
Structure prediction by ZEFSAII (Michael W. Deem and Ramdas Pophale) SiO2 
 PCOD9251995
Probable space group: P 21/C
;
_chemical_formula_sum "Si O2"
_cell_formula_units_Z 28
_cell_length_a 13.218872
_cell_length_b 14.388772
_cell_length_c 9.393130
_cell_angle_alpha 90.000000
_cell_angle_beta 40.509535
_cell_angle_gamma 90.000000
_cell_volume 1160.532975
_symmetry_space_group_name_H-M "P 21/C"
_symmetry_group_IT_number 14
_symmetry_cell_setting 'monoclinic'
loop_
_space_group_symop_operation_xyz
x,y,z
-x,1/2+y,1/2-z
-x,-y,-z
x,1/2-y,1/2+z
loop_
_atom_site_type_symbol
_atom_site_label
_atom_site_fract_x
_atom_site_fract_y
_atom_site_fract_z
Si Si1 0.800508 0.134819 0.984044
Si Si2 0.619770 0.559896 0.974443
Si Si3 0.148523 0.910340 0.742992
Si Si4 0.076002 0.250395 0.054073
Si Si5 0.581013 0.435070 0.529435
Si Si6 0.285262 0.244903 0.085608
Si Si7 0.611802 0.316619 0.232743
O O1 0.735165 0.049332 0.961010
O O2 0.938944 0.184134 0.754545
O O3 0.842567 0.114994 0.100533
O O4 0.663635 0.211309 0.148499
O O5 0.545965 0.568174 0.209988
O O6 0.500000 0.500000 0.000000
O O7 0.793491 0.516768 0.808684
O O8 0.646441 0.666304 0.901200
O O9 0.284731 0.871989 0.492193
O O10 0.992951 0.855158 0.862038
O O11 0.221714 0.268217 0.999408
O O12 0.132763 0.280807 0.837967
O O13 0.500000 0.500000 0.500000
O O14 0.635527 0.348586 0.370613
O O15 0.426594 0.174505 0.913514
#
# Coordination Sequence:
#
# PCOD9251995 Si02
#       7
#     4   4   4   4   4   4   4
#     4  11  23  45  70  99 138 192 236 287 361 439
#     4  12  25  44  71 108 144 189 243 302 365 427
#     4  11  23  45  71  98 141 192 234 287 371 436
#     4  11  26  45  67 104 140 190 235 293 359 433
#     4  12  24  40  69 110 138 177 243 305 353 421
#     4  12  26  43  71 104 143 180 246 297 352 428
#     4  11  23  40  73 101 137 184 242 304 345 421
#
# _framework density 24.126847000000001
#
# number of rings (size 3 to 8) (size 9 to 14) (size 15 to 20)
#    0.000    0.571    5.714    2.571    6.000    0.571 
#    0.000    0.000    0.000    3.429    0.000    0.000 
#    0.000    0.000    0.000    0.000    0.000    0.000 
#
# Total GULP energy -156122.332800 kJ/mol
# GULP energy per Si atom -5575.797600 kJ/mol
# Density = 2.407193 g / cm^3
# Si number density = 24.126847 Si / 1000 Ang^3
#
#
#
# Elastic Constant Matrix: (Units=GPa)
#
#
# Indices 1 2 3 4 5 6 
#
# 1 100.3493 26.0190 17.5360 0.0000 12.2342 0.0000
# 2 26.0190 44.8079 27.5103 0.0000 4.1013 0.0000
# 3 17.5360 27.5103 149.0034 0.0000 14.9878 0.0000
# 4 0.0000 0.0000 0.0000 26.8358 0.0000 -5.5361
# 5 12.2342 4.1013 14.9878 0.0000 42.2671 0.0000
# 6 0.0000 0.0000 0.0000 -5.5361 0.0000 36.9499
#
#
#
# Elastic Compliance Matrix: (Units=1/GPa)
#
#
# Indices 1 2 3 4 5 6 
#
# 1 0.012061 -0.006820 0.000129 0.000000 -0.002875 0.000000
# 2 -0.006820 0.029054 -0.004642 0.000000 0.000801 0.000000
# 3 0.000129 -0.004642 0.007789 0.000000 -0.002349 0.000000
# 4 0.000000 0.000000 0.000000 0.038452 0.000000 0.005761
# 5 -0.002875 0.000801 -0.002349 0.000000 0.025246 0.000000
# 6 0.000000 0.000000 0.000000 0.005761 0.000000 0.027927
#
#
# Mechanical properties :
#
#
# Convention : Reuss Voigt Hill
#
# Bulk Modulus (GPa) = 38.11116 48.47677 43.29397
# Shear Modulus (GPa) = 29.07931 36.08358 32.58144
#
# Velocity S-wave (km/s) = 3.47546 3.87147 3.67880
# Velocity P-wave (km/s) = 5.65116 6.33407 6.00233
#
# Compressibility (1/GPa) = 0.02623903
#
# Stress axis : x y z
#
# Youngs Moduli (GPa) = 82.90865 34.41812 128.37860
#
# Poissons Ratio (x) = 0.23472 -0.01654
# Poissons Ratio (y) = 0.56542 0.59596
# Poissons Ratio (z) = -0.01068 0.15978
#
# Static dielectric constant tensor:
#      x y z
#    x 1.905090 0.000000 -0.027550 
#    y 0.000000 2.058090 0.000000 
#    z -0.027550 0.000000 1.932520 
# 
# From -- ./inp_files/16380.got.cif
#   From: 2010.05.17/outbox.cif.g08.bks.cpg/sg14_9_cif.got.tgz:16380.got - 2010.06.03 17:49:19.
