data_PCOD9251460
_publ_section_title
;
Structure prediction by ZEFSAII (Michael W. Deem and Ramdas Pophale) SiO2 
 PCOD9251460
Probable space group: P 21/C
;
_chemical_formula_sum "Si O2"
_cell_formula_units_Z 24
_cell_length_a 8.942546
_cell_length_b 6.374535
_cell_length_c 22.249503
_cell_angle_alpha 90.000000
_cell_angle_beta 110.663053
_cell_angle_gamma 90.000000
_cell_volume 1186.734411
_symmetry_space_group_name_H-M "P 21/C"
_symmetry_group_IT_number 14
_symmetry_cell_setting 'monoclinic'
loop_
_space_group_symop_operation_xyz
x,y,z
-x,1/2+y,1/2-z
-x,-y,-z
x,1/2-y,1/2+z
loop_
_atom_site_type_symbol
_atom_site_label
_atom_site_fract_x
_atom_site_fract_y
_atom_site_fract_z
Si Si1 0.452609 0.490673 0.593088
Si Si2 0.390375 0.195106 0.471104
Si Si3 0.020777 0.676374 0.687606
Si Si4 0.910413 0.059338 0.602284
Si Si5 0.090311 0.066813 0.074175
Si Si6 0.233379 0.839568 0.817591
O O1 0.418462 0.355195 0.528726
O O2 0.545444 0.695918 0.580823
O O3 0.275824 0.496765 0.594525
O O4 0.579211 0.384897 0.655899
O O5 0.500000 0.000000 0.500000
O O6 0.210864 0.104673 0.445791
O O7 0.044058 0.552685 0.628817
O O8 0.165793 0.691387 0.755357
O O9 0.870672 0.554902 0.696119
O O10 0.994559 0.914993 0.663526
O O11 0.802563 0.225744 0.623719
O O12 0.033899 0.192165 0.579388
O O13 0.000000 0.000000 0.000000
#
# Coordination Sequence:
#
# PCOD9251460 Si02
#       6
#     4   4   4   4   4   4
#     4  11  24  40  62 100 135 164 225 286 328 404
#     4  11  21  37  67  96 125 172 220 273 335 394
#     4  11  23  43  67  92 128 179 219 269 335 398
#     4  11  22  41  68  93 126 175 217 268 334 393
#     4  11  26  44  64  98 141 171 217 284 345 403
#     4  11  22  42  67  94 126 169 233 272 315 410
#
# _framework density 20.223565000000001
#
# number of rings (size 3 to 8) (size 9 to 14) (size 15 to 20)
#    0.000    1.000    5.000    2.000    4.667    4.000 
#    3.000    0.000    0.000    0.000    0.000    0.000 
#    0.000    0.000    0.000    0.000    0.000    0.000 
#
# Total GULP energy -133759.145865 kJ/mol
# GULP energy per Si atom -5573.297744 kJ/mol
# Density = 2.017754 g / cm^3
# Si number density = 20.223565 Si / 1000 Ang^3
#
#
#
# Elastic Constant Matrix: (Units=GPa)
#
#
# Indices 1 2 3 4 5 6 
#
# 1 95.1149 23.8519 46.5186 0.0000 19.1225 0.0000
# 2 23.8519 78.4924 21.1813 0.0000 -0.4073 0.0000
# 3 46.5186 21.1813 112.5929 0.0000 23.6381 0.0000
# 4 0.0000 0.0000 0.0000 35.7719 0.0000 5.0208
# 5 19.1225 -0.4073 23.6381 0.0000 32.3211 0.0000
# 6 0.0000 0.0000 0.0000 5.0208 0.0000 26.8642
#
#
#
# Elastic Compliance Matrix: (Units=1/GPa)
#
#
# Indices 1 2 3 4 5 6 
#
# 1 0.014518 -0.003304 -0.004211 0.000000 -0.005551 0.000000
# 2 -0.003304 0.014330 -0.002102 0.000000 0.003673 0.000000
# 3 -0.004211 -0.002102 0.012404 0.000000 -0.006607 0.000000
# 4 0.000000 0.000000 0.000000 0.028708 0.000000 -0.005365
# 5 -0.005551 0.003673 -0.006607 0.000000 0.039102 0.000000
# 6 0.000000 0.000000 0.000000 -0.005365 0.000000 0.038227
#
#
# Mechanical properties :
#
#
# Convention : Reuss Voigt Hill
#
# Bulk Modulus (GPa) = 45.41742 52.14488 48.78115
# Shear Modulus (GPa) = 28.75847 31.96802 30.36324
#
# Velocity S-wave (km/s) = 3.77507 3.98015 3.87897
# Velocity P-wave (km/s) = 6.44267 6.85291 6.65095
#
# Compressibility (1/GPa) = 0.02201798
#
# Stress axis : x y z
#
# Youngs Moduli (GPa) = 68.88120 69.78212 80.62034
#
# Poissons Ratio (x) = 0.23056 0.33950
# Poissons Ratio (y) = 0.22758 0.16945
# Poissons Ratio (z) = 0.29007 0.14667
#
# Static dielectric constant tensor:
#      x y z
#    x 1.815780 0.000000 -0.033240 
#    y 0.000000 1.780410 0.000000 
#    z -0.033240 0.000000 1.779300 
# 
# From -- ./inp_files/71610.got.cif
#   From: 2010.05.17/outbox.cif.g08.bks.cpg/sg14_36_cif.got.tgz:71610.got - 2010.06.03 17:49:19.
