data_PCOD9251676
_publ_section_title
;
Structure prediction by ZEFSAII (Michael W. Deem and Ramdas Pophale) SiO2 
 PCOD9251676
Probable space group: P 21/C
;
_chemical_formula_sum "Si O2"
_cell_formula_units_Z 28
_cell_length_a 17.672256
_cell_length_b 7.584282
_cell_length_c 18.475009
_cell_angle_alpha 90.000000
_cell_angle_beta 28.670619
_cell_angle_gamma 90.000000
_cell_volume 1188.030271
_symmetry_space_group_name_H-M "P 21/C"
_symmetry_group_IT_number 14
_symmetry_cell_setting 'monoclinic'
loop_
_space_group_symop_operation_xyz
x,y,z
-x,1/2+y,1/2-z
-x,-y,-z
x,1/2-y,1/2+z
loop_
_atom_site_type_symbol
_atom_site_label
_atom_site_fract_x
_atom_site_fract_y
_atom_site_fract_z
Si Si1 0.749818 0.158810 0.325025
Si Si2 0.996001 0.034775 0.592921
Si Si3 0.227929 0.569331 0.362448
Si Si4 0.107209 0.328127 0.299904
Si Si5 0.562450 0.800835 0.949486
Si Si6 0.334431 0.202756 0.335543
Si Si7 0.483278 0.667110 0.679009
O O1 0.856181 0.332794 0.234169
O O2 0.757937 0.099014 0.234529
O O3 0.565488 0.194746 0.489954
O O4 0.820108 0.989581 0.307068
O O5 0.160482 0.120219 0.477011
O O6 0.967684 0.855691 0.661779
O O7 0.000000 0.000000 0.500000
O O8 0.311485 0.390066 0.315437
O O9 0.317174 0.731414 0.325878
O O10 0.043485 0.580155 0.536161
O O11 0.256503 0.242763 0.218991
O O12 0.547225 0.768781 0.048041
O O13 0.500000 0.000000 0.000000
O O14 0.400612 0.262588 0.357382
O O15 0.447429 0.043119 0.212190
#
# Coordination Sequence:
#
# PCOD9251676 Si02
#       7
#     4   4   4   4   4   4   4
#     4  11  22  38  61  98 128 172 222 270 330 388
#     4  12  21  36  66 101 130 165 224 283 326 385
#     4  11  22  37  67  95 125 170 224 273 322 392
#     4  12  22  38  61  96 132 171 212 272 331 397
#     4  11  25  42  64  96 141 172 215 279 344 404
#     4  12  23  42  70  96 128 170 230 285 327 395
#     4  11  25  44  65  98 127 173 226 278 337 400
#
# _framework density 23.568422999999999
#
# number of rings (size 3 to 8) (size 9 to 14) (size 15 to 20)
#    0.000    0.571    7.143    2.571    2.000    0.000 
#    0.000    1.429    0.000    0.000    0.000    0.000 
#    0.000    0.000    0.000    0.000    0.000    0.000 
#
# Total GULP energy -156231.587818 kJ/mol
# GULP energy per Si atom -5579.699565 kJ/mol
# Density = 2.351478 g / cm^3
# Si number density = 23.568423 Si / 1000 Ang^3
#
#
#
# Elastic Constant Matrix: (Units=GPa)
#
#
# Indices 1 2 3 4 5 6 
#
# 1 72.4011 25.6692 43.6565 0.0000 -23.4704 0.0000
# 2 25.6692 164.3655 24.9631 0.0000 1.2050 0.0000
# 3 43.6565 24.9631 114.0002 0.0000 -23.5125 0.0000
# 4 0.0000 0.0000 0.0000 47.4441 0.0000 -19.0793
# 5 -23.4704 1.2050 -23.5125 0.0000 17.5660 0.0000
# 6 0.0000 0.0000 0.0000 -19.0793 0.0000 38.0481
#
#
#
# Elastic Compliance Matrix: (Units=1/GPa)
#
#
# Indices 1 2 3 4 5 6 
#
# 1 0.027989 -0.004194 -0.002801 0.000000 0.033936 0.000000
# 2 -0.004194 0.007050 -0.001648 0.000000 -0.008294 0.000000
# 3 -0.002801 -0.001648 0.013063 0.000000 0.013857 0.000000
# 4 0.000000 0.000000 0.000000 0.026401 0.000000 0.013239
# 5 0.033936 -0.008294 0.013857 0.000000 0.121387 0.000000
# 6 0.000000 0.000000 0.000000 0.013239 0.000000 0.032921
#
#
# Mechanical properties :
#
#
# Convention : Reuss Voigt Hill
#
# Bulk Modulus (GPa) = 32.45110 59.92714 46.18912
# Shear Modulus (GPa) = 19.50302 37.71017 28.60659
#
# Velocity S-wave (km/s) = 2.87976 4.00438 3.48770
# Velocity P-wave (km/s) = 4.98559 6.84559 5.98825
#
# Compressibility (1/GPa) = 0.03081559
#
# Stress axis : x y z
#
# Youngs Moduli (GPa) = 35.72860 141.84017 76.55069
#
# Poissons Ratio (x) = 0.59495 0.21439
# Poissons Ratio (y) = 0.14986 0.12617
# Poissons Ratio (z) = 0.10006 0.23378
#
# Static dielectric constant tensor:
#      x y z
#    x 1.879710 0.000000 -0.019280 
#    y 0.000000 2.046970 0.000000 
#    z -0.019280 0.000000 1.918020 
# 
# From -- ./inp_files/69061.got.cif
#   From: 2010.05.17/outbox.cif.g08.bks.cpg/sg14_35_cif.got.tgz:69061.got - 2010.06.03 17:49:19.
