data_PCOD9251885
_publ_section_title
;
Structure prediction by ZEFSAII (Michael W. Deem and Ramdas Pophale) SiO2 
 PCOD9251885
Probable space group: P 21/C
;
_chemical_formula_sum "Si O2"
_cell_formula_units_Z 20
_cell_length_a 7.409561
_cell_length_b 6.586934
_cell_length_c 17.283864
_cell_angle_alpha 90.000000
_cell_angle_beta 80.085446
_cell_angle_gamma 90.000000
_cell_volume 830.963203
_symmetry_space_group_name_H-M "P 21/C"
_symmetry_group_IT_number 14
_symmetry_cell_setting 'monoclinic'
loop_
_space_group_symop_operation_xyz
x,y,z
-x,1/2+y,1/2-z
-x,-y,-z
x,1/2-y,1/2+z
loop_
_atom_site_type_symbol
_atom_site_label
_atom_site_fract_x
_atom_site_fract_y
_atom_site_fract_z
Si Si1 0.500803 0.395521 0.583182
Si Si2 0.665730 0.957380 0.325684
Si Si3 0.890468 0.967498 0.087080
Si Si4 0.816990 0.378466 0.311184
Si Si5 0.728977 0.628810 0.187493
O O1 0.500000 0.500000 0.500000
O O2 0.709231 0.392691 0.598187
O O3 0.380293 0.539048 0.646735
O O4 0.397695 0.180311 0.597185
O O5 0.807339 0.139178 0.327443
O O6 0.477454 0.059960 0.311414
O O7 0.730763 0.804780 0.253505
O O8 0.813228 0.738272 0.106521
O O9 0.034759 0.989158 0.146074
O O10 0.000000 0.000000 0.000000
O O11 0.830640 0.440670 0.220879
#
# Coordination Sequence:
#
# PCOD9251885 Si02
#       5
#     4   4   4   4   4
#     4  11  24  48  70 100 151 191 243 304 371 456
#     4  11  22  45  79 102 141 197 251 310 370 438
#     4  12  26  47  71 107 156 192 242 316 381 456
#     4  11  25  45  72 106 140 195 251 310 372 447
#     4  11  23  43  74 104 140 189 252 307 368 447
#
# _framework density 24.068455
#
# number of rings (size 3 to 8) (size 9 to 14) (size 15 to 20)
#    0.000    0.800    6.000    1.200    2.800    0.800 
#    3.600    2.000    0.000    0.000    0.000    0.000 
#    0.000    0.000    0.000    0.000    0.000    0.000 
#
# Total GULP energy -111863.845034 kJ/mol
# GULP energy per Si atom -5593.192252 kJ/mol
# Density = 2.401367 g / cm^3
# Si number density = 24.068455 Si / 1000 Ang^3
#
#
#
# Elastic Constant Matrix: (Units=GPa)
#
#
# Indices 1 2 3 4 5 6 
#
# 1 118.1844 24.1674 33.8050 0.0000 -4.1859 0.0000
# 2 24.1674 118.2583 52.3121 0.0000 -13.8935 0.0000
# 3 33.8050 52.3121 113.8053 0.0000 -9.0001 0.0000
# 4 0.0000 0.0000 0.0000 36.3059 0.0000 -0.9175
# 5 -4.1859 -13.8935 -9.0001 0.0000 42.7246 0.0000
# 6 0.0000 0.0000 0.0000 -0.9175 0.0000 34.4406
#
#
#
# Elastic Compliance Matrix: (Units=1/GPa)
#
#
# Indices 1 2 3 4 5 6 
#
# 1 0.009316 -0.000839 -0.002371 0.000000 0.000141 0.000000
# 2 -0.000839 0.010951 -0.004586 0.000000 0.002513 0.000000
# 3 -0.002371 -0.004586 0.011657 0.000000 0.000732 0.000000
# 4 0.000000 0.000000 0.000000 0.027562 0.000000 0.000734
# 5 0.000141 0.002513 0.000732 0.000000 0.024391 0.000000
# 6 0.000000 0.000000 0.000000 0.000734 0.000000 0.029055
#
#
# Mechanical properties :
#
#
# Convention : Reuss Voigt Hill
#
# Bulk Modulus (GPa) = 61.22327 63.42410 62.32369
# Shear Modulus (GPa) = 37.32241 38.69180 38.00711
#
# Velocity S-wave (km/s) = 3.94214 4.01380 3.97813
# Velocity P-wave (km/s) = 6.79801 6.92023 6.85939
#
# Compressibility (1/GPa) = 0.01633366
#
# Stress axis : x y z
#
# Youngs Moduli (GPa) = 107.34334 91.31281 85.78503
#
# Poissons Ratio (x) = 0.07658 0.20336
# Poissons Ratio (y) = 0.09002 0.39342
# Poissons Ratio (z) = 0.25447 0.41877
#
# Static dielectric constant tensor:
#      x y z
#    x 1.938030 0.000000 -0.009110 
#    y 0.000000 1.999160 0.000000 
#    z -0.009110 0.000000 1.921600 
# 
# From -- ./inp_files/54003.got.cif
#   From: 2010.05.17/outbox.cif.g08.bks.cpg/sg14_28_cif.got.tgz:54003.got - 2010.06.03 17:49:19.
