data_PCOD9251631
_publ_section_title
;
Structure prediction by ZEFSAII (Michael W. Deem and Ramdas Pophale) SiO2 
 PCOD9251631
Probable space group: P 21/C
;
_chemical_formula_sum "Si O2"
_cell_formula_units_Z 30
_cell_length_a 8.001845
_cell_length_b 14.857575
_cell_length_c 14.548538
_cell_angle_alpha 90.000000
_cell_angle_beta 134.558367
_cell_angle_gamma 90.000000
_cell_volume 1232.435700
_symmetry_space_group_name_H-M "P 21/C"
_symmetry_group_IT_number 14
_symmetry_cell_setting 'monoclinic'
loop_
_space_group_symop_operation_xyz
x,y,z
-x,1/2+y,1/2-z
-x,-y,-z
x,1/2-y,1/2+z
loop_
_atom_site_type_symbol
_atom_site_label
_atom_site_fract_x
_atom_site_fract_y
_atom_site_fract_z
Si Si1 0.673266 0.861911 0.411942
Si Si2 0.977050 0.293396 0.482587
Si Si3 0.907342 0.767833 0.765436
Si Si4 0.000459 0.063174 0.318565
Si Si5 0.522411 0.501016 0.704307
Si Si6 0.000000 0.000000 0.000000
Si Si7 0.419637 0.664534 0.138043
Si Si8 0.229347 0.890556 0.368440
O O1 0.451233 0.862999 0.393740
O O2 0.788669 0.763936 0.448353
O O3 0.877619 0.924049 0.535318
O O4 0.599217 0.909759 0.289353
O O5 0.755204 0.229973 0.373486
O O6 0.972562 0.295354 0.592142
O O7 0.982745 0.395097 0.451802
O O8 0.633099 0.777816 0.679458
O O9 0.981789 0.841125 0.720852
O O10 0.005550 0.673180 0.770028
O O11 0.739682 0.026894 0.225854
O O12 0.160450 0.993250 0.324107
O O13 0.267983 0.511356 0.563620
O O14 0.491995 0.418227 0.765714
O O15 0.292872 0.621185 0.000621
#
# Coordination Sequence:
#
# PCOD9251631 Si02
#       8
#     4   4   4   4   4   2   4   4
#     4  12  24  46  80 107 136 185 258 301 348 430
#     4  11  27  45  69 103 142 195 235 295 361 430
#     4  11  25  44  67 104 146 184 227 305 361 428
#     4  12  24  46  75 111 138 186 245 305 363 423
#     4  12  25  45  74 106 143 190 243 304 357 438
#     4  12  30  44  66 102 152 192 232 296 374 432
#     4  11  21  46  70  98 143 183 248 294 352 425
#     4  11  25  42  72 108 142 185 239 305 368 417
#
# _framework density 24.342040999999998
#
# number of rings (size 3 to 8) (size 9 to 14) (size 15 to 20)
#    0.000    0.533    5.333    3.200    5.600    1.067 
#    0.000    0.667    0.000    0.000    0.000    0.000 
#    0.000    0.000    0.000    0.000    0.000    0.000 
#
# Total GULP energy -167579.530009 kJ/mol
# GULP energy per Si atom -5585.984334 kJ/mol
# Density = 2.428664 g / cm^3
# Si number density = 24.342041 Si / 1000 Ang^3
#
#
#
# Elastic Constant Matrix: (Units=GPa)
#
#
# Indices 1 2 3 4 5 6 
#
# 1 101.4324 13.4237 8.5843 0.0000 27.6112 0.0000
# 2 13.4237 102.3125 -2.8371 0.0000 4.2527 0.0000
# 3 8.5843 -2.8371 22.2959 0.0000 17.9780 0.0000
# 4 0.0000 0.0000 0.0000 28.0682 0.0000 5.1195
# 5 27.6112 4.2527 17.9780 0.0000 40.5520 0.0000
# 6 0.0000 0.0000 0.0000 5.1195 0.0000 33.0092
#
#
#
# Elastic Compliance Matrix: (Units=1/GPa)
#
#
# Indices 1 2 3 4 5 6 
#
# 1 0.012371 -0.001150 0.002779 0.000000 -0.009535 0.000000
# 2 -0.001150 0.010076 0.003028 0.000000 -0.001616 0.000000
# 3 0.002779 0.003028 0.071512 0.000000 -0.033913 0.000000
# 4 0.000000 0.000000 0.000000 0.036665 0.000000 -0.005686
# 5 -0.009535 -0.001616 -0.033913 0.000000 0.046356 0.000000
# 6 0.000000 0.000000 0.000000 -0.005686 0.000000 0.031177
#
#
# Mechanical properties :
#
#
# Convention : Reuss Voigt Hill
#
# Bulk Modulus (GPa) = 9.68301 29.37585 19.52943
# Shear Modulus (GPa) = 21.43462 34.11718 27.77590
#
# Velocity S-wave (km/s) = 2.97064 3.74782 3.38163
# Velocity P-wave (km/s) = 3.96898 5.55179 4.82572
#
# Compressibility (1/GPa) = 0.10327364
#
# Stress axis : x y z
#
# Youngs Moduli (GPa) = 80.83259 99.24596 13.98360
#
# Poissons Ratio (x) = 0.11411 -0.03886
# Poissons Ratio (y) = 0.09294 -0.04234
# Poissons Ratio (z) = -0.22461 -0.30052
#
# Static dielectric constant tensor:
#      x y z
#    x 1.894660 0.000000 -0.027190 
#    y 0.000000 1.918100 0.000000 
#    z -0.027190 0.000000 2.038040 
# 
# From -- ./inp_files/55994.got.cif
#   From: 2010.05.17/outbox.cif.g08.bks.cpg/sg14_28_cif.got.tgz:55994.got - 2010.06.03 17:49:19.
