data_PCOD9251477
_publ_section_title
;
Structure prediction by ZEFSAII (Michael W. Deem and Ramdas Pophale) SiO2 
 PCOD9251477
Probable space group: P 21/C
;
_chemical_formula_sum "Si O2"
_cell_formula_units_Z 24
_cell_length_a 14.518195
_cell_length_b 8.531159
_cell_length_c 18.177357
_cell_angle_alpha 90.000000
_cell_angle_beta 26.622944
_cell_angle_gamma 90.000000
_cell_volume 1008.887937
_symmetry_space_group_name_H-M "P 21/C"
_symmetry_group_IT_number 14
_symmetry_cell_setting 'monoclinic'
loop_
_space_group_symop_operation_xyz
x,y,z
-x,1/2+y,1/2-z
-x,-y,-z
x,1/2-y,1/2+z
loop_
_atom_site_type_symbol
_atom_site_label
_atom_site_fract_x
_atom_site_fract_y
_atom_site_fract_z
Si Si1 0.646947 0.054396 0.581260
Si Si2 0.995143 0.766785 0.181352
Si Si3 0.850762 0.880968 0.929037
Si Si4 0.436778 0.940870 0.126050
Si Si5 0.333441 0.177012 0.311758
Si Si6 0.569194 0.642598 0.998259
O O1 0.854444 0.137710 0.460670
O O2 0.495008 0.194289 0.668645
O O3 0.561583 0.941524 0.704914
O O4 0.670438 0.937954 0.497015
O O5 0.995644 0.712196 0.267304
O O6 0.759142 0.767483 0.325134
O O7 0.068791 0.943547 0.115043
O O8 0.640028 0.912400 0.032537
O O9 0.817271 0.777906 0.027038
O O10 0.289110 0.057932 0.276209
O O11 0.382246 0.758431 0.151474
O O12 0.500000 0.000000 0.000000
O O13 0.500000 0.500000 0.000000
#
# Coordination Sequence:
#
# PCOD9251477 Si02
#       6
#     4   4   4   4   4   4
#     4  12  20  38  66  98 134 175 236 283 328 421
#     4  11  21  39  66  99 131 181 233 283 334 412
#     4  11  21  38  65 100 131 178 237 278 335 408
#     4  11  23  40  65 100 138 179 223 278 352 408
#     4  12  21  38  66 103 131 178 235 282 334 414
#     4  11  24  41  66 102 136 181 227 280 356 410
#
# _framework density 23.78857
#
# number of rings (size 3 to 8) (size 9 to 14) (size 15 to 20)
#    0.000    0.667    8.333    1.000    0.000    0.000 
#    0.000    0.000    0.000   44.000    0.000    0.000 
#    0.000    0.000    0.000    0.000    0.000    0.000 
#
# Total GULP energy -133762.602181 kJ/mol
# GULP energy per Si atom -5573.441758 kJ/mol
# Density = 2.373443 g / cm^3
# Si number density = 23.788570 Si / 1000 Ang^3
#
#
#
# Elastic Constant Matrix: (Units=GPa)
#
#
# Indices 1 2 3 4 5 6 
#
# 1 36.7832 25.9792 12.9247 0.0000 16.8603 0.0000
# 2 25.9792 184.3438 46.2828 0.0000 14.9610 0.0000
# 3 12.9247 46.2828 72.5708 0.0000 13.6042 0.0000
# 4 0.0000 0.0000 0.0000 53.0419 0.0000 11.7474
# 5 16.8603 14.9610 13.6042 0.0000 26.4377 0.0000
# 6 0.0000 0.0000 0.0000 11.7474 0.0000 41.9260
#
#
#
# Elastic Compliance Matrix: (Units=1/GPa)
#
#
# Indices 1 2 3 4 5 6 
#
# 1 0.040838 -0.003716 -0.000460 0.000000 -0.023704 0.000000
# 2 -0.003716 0.006867 -0.003800 0.000000 0.000439 0.000000
# 3 -0.000460 -0.003800 0.017517 0.000000 -0.006570 0.000000
# 4 0.000000 0.000000 0.000000 0.020100 0.000000 -0.005632
# 5 -0.023704 0.000439 -0.006570 0.000000 0.056074 0.000000
# 6 0.000000 0.000000 0.000000 -0.005632 0.000000 0.025430
#
#
# Mechanical properties :
#
#
# Convention : Reuss Voigt Hill
#
# Bulk Modulus (GPa) = 20.29628 51.56346 35.92987
# Shear Modulus (GPa) = 25.10052 38.18186 31.64119
#
# Velocity S-wave (km/s) = 3.25183 4.01065 3.65101
# Velocity P-wave (km/s) = 4.75917 6.57038 5.73671
#
# Compressibility (1/GPa) = 0.04927011
#
# Stress axis : x y z
#
# Youngs Moduli (GPa) = 24.48723 145.63029 57.08882
#
# Poissons Ratio (x) = 0.54116 0.02623
# Poissons Ratio (y) = 0.09099 0.21693
# Poissons Ratio (z) = 0.01125 0.55337
#
# Static dielectric constant tensor:
#      x y z
#    x 1.951620 0.000000 0.002820 
#    y 0.000000 1.974350 0.000000 
#    z 0.002820 0.000000 1.971770 
# 
# From -- ./inp_files/60107.got.cif
#   From: 2010.05.17/outbox.cif.g08.bks.cpg/sg14_31_cif.got.tgz:60107.got - 2010.06.03 17:49:19.
