data_PCOD9251126
_publ_section_title
;
Structure prediction by ZEFSAII (Michael W. Deem and Ramdas Pophale) SiO2 
 PCOD9251126
Probable space group: P 21/C
;
_chemical_formula_sum "Si O2"
_cell_formula_units_Z 24
_cell_length_a 5.077800
_cell_length_b 14.217623
_cell_length_c 12.376423
_cell_angle_alpha 90.000000
_cell_angle_beta 89.377933
_cell_angle_gamma 90.000000
_cell_volume 893.453866
_symmetry_space_group_name_H-M "P 21/C"
_symmetry_group_IT_number 14
_symmetry_cell_setting 'monoclinic'
loop_
_space_group_symop_operation_xyz
x,y,z
-x,1/2+y,1/2-z
-x,-y,-z
x,1/2-y,1/2+z
loop_
_atom_site_type_symbol
_atom_site_label
_atom_site_fract_x
_atom_site_fract_y
_atom_site_fract_z
Si Si1 0.553103 0.871153 0.689657
Si Si2 0.641256 0.916875 0.931443
Si Si3 0.053593 0.929338 0.171955
Si Si4 0.560234 0.926247 0.323493
Si Si5 0.068211 0.388782 0.992752
Si Si6 0.689790 0.229744 0.953821
O O1 0.528707 0.888860 0.815040
O O2 0.275585 0.582105 0.765988
O O3 0.836631 0.867232 0.630180
O O4 0.436036 0.965319 0.637708
O O5 0.562773 0.823477 0.996427
O O6 0.905451 0.969376 0.886161
O O7 0.500000 0.000000 0.000000
O O8 0.773070 0.917129 0.227091
O O9 0.404490 0.720849 0.155042
O O10 0.108162 0.851594 0.081337
O O11 0.690719 0.872548 0.423973
O O12 0.000000 0.500000 0.000000
O O13 0.840606 0.312416 0.017883
#
# Coordination Sequence:
#
# PCOD9251126 Si02
#       6
#     4   4   4   4   4   4
#     4  11  25  44  73 107 149 199 257 314 387 468
#     4   9  22  50  73 103 151 201 254 318 384 456
#     4  10  25  49  77 109 153 209 260 321 386 465
#     4  11  24  46  79 105 154 208 254 315 399 457
#     4  12  25  45  72 110 158 200 252 322 401 465
#     4  11  26  45  73 116 146 200 262 319 388 470
#
# _framework density 26.862048000000001
#
# number of rings (size 3 to 8) (size 9 to 14) (size 15 to 20)
#    0.000    1.333    1.667    2.500    7.000    0.000 
#    6.000    7.500    0.000    0.000    0.000    0.000 
#    0.000    0.000    0.000    0.000    0.000    0.000 
#
# Total GULP energy -134190.018348 kJ/mol
# GULP energy per Si atom -5591.250765 kJ/mol
# Density = 2.680091 g / cm^3
# Si number density = 26.862048 Si / 1000 Ang^3
#
#
#
# Elastic Constant Matrix: (Units=GPa)
#
#
# Indices 1 2 3 4 5 6 
#
# 1 128.0326 34.5795 43.5568 0.0000 9.1372 0.0000
# 2 34.5795 164.6731 30.7621 0.0000 12.9336 0.0000
# 3 43.5568 30.7621 136.6674 0.0000 15.3181 0.0000
# 4 0.0000 0.0000 0.0000 47.7786 0.0000 -9.0689
# 5 9.1372 12.9336 15.3181 0.0000 47.8665 0.0000
# 6 0.0000 0.0000 0.0000 -9.0689 0.0000 24.0922
#
#
#
# Elastic Compliance Matrix: (Units=1/GPa)
#
#
# Indices 1 2 3 4 5 6 
#
# 1 0.009083 -0.001393 -0.002519 0.000000 -0.000551 0.000000
# 2 -0.001393 0.006632 -0.000910 0.000000 -0.001235 0.000000
# 3 -0.002519 -0.000910 0.008550 0.000000 -0.002009 0.000000
# 4 0.000000 0.000000 0.000000 0.022540 0.000000 0.008485
# 5 -0.000551 -0.001235 -0.002009 0.000000 0.021973 0.000000
# 6 0.000000 0.000000 0.000000 0.008485 0.000000 0.044701
#
#
# Mechanical properties :
#
#
# Convention : Reuss Voigt Hill
#
# Bulk Modulus (GPa) = 68.40347 71.90777 70.15562
# Shear Modulus (GPa) = 39.06247 45.31245 42.18746
#
# Velocity S-wave (km/s) = 3.81752 4.11159 3.96728
# Velocity P-wave (km/s) = 6.70457 7.02621 6.86727
#
# Compressibility (1/GPa) = 0.01461914
#
# Stress axis : x y z
#
# Youngs Moduli (GPa) = 110.09184 150.77758 116.95741
#
# Poissons Ratio (x) = 0.21010 0.29467
# Poissons Ratio (y) = 0.15341 0.10647
# Poissons Ratio (z) = 0.27738 0.13726
#
# Static dielectric constant tensor:
#      x y z
#    x 2.226650 0.000000 -0.000040 
#    y 0.000000 2.088140 0.000000 
#    z -0.000040 0.000000 2.099410 
# 
# From -- ./inp_files/55091.got.cif
#   From: 2010.05.17/outbox.cif.g08.bks.cpg/sg14_28_cif.got.tgz:55091.got - 2010.06.03 17:49:19.
