data_PCOD9251254
_publ_section_title
;
Structure prediction by ZEFSAII (Michael W. Deem and Ramdas Pophale) SiO2 
 PCOD9251254
Probable space group: P 21/C
;
_chemical_formula_sum "Si O2"
_cell_formula_units_Z 20
_cell_length_a 4.590001
_cell_length_b 14.800239
_cell_length_c 10.115785
_cell_angle_alpha 90.000000
_cell_angle_beta 85.286695
_cell_angle_gamma 90.000000
_cell_volume 684.872883
_symmetry_space_group_name_H-M "P 21/C"
_symmetry_group_IT_number 14
_symmetry_cell_setting 'monoclinic'
loop_
_space_group_symop_operation_xyz
x,y,z
-x,1/2+y,1/2-z
-x,-y,-z
x,1/2-y,1/2+z
loop_
_atom_site_type_symbol
_atom_site_label
_atom_site_fract_x
_atom_site_fract_y
_atom_site_fract_z
Si Si1 0.002475 0.919355 0.108259
Si Si2 0.439257 0.171713 0.683547
Si Si3 0.289825 0.426891 0.757074
Si Si4 0.808029 0.420500 0.941473
Si Si5 0.951067 0.291346 0.608609
O O1 0.706483 0.879418 0.185636
O O2 0.171168 0.973558 0.219119
O O3 0.148647 0.833866 0.027528
O O4 0.000000 0.000000 0.000000
O O5 0.661517 0.256810 0.699422
O O6 0.607803 0.118333 0.562014
O O7 0.406009 0.938606 0.677545
O O8 0.073465 0.369923 0.861376
O O9 0.202529 0.366748 0.634346
O O10 0.000000 0.500000 0.000000
O O11 0.150768 0.295167 0.118425
#
# Coordination Sequence:
#
# PCOD9251254 Si02
#       5
#     4   4   4   4   4
#     4  10  28  57  88 126 177 233 296 358 446 549
#     4  12  29  51  84 126 175 233 291 370 449 517
#     4  11  27  51  86 122 171 238 293 355 448 531
#     4  12  29  50  81 130 169 223 296 364 435 524
#     4  11  28  53  85 124 178 225 291 372 443 527
#
# _framework density 29.202497999999999
#
# number of rings (size 3 to 8) (size 9 to 14) (size 15 to 20)
#    0.000    0.800    0.000    3.000   16.800    1.600 
#    0.000    9.000    0.000    0.000    0.000    0.000 
#    0.000    0.000    0.000    0.000    0.000    0.000 
#
# Total GULP energy -111401.034006 kJ/mol
# GULP energy per Si atom -5570.051700 kJ/mol
# Density = 2.913603 g / cm^3
# Si number density = 29.202498 Si / 1000 Ang^3
#
#
#
# Elastic Constant Matrix: (Units=GPa)
#
#
# Indices 1 2 3 4 5 6 
#
# 1 214.3319 65.5693 71.1056 0.0000 10.4885 0.0000
# 2 65.5693 115.6815 66.1317 0.0000 -3.2059 0.0000
# 3 71.1056 66.1317 158.3280 0.0000 -2.0825 0.0000
# 4 0.0000 0.0000 0.0000 40.6644 0.0000 -15.2151
# 5 10.4885 -3.2059 -2.0825 0.0000 69.2788 0.0000
# 6 0.0000 0.0000 0.0000 -15.2151 0.0000 46.1140
#
#
#
# Elastic Compliance Matrix: (Units=1/GPa)
#
#
# Indices 1 2 3 4 5 6 
#
# 1 0.006040 -0.002489 -0.001687 0.000000 -0.001080 0.000000
# 2 -0.002489 0.012392 -0.004047 0.000000 0.000829 0.000000
# 3 -0.001687 -0.004047 0.008769 0.000000 0.000332 0.000000
# 4 0.000000 0.000000 0.000000 0.028055 0.000000 0.009257
# 5 -0.001080 0.000829 0.000332 0.000000 0.014646 0.000000
# 6 0.000000 0.000000 0.000000 0.009257 0.000000 0.024740
#
#
# Mechanical properties :
#
#
# Convention : Reuss Voigt Hill
#
# Bulk Modulus (GPa) = 92.99186 99.32829 96.16008
# Shear Modulus (GPa) = 43.60281 50.24712 46.92497
#
# Velocity S-wave (km/s) = 3.86828 4.15257 4.01294
# Velocity P-wave (km/s) = 7.20169 7.55508 7.38050
#
# Compressibility (1/GPa) = 0.01075363
#
# Stress axis : x y z
#
# Youngs Moduli (GPa) = 165.57396 80.69888 114.04423
#
# Poissons Ratio (x) = 0.20084 0.19240
# Poissons Ratio (y) = 0.41208 0.46157
# Poissons Ratio (z) = 0.27934 0.32661
#
# Static dielectric constant tensor:
#      x y z
#    x 2.356470 0.000000 0.173010 
#    y 0.000000 2.595370 0.000000 
#    z 0.173010 0.000000 2.820130 
# 
# From -- ./inp_files/20602.got.cif
#   From: 2010.05.17/outbox.cif.g08.bks.cpg/sg14_11_cif.got.tgz:20602.got - 2010.06.03 17:49:19.
