data_PCOD9251282
_publ_section_title
;
Structure prediction by ZEFSAII (Michael W. Deem and Ramdas Pophale) SiO2 
 PCOD9251282
Probable space group: P 21/C
;
_chemical_formula_sum "Si O2"
_cell_formula_units_Z 32
_cell_length_a 11.565895
_cell_length_b 21.299657
_cell_length_c 8.068797
_cell_angle_alpha 90.000000
_cell_angle_beta 45.762254
_cell_angle_gamma 90.000000
_cell_volume 1424.122139
_symmetry_space_group_name_H-M "P 21/C"
_symmetry_group_IT_number 14
_symmetry_cell_setting 'monoclinic'
loop_
_space_group_symop_operation_xyz
x,y,z
-x,1/2+y,1/2-z
-x,-y,-z
x,1/2-y,1/2+z
loop_
_atom_site_type_symbol
_atom_site_label
_atom_site_fract_x
_atom_site_fract_y
_atom_site_fract_z
Si Si1 0.382360 0.044735 0.012196
Si Si2 0.318198 0.879848 0.358324
Si Si3 0.882359 0.044735 0.723085
Si Si4 0.422546 0.188769 0.435410
Si Si5 0.922546 0.311231 0.719496
Si Si6 0.370658 0.732975 0.570171
Si Si7 0.181801 0.120152 0.494719
Si Si8 0.870658 0.767025 0.688516
O O1 0.280259 0.085915 0.246768
O O2 0.250000 1.000000 0.056564
O O3 0.511000 0.086251 0.782216
O O4 0.500000 0.000000 0.000000
O O5 0.219740 0.914084 0.307289
O O6 0.192587 0.870590 0.634753
O O7 0.354605 0.810858 0.247040
O O8 0.011000 0.086251 0.695783
O O9 0.000000 0.000000 0.500000
O O10 0.529741 0.195086 0.164422
O O11 0.541191 0.201801 0.469101
O O12 0.307412 0.129410 0.519927
O O13 0.304620 0.248705 0.572360
O O14 0.804621 0.251295 0.818395
O O15 0.029740 0.304914 0.776096
O O16 0.041193 0.298200 0.448513
O O17 0.145395 0.189142 0.456248
#
# Coordination Sequence:
#
# PCOD9251282 Si02
#       8
#     4   4   4   4   4   4   4   4
#     4   9  19  34  54  84 111 138 193 250 291 320
#     4  11  19  34  57  82 118 147 181 239 290 325
#     4   9  19  34  54  84 111 138 193 250 291 320
#     4  12  22  36  54  83 126 158 189 224 275 351
#     4  12  22  36  54  83 126 158 189 224 275 351
#     4  12  22  36  55  85 125 155 190 222 276 358
#     4  11  19  34  57  82 118 147 181 239 290 325
#     4  12  22  36  55  85 125 155 190 222 276 358
#
# _framework density 22.469982999999999
#
# number of rings (size 3 to 8) (size 9 to 14) (size 15 to 20)
#    0.000    1.000    7.500    0.000    0.000    0.000 
#    0.000    0.000    0.000    0.000    0.000   22.750 
#    0.000    0.000    0.000    0.000    0.000    0.000 
#
# Total GULP energy -178464.656539 kJ/mol
# GULP energy per Si atom -5577.020517 kJ/mol
# Density = 2.241884 g / cm^3
# Si number density = 22.469983 Si / 1000 Ang^3
#
#
#
# Elastic Constant Matrix: (Units=GPa)
#
#
# Indices 1 2 3 4 5 6 
#
# 1 70.3906 3.9516 3.8017 0.0000 -23.1942 0.0000
# 2 3.9516 47.9660 3.4302 0.0000 -7.4018 0.0000
# 3 3.8017 3.4302 67.0911 0.0000 -23.6910 0.0000
# 4 0.0000 0.0000 0.0000 32.8505 0.0000 -23.5315
# 5 -23.1942 -7.4018 -23.6910 0.0000 25.4091 0.0000
# 6 0.0000 0.0000 0.0000 -23.5315 0.0000 34.5072
#
#
#
# Elastic Compliance Matrix: (Units=1/GPa)
#
#
# Indices 1 2 3 4 5 6 
#
# 1 0.023938 0.002197 0.009651 0.000000 0.031489 0.000000
# 2 0.002197 0.022159 0.002579 0.000000 0.010866 0.000000
# 3 0.009651 0.002579 0.026243 0.000000 0.034029 0.000000
# 4 0.000000 0.000000 0.000000 0.059511 0.000000 0.040582
# 5 0.031489 0.010866 0.034029 0.000000 0.102993 0.000000
# 6 0.000000 0.000000 0.000000 0.040582 0.000000 0.056654
#
#
# Mechanical properties :
#
#
# Convention : Reuss Voigt Hill
#
# Bulk Modulus (GPa) = 9.88206 23.09053 16.48629
# Shear Modulus (GPa) = 16.87054 30.17097 23.52075
#
# Velocity S-wave (km/s) = 2.74305 3.66829 3.23888
# Velocity P-wave (km/s) = 3.79998 5.31416 4.61953
#
# Compressibility (1/GPa) = 0.10119352
#
# Stress axis : x y z
#
# Youngs Moduli (GPa) = 41.77490 45.12771 38.10611
#
# Poissons Ratio (x) = -0.09914 -0.36775
# Poissons Ratio (y) = -0.09178 -0.09829
# Poissons Ratio (z) = -0.40315 -0.11640
#
# Static dielectric constant tensor:
#      x y z
#    x 1.881250 0.000000 0.010190 
#    y 0.000000 1.896590 0.000000 
#    z 0.010190 0.000000 1.881970 
# 
# From -- ./inp_files/14482.got.cif
#   From: 2010.05.17/outbox.cif.g08.bks.cpg/sg14_8_cif.got.tgz:14482.got - 2010.06.03 17:49:19.
