data_PCOD9251117
_publ_section_title
;
Structure prediction by ZEFSAII (Michael W. Deem and Ramdas Pophale) SiO2 
 PCOD9251117
Probable space group: P 21/C
;
_chemical_formula_sum "Si O2"
_cell_formula_units_Z 26
_cell_length_a 4.838364
_cell_length_b 10.858644
_cell_length_c 20.831449
_cell_angle_alpha 90.000000
_cell_angle_beta 66.008925
_cell_angle_gamma 90.000000
_cell_volume 999.893831
_symmetry_space_group_name_H-M "P 21/C"
_symmetry_group_IT_number 14
_symmetry_cell_setting 'monoclinic'
loop_
_space_group_symop_operation_xyz
x,y,z
-x,1/2+y,1/2-z
-x,-y,-z
x,1/2-y,1/2+z
loop_
_atom_site_type_symbol
_atom_site_label
_atom_site_fract_x
_atom_site_fract_y
_atom_site_fract_z
Si Si1 0.700626 0.609156 0.195694
Si Si2 0.408622 0.149960 0.743244
Si Si3 0.696915 0.810306 0.385937
Si Si4 0.904726 0.172336 0.055785
Si Si5 0.014507 0.596527 0.596085
Si Si6 0.500000 0.000000 0.500000
Si Si7 0.357564 0.693653 0.111662
O O1 0.493161 0.707419 0.254478
O O2 0.626209 0.466830 0.212539
O O3 0.632431 0.651150 0.129567
O O4 0.050336 0.642709 0.174278
O O5 0.216188 0.163807 0.695844
O O6 0.231596 0.117081 0.824981
O O7 0.950800 0.780700 0.414828
O O8 0.452207 0.700058 0.409791
O O9 0.543456 0.934588 0.425749
O O10 0.009446 0.160570 0.971955
O O11 0.007994 0.046658 0.079944
O O12 0.304774 0.661646 0.602289
O O13 0.610994 0.130413 0.459779
#
# Coordination Sequence:
#
# PCOD9251117 Si02
#       7
#     4   4   4   4   4   2   4
#     4  11  27  47  73 107 148 190 249 304 372 436
#     4  11  26  48  73 109 147 195 241 309 365 441
#     4  12  28  46  75 107 146 189 246 303 365 429
#     4  11  27  49  73 110 143 194 243 303 362 447
#     4  10  25  48  77 104 150 191 245 297 374 439
#     4  12  26  48  74 104 150 190 250 302 362 442
#     4  11  26  46  75 106 141 196 244 304 364 438
#
# _framework density 26.002761
#
# number of rings (size 3 to 8) (size 9 to 14) (size 15 to 20)
#    0.000    0.923    3.077    0.923    6.462   14.769 
#    0.000    0.000    0.000    0.000    0.000    0.000 
#    0.000    0.000    0.000    0.000    0.000    0.000 
#
# Total GULP energy -144883.011719 kJ/mol
# GULP energy per Si atom -5572.423528 kJ/mol
# Density = 2.594358 g / cm^3
# Si number density = 26.002761 Si / 1000 Ang^3
#
#
#
# Elastic Constant Matrix: (Units=GPa)
#
#
# Indices 1 2 3 4 5 6 
#
# 1 85.4870 16.3849 24.5858 0.0000 14.1687 0.0000
# 2 16.3849 139.0822 30.3726 0.0000 5.0810 0.0000
# 3 24.5858 30.3726 170.9662 0.0000 23.1458 0.0000
# 4 0.0000 0.0000 0.0000 56.9947 0.0000 11.9670
# 5 14.1687 5.0810 23.1458 0.0000 23.4664 0.0000
# 6 0.0000 0.0000 0.0000 11.9670 0.0000 31.2726
#
#
#
# Elastic Compliance Matrix: (Units=1/GPa)
#
#
# Indices 1 2 3 4 5 6 
#
# 1 0.013301 -0.001145 -0.000757 0.000000 -0.007037 0.000000
# 2 -0.001145 0.007581 -0.001216 0.000000 0.000249 0.000000
# 3 -0.000757 -0.001216 0.007013 0.000000 -0.006197 0.000000
# 4 0.000000 0.000000 0.000000 0.019078 0.000000 -0.007301
# 5 -0.007037 0.000249 -0.006197 0.000000 0.052921 0.000000
# 6 0.000000 0.000000 0.000000 -0.007301 0.000000 0.034771
#
#
# Mechanical properties :
#
#
# Convention : Reuss Voigt Hill
#
# Bulk Modulus (GPa) = 46.16694 59.80245 52.98469
# Shear Modulus (GPa) = 33.75642 43.95956 38.85799
#
# Velocity S-wave (km/s) = 3.60694 4.11612 3.86991
# Velocity P-wave (km/s) = 5.92789 6.75561 6.35524
#
# Compressibility (1/GPa) = 0.02166052
#
# Stress axis : x y z
#
# Youngs Moduli (GPa) = 75.18243 131.90391 142.59445
#
# Poissons Ratio (x) = 0.15098 0.10791
# Poissons Ratio (y) = 0.08606 0.17339
# Poissons Ratio (z) = 0.05689 0.16039
#
# Static dielectric constant tensor:
#      x y z
#    x 2.099650 0.000000 -0.085300 
#    y 0.000000 2.073030 0.000000 
#    z -0.085300 0.000000 1.917830 
# 
# From -- ./inp_files/63285.got.cif
#   From: 2010.05.17/outbox.cif.g08.bks.cpg/sg14_32_cif.got.tgz:63285.got - 2010.06.03 17:49:19.
