data_PCOD9251113
_publ_section_title
;
Structure prediction by ZEFSAII (Michael W. Deem and Ramdas Pophale) SiO2 
 PCOD9251113
Probable space group: P 21/C
;
_chemical_formula_sum "Si O2"
_cell_formula_units_Z 16
_cell_length_a 28.946906
_cell_length_b 4.957642
_cell_length_c 11.999998
_cell_angle_alpha 90.000000
_cell_angle_beta 17.772559
_cell_angle_gamma 90.000000
_cell_volume 525.652677
_symmetry_space_group_name_H-M "P 21/C"
_symmetry_group_IT_number 14
_symmetry_cell_setting 'monoclinic'
loop_
_space_group_symop_operation_xyz
x,y,z
-x,1/2+y,1/2-z
-x,-y,-z
x,1/2-y,1/2+z
loop_
_atom_site_type_symbol
_atom_site_label
_atom_site_fract_x
_atom_site_fract_y
_atom_site_fract_z
Si Si1 0.119074 0.028831 0.884295
Si Si2 0.379933 0.390304 0.364741
Si Si3 0.339328 0.710680 0.686626
Si Si4 0.110659 0.386800 0.651978
O O1 0.234310 0.896297 0.529570
O O2 0.223108 0.294689 0.670728
O O3 0.958366 0.912395 0.207095
O O4 0.095119 0.956736 0.070387
O O5 0.341331 0.573486 0.560109
O O6 0.500000 0.500000 0.000000
O O7 0.490465 0.163155 0.161359
O O8 0.274958 0.016967 0.816300
O O9 0.000000 0.500000 0.000000
#
# Coordination Sequence:
#
# PCOD9251113 Si02
#       4
#     4   4   4   4
#     4  11  25  47  76 113 157 206 261 324 398 476
#     4  12  25  46  77 115 157 208 264 327 397 476
#     4  11  24  47  76 113 157 207 265 329 396 474
#     4  10  25  48  75 111 155 205 260 324 394 470
#
# _framework density 30.43835
#
# number of rings (size 3 to 8) (size 9 to 14) (size 15 to 20)
#    0.000    1.000    0.000    5.250    0.000    8.000 
#    0.000   11.250    0.000    0.000    0.000    0.000 
#    0.000    0.000    0.000    0.000    0.000    0.000 
#
# Total GULP energy -89209.006125 kJ/mol
# GULP energy per Si atom -5575.562883 kJ/mol
# Density = 3.036907 g / cm^3
# Si number density = 30.438350 Si / 1000 Ang^3
#
#
#
# Elastic Constant Matrix: (Units=GPa)
#
#
# Indices 1 2 3 4 5 6 
#
# 1 182.9731 76.2086 77.3316 0.0000 53.7539 0.0000
# 2 76.2086 110.3983 49.6752 0.0000 17.0129 0.0000
# 3 77.3316 49.6752 273.6722 0.0000 64.9411 0.0000
# 4 0.0000 0.0000 0.0000 63.9025 0.0000 -7.4479
# 5 53.7539 17.0129 64.9411 0.0000 74.6680 0.0000
# 6 0.0000 0.0000 0.0000 -7.4479 0.0000 70.6002
#
#
#
# Elastic Compliance Matrix: (Units=1/GPa)
#
#
# Indices 1 2 3 4 5 6 
#
# 1 0.009486 -0.005550 -0.000444 0.000000 -0.005178 0.000000
# 2 -0.005550 0.013156 -0.001331 0.000000 0.002156 0.000000
# 3 -0.000444 -0.001331 0.004881 0.000000 -0.003622 0.000000
# 4 0.000000 0.000000 0.000000 0.015844 0.000000 0.001671
# 5 -0.005178 0.002156 -0.003622 0.000000 0.019779 0.000000
# 6 0.000000 0.000000 0.000000 0.001671 0.000000 0.014341
#
#
# Mechanical properties :
#
#
# Convention : Reuss Voigt Hill
#
# Bulk Modulus (GPa) = 77.69381 108.16383 92.92882
# Shear Modulus (GPa) = 51.85202 66.08935 58.97068
#
# Velocity S-wave (km/s) = 4.13184 4.66473 4.40634
# Velocity P-wave (km/s) = 6.95292 8.03899 7.51560
#
# Compressibility (1/GPa) = 0.01287104
#
# Stress axis : x y z
#
# Youngs Moduli (GPa) = 105.41874 76.00890 204.89328
#
# Poissons Ratio (x) = 0.42188 0.09103
# Poissons Ratio (y) = 0.58511 0.27277
# Poissons Ratio (z) = 0.04684 0.10119
#
# Static dielectric constant tensor:
#      x y z
#    x 2.401020 0.000000 -0.018090 
#    y 0.000000 2.703000 0.000000 
#    z -0.018090 0.000000 2.241140 
# 
# From -- ./inp_files/36315.got.cif
#   From: 2010.05.17/outbox.cif.g08.bks.cpg/sg14_19_cif.got.tgz:36315.got - 2010.06.03 17:49:19.
