data_PCOD9251106
_publ_section_title
;
Structure prediction by ZEFSAII (Michael W. Deem and Ramdas Pophale) SiO2 
 PCOD9251106
Probable space group: P 21/C
;
_chemical_formula_sum "Si O2"
_cell_formula_units_Z 20
_cell_length_a 20.933512
_cell_length_b 4.882161
_cell_length_c 9.144357
_cell_angle_alpha 90.000000
_cell_angle_beta 51.562942
_cell_angle_gamma 90.000000
_cell_volume 732.033244
_symmetry_space_group_name_H-M "P 21/C"
_symmetry_group_IT_number 14
_symmetry_cell_setting 'monoclinic'
loop_
_space_group_symop_operation_xyz
x,y,z
-x,1/2+y,1/2-z
-x,-y,-z
x,1/2-y,1/2+z
loop_
_atom_site_type_symbol
_atom_site_label
_atom_site_fract_x
_atom_site_fract_y
_atom_site_fract_z
Si Si1 0.023098 0.352358 0.311936
Si Si2 0.715189 0.755031 0.277891
Si Si3 0.314108 0.619427 0.929181
Si Si4 0.818874 0.480059 0.380362
Si Si5 0.530783 0.073800 0.295836
O O1 0.096379 0.140140 0.240698
O O2 0.035577 0.620221 0.185911
O O3 0.000000 0.500000 0.500000
O O4 0.666026 0.557446 0.241317
O O5 0.771401 0.579586 0.304958
O O6 0.666769 0.960352 0.449900
O O7 0.776437 0.922202 0.089077
O O8 0.371399 0.882406 0.841023
O O9 0.215211 0.666668 0.070869
O O10 0.494567 0.357132 0.289609
O O11 0.500000 0.000000 0.500000
#
# Coordination Sequence:
#
# PCOD9251106 Si02
#       5
#     4   4   4   4   4
#     4  12  29  55  89 129 180 230 289 358 446 528
#     4  10  25  47  80 120 161 219 297 353 428 512
#     4  11  27  50  86 119 173 224 298 359 443 516
#     4  11  25  48  84 119 166 219 289 352 428 519
#     4  12  32  56  88 128 180 230 294 363 451 525
#
# _framework density 27.321164
#
# number of rings (size 3 to 8) (size 9 to 14) (size 15 to 20)
#    0.000    0.800    0.000    3.600   16.800    0.000 
#    3.600    0.000    0.000    0.000    0.000    0.000 
#    0.000    0.000    0.000    0.000    0.000    0.000 
#
# Total GULP energy -111943.460139 kJ/mol
# GULP energy per Si atom -5597.173007 kJ/mol
# Density = 2.725898 g / cm^3
# Si number density = 27.321164 Si / 1000 Ang^3
#
#
#
# Elastic Constant Matrix: (Units=GPa)
#
#
# Indices 1 2 3 4 5 6 
#
# 1 122.3798 52.8148 89.4380 0.0000 -2.2115 0.0000
# 2 52.8148 145.2106 41.9210 0.0000 1.8792 0.0000
# 3 89.4380 41.9210 133.7874 0.0000 28.4894 0.0000
# 4 0.0000 0.0000 0.0000 42.2689 0.0000 6.7628
# 5 -2.2115 1.8792 28.4894 0.0000 54.2683 0.0000
# 6 0.0000 0.0000 0.0000 6.7628 0.0000 60.8661
#
#
#
# Elastic Compliance Matrix: (Units=1/GPa)
#
#
# Indices 1 2 3 4 5 6 
#
# 1 0.020150 -0.003334 -0.014214 0.000000 0.008399 0.000000
# 2 -0.003334 0.008183 -0.000277 0.000000 -0.000274 0.000000
# 3 -0.014214 -0.000277 0.019348 0.000000 -0.010727 0.000000
# 4 0.000000 0.000000 0.000000 0.024086 0.000000 -0.002676
# 5 0.008399 -0.000274 -0.010727 0.000000 0.024410 0.000000
# 6 0.000000 0.000000 0.000000 -0.002676 0.000000 0.016727
#
#
# Mechanical properties :
#
#
# Convention : Reuss Voigt Hill
#
# Bulk Modulus (GPa) = 83.12293 85.52504 84.32398
# Shear Modulus (GPa) = 32.77320 45.96093 39.36707
#
# Velocity S-wave (km/s) = 3.46721 4.10597 3.80004
# Velocity P-wave (km/s) = 6.82050 7.33827 7.08412
#
# Compressibility (1/GPa) = 0.01203037
#
# Stress axis : x y z
#
# Youngs Moduli (GPa) = 49.62789 122.21027 51.68534
#
# Poissons Ratio (x) = 0.40744 0.73467
# Poissons Ratio (y) = 0.16546 0.01431
# Poissons Ratio (z) = 0.70542 0.03383
#
# Static dielectric constant tensor:
#      x y z
#    x 2.273360 0.000000 -0.012420 
#    y 0.000000 2.243940 0.000000 
#    z -0.012420 0.000000 2.122220 
# 
# From -- ./inp_files/18334.got.cif
#   From: 2010.05.17/outbox.cif.g08.bks.cpg/sg14_10_cif.got.tgz:18334.got - 2010.06.03 17:49:19.
