data_PCOD9251521
_publ_section_title
;
Structure prediction by ZEFSAII (Michael W. Deem and Ramdas Pophale) SiO2 
 PCOD9251521
Probable space group: P 21/C
;
_chemical_formula_sum "Si O2"
_cell_formula_units_Z 32
_cell_length_a 6.818077
_cell_length_b 27.108692
_cell_length_c 10.503590
_cell_angle_alpha 90.000000
_cell_angle_beta 136.563894
_cell_angle_gamma 90.000000
_cell_volume 1334.779429
_symmetry_space_group_name_H-M "P 21/C"
_symmetry_group_IT_number 14
_symmetry_cell_setting 'monoclinic'
loop_
_space_group_symop_operation_xyz
x,y,z
-x,1/2+y,1/2-z
-x,-y,-z
x,1/2-y,1/2+z
loop_
_atom_site_type_symbol
_atom_site_label
_atom_site_fract_x
_atom_site_fract_y
_atom_site_fract_z
Si Si1 0.365728 0.444389 0.935076
Si Si2 0.262214 0.831631 0.715162
Si Si3 0.142452 0.557934 0.103951
Si Si4 0.262650 0.728426 0.654631
Si Si5 0.766258 0.542615 0.408914
Si Si6 0.226038 0.266872 0.933059
Si Si7 0.970550 0.410888 0.213924
Si Si8 0.642368 0.819706 0.140174
O O1 0.246502 0.432777 0.737638
O O2 0.500000 0.500000 0.000000
O O3 0.889334 0.556817 0.085244
O O4 0.634698 0.408887 0.090334
O O5 0.253236 0.885581 0.656860
O O6 0.312472 0.786271 0.641812
O O7 0.488926 0.829843 0.934740
O O8 0.963524 0.815372 0.641779
O O9 0.026589 0.551568 0.905680
O O10 0.432254 0.527754 0.269641
O O11 0.454850 0.723665 0.872619
O O12 0.390320 0.687724 0.622949
O O13 0.937724 0.729735 0.545072
O O14 0.866640 0.571403 0.582346
O O15 0.000000 0.500000 0.500000
O O16 0.218066 0.234797 0.802325
O O17 0.126313 0.361955 0.235461
#
# Coordination Sequence:
#
# PCOD9251521 Si02
#       8
#     4   4   4   4   4   4   4   4
#     4  11  26  50  72 107 142 187 239 299 369 437
#     4   9  21  42  59  99 133 173 237 278 348 417
#     4  11  25  47  73 103 146 188 232 304 358 427
#     4   9  21  37  59  86 129 174 222 277 340 405
#     4  11  24  49  73 108 143 183 242 293 365 443
#     4   9  21  37  59  92 127 175 224 274 338 408
#     4  11  25  44  73 105 143 180 243 295 352 439
#     4  11  21  40  66  94 134 181 229 287 345 407
#
# _framework density 23.973998999999999
#
# number of rings (size 3 to 8) (size 9 to 14) (size 15 to 20)
#    0.750    1.000    2.500    0.750    1.750    5.500 
#    6.750    0.000    0.000    0.000    0.000    0.000 
#    0.000    0.000    0.000    0.000    0.000    0.000 
#
# Total GULP energy -178452.287234 kJ/mol
# GULP energy per Si atom -5576.633976 kJ/mol
# Density = 2.391943 g / cm^3
# Si number density = 23.973999 Si / 1000 Ang^3
#
#
#
# Elastic Constant Matrix: (Units=GPa)
#
#
# Indices 1 2 3 4 5 6 
#
# 1 140.2360 7.5574 45.5234 0.0000 -3.8160 0.0000
# 2 7.5574 35.6547 20.3104 0.0000 16.9875 0.0000
# 3 45.5234 20.3104 148.3440 0.0000 -15.6074 0.0000
# 4 0.0000 0.0000 0.0000 28.4909 0.0000 14.6417
# 5 -3.8160 16.9875 -15.6074 0.0000 17.8306 0.0000
# 6 0.0000 0.0000 0.0000 14.6417 0.0000 23.3560
#
#
#
# Elastic Compliance Matrix: (Units=1/GPa)
#
#
# Indices 1 2 3 4 5 6 
#
# 1 0.007924 -0.000135 -0.002447 0.000000 -0.000318 0.000000
# 2 -0.000135 0.097267 -0.025365 0.000000 -0.114899 0.000000
# 3 -0.002447 -0.025365 0.014817 0.000000 0.036611 0.000000
# 4 0.000000 0.000000 0.000000 0.051781 0.000000 -0.032461
# 5 -0.000318 -0.114899 0.036611 0.000000 0.197528 0.000000
# 6 0.000000 0.000000 0.000000 -0.032461 0.000000 0.063165
#
#
# Mechanical properties :
#
#
# Convention : Reuss Voigt Hill
#
# Bulk Modulus (GPa) = 15.59673 52.33523 33.96598
# Shear Modulus (GPa) = 9.80882 30.65840 20.23361
#
# Velocity S-wave (km/s) = 2.02493 3.57994 2.90829
# Velocity P-wave (km/s) = 3.46221 6.24222 5.04739
#
# Compressibility (1/GPa) = 0.06411598
#
# Stress axis : x y z
#
# Youngs Moduli (GPa) = 126.20442 10.28096 67.49229
#
# Poissons Ratio (x) = 0.00138 0.16513
# Poissons Ratio (y) = 0.01698 1.71191
# Poissons Ratio (z) = 0.30877 0.26077
#
# Static dielectric constant tensor:
#      x y z
#    x 1.927450 0.000000 -0.015840 
#    y 0.000000 2.018560 0.000000 
#    z -0.015840 0.000000 1.928690 
# 
# From -- ./inp_files/27099.got.cif
#   From: 2010.05.17/outbox.cif.g08.bks.cpg/sg14_14_cif.got.tgz:27099.got - 2010.06.03 17:49:19.
