data_PCOD9251432
_publ_section_title
;
Structure prediction by ZEFSAII (Michael W. Deem and Ramdas Pophale) SiO2 
 PCOD9251432
Probable space group: P 21/C
;
_chemical_formula_sum "Si O2"
_cell_formula_units_Z 28
_cell_length_a 10.370290
_cell_length_b 20.564590
_cell_length_c 9.365553
_cell_angle_alpha 90.000000
_cell_angle_beta 34.300250
_cell_angle_gamma 90.000000
_cell_volume 1125.540577
_symmetry_space_group_name_H-M "P 21/C"
_symmetry_group_IT_number 14
_symmetry_cell_setting 'monoclinic'
loop_
_space_group_symop_operation_xyz
x,y,z
-x,1/2+y,1/2-z
-x,-y,-z
x,1/2-y,1/2+z
loop_
_atom_site_type_symbol
_atom_site_label
_atom_site_fract_x
_atom_site_fract_y
_atom_site_fract_z
Si Si1 0.228741 0.110726 0.880994
Si Si2 0.795517 0.491423 0.403038
Si Si3 0.523383 0.710993 0.403989
Si Si4 0.354394 0.876329 0.288287
Si Si5 0.899219 0.279764 0.807926
Si Si6 0.728948 0.526296 0.146733
Si Si7 0.242584 0.189761 0.607826
O O1 0.158923 0.039954 0.004965
O O2 0.057117 0.167976 0.084618
O O3 0.460606 0.125159 0.754592
O O4 0.259141 0.124580 0.685472
O O5 0.753541 0.534001 0.295959
O O6 0.536541 0.461080 0.661053
O O7 0.031617 0.451718 0.149605
O O8 0.463963 0.645845 0.540915
O O9 0.704926 0.749690 0.334101
O O10 0.315315 0.761111 0.590449
O O11 0.593539 0.695157 0.178745
O O12 0.255065 0.947756 0.381618
O O13 0.176332 0.820114 0.485291
O O14 0.003411 0.210855 0.758133
#
# Coordination Sequence:
#
# PCOD9251432 Si02
#       7
#     4   4   4   4   4   4   4
#     4  11  21  35  55  79 109 142 180 228 278 327
#     4   9  18  33  55  83 109 138 181 233 282 327
#     4  12  23  36  50  76 110 146 186 222 268 330
#     4  11  21  35  55  79 109 142 180 228 278 327
#     4  12  20  34  55  74 111 144 176 228 272 326
#     4   9  18  33  55  83 109 138 181 233 282 327
#     4  12  23  36  50  76 110 146 186 222 268 330
#
# _framework density 24.876936000000001
#
# number of rings (size 3 to 8) (size 9 to 14) (size 15 to 20)
#    0.000    1.143    7.143    0.857    0.000    0.000 
#    0.000    0.000    0.000    0.857    0.000    1.000 
#    0.000    0.000    0.000    0.000    0.000    0.000 
#
# Total GULP energy -156315.358466 kJ/mol
# GULP energy per Si atom -5582.691374 kJ/mol
# Density = 2.482032 g / cm^3
# Si number density = 24.876936 Si / 1000 Ang^3
#
#
#
# Elastic Constant Matrix: (Units=GPa)
#
#
# Indices 1 2 3 4 5 6 
#
# 1 69.8606 10.9266 39.5161 0.0000 7.5817 0.0000
# 2 10.9266 46.4414 9.1701 0.0000 0.8578 0.0000
# 3 39.5161 9.1701 112.3364 0.0000 -8.5440 0.0000
# 4 0.0000 0.0000 0.0000 29.2342 0.0000 8.9211
# 5 7.5817 0.8578 -8.5440 0.0000 35.8374 0.0000
# 6 0.0000 0.0000 0.0000 8.9211 0.0000 9.3166
#
#
#
# Elastic Compliance Matrix: (Units=1/GPa)
#
#
# Indices 1 2 3 4 5 6 
#
# 1 0.019369 -0.003071 -0.006996 0.000000 -0.005692 0.000000
# 2 -0.003071 0.022405 -0.000754 0.000000 -0.000066 0.000000
# 3 -0.006996 -0.000754 0.011751 0.000000 0.004300 0.000000
# 4 0.000000 0.000000 0.000000 0.048328 0.000000 -0.046277
# 5 -0.005692 -0.000066 0.004300 0.000000 0.030135 0.000000
# 6 0.000000 0.000000 0.000000 -0.046277 0.000000 0.151647
#
#
# Mechanical properties :
#
#
# Convention : Reuss Voigt Hill
#
# Bulk Modulus (GPa) = 31.36257 38.65156 35.00706
# Shear Modulus (GPa) = 15.82758 26.14602 20.98680
#
# Velocity S-wave (km/s) = 2.52511 3.24545 2.90767
# Velocity P-wave (km/s) = 4.59739 5.44195 5.03740
#
# Compressibility (1/GPa) = 0.03188515
#
# Stress axis : x y z
#
# Youngs Moduli (GPa) = 51.62807 44.63277 85.09737
#
# Poissons Ratio (x) = 0.13705 0.59532
# Poissons Ratio (y) = 0.15853 0.06415
# Poissons Ratio (z) = 0.36118 0.03364
#
# Static dielectric constant tensor:
#      x y z
#    x 1.917580 0.000000 0.004880 
#    y 0.000000 1.964080 0.000000 
#    z 0.004880 0.000000 2.125390 
# 
# From -- ./inp_files/6499.got.cif
#   From: 2010.05.17/outbox.cif.g08.bks.cpg/sg14_4_cif.got.tgz:6499.got - 2010.06.03 17:49:19.
