data_PCOD9251107
_publ_section_title
;
Structure prediction by ZEFSAII (Michael W. Deem and Ramdas Pophale) SiO2 
 PCOD9251107
Probable space group: P 21/C
;
_chemical_formula_sum "Si O2"
_cell_formula_units_Z 32
_cell_length_a 8.057743
_cell_length_b 10.880795
_cell_length_c 14.867756
_cell_angle_alpha 90.000000
_cell_angle_beta 95.594891
_cell_angle_gamma 90.000000
_cell_volume 1297.315432
_symmetry_space_group_name_H-M "P 21/C"
_symmetry_group_IT_number 14
_symmetry_cell_setting 'monoclinic'
loop_
_space_group_symop_operation_xyz
x,y,z
-x,1/2+y,1/2-z
-x,-y,-z
x,1/2-y,1/2+z
loop_
_atom_site_type_symbol
_atom_site_label
_atom_site_fract_x
_atom_site_fract_y
_atom_site_fract_z
Si Si1 0.360818 0.095582 0.456946
Si Si2 0.818003 0.234580 0.876293
Si Si3 0.362049 0.504624 0.570628
Si Si4 0.875844 0.947945 0.096792
Si Si5 0.458069 0.245412 0.621522
Si Si6 0.194654 0.857612 0.436031
Si Si7 0.668128 0.727447 0.700148
Si Si8 0.023262 0.807933 0.794154
O O1 0.337285 0.189527 0.538006
O O2 0.410822 0.173579 0.372519
O O3 0.500000 0.000000 0.500000
O O4 0.211614 0.003531 0.425048
O O5 0.841697 0.292843 0.779390
O O6 0.988066 0.158131 0.898400
O O7 0.672804 0.132273 0.881115
O O8 0.810943 0.327942 0.958826
O O9 0.500000 0.500000 0.500000
O O10 0.193412 0.480423 0.504667
O O11 0.413210 0.388001 0.631955
O O12 0.724175 0.890269 0.146078
O O13 0.946593 0.064995 0.153144
O O14 0.641284 0.215753 0.592758
O O15 0.431620 0.188092 0.717121
O O16 0.049969 0.800084 0.368518
O O17 0.839793 0.790925 0.744356
#
# Coordination Sequence:
#
# PCOD9251107 Si02
#       8
#     4   4   4   4   4   4   4   4
#     4  10  25  48  68 100 150 188 238 295 362 435
#     4  11  25  43  71  99 142 189 229 298 361 427
#     4  12  22  42  70 100 135 181 239 293 351 427
#     4  11  24  46  68 100 143 183 242 297 356 425
#     4  11  24  45  70 102 139 188 241 293 356 429
#     4  11  25  45  66 104 139 188 235 294 368 422
#     4  11  26  44  72 101 137 192 238 296 361 422
#     4  11  26  44  69 106 142 183 240 296 360 430
#
# _framework density 24.666323999999999
#
# number of rings (size 3 to 8) (size 9 to 14) (size 15 to 20)
#    0.000    1.000    3.750    1.125    8.750    3.000 
#    4.500    3.125    0.000    0.000    0.000    0.000 
#    0.000    0.000    0.000    0.000    0.000    0.000 
#
# Total GULP energy -179242.164895 kJ/mol
# GULP energy per Si atom -5601.317653 kJ/mol
# Density = 2.461018 g / cm^3
# Si number density = 24.666324 Si / 1000 Ang^3
#
#
#
# Elastic Constant Matrix: (Units=GPa)
#
#
# Indices 1 2 3 4 5 6 
#
# 1 63.0499 6.2490 20.3028 0.0000 -0.3347 0.0000
# 2 6.2490 67.3575 12.9641 0.0000 10.5970 0.0000
# 3 20.3028 12.9641 107.3603 0.0000 -0.8371 0.0000
# 4 0.0000 0.0000 0.0000 49.7332 0.0000 -3.5264
# 5 -0.3347 10.5970 -0.8371 0.0000 45.1000 0.0000
# 6 0.0000 0.0000 0.0000 -3.5264 0.0000 30.1785
#
#
#
# Elastic Compliance Matrix: (Units=1/GPa)
#
#
# Indices 1 2 3 4 5 6 
#
# 1 0.016956 -0.001029 -0.003080 0.000000 0.000311 0.000000
# 2 -0.001029 0.015872 -0.001751 0.000000 -0.003769 0.000000
# 3 -0.003080 -0.001751 0.010113 0.000000 0.000576 0.000000
# 4 0.000000 0.000000 0.000000 0.020275 0.000000 0.002369
# 5 0.000311 -0.003769 0.000576 0.000000 0.023072 0.000000
# 6 0.000000 0.000000 0.000000 0.002369 0.000000 0.033413
#
#
# Mechanical properties :
#
#
# Convention : Reuss Voigt Hill
#
# Bulk Modulus (GPa) = 32.03093 35.19994 33.61543
# Shear Modulus (GPa) = 35.25408 38.21913 36.73661
#
# Velocity S-wave (km/s) = 3.78463 3.94057 3.86339
# Velocity P-wave (km/s) = 5.66673 5.91655 5.79298
#
# Compressibility (1/GPa) = 0.03121983
#
# Stress axis : x y z
#
# Youngs Moduli (GPa) = 58.97669 63.00507 98.88440
#
# Poissons Ratio (x) = 0.06484 0.30455
# Poissons Ratio (y) = 0.06070 0.17318
# Poissons Ratio (z) = 0.18164 0.11034
#
# Static dielectric constant tensor:
#      x y z
#    x 2.096220 0.000000 0.011730 
#    y 0.000000 1.974810 0.000000 
#    z 0.011730 0.000000 1.946060 
# 
# From -- ./inp_files/40066.got.cif
#   From: 2010.05.17/outbox.cif.g08.bks.cpg/sg14_21_cif.got.tgz:40066.got - 2010.06.03 17:49:19.
