data_PCOD9251144
_publ_section_title
;
Structure prediction by ZEFSAII (Michael W. Deem and Ramdas Pophale) SiO2 
 PCOD9251144
Probable space group: P 21/C
;
_chemical_formula_sum "Si O2"
_cell_formula_units_Z 30
_cell_length_a 19.625717
_cell_length_b 12.997453
_cell_length_c 8.899318
_cell_angle_alpha 90.000000
_cell_angle_beta 35.578277
_cell_angle_gamma 90.000000
_cell_volume 1320.763829
_symmetry_space_group_name_H-M "P 21/C"
_symmetry_group_IT_number 14
_symmetry_cell_setting 'monoclinic'
loop_
_space_group_symop_operation_xyz
x,y,z
-x,1/2+y,1/2-z
-x,-y,-z
x,1/2-y,1/2+z
loop_
_atom_site_type_symbol
_atom_site_label
_atom_site_fract_x
_atom_site_fract_y
_atom_site_fract_z
Si Si1 0.942785 0.695718 0.856904
Si Si2 0.815238 0.592491 0.569062
Si Si3 0.000000 0.000000 0.500000
Si Si4 0.134979 0.485083 0.207323
Si Si5 0.102135 0.822874 0.351383
Si Si6 0.714133 0.178640 0.621499
Si Si7 0.449979 0.763718 0.330332
Si Si8 0.436216 0.389998 0.110909
O O1 0.862461 0.794069 0.027388
O O2 0.872959 0.611256 0.889731
O O3 0.050282 0.741670 0.562999
O O4 0.994530 0.652254 0.922075
O O5 0.795708 0.538532 0.763359
O O6 0.700634 0.597446 0.673806
O O7 0.917221 0.536762 0.294637
O O8 0.115162 0.939514 0.373248
O O9 0.000000 0.500000 0.500000
O O10 0.194992 0.586281 0.035630
O O11 0.208812 0.775659 0.071660
O O12 0.616814 0.163012 0.667788
O O13 0.648417 0.208167 0.891001
O O14 0.532233 0.827362 0.294715
O O15 0.515155 0.678911 0.113978
O O16 0.500000 0.500000 0.000000
#
# Coordination Sequence:
#
# PCOD9251144 Si02
#       8
#     4   4   2   4   4   4   4   4
#     4  11  22  40  60  98 137 174 225 275 356 426
#     4  11  25  45  71  99 143 184 228 295 354 433
#     4  10  26  38  68 104 136 186 230 270 380 440
#     4  12  23  41  67 104 141 184 235 285 362 435
#     4  11  22  39  63  96 141 178 222 287 349 428
#     4  11  23  43  74  97 142 188 238 307 348 425
#     4  10  26  48  71 108 135 189 258 298 358 426
#     4  11  26  51  75 104 144 191 246 307 365 422
#
# _framework density 22.714130000000001
#
# number of rings (size 3 to 8) (size 9 to 14) (size 15 to 20)
#    0.000    1.067    2.667    2.400    7.467    3.200 
#    4.800    2.000    0.000    0.000    0.000    0.000 
#    0.000    0.000    0.000    0.000    0.000    0.000 
#
# Total GULP energy -167525.626456 kJ/mol
# GULP energy per Si atom -5584.187549 kJ/mol
# Density = 2.266243 g / cm^3
# Si number density = 22.714130 Si / 1000 Ang^3
#
#
#
# Elastic Constant Matrix: (Units=GPa)
#
#
# Indices 1 2 3 4 5 6 
#
# 1 136.7946 30.3502 17.8553 0.0000 17.7898 0.0000
# 2 30.3502 79.3734 2.9942 0.0000 1.5326 0.0000
# 3 17.8553 2.9942 39.3518 0.0000 5.8876 0.0000
# 4 0.0000 0.0000 0.0000 29.5190 0.0000 -0.9062
# 5 17.7898 1.5326 5.8876 0.0000 35.7627 0.0000
# 6 0.0000 0.0000 0.0000 -0.9062 0.0000 24.8121
#
#
#
# Elastic Compliance Matrix: (Units=1/GPa)
#
#
# Indices 1 2 3 4 5 6 
#
# 1 0.008940 -0.003223 -0.003246 0.000000 -0.003774 0.000000
# 2 -0.003223 0.013802 0.000267 0.000000 0.000968 0.000000
# 3 -0.003246 0.000267 0.027297 0.000000 -0.002890 0.000000
# 4 0.000000 0.000000 0.000000 0.033915 0.000000 0.001239
# 5 -0.003774 0.000968 -0.002890 0.000000 0.030274 0.000000
# 6 0.000000 0.000000 0.000000 0.001239 0.000000 0.040348
#
#
# Mechanical properties :
#
#
# Convention : Reuss Voigt Hill
#
# Bulk Modulus (GPa) = 26.57092 39.76878 33.16985
# Shear Modulus (GPa) = 27.85128 31.64010 29.74569
#
# Velocity S-wave (km/s) = 3.50546 3.73630 3.62272
# Velocity P-wave (km/s) = 5.30167 6.01329 5.66866
#
# Compressibility (1/GPa) = 0.03763512
#
# Stress axis : x y z
#
# Youngs Moduli (GPa) = 111.85784 72.45163 36.63417
#
# Poissons Ratio (x) = 0.23351 0.11893
# Poissons Ratio (y) = 0.36052 -0.00980
# Poissons Ratio (z) = 0.36313 -0.01937
#
# Static dielectric constant tensor:
#      x y z
#    x 1.893280 0.000000 -0.000620 
#    y 0.000000 1.290060 0.000000 
#    z -0.000620 0.000000 1.804730 
# 
# From -- ./inp_files/17995.got.cif
#   From: 2010.05.17/outbox.cif.g08.bks.cpg/sg14_9_cif.got.tgz:17995.got - 2010.06.03 17:49:19.
