data_PCOD9251292
_publ_section_title
;
Structure prediction by ZEFSAII (Michael W. Deem and Ramdas Pophale) SiO2 
 PCOD9251292
Probable space group: P 21/C
;
_chemical_formula_sum "Si O2"
_cell_formula_units_Z 28
_cell_length_a 8.382700
_cell_length_b 7.856234
_cell_length_c 26.569971
_cell_angle_alpha 90.000000
_cell_angle_beta 37.609410
_cell_angle_gamma 90.000000
_cell_volume 1067.862146
_symmetry_space_group_name_H-M "P 21/C"
_symmetry_group_IT_number 14
_symmetry_cell_setting 'monoclinic'
loop_
_space_group_symop_operation_xyz
x,y,z
-x,1/2+y,1/2-z
-x,-y,-z
x,1/2-y,1/2+z
loop_
_atom_site_type_symbol
_atom_site_label
_atom_site_fract_x
_atom_site_fract_y
_atom_site_fract_z
Si Si1 0.635918 0.842883 0.805780
Si Si2 0.648266 0.842333 0.090481
Si Si3 0.198828 0.894347 0.778542
Si Si4 0.085158 0.938923 0.061199
Si Si5 0.348382 0.507630 0.142562
Si Si6 0.292763 0.628399 0.829820
Si Si7 0.096426 0.890279 0.607687
O O1 0.592886 0.028242 0.839327
O O2 0.647729 0.688992 0.842746
O O3 0.357445 0.788697 0.848701
O O4 0.852559 0.833531 0.706547
O O5 0.843461 0.861099 0.089098
O O6 0.574252 0.646105 0.098873
O O7 0.775233 0.930257 0.010197
O O8 0.987335 0.964375 0.869505
O O9 0.134672 0.915860 0.736049
O O10 0.270933 0.708215 0.779881
O O11 0.459016 0.007415 0.723917
O O12 0.221335 0.768041 0.047781
O O13 0.285568 0.524880 0.100300
O O14 0.032300 0.519626 0.899726
#
# Coordination Sequence:
#
# PCOD9251292 Si02
#       7
#     4   4   4   4   4   4   4
#     4  11  23  42  68  97 132 174 222 283 330 392
#     4  11  25  45  71  99 141 172 226 282 340 393
#     4  11  19  37  66  96 128 167 221 279 329 385
#     4  11  22  44  69 102 129 180 223 279 339 396
#     4  11  26  41  65 100 137 173 221 277 331 408
#     4  11  19  36  65  94 125 165 225 278 318 384
#     4  12  24  41  66 100 133 176 227 273 335 403
#
# _framework density 26.220614000000001
#
# number of rings (size 3 to 8) (size 9 to 14) (size 15 to 20)
#    0.000    0.857    5.714    3.429    4.000    0.571 
#    2.571    2.857    0.000    0.000    0.000    0.000 
#    0.000    0.000    0.000    0.000    0.000    0.000 
#
# Total GULP energy -156567.160958 kJ/mol
# GULP energy per Si atom -5591.684320 kJ/mol
# Density = 2.616093 g / cm^3
# Si number density = 26.220614 Si / 1000 Ang^3
#
#
#
# Elastic Constant Matrix: (Units=GPa)
#
#
# Indices 1 2 3 4 5 6 
#
# 1 58.1508 9.3976 2.1786 0.0000 12.4341 0.0000
# 2 9.3976 94.8159 8.1792 0.0000 -7.8302 0.0000
# 3 2.1786 8.1792 76.7511 0.0000 17.3095 0.0000
# 4 0.0000 0.0000 0.0000 36.0152 0.0000 8.6796
# 5 12.4341 -7.8302 17.3095 0.0000 19.9623 0.0000
# 6 0.0000 0.0000 0.0000 8.6796 0.0000 37.9397
#
#
#
# Elastic Compliance Matrix: (Units=1/GPa)
#
#
# Indices 1 2 3 4 5 6 
#
# 1 0.021659 -0.004022 0.003993 0.000000 -0.018531 0.000000
# 2 -0.004022 0.012095 -0.003493 0.000000 0.010278 0.000000
# 3 0.003993 -0.003493 0.017600 0.000000 -0.019118 0.000000
# 4 0.000000 0.000000 0.000000 0.029386 0.000000 -0.006723
# 5 -0.018531 0.010278 -0.019118 0.000000 0.082246 0.000000
# 6 0.000000 0.000000 0.000000 -0.006723 0.000000 0.027896
#
#
# Mechanical properties :
#
#
# Convention : Reuss Voigt Hill
#
# Bulk Modulus (GPa) = 22.56739 29.91430 26.24084
# Shear Modulus (GPa) = 23.50778 32.78093 28.14435
#
# Velocity S-wave (km/s) = 2.99747 3.53965 3.27978
# Velocity P-wave (km/s) = 4.53930 5.30462 4.93681
#
# Compressibility (1/GPa) = 0.04431172
#
# Stress axis : x y z
#
# Youngs Moduli (GPa) = 46.16944 82.67580 56.81931
#
# Poissons Ratio (x) = 0.33248 -0.22688
# Poissons Ratio (y) = 0.18567 0.19846
# Poissons Ratio (z) = -0.18435 0.28877
#
# Static dielectric constant tensor:
#      x y z
#    x 2.114340 0.000000 -0.041190 
#    y 0.000000 2.057960 0.000000 
#    z -0.041190 0.000000 2.102590 
# 
# From -- ./inp_files/76306.got.cif
#   From: 2010.05.17/outbox.cif.g08.bks.cpg/sg14_39_cif.got.tgz:76306.got - 2010.06.03 17:49:19.
