data_PCOD9251550
_publ_section_title
;
Structure prediction by ZEFSAII (Michael W. Deem and Ramdas Pophale) SiO2 
 PCOD9251550
Probable space group: P 21/C
;
_chemical_formula_sum "Si O2"
_cell_formula_units_Z 24
_cell_length_a 8.839001
_cell_length_b 16.521864
_cell_length_c 9.175839
_cell_angle_alpha 90.000000
_cell_angle_beta 125.479855
_cell_angle_gamma 90.000000
_cell_volume 1091.196391
_symmetry_space_group_name_H-M "P 21/C"
_symmetry_group_IT_number 14
_symmetry_cell_setting 'monoclinic'
loop_
_space_group_symop_operation_xyz
x,y,z
-x,1/2+y,1/2-z
-x,-y,-z
x,1/2-y,1/2+z
loop_
_atom_site_type_symbol
_atom_site_label
_atom_site_fract_x
_atom_site_fract_y
_atom_site_fract_z
Si Si1 0.982634 0.585902 0.070920
Si Si2 0.287834 0.710411 0.125708
Si Si3 0.275991 0.640515 0.808645
Si Si4 0.463134 0.098101 0.076557
Si Si5 0.052843 0.022499 0.867264
Si Si6 0.568308 0.567079 0.769016
O O1 0.119344 0.653870 0.088324
O O2 0.037438 0.558916 0.264163
O O3 0.765830 0.604737 0.923891
O O4 0.000000 0.500000 0.000000
O O5 0.237498 0.799362 0.152761
O O6 0.475102 0.680111 0.312099
O O7 0.321760 0.695039 0.974481
O O8 0.432811 0.581929 0.829096
O O9 0.104350 0.586429 0.764666
O O10 0.576181 0.027849 0.227687
O O11 0.251685 0.066282 0.968237
O O12 0.502271 0.102524 0.925567
O O13 0.000000 0.000000 0.000000
#
# Coordination Sequence:
#
# PCOD9251550 Si02
#       6
#     4   4   4   4   4   4
#     4  12  22  45  70 101 134 178 224 282 336 404
#     4  12  27  45  68  97 142 178 226 286 346 398
#     4  12  27  45  65 101 138 180 226 285 343 403
#     4  11  21  41  68  99 132 173 220 278 330 406
#     4  12  25  41  72 104 135 176 232 279 337 408
#     4  11  22  40  70  98 133 173 225 270 336 403
#
# _framework density 21.994206999999999
#
# number of rings (size 3 to 8) (size 9 to 14) (size 15 to 20)
#    0.000    0.333    6.667    2.000    4.667    2.667 
#    0.000    3.333    0.000    0.000    0.000    0.000 
#    0.000    0.000    0.000    0.000    0.000    0.000 
#
# Total GULP energy -134096.153981 kJ/mol
# GULP energy per Si atom -5587.339749 kJ/mol
# Density = 2.194415 g / cm^3
# Si number density = 21.994207 Si / 1000 Ang^3
#
#
#
# Elastic Constant Matrix: (Units=GPa)
#
#
# Indices 1 2 3 4 5 6 
#
# 1 117.7417 18.7365 50.8007 0.0000 0.0345 0.0000
# 2 18.7365 44.5076 6.1512 0.0000 -0.9816 0.0000
# 3 50.8007 6.1512 78.9735 0.0000 -2.7430 0.0000
# 4 0.0000 0.0000 0.0000 24.5664 0.0000 -8.5083
# 5 0.0345 -0.9816 -2.7430 0.0000 50.3753 0.0000
# 6 0.0000 0.0000 0.0000 -8.5083 0.0000 31.7002
#
#
#
# Elastic Compliance Matrix: (Units=1/GPa)
#
#
# Indices 1 2 3 4 5 6 
#
# 1 0.012497 -0.004204 -0.007729 0.000000 -0.000511 0.000000
# 2 -0.004204 0.024133 0.000843 0.000000 0.000519 0.000000
# 3 -0.007729 0.000843 0.017603 0.000000 0.000980 0.000000
# 4 0.000000 0.000000 0.000000 0.044878 0.000000 0.012045
# 5 -0.000511 0.000519 0.000980 0.000000 0.019915 0.000000
# 6 0.000000 0.000000 0.000000 0.012045 0.000000 0.034778
#
#
# Mechanical properties :
#
#
# Convention : Reuss Voigt Hill
#
# Bulk Modulus (GPa) = 31.19977 43.62218 37.41098
# Shear Modulus (GPa) = 26.78540 32.36402 29.57471
#
# Velocity S-wave (km/s) = 3.49354 3.84015 3.67094
# Velocity P-wave (km/s) = 5.52172 6.28799 5.91727
#
# Compressibility (1/GPa) = 0.03205152
#
# Stress axis : x y z
#
# Youngs Moduli (GPa) = 80.01806 41.43730 56.80902
#
# Poissons Ratio (x) = 0.17420 0.43909
# Poissons Ratio (y) = 0.33640 -0.04787
# Poissons Ratio (z) = 0.61848 -0.03492
#
# Static dielectric constant tensor:
#      x y z
#    x 1.798420 0.000000 0.016520 
#    y 0.000000 1.824890 0.000000 
#    z 0.016520 0.000000 1.934390 
# 
# From -- ./inp_files/10277.got.cif
#   From: 2010.05.17/outbox.cif.g08.bks.cpg/sg14_6_cif.got.tgz:10277.got - 2010.06.03 17:49:19.
