data_PCOD9251564
_publ_section_title
;
Structure prediction by ZEFSAII (Michael W. Deem and Ramdas Pophale) SiO2 
 PCOD9251564
Probable space group: P 21/C
;
_chemical_formula_sum "Si O2"
_cell_formula_units_Z 30
_cell_length_a 8.177872
_cell_length_b 14.024331
_cell_length_c 14.415419
_cell_angle_alpha 90.000000
_cell_angle_beta 50.199639
_cell_angle_gamma 90.000000
_cell_volume 1270.190827
_symmetry_space_group_name_H-M "P 21/C"
_symmetry_group_IT_number 14
_symmetry_cell_setting 'monoclinic'
loop_
_space_group_symop_operation_xyz
x,y,z
-x,1/2+y,1/2-z
-x,-y,-z
x,1/2-y,1/2+z
loop_
_atom_site_type_symbol
_atom_site_label
_atom_site_fract_x
_atom_site_fract_y
_atom_site_fract_z
Si Si1 0.500000 0.000000 0.000000
Si Si2 0.796409 0.804818 0.962607
Si Si3 0.762860 0.175154 0.255956
Si Si4 0.309831 0.963341 0.412591
Si Si5 0.513938 0.155387 0.156427
Si Si6 0.119032 0.348434 0.920377
Si Si7 0.500035 0.832228 0.464315
Si Si8 0.356608 0.606304 0.688313
O O1 0.722029 0.039970 0.864752
O O2 0.457325 0.929019 0.925803
O O3 0.705090 0.721334 0.930591
O O4 0.994691 0.854252 0.843562
O O5 0.874790 0.751319 0.027053
O O6 0.596648 0.875453 0.055739
O O7 0.637908 0.144680 0.208578
O O8 0.649952 0.150494 0.392730
O O9 0.749630 0.291348 0.261922
O O10 0.505148 0.929066 0.404191
O O11 0.358542 0.940184 0.287795
O O12 0.107225 0.897691 0.514400
O O13 0.235378 0.071865 0.442971
O O14 0.267219 0.163885 0.277260
O O15 0.580737 0.252120 0.079756
#
# Coordination Sequence:
#
# PCOD9251564 Si02
#       8
#     2   4   4   4   4   4   4   4
#     4  12  24  40  70  94 128 182 218 274 342 404
#     4  11  22  41  65  95 128 177 217 272 339 400
#     4  11  23  43  64  95 134 168 224 277 332 408
#     4  11  23  39  65  98 129 173 220 279 329 406
#     4  12  22  42  66  94 130 177 221 276 334 404
#     4  11  22  39  68  94 132 173 221 277 340 392
#     4  11  23  40  67  95 128 176 223 271 338 399
#     4  11  21  42  65  91 136 167 220 275 333 399
#
# _framework density 23.618497000000001
#
# number of rings (size 3 to 8) (size 9 to 14) (size 15 to 20)
#    0.000    0.800    9.333    0.000    1.867    0.533 
#    2.400    0.667    0.000    0.000    0.000    0.000 
#    0.000    0.000    0.000    0.000    0.000    0.000 
#
# Total GULP energy -167203.127718 kJ/mol
# GULP energy per Si atom -5573.437591 kJ/mol
# Density = 2.356474 g / cm^3
# Si number density = 23.618497 Si / 1000 Ang^3
#
#
#
# Elastic Constant Matrix: (Units=GPa)
#
#
# Indices 1 2 3 4 5 6 
#
# 1 58.3001 9.8662 56.9792 0.0000 4.0135 0.0000
# 2 9.8662 74.6931 16.2235 0.0000 9.9648 0.0000
# 3 56.9792 16.2235 155.6057 0.0000 16.0363 0.0000
# 4 0.0000 0.0000 0.0000 24.7624 0.0000 7.3804
# 5 4.0135 9.9648 16.0363 0.0000 48.8679 0.0000
# 6 0.0000 0.0000 0.0000 7.3804 0.0000 29.0538
#
#
#
# Elastic Compliance Matrix: (Units=1/GPa)
#
#
# Indices 1 2 3 4 5 6 
#
# 1 0.026947 -0.001601 -0.009839 0.000000 0.001342 0.000000
# 2 -0.001601 0.014072 -0.000620 0.000000 -0.002535 0.000000
# 3 -0.009839 -0.000620 0.010347 0.000000 -0.002461 0.000000
# 4 0.000000 0.000000 0.000000 0.043692 0.000000 -0.011099
# 5 0.001342 -0.002535 -0.002461 0.000000 0.021678 0.000000
# 6 0.000000 0.000000 0.000000 -0.011099 0.000000 0.037238
#
#
# Mechanical properties :
#
#
# Convention : Reuss Voigt Hill
#
# Bulk Modulus (GPa) = 36.70077 50.52629 43.61353
# Shear Modulus (GPa) = 26.71274 34.23881 30.47578
#
# Velocity S-wave (km/s) = 3.36670 3.81157 3.59602
# Velocity P-wave (km/s) = 5.53946 6.38826 5.97894
#
# Compressibility (1/GPa) = 0.02724739
#
# Stress axis : x y z
#
# Youngs Moduli (GPa) = 37.10984 71.06119 96.64217
#
# Poissons Ratio (x) = 0.11380 0.95083
# Poissons Ratio (y) = 0.05943 0.05987
# Poissons Ratio (z) = 0.36511 0.04403
#
# Static dielectric constant tensor:
#      x y z
#    x 1.731580 0.000000 -0.122790 
#    y 0.000000 1.828660 0.000000 
#    z -0.122790 0.000000 1.839830 
# 
# From -- ./inp_files/41694.got.cif
#   From: 2010.05.17/outbox.cif.g08.bks.cpg/sg14_21_cif.got.tgz:41694.got - 2010.06.03 17:49:19.
