data_PCOD9251411
_publ_section_title
;
Structure prediction by ZEFSAII (Michael W. Deem and Ramdas Pophale) SiO2 
 PCOD9251411
Probable space group: P 21/C
;
_chemical_formula_sum "Si O2"
_cell_formula_units_Z 24
_cell_length_a 14.318541
_cell_length_b 14.531035
_cell_length_c 10.881230
_cell_angle_alpha 90.000000
_cell_angle_beta 147.414182
_cell_angle_gamma 90.000000
_cell_volume 1219.296169
_symmetry_space_group_name_H-M "P 21/C"
_symmetry_group_IT_number 14
_symmetry_cell_setting 'monoclinic'
loop_
_space_group_symop_operation_xyz
x,y,z
-x,1/2+y,1/2-z
-x,-y,-z
x,1/2-y,1/2+z
loop_
_atom_site_type_symbol
_atom_site_label
_atom_site_fract_x
_atom_site_fract_y
_atom_site_fract_z
Si Si1 0.010459 0.607703 0.490151
Si Si2 0.400163 0.669615 0.553038
Si Si3 0.072223 0.538315 0.207791
Si Si4 0.729232 0.239175 0.835229
Si Si5 0.042921 0.345588 0.297875
Si Si6 0.784039 0.659613 0.026231
O O1 0.022391 0.655682 0.634881
O O2 0.000000 0.500000 0.500000
O O3 0.173608 0.643962 0.592666
O O4 0.837931 0.635506 0.224939
O O5 0.250755 0.592587 0.388125
O O6 0.371296 0.726451 0.648113
O O7 0.375875 0.726606 0.399832
O O8 0.593730 0.630496 0.775960
O O9 0.093168 0.448553 0.316907
O O10 0.000000 0.500000 0.000000
O O11 0.929445 0.607896 0.106145
O O12 0.888069 0.309292 0.039053
O O13 0.193058 0.269489 0.458280
#
# Coordination Sequence:
#
# PCOD9251411 Si02
#       6
#     4   4   4   4   4   4
#     4  11  20  42  69  93 131 176 226 275 338 397
#     4  12  25  45  67 104 138 174 233 282 336 407
#     4  12  24  45  69  98 138 180 226 283 342 405
#     4  11  22  42  69  93 136 179 219 279 338 399
#     4  11  22  43  69  95 132 185 222 275 345 403
#     4  11  27  43  69 100 137 176 226 280 342 405
#
# _framework density 19.683487
#
# number of rings (size 3 to 8) (size 9 to 14) (size 15 to 20)
#    0.000    0.667    8.333    0.000    4.667    0.667 
#    6.000    1.667    0.000    0.000    0.000    0.000 
#    0.000    0.000    0.000    0.000    0.000    0.000 
#
# Total GULP energy -134043.043424 kJ/mol
# GULP energy per Si atom -5585.126809 kJ/mol
# Density = 1.963869 g / cm^3
# Si number density = 19.683487 Si / 1000 Ang^3
#
#
#
# Elastic Constant Matrix: (Units=GPa)
#
#
# Indices 1 2 3 4 5 6 
#
# 1 77.9513 21.5134 51.4735 0.0000 -24.1388 0.0000
# 2 21.5134 85.2473 34.7498 0.0000 4.7424 0.0000
# 3 51.4735 34.7498 118.7041 0.0000 3.3577 0.0000
# 4 0.0000 0.0000 0.0000 20.1966 0.0000 -14.3622
# 5 -24.1388 4.7424 3.3577 0.0000 41.0844 0.0000
# 6 0.0000 0.0000 0.0000 -14.3622 0.0000 26.3472
#
#
#
# Elastic Compliance Matrix: (Units=1/GPa)
#
#
# Indices 1 2 3 4 5 6 
#
# 1 0.025897 -0.003047 -0.010803 0.000000 0.016450 0.000000
# 2 -0.003047 0.013740 -0.002612 0.000000 -0.003163 0.000000
# 3 -0.010803 -0.002612 0.014077 0.000000 -0.007196 0.000000
# 4 0.000000 0.000000 0.000000 0.080856 0.000000 0.044076
# 5 0.016450 -0.003163 -0.007196 0.000000 0.034959 0.000000
# 6 0.000000 0.000000 0.000000 0.044076 0.000000 0.061981
#
#
# Mechanical properties :
#
#
# Convention : Reuss Voigt Hill
#
# Bulk Modulus (GPa) = 48.09816 55.26401 51.68109
# Shear Modulus (GPa) = 18.42548 29.13671 23.78110
#
# Velocity S-wave (km/s) = 3.06288 3.85159 3.47965
# Velocity P-wave (km/s) = 6.08253 6.92221 6.51591
#
# Compressibility (1/GPa) = 0.02079082
#
# Stress axis : x y z
#
# Youngs Moduli (GPa) = 38.61444 72.77989 71.03838
#
# Poissons Ratio (x) = 0.22176 0.76743
# Poissons Ratio (y) = 0.11766 0.18552
# Poissons Ratio (z) = 0.41715 0.19007
#
# Static dielectric constant tensor:
#      x y z
#    x 1.735790 0.000000 -0.029390 
#    y 0.000000 1.693810 0.000000 
#    z -0.029390 0.000000 1.679760 
# 
# From -- ./inp_files/32510.got.cif
#   From: 2010.05.17/outbox.cif.g08.bks.cpg/sg14_17_cif.got.tgz:32510.got - 2010.06.03 17:49:19.
