data_PCOD9251457
_publ_section_title
;
Structure prediction by ZEFSAII (Michael W. Deem and Ramdas Pophale) SiO2 
 PCOD9251457
Probable space group: P 21/C
;
_chemical_formula_sum "Si O2"
_cell_formula_units_Z 20
_cell_length_a 9.609198
_cell_length_b 9.643891
_cell_length_c 8.818692
_cell_angle_alpha 90.000000
_cell_angle_beta 119.550246
_cell_angle_gamma 90.000000
_cell_volume 710.926473
_symmetry_space_group_name_H-M "P 21/C"
_symmetry_group_IT_number 14
_symmetry_cell_setting 'monoclinic'
loop_
_space_group_symop_operation_xyz
x,y,z
-x,1/2+y,1/2-z
-x,-y,-z
x,1/2-y,1/2+z
loop_
_atom_site_type_symbol
_atom_site_label
_atom_site_fract_x
_atom_site_fract_y
_atom_site_fract_z
Si Si1 0.903998 0.839723 0.711279
Si Si2 0.606001 0.674236 0.603999
Si Si3 0.740126 0.463659 0.885970
Si Si4 0.444663 0.886045 0.303987
Si Si5 0.105791 0.832353 0.100712
O O1 0.983987 0.708826 0.667512
O O2 0.746977 0.783479 0.712854
O O3 0.857972 0.940662 0.548589
O O4 0.022915 0.891163 0.905594
O O5 0.568842 0.485382 0.881616
O O6 0.527420 0.747885 0.417453
O O7 0.456041 0.650627 0.632617
O O8 0.700538 0.532429 0.699784
O O9 0.814693 0.315047 0.905348
O O10 0.261945 0.911948 0.244698
#
# Coordination Sequence:
#
# PCOD9251457 Si02
#       5
#     4   4   4   4   4
#     4  11  21  37  64  91 119 159 201 249 289 361
#     4   9  18  40  60  81 126 160 188 246 307 348
#     4   9  22  41  64  81 129 167 188 237 328 352
#     4   9  20  38  61  87 119 162 200 248 292 356
#     4  12  22  40  65  91 120 157 209 248 292 360
#
# _framework density 28.132304999999999
#
# number of rings (size 3 to 8) (size 9 to 14) (size 15 to 20)
#    1.200    0.800    2.000    1.800    0.000    0.800 
#    0.000   10.000    0.000    0.000    0.000    0.000 
#    0.000    0.000    0.000    0.000    0.000    0.000 
#
# Total GULP energy -111800.178142 kJ/mol
# GULP energy per Si atom -5590.008907 kJ/mol
# Density = 2.806828 g / cm^3
# Si number density = 28.132305 Si / 1000 Ang^3
#
#
#
# Elastic Constant Matrix: (Units=GPa)
#
#
# Indices 1 2 3 4 5 6 
#
# 1 105.6319 18.2716 20.6679 0.0000 23.2760 0.0000
# 2 18.2716 98.8368 41.0962 0.0000 7.8868 0.0000
# 3 20.6679 41.0962 185.6419 0.0000 21.0875 0.0000
# 4 0.0000 0.0000 0.0000 57.4399 0.0000 -5.8837
# 5 23.2760 7.8868 21.0875 0.0000 38.5947 0.0000
# 6 0.0000 0.0000 0.0000 -5.8837 0.0000 28.5122
#
#
#
# Elastic Compliance Matrix: (Units=1/GPa)
#
#
# Indices 1 2 3 4 5 6 
#
# 1 0.011153 -0.001476 -0.000197 0.000000 -0.006317 0.000000
# 2 -0.001476 0.011374 -0.002336 0.000000 -0.000158 0.000000
# 3 -0.000197 -0.002336 0.006246 0.000000 -0.002816 0.000000
# 4 0.000000 0.000000 0.000000 0.017785 0.000000 0.003670
# 5 -0.006317 -0.000158 -0.002816 0.000000 0.031291 0.000000
# 6 0.000000 0.000000 0.000000 0.003670 0.000000 0.035830
#
#
# Mechanical properties :
#
#
# Convention : Reuss Voigt Hill
#
# Bulk Modulus (GPa) = 48.18126 61.13135 54.65630
# Shear Modulus (GPa) = 38.87580 45.58102 42.22841
#
# Velocity S-wave (km/s) = 3.72141 4.02958 3.87856
# Velocity P-wave (km/s) = 5.96901 6.58993 6.28714
#
# Compressibility (1/GPa) = 0.02075496
#
# Stress axis : x y z
#
# Youngs Moduli (GPa) = 89.66545 87.91760 160.11136
#
# Poissons Ratio (x) = 0.12973 0.03162
# Poissons Ratio (y) = 0.13231 0.37397
# Poissons Ratio (z) = 0.01771 0.20535
#
# Static dielectric constant tensor:
#      x y z
#    x 2.146530 0.000000 0.003290 
#    y 0.000000 2.237340 0.000000 
#    z 0.003290 0.000000 2.152220 
# 
# From -- ./inp_files/12950.got.cif
#   From: 2010.05.17/outbox.cif.g08.bks.cpg/sg14_7_cif.got.tgz:12950.got - 2010.06.03 17:49:19.
