data_PCOD9251377
_publ_section_title
;
Structure prediction by ZEFSAII (Michael W. Deem and Ramdas Pophale) SiO2 
 PCOD9251377
Probable space group: P 21/C
;
_chemical_formula_sum "Si O2"
_cell_formula_units_Z 16
_cell_length_a 9.963087
_cell_length_b 7.577145
_cell_length_c 22.749778
_cell_angle_alpha 90.000000
_cell_angle_beta 25.888852
_cell_angle_gamma 90.000000
_cell_volume 749.871809
_symmetry_space_group_name_H-M "P 21/C"
_symmetry_group_IT_number 14
_symmetry_cell_setting 'monoclinic'
loop_
_space_group_symop_operation_xyz
x,y,z
-x,1/2+y,1/2-z
-x,-y,-z
x,1/2-y,1/2+z
loop_
_atom_site_type_symbol
_atom_site_label
_atom_site_fract_x
_atom_site_fract_y
_atom_site_fract_z
Si Si1 0.036927 0.658614 0.533923
Si Si2 0.393555 0.555138 0.824309
Si Si3 0.756925 0.274664 0.232896
Si Si4 0.397744 0.066676 0.977052
O O1 0.148432 0.834394 0.458261
O O2 0.291709 0.598147 0.479412
O O3 0.000000 0.500000 0.500000
O O4 0.715523 0.663745 0.694321
O O5 0.277730 0.571647 0.802391
O O6 0.514011 0.375221 0.806398
O O7 0.657460 0.336729 0.336348
O O8 0.095696 0.191567 0.098796
O O9 0.500000 0.000000 0.000000
#
# Coordination Sequence:
#
# PCOD9251377 Si02
#       4
#     4   4   4   4
#     4  11  21  40  61  98 129 168 218 273 317 378
#     4  11  20  38  67  96 126 163 225 272 319 372
#     4  11  22  41  67  98 128 175 218 273 330 378
#     4  11  25  43  62  93 140 169 215 268 329 402
#
# _framework density 21.336980000000001
#
# number of rings (size 3 to 8) (size 9 to 14) (size 15 to 20)
#    0.000    1.000    7.500    0.000    0.000   10.000 
#    0.000    2.500    0.000    0.000    0.000    0.000 
#    0.000    0.000    0.000    0.000    0.000    0.000 
#
# Total GULP energy -89430.255856 kJ/mol
# GULP energy per Si atom -5589.390991 kJ/mol
# Density = 2.128842 g / cm^3
# Si number density = 21.336980 Si / 1000 Ang^3
#
#
#
# Elastic Constant Matrix: (Units=GPa)
#
#
# Indices 1 2 3 4 5 6 
#
# 1 149.0725 41.5049 14.9773 0.0000 29.1267 0.0000
# 2 41.5049 89.8873 7.2940 0.0000 20.4932 0.0000
# 3 14.9773 7.2940 93.8358 0.0000 20.6377 0.0000
# 4 0.0000 0.0000 0.0000 36.7729 0.0000 11.1817
# 5 29.1267 20.4932 20.6377 0.0000 34.0500 0.0000
# 6 0.0000 0.0000 0.0000 11.1817 0.0000 37.0748
#
#
#
# Elastic Compliance Matrix: (Units=1/GPa)
#
#
# Indices 1 2 3 4 5 6 
#
# 1 0.008567 -0.002641 0.000115 0.000000 -0.005809 0.000000
# 2 -0.002641 0.013762 0.000781 0.000000 -0.006497 0.000000
# 3 0.000115 0.000781 0.012349 0.000000 -0.008053 0.000000
# 4 0.000000 0.000000 0.000000 0.029940 0.000000 -0.009030
# 5 -0.005809 -0.006497 -0.008053 0.000000 0.043129 0.000000
# 6 0.000000 0.000000 0.000000 -0.009030 0.000000 0.029696
#
#
# Mechanical properties :
#
#
# Convention : Reuss Voigt Hill
#
# Bulk Modulus (GPa) = 32.06266 51.14977 41.60622
# Shear Modulus (GPa) = 33.04084 39.51416 36.27750
#
# Velocity S-wave (km/s) = 3.93940 4.30805 4.12784
# Velocity P-wave (km/s) = 5.97923 6.98356 6.50082
#
# Compressibility (1/GPa) = 0.03118893
#
# Stress axis : x y z
#
# Youngs Moduli (GPa) = 116.73102 72.66227 80.97818
#
# Poissons Ratio (x) = 0.19188 -0.00935
# Poissons Ratio (y) = 0.30825 -0.06322
# Poissons Ratio (z) = -0.01348 -0.05673
#
# Static dielectric constant tensor:
#      x y z
#    x 1.718960 0.000000 -0.008400 
#    y 0.000000 1.873760 0.000000 
#    z -0.008400 0.000000 1.841360 
# 
# From -- ./inp_files/11696.got.cif
#   From: 2010.05.17/outbox.cif.g08.bks.cpg/sg14_6_cif.got.tgz:11696.got - 2010.06.03 17:49:19.
