data_PCOD9251647
_publ_section_title
;
Structure prediction by ZEFSAII (Michael W. Deem and Ramdas Pophale) SiO2 
 PCOD9251647
Probable space group: P 21/C
;
_chemical_formula_sum "Si O2"
_cell_formula_units_Z 24
_cell_length_a 8.590304
_cell_length_b 13.655466
_cell_length_c 15.249902
_cell_angle_alpha 90.000000
_cell_angle_beta 36.505689
_cell_angle_gamma 90.000000
_cell_volume 1064.211575
_symmetry_space_group_name_H-M "P 21/C"
_symmetry_group_IT_number 14
_symmetry_cell_setting 'monoclinic'
loop_
_space_group_symop_operation_xyz
x,y,z
-x,1/2+y,1/2-z
-x,-y,-z
x,1/2-y,1/2+z
loop_
_atom_site_type_symbol
_atom_site_label
_atom_site_fract_x
_atom_site_fract_y
_atom_site_fract_z
Si Si1 0.536373 0.381156 0.793646
Si Si2 0.368405 0.653002 0.061675
Si Si3 0.947411 0.100962 0.573409
Si Si4 0.792610 0.272118 0.526353
Si Si5 0.878584 0.943248 0.137157
Si Si6 0.072101 0.046109 0.695097
O O1 0.682414 0.332110 0.811079
O O2 0.238879 0.355754 0.944095
O O3 0.615914 0.347103 0.661428
O O4 0.606123 0.497374 0.771768
O O5 0.299755 0.741071 0.028068
O O6 0.187894 0.560136 0.117637
O O7 0.670042 0.616783 0.914717
O O8 0.880272 0.080785 0.705137
O O9 0.784345 0.175712 0.590210
O O10 0.000000 0.000000 0.500000
O O11 0.075264 0.327654 0.396891
O O12 0.031268 0.961311 0.159433
O O13 0.000000 0.000000 0.000000
#
# Coordination Sequence:
#
# PCOD9251647 Si02
#       6
#     4   4   4   4   4   4
#     4   9  22  40  56  84 124 151 193 246 295 345
#     4   9  18  35  58  81 107 155 192 232 296 342
#     4  11  22  36  58  91 111 151 200 241 286 349
#     4  11  22  34  61  88 113 153 203 239 291 349
#     4   9  20  38  60  81 115 158 190 234 302 344
#     4   9  18  36  58  78 116 148 185 242 289 343
#
# _framework density 22.551905999999999
#
# number of rings (size 3 to 8) (size 9 to 14) (size 15 to 20)
#    0.000    2.333    1.667    1.000    4.667    0.000 
#    0.000    0.000    0.000    2.000    0.000    0.000 
#    0.000    0.000    0.000    0.000    0.000    0.000 
#
# Total GULP energy -133686.534894 kJ/mol
# GULP energy per Si atom -5570.272287 kJ/mol
# Density = 2.250058 g / cm^3
# Si number density = 22.551906 Si / 1000 Ang^3
#
#
#
# Elastic Constant Matrix: (Units=GPa)
#
#
# Indices 1 2 3 4 5 6 
#
# 1 56.1615 31.6990 21.3538 0.0000 32.0318 0.0000
# 2 31.6990 87.1181 6.4382 0.0000 25.5481 0.0000
# 3 21.3538 6.4382 71.0050 0.0000 39.6316 0.0000
# 4 0.0000 0.0000 0.0000 27.8377 0.0000 12.2851
# 5 32.0318 25.5481 39.6316 0.0000 34.6201 0.0000
# 6 0.0000 0.0000 0.0000 12.2851 0.0000 35.4253
#
#
#
# Elastic Compliance Matrix: (Units=1/GPa)
#
#
# Indices 1 2 3 4 5 6 
#
# 1 0.059771 0.006932 0.041873 0.000000 -0.108353 0.000000
# 2 0.006932 0.021649 0.023402 0.000000 -0.049180 0.000000
# 3 0.041873 0.023402 0.084841 0.000000 -0.153134 0.000000
# 4 0.000000 0.000000 0.000000 0.042414 0.000000 -0.014709
# 5 -0.108353 -0.049180 -0.153134 0.000000 0.340730 0.000000
# 6 0.000000 0.000000 0.000000 -0.014709 0.000000 0.033329
#
#
# Mechanical properties :
#
#
# Convention : Reuss Voigt Hill
#
# Bulk Modulus (GPa) = 3.21879 37.02961 20.12420
# Shear Modulus (GPa) = 9.22719 29.89621 19.56170
#
# Velocity S-wave (km/s) = 2.02495 3.64491 2.94837
# Velocity P-wave (km/s) = 2.62633 5.84545 4.53138
#
# Compressibility (1/GPa) = 0.31067607
#
# Stress axis : x y z
#
# Youngs Moduli (GPa) = 16.73058 46.19116 11.78678
#
# Poissons Ratio (x) = -0.32022 -0.49355
# Poissons Ratio (y) = -0.11598 -0.27583
# Poissons Ratio (z) = -0.70056 -1.08096
#
# Static dielectric constant tensor:
#      x y z
#    x 1.880960 0.000000 0.012680 
#    y 0.000000 1.877390 0.000000 
#    z 0.012680 0.000000 1.932680 
# 
# From -- ./inp_files/40580.got.cif
#   From: 2010.05.17/outbox.cif.g08.bks.cpg/sg14_21_cif.got.tgz:40580.got - 2010.06.03 17:49:19.
