data_PCOD9251716
_publ_section_title
;
Structure prediction by ZEFSAII (Michael W. Deem and Ramdas Pophale) SiO2 
 PCOD9251716
Probable space group: P 21/C
;
_chemical_formula_sum "Si O2"
_cell_formula_units_Z 20
_cell_length_a 4.897084
_cell_length_b 7.586060
_cell_length_c 21.338958
_cell_angle_alpha 90.000000
_cell_angle_beta 67.118077
_cell_angle_gamma 90.000000
_cell_volume 730.351522
_symmetry_space_group_name_H-M "P 21/C"
_symmetry_group_IT_number 14
_symmetry_cell_setting 'monoclinic'
loop_
_space_group_symop_operation_xyz
x,y,z
-x,1/2+y,1/2-z
-x,-y,-z
x,1/2-y,1/2+z
loop_
_atom_site_type_symbol
_atom_site_label
_atom_site_fract_x
_atom_site_fract_y
_atom_site_fract_z
Si Si1 0.207835 0.360109 0.200290
Si Si2 0.164212 0.009111 0.379862
Si Si3 0.724261 0.156139 0.499530
Si Si4 0.881933 0.017686 0.847891
Si Si5 0.714818 0.476890 0.569170
O O1 0.497234 0.483610 0.169620
O O2 0.242322 0.155557 0.178622
O O3 0.004062 0.438902 0.164601
O O4 0.059175 0.369789 0.281147
O O5 0.984427 0.176220 0.424367
O O6 0.131639 0.891126 0.445690
O O7 0.553179 0.327017 0.539211
O O8 0.500000 0.000000 0.500000
O O9 0.567536 0.104817 0.896589
O O10 0.121335 0.956282 0.878228
O O11 0.000000 0.500000 0.500000
#
# Coordination Sequence:
#
# PCOD9251716 Si02
#       5
#     4   4   4   4   4
#     4  12  24  44  70  96 143 181 237 294 348 442
#     4  11  22  39  68 101 131 179 233 289 345 416
#     4  11  22  41  74 104 137 182 242 289 359 435
#     4  12  26  47  69 103 139 194 234 292 370 431
#     4  12  27  47  71 102 149 182 233 305 373 429
#
# _framework density 27.384073999999998
#
# number of rings (size 3 to 8) (size 9 to 14) (size 15 to 20)
#    0.000    0.400    6.000    1.800    2.800    3.200 
#    0.000    0.000    0.000    0.000    0.000    0.000 
#    0.000    0.000    0.000    0.000    0.000    0.000 
#
# Total GULP energy -111741.436798 kJ/mol
# GULP energy per Si atom -5587.071840 kJ/mol
# Density = 2.732175 g / cm^3
# Si number density = 27.384074 Si / 1000 Ang^3
#
#
#
# Elastic Constant Matrix: (Units=GPa)
#
#
# Indices 1 2 3 4 5 6 
#
# 1 235.3388 25.8438 65.0860 0.0000 14.5838 0.0000
# 2 25.8438 71.2641 13.5086 0.0000 32.8500 0.0000
# 3 65.0860 13.5086 173.4565 0.0000 31.5258 0.0000
# 4 0.0000 0.0000 0.0000 19.0219 0.0000 -13.8248
# 5 14.5838 32.8500 31.5258 0.0000 133.5552 0.0000
# 6 0.0000 0.0000 0.0000 -13.8248 0.0000 27.9515
#
#
#
# Elastic Compliance Matrix: (Units=1/GPa)
#
#
# Indices 1 2 3 4 5 6 
#
# 1 0.004892 -0.001563 -0.001762 0.000000 0.000266 0.000000
# 2 -0.001563 0.016376 0.000013 0.000000 -0.003860 0.000000
# 3 -0.001762 0.000013 0.006677 0.000000 -0.001387 0.000000
# 4 0.000000 0.000000 0.000000 0.082074 0.000000 0.040594
# 5 0.000266 -0.003860 -0.001387 0.000000 0.008735 0.000000
# 6 0.000000 0.000000 0.000000 0.040594 0.000000 0.055854
#
#
# Mechanical properties :
#
#
# Convention : Reuss Voigt Hill
#
# Bulk Modulus (GPa) = 46.90261 76.54847 61.72554
# Shear Modulus (GPa) = 26.54776 61.14712 43.84744
#
# Velocity S-wave (km/s) = 3.11699 4.73053 4.00584
# Velocity P-wave (km/s) = 5.48808 7.60602 6.63214
#
# Compressibility (1/GPa) = 0.02132078
#
# Stress axis : x y z
#
# Youngs Moduli (GPa) = 204.43004 61.06482 149.75795
#
# Poissons Ratio (x) = 0.09542 0.26390
# Poissons Ratio (y) = 0.31944 -0.00189
# Poissons Ratio (z) = 0.36024 -0.00077
#
# Static dielectric constant tensor:
#      x y z
#    x 2.246000 0.000000 -0.137170 
#    y 0.000000 2.707780 0.000000 
#    z -0.137170 0.000000 2.204490 
# 
# From -- ./inp_files/62877.got.cif
#   From: 2010.05.17/outbox.cif.g08.bks.cpg/sg14_32_cif.got.tgz:62877.got - 2010.06.03 17:49:19.
