data_PCOD9251134
_publ_section_title
;
Structure prediction by ZEFSAII (Michael W. Deem and Ramdas Pophale) SiO2 
 PCOD9251134
Probable space group: P 21/C
;
_chemical_formula_sum "Si O2"
_cell_formula_units_Z 28
_cell_length_a 22.071979
_cell_length_b 6.589223
_cell_length_c 21.897594
_cell_angle_alpha 90.000000
_cell_angle_beta 18.041376
_cell_angle_gamma 90.000000
_cell_volume 986.321038
_symmetry_space_group_name_H-M "P 21/C"
_symmetry_group_IT_number 14
_symmetry_cell_setting 'monoclinic'
loop_
_space_group_symop_operation_xyz
x,y,z
-x,1/2+y,1/2-z
-x,-y,-z
x,1/2-y,1/2+z
loop_
_atom_site_type_symbol
_atom_site_label
_atom_site_fract_x
_atom_site_fract_y
_atom_site_fract_z
Si Si1 0.098967 0.674792 0.242536
Si Si2 0.831144 0.055643 0.519585
Si Si3 0.288207 0.173571 0.505312
Si Si4 0.517116 0.298953 0.405910
Si Si5 0.880242 0.626677 0.150012
Si Si6 0.678479 0.382859 0.566630
Si Si7 0.856704 0.375580 0.657077
O O1 0.759275 0.606650 0.475740
O O2 0.285884 0.782060 0.032919
O O3 0.140576 0.621040 0.272133
O O4 0.920624 0.838729 0.412420
O O5 0.654670 0.037689 0.738098
O O6 0.769406 0.231390 0.530721
O O7 0.008531 0.139099 0.391016
O O8 0.404019 0.195824 0.457923
O O9 0.106500 0.029829 0.694822
O O10 0.452355 0.087915 0.301521
O O11 0.351334 0.374390 0.610659
O O12 0.661363 0.143225 0.302285
O O13 0.901354 0.382543 0.108671
O O14 0.902658 0.868909 0.102396
#
# Coordination Sequence:
#
# PCOD9251134 Si02
#       7
#     4   4   4   4   4   4   4
#     4  12  25  52  81 128 181 229 297 384 442 555
#     4  10  25  51  81 124 173 238 296 374 465 544
#     4  11  24  50  89 123 174 232 321 366 463 548
#     4  10  25  50  86 123 177 242 285 375 455 547
#     4  11  22  48  81 122 175 224 297 362 448 553
#     4  11  25  54  82 126 172 236 305 389 455 548
#     4  11  26  48  79 128 185 231 300 366 461 560
#
# _framework density 28.388324999999998
#
# number of rings (size 3 to 8) (size 9 to 14) (size 15 to 20)
#    0.000    1.143    2.857    1.714    0.000    5.714 
#   15.429    4.286    0.000    0.000    0.000    0.000 
#    0.000    0.000    0.000    0.000    0.000    0.571 
#
# Total GULP energy -156717.248832 kJ/mol
# GULP energy per Si atom -5597.044601 kJ/mol
# Density = 2.832371 g / cm^3
# Si number density = 28.388325 Si / 1000 Ang^3
#
#
#
# Elastic Constant Matrix: (Units=GPa)
#
#
# Indices 1 2 3 4 5 6 
#
# 1 183.2204 108.9462 103.1914 0.0000 5.2746 0.0000
# 2 108.9462 245.0672 142.5101 0.0000 9.8282 0.0000
# 3 103.1914 142.5101 250.9622 0.0000 25.2574 0.0000
# 4 0.0000 0.0000 0.0000 81.2130 0.0000 19.2483
# 5 5.2746 9.8282 25.2574 0.0000 68.5891 0.0000
# 6 0.0000 0.0000 0.0000 19.2483 0.0000 48.5914
#
#
#
# Elastic Compliance Matrix: (Units=1/GPa)
#
#
# Indices 1 2 3 4 5 6 
#
# 1 0.007991 -0.002439 -0.001946 0.000000 0.000452 0.000000
# 2 -0.002439 0.006848 -0.002914 0.000000 0.000279 0.000000
# 3 -0.001946 -0.002914 0.006628 0.000000 -0.001874 0.000000
# 4 0.000000 0.000000 0.000000 0.013589 0.000000 -0.005383
# 5 0.000452 0.000279 -0.001874 0.000000 0.015195 0.000000
# 6 0.000000 0.000000 0.000000 -0.005383 0.000000 0.022712
#
#
# Mechanical properties :
#
#
# Convention : Reuss Voigt Hill
#
# Bulk Modulus (GPa) = 145.57929 154.28280 149.93105
# Shear Modulus (GPa) = 55.64712 61.31885 58.48299
#
# Velocity S-wave (km/s) = 4.43223 4.65262 4.54376
# Velocity P-wave (km/s) = 8.80827 9.12841 8.96977
#
# Compressibility (1/GPa) = 0.00686911
#
# Stress axis : x y z
#
# Youngs Moduli (GPa) = 125.13555 146.02718 150.86797
#
# Poissons Ratio (x) = 0.35613 0.29366
# Poissons Ratio (y) = 0.30518 0.43963
# Poissons Ratio (z) = 0.24357 0.42552
#
# Static dielectric constant tensor:
#      x y z
#    x 2.114490 0.000000 0.028920 
#    y 0.000000 2.286700 0.000000 
#    z 0.028920 0.000000 2.220490 
# 
# From -- ./inp_files/59686.got.cif
#   From: 2010.05.17/outbox.cif.g08.bks.cpg/sg14_30_cif.got.tgz:59686.got - 2010.06.03 17:49:19.
