data_PCOD9251195
_publ_section_title
;
Structure prediction by ZEFSAII (Michael W. Deem and Ramdas Pophale) SiO2 
 PCOD9251195
Probable space group: P 21/C
;
_chemical_formula_sum "Si O2"
_cell_formula_units_Z 22
_cell_length_a 21.682907
_cell_length_b 4.885027
_cell_length_c 14.660192
_cell_angle_alpha 90.000000
_cell_angle_beta 147.756668
_cell_angle_gamma 90.000000
_cell_volume 828.460208
_symmetry_space_group_name_H-M "P 21/C"
_symmetry_group_IT_number 14
_symmetry_cell_setting 'monoclinic'
loop_
_space_group_symop_operation_xyz
x,y,z
-x,1/2+y,1/2-z
-x,-y,-z
x,1/2-y,1/2+z
loop_
_atom_site_type_symbol
_atom_site_label
_atom_site_fract_x
_atom_site_fract_y
_atom_site_fract_z
Si Si1 0.644381 0.421336 0.278782
Si Si2 0.840679 0.436770 0.371087
Si Si3 0.275913 0.051425 0.846266
Si Si4 0.305483 0.090324 0.554783
Si Si5 0.500000 0.500000 0.500000
Si Si6 0.036742 0.216574 0.241933
O O1 0.757292 0.401418 0.355937
O O2 0.624245 0.740432 0.278258
O O3 0.667550 0.226474 0.396043
O O4 0.536047 0.282739 0.098572
O O5 0.819531 0.747374 0.317087
O O6 0.967356 0.361542 0.564215
O O7 0.793028 0.236052 0.232181
O O8 0.328183 0.238035 0.992453
O O9 0.378889 0.986139 0.907389
O O10 0.171096 0.148737 0.404816
O O11 0.015478 0.529076 0.242649
#
# Coordination Sequence:
#
# PCOD9251195 Si02
#       6
#     4   4   4   4   2   4
#     4  11  23  42  69  94 134 173 229 279 336 408
#     4  11  22  42  66  96 136 181 219 273 338 417
#     4  11  26  42  66  98 138 172 229 281 337 403
#     4  12  24  42  66 103 132 172 228 286 329 405
#     4  10  26  46  68  96 128 184 218 276 352 396
#     4  12  22  39  69  99 133 182 222 278 345 409
#
# _framework density 26.555291
#
# number of rings (size 3 to 8) (size 9 to 14) (size 15 to 20)
#    0.000    0.727    3.636    4.364    0.000    9.455 
#    0.000    0.000    0.000    0.000    0.000    0.000 
#    0.000    0.000    0.000    0.000    0.000    0.000 
#
# Total GULP energy -122859.335636 kJ/mol
# GULP energy per Si atom -5584.515256 kJ/mol
# Density = 2.649485 g / cm^3
# Si number density = 26.555291 Si / 1000 Ang^3
#
#
#
# Elastic Constant Matrix: (Units=GPa)
#
#
# Indices 1 2 3 4 5 6 
#
# 1 44.2014 10.1678 -10.3546 0.0000 1.3035 0.0000
# 2 10.1678 125.5748 -6.6157 0.0000 4.2105 0.0000
# 3 -10.3546 -6.6157 45.9905 0.0000 8.3074 0.0000
# 4 0.0000 0.0000 0.0000 47.8223 0.0000 -7.9936
# 5 1.3035 4.2105 8.3074 0.0000 38.2770 0.0000
# 6 0.0000 0.0000 0.0000 -7.9936 0.0000 21.0487
#
#
#
# Elastic Compliance Matrix: (Units=1/GPa)
#
#
# Indices 1 2 3 4 5 6 
#
# 1 0.024360 -0.001615 0.005589 0.000000 -0.001865 0.000000
# 2 -0.001615 0.008183 0.001005 0.000000 -0.001063 0.000000
# 3 0.005589 0.001005 0.024148 0.000000 -0.005542 0.000000
# 4 0.000000 0.000000 0.000000 0.022328 0.000000 0.008480
# 5 -0.001865 -0.001063 -0.005542 0.000000 0.027509 0.000000
# 6 0.000000 0.000000 0.000000 0.008480 0.000000 0.050729
#
#
# Mechanical properties :
#
#
# Convention : Reuss Voigt Hill
#
# Bulk Modulus (GPa) = 15.00422 22.46242 18.73332
# Shear Modulus (GPa) = 29.49611 36.26754 32.88182
#
# Velocity S-wave (km/s) = 3.33640 3.69960 3.52268
# Velocity P-wave (km/s) = 4.52819 5.16976 4.85958
#
# Compressibility (1/GPa) = 0.06664792
#
# Stress axis : x y z
#
# Youngs Moduli (GPa) = 41.05161 122.20749 41.41198
#
# Poissons Ratio (x) = 0.19742 -0.23145
# Poissons Ratio (y) = 0.06632 -0.04164
# Poissons Ratio (z) = -0.22943 -0.12287
#
# Static dielectric constant tensor:
#      x y z
#    x 2.207890 0.000000 -0.954010 
#    y 0.000000 1.978890 0.000000 
#    z -0.954010 0.000000 5.999480 
# 
# From -- ./inp_files/51020.got.cif
#   From: 2010.05.17/outbox.cif.g08.bks.cpg/sg14_26_cif.got.tgz:51020.got - 2010.06.03 17:49:19.
