data_PCOD9251510
_publ_section_title
;
Structure prediction by ZEFSAII (Michael W. Deem and Ramdas Pophale) SiO2 
 PCOD9251510
Probable space group: P 21/C
;
_chemical_formula_sum "Si O2"
_cell_formula_units_Z 24
_cell_length_a 13.687630
_cell_length_b 4.967981
_cell_length_c 15.659008
_cell_angle_alpha 90.000000
_cell_angle_beta 58.099551
_cell_angle_gamma 90.000000
_cell_volume 903.989774
_symmetry_space_group_name_H-M "P 21/C"
_symmetry_group_IT_number 14
_symmetry_cell_setting 'monoclinic'
loop_
_space_group_symop_operation_xyz
x,y,z
-x,1/2+y,1/2-z
-x,-y,-z
x,1/2-y,1/2+z
loop_
_atom_site_type_symbol
_atom_site_label
_atom_site_fract_x
_atom_site_fract_y
_atom_site_fract_z
Si Si1 0.040853 0.973869 0.778761
Si Si2 0.732582 0.657445 0.894250
Si Si3 0.199340 0.199196 0.951945
Si Si4 0.358619 0.664545 0.638421
Si Si5 0.462881 0.363040 0.812314
Si Si6 0.146530 0.687993 0.873624
O O1 0.163224 0.125547 0.720401
O O2 0.959730 0.222624 0.788555
O O3 0.041890 0.819335 0.868166
O O4 0.674619 0.367267 0.922425
O O5 0.642704 0.869668 0.899656
O O6 0.797994 0.750965 0.948384
O O7 0.331146 0.281333 0.870164
O O8 0.126872 0.401351 0.926001
O O9 0.177424 0.896460 0.933897
O O10 0.471706 0.767191 0.633345
O O11 0.255418 0.670662 0.757391
O O12 0.479354 0.678073 0.787945
#
# Coordination Sequence:
#
# PCOD9251510 Si02
#       6
#     4   4   4   4   4   4
#     4  11  23  44  68  93 118 163 215 260 313 397
#     4  11  25  40  64  93 131 161 204 267 323 360
#     4  12  23  41  61  97 131 164 204 265 313 354
#     4  11  21  40  62  91 125 177 213 244 301 376
#     4  12  22  37  63  94 127 168 224 249 289 371
#     4  11  22  40  67  90 123 171 207 250 317 381
#
# _framework density 26.548974000000001
#
# number of rings (size 3 to 8) (size 9 to 14) (size 15 to 20)
#    0.000    0.667    3.333    7.000    0.000    1.333 
#    0.000    5.000    0.000    0.000    0.000    0.000 
#    0.000    0.000    0.000    0.000    0.000    0.000 
#
# Total GULP energy -134494.999643 kJ/mol
# GULP energy per Si atom -5603.958318 kJ/mol
# Density = 2.648855 g / cm^3
# Si number density = 26.548974 Si / 1000 Ang^3
#
#
#
# Elastic Constant Matrix: (Units=GPa)
#
#
# Indices 1 2 3 4 5 6 
#
# 1 86.6826 1.2998 1.9830 0.0000 23.1653 0.0000
# 2 1.2998 124.8635 25.7756 0.0000 8.9672 0.0000
# 3 1.9830 25.7756 85.3949 0.0000 19.7005 0.0000
# 4 0.0000 0.0000 0.0000 29.1354 0.0000 10.7954
# 5 23.1653 8.9672 19.7005 0.0000 34.4790 0.0000
# 6 0.0000 0.0000 0.0000 10.7954 0.0000 32.7810
#
#
#
# Elastic Compliance Matrix: (Units=1/GPa)
#
#
# Indices 1 2 3 4 5 6 
#
# 1 0.014412 0.000196 0.002133 0.000000 -0.010952 0.000000
# 2 0.000196 0.008566 -0.002356 0.000000 -0.001013 0.000000
# 3 0.002133 -0.002356 0.014468 0.000000 -0.009087 0.000000
# 4 0.000000 0.000000 0.000000 0.039093 0.000000 -0.012874
# 5 -0.010952 -0.001013 -0.009087 0.000000 0.041817 0.000000
# 6 0.000000 0.000000 0.000000 -0.012874 0.000000 0.034745
#
#
# Mechanical properties :
#
#
# Convention : Reuss Voigt Hill
#
# Bulk Modulus (GPa) = 26.74424 39.45087 33.09756
# Shear Modulus (GPa) = 30.18978 37.13793 33.66386
#
# Velocity S-wave (km/s) = 3.37580 3.74417 3.56475
# Velocity P-wave (km/s) = 5.02893 5.79514 5.42558
#
# Compressibility (1/GPa) = 0.03739122
#
# Stress axis : x y z
#
# Youngs Moduli (GPa) = 69.38887 116.74212 69.11633
#
# Poissons Ratio (x) = -0.02291 -0.14741
# Poissons Ratio (y) = -0.01362 0.16286
# Poissons Ratio (z) = -0.14799 0.27508
#
# Static dielectric constant tensor:
#      x y z
#    x 2.063700 0.000000 -0.046870 
#    y 0.000000 1.967770 0.000000 
#    z -0.046870 0.000000 2.180370 
# 
# From -- ./inp_files/45843.got.cif
#   From: 2010.05.17/outbox.cif.g08.bks.cpg/sg14_23_cif.got.tgz:45843.got - 2010.06.03 17:49:19.
