data_PCOD9251945
_publ_section_title
;
Structure prediction by ZEFSAII (Michael W. Deem and Ramdas Pophale) SiO2 
 PCOD9251945
Probable space group: P 21/C
;
_chemical_formula_sum "Si O2"
_cell_formula_units_Z 28
_cell_length_a 8.462167
_cell_length_b 12.665018
_cell_length_c 13.103992
_cell_angle_alpha 90.000000
_cell_angle_beta 105.660946
_cell_angle_gamma 90.000000
_cell_volume 1352.263640
_symmetry_space_group_name_H-M "P 21/C"
_symmetry_group_IT_number 14
_symmetry_cell_setting 'monoclinic'
loop_
_space_group_symop_operation_xyz
x,y,z
-x,1/2+y,1/2-z
-x,-y,-z
x,1/2-y,1/2+z
loop_
_atom_site_type_symbol
_atom_site_label
_atom_site_fract_x
_atom_site_fract_y
_atom_site_fract_z
Si Si1 0.659397 0.473237 0.204175
Si Si2 0.155283 0.886511 0.923598
Si Si3 0.031817 0.585011 0.623203
Si Si4 0.672834 0.075524 0.366726
Si Si5 0.574939 0.285393 0.048230
Si Si6 0.241407 0.109127 0.476820
Si Si7 0.052159 0.694674 0.200186
O O1 0.806132 0.476738 0.309839
O O2 0.490976 0.526422 0.211686
O O3 0.631427 0.354294 0.156656
O O4 0.699170 0.538546 0.108745
O O5 0.328948 0.825797 0.942347
O O6 0.040079 0.843053 0.813675
O O7 0.078370 0.867441 0.021383
O O8 0.129534 0.012750 0.908356
O O9 0.020506 0.681581 0.697329
O O10 0.629512 0.149625 0.456234
O O11 0.775930 0.146379 0.307985
O O12 0.763819 0.971942 0.429383
O O13 0.377428 0.299089 0.016534
O O14 0.071311 0.152315 0.407201
#
# Coordination Sequence:
#
# PCOD9251945 Si02
#       7
#     4   4   4   4   4   4   4
#     4   9  17  37  63  87 117 160 207 255 315 363
#     4  11  23  39  62  89 127 172 206 255 323 385
#     4  11  23  39  61  90 131 171 202 258 326 382
#     4   9  19  35  64  92 115 154 213 269 306 364
#     4   9  17  37  63  88 116 158 210 260 306 373
#     4   9  19  35  64  94 117 154 214 269 307 364
#     4  12  21  38  64  92 124 167 212 260 316 376
#
# _framework density 20.706022000000001
#
# number of rings (size 3 to 8) (size 9 to 14) (size 15 to 20)
#    0.000    2.000    4.286    2.143    0.000    0.000 
#    2.571    5.714    3.143    0.000    0.000    0.000 
#    0.000    0.000    0.000    0.000    0.000    0.000 
#
# Total GULP energy -155934.803007 kJ/mol
# GULP energy per Si atom -5569.100107 kJ/mol
# Density = 2.065889 g / cm^3
# Si number density = 20.706022 Si / 1000 Ang^3
#
#
#
# Elastic Constant Matrix: (Units=GPa)
#
#
# Indices 1 2 3 4 5 6 
#
# 1 45.4306 41.7484 12.2750 0.0000 3.6485 0.0000
# 2 41.7484 66.8719 11.8521 0.0000 -2.9583 0.0000
# 3 12.2750 11.8521 65.6766 0.0000 -5.5013 0.0000
# 4 0.0000 0.0000 0.0000 14.6636 0.0000 10.6063
# 5 3.6485 -2.9583 -5.5013 0.0000 9.6339 0.0000
# 6 0.0000 0.0000 0.0000 10.6063 0.0000 37.1694
#
#
#
# Elastic Compliance Matrix: (Units=1/GPa)
#
#
# Indices 1 2 3 4 5 6 
#
# 1 0.065776 -0.041458 -0.008365 0.000000 -0.042418 0.000000
# 2 -0.041458 0.041680 0.002745 0.000000 0.030068 0.000000
# 3 -0.008365 0.002745 0.017465 0.000000 0.013984 0.000000
# 4 0.000000 0.000000 0.000000 0.085932 0.000000 -0.024521
# 5 -0.042418 0.030068 0.013984 0.000000 0.137083 0.000000
# 6 0.000000 0.000000 0.000000 -0.024521 0.000000 0.033901
#
#
# Mechanical properties :
#
#
# Convention : Reuss Voigt Hill
#
# Bulk Modulus (GPa) = 32.50332 34.41446 33.45889
# Shear Modulus (GPa) = 10.28278 19.76696 15.02487
#
# Velocity S-wave (km/s) = 2.23089 3.09309 2.69667
# Velocity P-wave (km/s) = 4.72942 5.42336 5.08824
#
# Compressibility (1/GPa) = 0.03076608
#
# Stress axis : x y z
#
# Youngs Moduli (GPa) = 15.20301 23.99223 57.25584
#
# Poissons Ratio (x) = 0.99468 0.47895
# Poissons Ratio (y) = 0.63029 -0.15720
# Poissons Ratio (z) = 0.12717 -0.06587
#
# Static dielectric constant tensor:
#      x y z
#    x 1.759780 0.000000 0.032720 
#    y 0.000000 1.825460 0.000000 
#    z 0.032720 0.000000 1.735150 
# 
# From -- ./inp_files/40114.got.cif
#   From: 2010.05.17/outbox.cif.g08.bks.cpg/sg14_21_cif.got.tgz:40114.got - 2010.06.03 17:49:19.
