data_PCOD9251112
_publ_section_title
;
Structure prediction by ZEFSAII (Michael W. Deem and Ramdas Pophale) SiO2 
 PCOD9251112
Probable space group: P 21/C
;
_chemical_formula_sum "Si O2"
_cell_formula_units_Z 16
_cell_length_a 9.165209
_cell_length_b 7.265389
_cell_length_c 18.681823
_cell_angle_alpha 90.000000
_cell_angle_beta 148.418398
_cell_angle_gamma 90.000000
_cell_volume 651.498383
_symmetry_space_group_name_H-M "P 21/C"
_symmetry_group_IT_number 14
_symmetry_cell_setting 'monoclinic'
loop_
_space_group_symop_operation_xyz
x,y,z
-x,1/2+y,1/2-z
-x,-y,-z
x,1/2-y,1/2+z
loop_
_atom_site_type_symbol
_atom_site_label
_atom_site_fract_x
_atom_site_fract_y
_atom_site_fract_z
Si Si1 0.511038 0.859965 0.178656
Si Si2 0.702262 0.572415 0.145684
Si Si3 0.076518 0.216241 0.525285
Si Si4 0.125580 0.709691 0.209304
O O1 0.570383 0.739971 0.133383
O O2 0.674550 0.767845 0.313993
O O3 0.650464 0.057378 0.221782
O O4 0.185379 0.840730 0.059454
O O5 0.752348 0.407883 0.221809
O O6 0.979170 0.636080 0.220047
O O7 0.500000 0.500000 0.000000
O O8 0.096027 0.237745 0.447825
O O9 0.000000 0.000000 0.500000
#
# Coordination Sequence:
#
# PCOD9251112 Si02
#       4
#     4   4   4   4
#     4  11  25  49  75 105 148 190 242 301 360 427
#     4  12  26  45  72 104 150 191 240 297 356 440
#     4  10  25  48  74 108 145 187 247 298 354 433
#     4  11  26  46  71 108 142 192 241 296 365 425
#
# _framework density 24.558772999999999
#
# number of rings (size 3 to 8) (size 9 to 14) (size 15 to 20)
#    0.000    1.000    2.500    3.000   10.500    4.000 
#    0.000    0.000    0.000    0.000    0.000    0.000 
#    0.000    0.000    0.000    0.000    0.000    0.000 
#
# Total GULP energy -89693.323080 kJ/mol
# GULP energy per Si atom -5605.832693 kJ/mol
# Density = 2.450288 g / cm^3
# Si number density = 24.558773 Si / 1000 Ang^3
#
#
#
# Elastic Constant Matrix: (Units=GPa)
#
#
# Indices 1 2 3 4 5 6 
#
# 1 138.8552 59.2786 26.8676 0.0000 -0.2304 0.0000
# 2 59.2786 55.3747 20.8334 0.0000 12.2756 0.0000
# 3 26.8676 20.8334 97.4541 0.0000 -10.5035 0.0000
# 4 0.0000 0.0000 0.0000 37.1645 0.0000 -6.1498
# 5 -0.2304 12.2756 -10.5035 0.0000 53.6213 0.0000
# 6 0.0000 0.0000 0.0000 -6.1498 0.0000 62.1027
#
#
#
# Elastic Compliance Matrix: (Units=1/GPa)
#
#
# Indices 1 2 3 4 5 6 
#
# 1 0.013912 -0.015660 -0.000097 0.000000 0.003626 0.000000
# 2 -0.015660 0.038948 -0.005084 0.000000 -0.009980 0.000000
# 3 -0.000097 -0.005084 0.011748 0.000000 0.003465 0.000000
# 4 0.000000 0.000000 0.000000 0.027356 0.000000 0.002709
# 5 0.003626 -0.009980 0.003465 0.000000 0.021628 0.000000
# 6 0.000000 0.000000 0.000000 0.002709 0.000000 0.016371
#
#
# Mechanical properties :
#
#
# Convention : Reuss Voigt Hill
#
# Bulk Modulus (GPa) = 43.61931 56.18258 49.90094
# Shear Modulus (GPa) = 27.88818 42.89134 35.38976
#
# Velocity S-wave (km/s) = 3.37348 4.18362 3.80020
# Velocity P-wave (km/s) = 5.74226 6.80172 6.29432
#
# Compressibility (1/GPa) = 0.02292563
#
# Stress axis : x y z
#
# Youngs Moduli (GPa) = 71.88063 25.67521 85.11858
#
# Poissons Ratio (x) = 0.40208 0.00825
# Poissons Ratio (y) = 1.12566 0.43278
# Poissons Ratio (z) = 0.00697 0.13054
#
# Static dielectric constant tensor:
#      x y z
#    x 1.648250 0.000000 -0.100080 
#    y 0.000000 1.961870 0.000000 
#    z -0.100080 0.000000 1.862370 
# 
# From -- ./inp_files/17423.got.cif
#   From: 2010.05.17/outbox.cif.g08.bks.cpg/sg14_9_cif.got.tgz:17423.got - 2010.06.03 17:49:19.
