data_PCOD9251224
_publ_section_title
;
Structure prediction by ZEFSAII (Michael W. Deem and Ramdas Pophale) SiO2 
 PCOD9251224
Probable space group: P 21/C
;
_chemical_formula_sum "Si O2"
_cell_formula_units_Z 32
_cell_length_a 8.072692
_cell_length_b 17.292187
_cell_length_c 9.131886
_cell_angle_alpha 90.000000
_cell_angle_beta 86.411440
_cell_angle_gamma 90.000000
_cell_volume 1272.261564
_symmetry_space_group_name_H-M "P 21/C"
_symmetry_group_IT_number 14
_symmetry_cell_setting 'monoclinic'
loop_
_space_group_symop_operation_xyz
x,y,z
-x,1/2+y,1/2-z
-x,-y,-z
x,1/2-y,1/2+z
loop_
_atom_site_type_symbol
_atom_site_label
_atom_site_fract_x
_atom_site_fract_y
_atom_site_fract_z
Si Si1 0.921054 0.661954 0.726630
Si Si2 0.610930 0.633584 0.591619
Si Si3 0.114154 0.742683 0.458093
Si Si4 0.644457 0.237013 0.322165
Si Si5 0.092015 0.512647 0.148787
Si Si6 0.602594 0.038114 0.724452
Si Si7 0.869073 0.539033 0.393463
Si Si8 0.442130 0.591375 0.070049
O O1 0.733962 0.680625 0.690583
O O2 0.908816 0.572579 0.777109
O O3 0.029723 0.678985 0.571843
O O4 0.987752 0.711363 0.860158
O O5 0.441303 0.684947 0.609576
O O6 0.549366 0.551682 0.659490
O O7 0.735082 0.602181 0.457715
O O8 0.267414 0.729099 0.338372
O O9 0.207740 0.790698 0.577740
O O10 0.514987 0.169272 0.349246
O O11 0.274034 0.548022 0.127723
O O12 0.985748 0.569771 0.257658
O O13 0.000000 0.500000 0.000000
O O14 0.579551 0.104172 0.602737
O O15 0.761038 0.027370 0.816589
O O16 0.586237 0.965488 0.617511
O O17 0.000000 0.500000 0.500000
#
# Coordination Sequence:
#
# PCOD9251224 Si02
#       8
#     4   4   4   4   4   4   4   4
#     4  11  25  51  76 116 158 214 275 336 409 495
#     4  12  27  46  78 119 165 203 268 349 413 492
#     4  10  26  48  75 107 157 215 264 331 408 495
#     4  11  26  46  76 111 159 213 263 328 413 489
#     4  12  24  47  82 118 158 211 273 340 414 500
#     4  11  25  47  74 111 159 208 264 338 409 485
#     4  12  26  45  78 117 159 211 270 341 411 485
#     4  11  24  46  76 111 154 214 268 328 413 495
#
# _framework density 25.152062999999998
#
# number of rings (size 3 to 8) (size 9 to 14) (size 15 to 20)
#    0.000    0.750    3.750    1.875    7.000    3.000 
#    0.000    0.000    0.000    0.000    0.000    0.000 
#    0.000    0.000    0.000    0.000    0.000    0.000 
#
# Total GULP energy -178281.187382 kJ/mol
# GULP energy per Si atom -5571.287106 kJ/mol
# Density = 2.509482 g / cm^3
# Si number density = 25.152063 Si / 1000 Ang^3
#
#
#
# Elastic Constant Matrix: (Units=GPa)
#
#
# Indices 1 2 3 4 5 6 
#
# 1 111.7814 10.6655 53.9493 0.0000 12.1343 0.0000
# 2 10.6655 73.0968 32.9574 0.0000 -4.4800 0.0000
# 3 53.9493 32.9574 164.3306 0.0000 2.5543 0.0000
# 4 0.0000 0.0000 0.0000 29.1897 0.0000 -12.5861
# 5 12.1343 -4.4800 2.5543 0.0000 47.8374 0.0000
# 6 0.0000 0.0000 0.0000 -12.5861 0.0000 38.0751
#
#
#
# Elastic Compliance Matrix: (Units=1/GPa)
#
#
# Indices 1 2 3 4 5 6 
#
# 1 0.010943 -0.000170 -0.003518 0.000000 -0.002604 0.000000
# 2 -0.000170 0.015162 -0.003010 0.000000 0.001624 0.000000
# 3 -0.003518 -0.003010 0.007841 0.000000 0.000192 0.000000
# 4 0.000000 0.000000 0.000000 0.039953 0.000000 0.013207
# 5 -0.002604 0.001624 0.000192 0.000000 0.021706 0.000000
# 6 0.000000 0.000000 0.000000 0.013207 0.000000 0.030630
#
#
# Mechanical properties :
#
#
# Convention : Reuss Voigt Hill
#
# Bulk Modulus (GPa) = 48.66339 60.48366 54.57353
# Shear Modulus (GPa) = 34.13408 39.79622 36.96515
#
# Velocity S-wave (km/s) = 3.68789 3.98203 3.83778
# Velocity P-wave (km/s) = 6.12566 6.72618 6.43293
#
# Compressibility (1/GPa) = 0.02054933
#
# Stress axis : x y z
#
# Youngs Moduli (GPa) = 91.38458 65.95405 127.53560
#
# Poissons Ratio (x) = 0.01122 0.44866
# Poissons Ratio (y) = 0.01554 0.38391
# Poissons Ratio (z) = 0.32148 0.19854
#
# Static dielectric constant tensor:
#      x y z
#    x 2.050220 0.000000 -0.019900 
#    y 0.000000 2.228950 0.000000 
#    z -0.019900 0.000000 2.102810 
# 
# From -- ./inp_files/10202.got.cif
#   From: 2010.05.17/outbox.cif.g08.bks.cpg/sg14_6_cif.got.tgz:10202.got - 2010.06.03 17:49:19.
