data_PCOD9251285
_publ_section_title
;
Structure prediction by ZEFSAII (Michael W. Deem and Ramdas Pophale) SiO2 
 PCOD9251285
Probable space group: P 21/C
;
_chemical_formula_sum "Si O2"
_cell_formula_units_Z 32
_cell_length_a 8.681549
_cell_length_b 13.224307
_cell_length_c 18.433863
_cell_angle_alpha 90.000000
_cell_angle_beta 129.545816
_cell_angle_gamma 90.000000
_cell_volume 1631.946985
_symmetry_space_group_name_H-M "P 21/C"
_symmetry_group_IT_number 14
_symmetry_cell_setting 'monoclinic'
loop_
_space_group_symop_operation_xyz
x,y,z
-x,1/2+y,1/2-z
-x,-y,-z
x,1/2-y,1/2+z
loop_
_atom_site_type_symbol
_atom_site_label
_atom_site_fract_x
_atom_site_fract_y
_atom_site_fract_z
Si Si1 0.291178 0.965246 0.807822
Si Si2 0.356881 0.507965 0.698482
Si Si3 0.157779 0.295809 0.663126
Si Si4 0.596022 0.823614 0.975433
Si Si5 0.848330 0.678206 0.688260
Si Si6 0.545187 0.821943 0.339054
Si Si7 0.841148 0.213660 0.316478
Si Si8 0.980785 0.152539 0.971772
O O1 0.407288 0.896459 0.902723
O O2 0.148226 0.895034 0.716238
O O3 0.469965 0.003287 0.809877
O O4 0.168488 0.060018 0.799481
O O5 0.290768 0.397442 0.704016
O O6 0.454374 0.570315 0.793824
O O7 0.171545 0.570402 0.607269
O O8 0.139849 0.247692 0.736849
O O9 0.254167 0.206246 0.643189
O O10 0.977594 0.335970 0.557591
O O11 0.558222 0.716293 0.924941
O O12 0.660326 0.806966 0.077304
O O13 0.792595 0.867135 0.990408
O O14 0.039744 0.708369 0.698697
O O15 0.388542 0.744069 0.255682
O O16 0.922023 0.239118 0.419505
#
# Coordination Sequence:
#
# PCOD9251285 Si02
#       8
#     4   4   4   4   4   4   4   4
#     4  11  20  37  62  86 111 152 194 240 284 339
#     4  11  19  34  64  89 111 146 201 237 284 330
#     4  11  20  35  58  90 112 145 198 243 267 334
#     4   9  19  38  58  83 121 155 182 231 301 334
#     4  11  23  36  57  87 117 146 196 244 274 342
#     4   9  18  37  58  78 117 156 181 227 293 342
#     4   9  20  38  54  79 121 153 176 228 308 335
#     4   9  19  35  59  84 117 154 181 234 291 340
#
# _framework density 19.608481999999999
#
# number of rings (size 3 to 8) (size 9 to 14) (size 15 to 20)
#    0.000    2.000    5.000    0.750    0.000    3.000 
#    4.500    1.250    0.000    0.000    0.000    0.000 
#    0.000    0.000    0.000    0.000    0.000    0.000 
#
# Total GULP energy -178215.110912 kJ/mol
# GULP energy per Si atom -5569.222216 kJ/mol
# Density = 1.956385 g / cm^3
# Si number density = 19.608482 Si / 1000 Ang^3
#
#
#
# Elastic Constant Matrix: (Units=GPa)
#
#
# Indices 1 2 3 4 5 6 
#
# 1 30.9950 22.7053 20.2734 0.0000 -3.5787 0.0000
# 2 22.7053 79.5887 61.3053 0.0000 -2.6673 0.0000
# 3 20.2734 61.3053 81.5562 0.0000 -18.0296 0.0000
# 4 0.0000 0.0000 0.0000 29.3736 0.0000 6.8097
# 5 -3.5787 -2.6673 -18.0296 0.0000 28.0144 0.0000
# 6 0.0000 0.0000 0.0000 6.8097 0.0000 19.9056
#
#
#
# Elastic Compliance Matrix: (Units=1/GPa)
#
#
# Indices 1 2 3 4 5 6 
#
# 1 0.041359 -0.010214 -0.001924 0.000000 0.003073 0.000000
# 2 -0.010214 0.037519 -0.029336 0.000000 -0.016613 0.000000
# 3 -0.001924 -0.029336 0.039779 0.000000 0.022562 0.000000
# 4 0.000000 0.000000 0.000000 0.036977 0.000000 -0.012650
# 5 0.003073 -0.016613 0.022562 0.000000 0.049027 0.000000
# 6 0.000000 0.000000 0.000000 -0.012650 0.000000 0.054565
#
#
# Mechanical properties :
#
#
# Convention : Reuss Voigt Hill
#
# Bulk Modulus (GPa) = 28.00447 44.52311 36.26379
# Shear Modulus (GPa) = 14.12124 21.31579 17.71852
#
# Velocity S-wave (km/s) = 2.68649 3.30065 3.00928
# Velocity P-wave (km/s) = 4.89242 6.10582 5.53249
#
# Compressibility (1/GPa) = 0.03570859
#
# Stress axis : x y z
#
# Youngs Moduli (GPa) = 24.17870 26.65346 25.13865
#
# Poissons Ratio (x) = 0.27223 0.04837
# Poissons Ratio (y) = 0.24696 0.73747
# Poissons Ratio (z) = 0.04652 0.78191
#
# Static dielectric constant tensor:
#      x y z
#    x 1.714120 0.000000 0.005050 
#    y 0.000000 1.719920 0.000000 
#    z 0.005050 0.000000 1.754950 
# 
# From -- ./inp_files/55868.got.cif
#   From: 2010.05.17/outbox.cif.g08.bks.cpg/sg14_28_cif.got.tgz:55868.got - 2010.06.03 17:49:19.
