data_PCOD9251474
_publ_section_title
;
Structure prediction by ZEFSAII (Michael W. Deem and Ramdas Pophale) SiO2 
 PCOD9251474
Probable space group: P 21/C
;
_chemical_formula_sum "Si O2"
_cell_formula_units_Z 16
_cell_length_a 11.209802
_cell_length_b 9.193973
_cell_length_c 9.315019
_cell_angle_alpha 90.000000
_cell_angle_beta 40.733885
_cell_angle_gamma 90.000000
_cell_volume 626.464518
_symmetry_space_group_name_H-M "P 21/C"
_symmetry_group_IT_number 14
_symmetry_cell_setting 'monoclinic'
loop_
_space_group_symop_operation_xyz
x,y,z
-x,1/2+y,1/2-z
-x,-y,-z
x,1/2-y,1/2+z
loop_
_atom_site_type_symbol
_atom_site_label
_atom_site_fract_x
_atom_site_fract_y
_atom_site_fract_z
Si Si1 0.793218 0.051516 0.006455
Si Si2 0.608714 0.260561 0.352877
Si Si3 0.725285 0.565640 0.250088
Si Si4 0.006637 0.792074 0.958116
O O1 0.874893 0.914346 0.017927
O O2 0.610879 0.127218 0.239711
O O3 0.754603 0.990229 0.885973
O O4 0.947073 0.171254 0.916030
O O5 0.664306 0.416416 0.230458
O O6 0.426460 0.306727 0.600607
O O7 0.784714 0.214474 0.289261
O O8 0.907604 0.639877 0.029960
#
# Coordination Sequence:
#
# PCOD9251474 Si02
#       4
#     4   4   4   4
#     4   9  22  40  57  90 117 150 200 240 285 353
#     4   9  22  40  55  91 118 142 209 239 274 369
#     4  11  21  38  64  83 116 166 180 242 311 321
#     4   9  21  41  56  87 119 146 202 243 279 358
#
# _framework density 25.540151000000002
#
# number of rings (size 3 to 8) (size 9 to 14) (size 15 to 20)
#    1.500    1.000    0.000    0.750    3.500    5.000 
#    4.500    0.000    0.000    0.000    0.000    0.000 
#    0.000    0.000    0.000    0.000    0.000    0.000 
#
# Total GULP energy -89119.721838 kJ/mol
# GULP energy per Si atom -5569.982615 kJ/mol
# Density = 2.548202 g / cm^3
# Si number density = 25.540151 Si / 1000 Ang^3
#
#
#
# Elastic Constant Matrix: (Units=GPa)
#
#
# Indices 1 2 3 4 5 6 
#
# 1 87.0066 17.3690 38.9653 0.0000 2.3796 0.0000
# 2 17.3690 101.1591 41.2894 0.0000 -14.8081 0.0000
# 3 38.9653 41.2894 95.9328 0.0000 -20.4959 0.0000
# 4 0.0000 0.0000 0.0000 55.6485 0.0000 -14.0338
# 5 2.3796 -14.8081 -20.4959 0.0000 20.4666 0.0000
# 6 0.0000 0.0000 0.0000 -14.0338 0.0000 26.4023
#
#
#
# Elastic Compliance Matrix: (Units=1/GPa)
#
#
# Indices 1 2 3 4 5 6 
#
# 1 0.015674 -0.000885 -0.008284 0.000000 -0.010759 0.000000
# 2 -0.000885 0.012371 -0.003856 0.000000 0.005192 0.000000
# 3 -0.008284 -0.003856 0.019157 0.000000 0.017358 0.000000
# 4 0.000000 0.000000 0.000000 0.020752 0.000000 0.011030
# 5 -0.010759 0.005192 0.017358 0.000000 0.071250 0.000000
# 6 0.000000 0.000000 0.000000 0.011030 0.000000 0.043739
#
#
# Mechanical properties :
#
#
# Convention : Reuss Voigt Hill
#
# Bulk Modulus (GPa) = 47.27569 53.26065 50.26817
# Shear Modulus (GPa) = 23.14352 32.93513 28.03932
#
# Velocity S-wave (km/s) = 3.01352 3.59492 3.31698
# Velocity P-wave (km/s) = 5.53705 6.17497 5.86469
#
# Compressibility (1/GPa) = 0.02115252
#
# Stress axis : x y z
#
# Youngs Moduli (GPa) = 63.79877 80.83264 52.20105
#
# Poissons Ratio (x) = 0.07153 0.43244
# Poissons Ratio (y) = 0.05645 0.20128
# Poissons Ratio (z) = 0.52852 0.31167
#
# Static dielectric constant tensor:
#      x y z
#    x 2.093390 0.000000 0.019750 
#    y 0.000000 2.041780 0.000000 
#    z 0.019750 0.000000 2.077750 
# 
# From -- ./inp_files/22732.got.cif
#   From: 2010.05.17/outbox.cif.g08.bks.cpg/sg14_12_cif.got.tgz:22732.got - 2010.06.03 17:49:19.
