data_PCOD9251368
_publ_section_title
;
Structure prediction by ZEFSAII (Michael W. Deem and Ramdas Pophale) SiO2 
 PCOD9251368
Probable space group: P 21/C
;
_chemical_formula_sum "Si O2"
_cell_formula_units_Z 32
_cell_length_a 21.600595
_cell_length_b 12.634880
_cell_length_c 21.673436
_cell_angle_alpha 90.000000
_cell_angle_beta 166.905509
_cell_angle_gamma 90.000000
_cell_volume 1340.118958
_symmetry_space_group_name_H-M "P 21/C"
_symmetry_group_IT_number 14
_symmetry_cell_setting 'monoclinic'
loop_
_space_group_symop_operation_xyz
x,y,z
-x,1/2+y,1/2-z
-x,-y,-z
x,1/2-y,1/2+z
loop_
_atom_site_type_symbol
_atom_site_label
_atom_site_fract_x
_atom_site_fract_y
_atom_site_fract_z
Si Si1 0.271525 0.679634 0.992882
Si Si2 0.859580 0.165954 0.776656
Si Si3 0.423251 0.862147 0.276978
Si Si4 0.574256 0.870188 0.977571
Si Si5 0.287656 0.249413 0.272218
Si Si6 0.865131 0.032774 0.526044
Si Si7 0.120034 0.432043 0.701157
Si Si8 0.224760 0.320044 0.996870
O O1 0.173662 0.651793 0.829061
O O2 0.044733 0.766164 0.792281
O O3 0.259251 0.592296 0.034345
O O4 0.572061 0.729940 0.279785
O O5 0.572475 0.201817 0.525946
O O6 0.941870 0.049704 0.880501
O O7 0.082040 0.251767 0.015022
O O8 0.476378 0.742760 0.353430
O O9 0.580359 0.936233 0.477978
O O10 0.582663 0.871438 0.368193
O O11 0.111460 0.896634 0.975258
O O12 0.644373 0.847942 0.117181
O O13 0.843366 0.915134 0.205624
O O14 0.329265 0.947648 0.721378
O O15 0.137269 0.165386 0.171140
O O16 0.871929 0.910375 0.550584
#
# Coordination Sequence:
#
# PCOD9251368 Si02
#       8
#     4   4   4   4   4   4   4   4
#     4  12  25  44  65  99 139 173 214 275 334 413
#     4  12  24  41  62  94 138 174 217 262 342 394
#     4  11  20  38  61  94 132 166 208 266 323 395
#     4  11  22  41  66  93 127 167 224 267 318 386
#     4  11  23  40  65  92 129 181 218 272 320 391
#     4  12  23  43  69  97 128 172 220 277 332 394
#     4  11  22  36  64  96 131 170 219 261 323 404
#     4  12  25  41  67  97 136 174 219 270 346 395
#
# _framework density 23.878477
#
# number of rings (size 3 to 8) (size 9 to 14) (size 15 to 20)
#    0.000    0.500    2.500    8.250    0.000    2.000 
#    0.000    0.000    0.000   15.000    0.000    0.000 
#    0.000    0.000    0.000    0.000    0.000    0.000 
#
# Total GULP energy -179062.014952 kJ/mol
# GULP energy per Si atom -5595.687967 kJ/mol
# Density = 2.382413 g / cm^3
# Si number density = 23.878477 Si / 1000 Ang^3
#
#
#
# Elastic Constant Matrix: (Units=GPa)
#
#
# Indices 1 2 3 4 5 6 
#
# 1 65.9599 4.3280 -4.8192 0.0000 2.7945 0.0000
# 2 4.3280 45.8342 12.5467 0.0000 2.2272 0.0000
# 3 -4.8192 12.5467 51.3927 0.0000 15.4819 0.0000
# 4 0.0000 0.0000 0.0000 12.4558 0.0000 -4.1670
# 5 2.7945 2.2272 15.4819 0.0000 50.4074 0.0000
# 6 0.0000 0.0000 0.0000 -4.1670 0.0000 31.3971
#
#
#
# Elastic Compliance Matrix: (Units=1/GPa)
#
#
# Indices 1 2 3 4 5 6 
#
# 1 0.015536 -0.002054 0.002414 0.000000 -0.001512 0.000000
# 2 -0.002054 0.023681 -0.006273 0.000000 0.000994 0.000000
# 3 0.002414 -0.006273 0.023331 0.000000 -0.007023 0.000000
# 4 0.000000 0.000000 0.000000 0.084014 0.000000 0.011150
# 5 -0.001512 0.000994 -0.007023 0.000000 0.022035 0.000000
# 6 0.000000 0.000000 0.000000 0.011150 0.000000 0.033330
#
#
# Mechanical properties :
#
#
# Convention : Reuss Voigt Hill
#
# Bulk Modulus (GPa) = 19.71603 20.81088 20.26345
# Shear Modulus (GPa) = 21.67675 28.92748 25.30211
#
# Velocity S-wave (km/s) = 3.01623 3.48436 3.25871
# Velocity P-wave (km/s) = 4.51718 4.99219 4.76061
#
# Compressibility (1/GPa) = 0.05072016
#
# Stress axis : x y z
#
# Youngs Moduli (GPa) = 64.36695 42.22846 42.86061
#
# Poissons Ratio (x) = 0.08675 -0.10346
# Poissons Ratio (y) = 0.13223 0.26888
# Poissons Ratio (z) = -0.15537 0.26492
#
# Static dielectric constant tensor:
#      x y z
#    x 1.985630 0.000000 -0.074270 
#    y 0.000000 1.939570 0.000000 
#    z -0.074270 0.000000 1.870500 
# 
# From -- ./inp_files/75034.got.cif
#   From: 2010.05.17/outbox.cif.g08.bks.cpg/sg14_38_cif.got.tgz:75034.got - 2010.06.03 17:49:19.
