data_PCOD9251616
_publ_section_title
;
Structure prediction by ZEFSAII (Michael W. Deem and Ramdas Pophale) SiO2 
 PCOD9251616
Probable space group: P 21/C
;
_chemical_formula_sum "Si O2"
_cell_formula_units_Z 20
_cell_length_a 8.938151
_cell_length_b 5.631041
_cell_length_c 20.857656
_cell_angle_alpha 90.000000
_cell_angle_beta 124.994097
_cell_angle_gamma 90.000000
_cell_volume 859.998559
_symmetry_space_group_name_H-M "P 21/C"
_symmetry_group_IT_number 14
_symmetry_cell_setting 'monoclinic'
loop_
_space_group_symop_operation_xyz
x,y,z
-x,1/2+y,1/2-z
-x,-y,-z
x,1/2-y,1/2+z
loop_
_atom_site_type_symbol
_atom_site_label
_atom_site_fract_x
_atom_site_fract_y
_atom_site_fract_z
Si Si1 0.684083 0.586977 0.577623
Si Si2 0.398960 0.036024 0.237889
Si Si3 0.215271 0.744178 0.289524
Si Si4 0.935775 0.987226 0.634331
Si Si5 0.016235 0.116166 0.073147
O O1 0.500000 0.500000 0.500000
O O2 0.689101 0.471522 0.649697
O O3 0.853214 0.492009 0.576201
O O4 0.738457 0.862669 0.589029
O O5 0.501939 0.793934 0.239156
O O6 0.343945 0.953980 0.296193
O O7 0.217049 0.074443 0.150962
O O8 0.071997 0.831473 0.307519
O O9 0.103588 0.670777 0.199188
O O10 0.977308 0.104680 0.576582
O O11 0.000000 0.000000 0.000000
#
# Coordination Sequence:
#
# PCOD9251616 Si02
#       5
#     4   4   4   4   4
#     4  11  26  43  73 111 146 198 251 322 389 453
#     4  12  28  46  75 113 149 205 260 319 389 464
#     4  11  22  43  74 103 144 192 261 315 376 465
#     4  11  21  44  77 102 146 200 257 321 385 455
#     4  11  27  47  69 108 155 200 251 319 393 462
#
# _framework density 23.255855
#
# number of rings (size 3 to 8) (size 9 to 14) (size 15 to 20)
#    0.000    0.800    4.000    2.400    5.600    5.600 
#    0.000    0.000    0.000    0.000    0.000    0.000 
#    0.000    0.000    0.000    0.000    0.000    0.000 
#
# Total GULP energy -111552.331181 kJ/mol
# GULP energy per Si atom -5577.616559 kJ/mol
# Density = 2.320292 g / cm^3
# Si number density = 23.255855 Si / 1000 Ang^3
#
#
#
# Elastic Constant Matrix: (Units=GPa)
#
#
# Indices 1 2 3 4 5 6 
#
# 1 103.7171 43.1059 61.0582 0.0000 12.9690 0.0000
# 2 43.1059 108.3911 57.3312 0.0000 14.2033 0.0000
# 3 61.0582 57.3312 132.3806 0.0000 22.8944 0.0000
# 4 0.0000 0.0000 0.0000 18.4691 0.0000 -2.0555
# 5 12.9690 14.2033 22.8944 0.0000 32.9526 0.0000
# 6 0.0000 0.0000 0.0000 -2.0555 0.0000 62.1159
#
#
#
# Elastic Compliance Matrix: (Units=1/GPa)
#
#
# Indices 1 2 3 4 5 6 
#
# 1 0.013860 -0.002725 -0.005083 0.000000 -0.000749 0.000000
# 2 -0.002725 0.012595 -0.003914 0.000000 -0.001636 0.000000
# 3 -0.005083 -0.003914 0.012452 0.000000 -0.004964 0.000000
# 4 0.000000 0.000000 0.000000 0.054345 0.000000 0.001798
# 5 -0.000749 -0.001636 -0.004964 0.000000 0.034795 0.000000
# 6 0.000000 0.000000 0.000000 0.001798 0.000000 0.016158
#
#
# Mechanical properties :
#
#
# Convention : Reuss Voigt Hill
#
# Bulk Modulus (GPa) = 64.67760 74.16438 69.42099
# Shear Modulus (GPa) = 28.93440 34.90709 31.92075
#
# Velocity S-wave (km/s) = 3.53112 3.87848 3.70887
# Velocity P-wave (km/s) = 6.67059 7.21226 6.94670
#
# Compressibility (1/GPa) = 0.01546130
#
# Stress axis : x y z
#
# Youngs Moduli (GPa) = 72.14842 79.39927 80.30779
#
# Poissons Ratio (x) = 0.21640 0.40821
# Poissons Ratio (y) = 0.19663 0.31436
# Poissons Ratio (z) = 0.36673 0.31080
#
# Static dielectric constant tensor:
#      x y z
#    x 1.888810 0.000000 -0.000270 
#    y 0.000000 2.273410 0.000000 
#    z -0.000270 0.000000 1.833930 
# 
# From -- ./inp_files/64233.got.cif
#   From: 2010.05.17/outbox.cif.g08.bks.cpg/sg14_33_cif.got.tgz:64233.got - 2010.06.03 17:49:19.
