data_PCOD9251524
_publ_section_title
;
Structure prediction by ZEFSAII (Michael W. Deem and Ramdas Pophale) SiO2 
 PCOD9251524
Probable space group: P 21/C
;
_chemical_formula_sum "Si O2"
_cell_formula_units_Z 20
_cell_length_a 17.733021
_cell_length_b 5.919748
_cell_length_c 18.609673
_cell_angle_alpha 90.000000
_cell_angle_beta 150.109605
_cell_angle_gamma 90.000000
_cell_volume 973.537165
_symmetry_space_group_name_H-M "P 21/C"
_symmetry_group_IT_number 14
_symmetry_cell_setting 'monoclinic'
loop_
_space_group_symop_operation_xyz
x,y,z
-x,1/2+y,1/2-z
-x,-y,-z
x,1/2-y,1/2+z
loop_
_atom_site_type_symbol
_atom_site_label
_atom_site_fract_x
_atom_site_fract_y
_atom_site_fract_z
Si Si1 0.346651 0.704926 0.602973
Si Si2 0.102011 0.098961 0.411793
Si Si3 0.810038 0.617535 0.643479
Si Si4 0.332282 0.345394 0.695566
Si Si5 0.581482 0.747798 0.072713
O O1 0.286498 0.531802 0.492371
O O2 0.340396 0.606843 0.678781
O O3 0.518962 0.755350 0.723926
O O4 0.229588 0.909281 0.505324
O O5 0.091637 0.222712 0.326670
O O6 0.177123 0.257335 0.533243
O O7 0.934124 0.019530 0.291111
O O8 0.699909 0.746991 0.605508
O O9 0.346794 0.270450 0.788942
O O10 0.500000 0.500000 0.000000
O O11 0.500000 0.000000 0.000000
#
# Coordination Sequence:
#
# PCOD9251524 Si02
#       5
#     4   4   4   4   4
#     4  11  21  40  67  96 132 175 233 282 333 416
#     4  11  23  41  69  99 134 177 236 284 344 411
#     4  11  24  43  70  99 136 182 230 286 349 412
#     4  11  24  39  68  98 132 180 232 285 340 406
#     4  12  28  46  71 104 142 184 230 290 351 413
#
# _framework density 20.543644
#
# number of rings (size 3 to 8) (size 9 to 14) (size 15 to 20)
#    0.000    0.800    6.000    1.200    5.600    0.800 
#    0.000    1.000    0.000    0.000    0.000    0.000 
#    0.000    0.000    0.000    0.000    0.000    0.000 
#
# Total GULP energy -111521.972324 kJ/mol
# GULP energy per Si atom -5576.098616 kJ/mol
# Density = 2.049689 g / cm^3
# Si number density = 20.543644 Si / 1000 Ang^3
#
#
#
# Elastic Constant Matrix: (Units=GPa)
#
#
# Indices 1 2 3 4 5 6 
#
# 1 27.4444 -4.9812 1.7184 0.0000 -10.8648 0.0000
# 2 -4.9812 50.5658 10.4329 0.0000 3.5652 0.0000
# 3 1.7184 10.4329 79.1554 0.0000 0.5308 0.0000
# 4 0.0000 0.0000 0.0000 31.9657 0.0000 9.3471
# 5 -10.8648 3.5652 0.5308 0.0000 39.3461 0.0000
# 6 0.0000 0.0000 0.0000 9.3471 0.0000 20.7749
#
#
#
# Elastic Compliance Matrix: (Units=1/GPa)
#
#
# Indices 1 2 3 4 5 6 
#
# 1 0.041611 0.003611 -0.001454 0.000000 0.011183 0.000000
# 2 0.003611 0.020771 -0.002810 0.000000 -0.000847 0.000000
# 3 -0.001454 -0.002810 0.013038 0.000000 -0.000323 0.000000
# 4 0.000000 0.000000 0.000000 0.036023 0.000000 -0.016207
# 5 0.011183 -0.000847 -0.000323 0.000000 0.028584 0.000000
# 6 0.000000 0.000000 0.000000 -0.016207 0.000000 0.055427
#
#
# Mechanical properties :
#
#
# Convention : Reuss Voigt Hill
#
# Bulk Modulus (GPa) = 13.49314 19.05619 16.27466
# Shear Modulus (GPa) = 22.57682 28.41704 25.49693
#
# Velocity S-wave (km/s) = 3.31867 3.72324 3.52676
# Velocity P-wave (km/s) = 4.61162 5.27063 4.95210
#
# Compressibility (1/GPa) = 0.07411176
#
# Stress axis : x y z
#
# Youngs Moduli (GPa) = 24.03225 48.14295 76.70165
#
# Poissons Ratio (x) = -0.17383 0.11154
# Poissons Ratio (y) = -0.08677 0.21556
# Poissons Ratio (z) = 0.03495 0.13530
#
# Static dielectric constant tensor:
#      x y z
#    x 1.687350 0.000000 0.008130 
#    y 0.000000 1.853470 0.000000 
#    z 0.008130 0.000000 1.738220 
# 
# From -- ./inp_files/49577.got.cif
#   From: 2010.05.17/outbox.cif.g08.bks.cpg/sg14_25_cif.got.tgz:49577.got - 2010.06.03 17:49:19.
