data_PCOD9251272
_publ_section_title
;
Structure prediction by ZEFSAII (Michael W. Deem and Ramdas Pophale) SiO2 
 PCOD9251272
Probable space group: P 21/C
;
_chemical_formula_sum "Si O2"
_cell_formula_units_Z 24
_cell_length_a 11.521582
_cell_length_b 17.411087
_cell_length_c 17.706964
_cell_angle_alpha 90.000000
_cell_angle_beta 18.182622
_cell_angle_gamma 90.000000
_cell_volume 1108.413490
_symmetry_space_group_name_H-M "P 21/C"
_symmetry_group_IT_number 14
_symmetry_cell_setting 'monoclinic'
loop_
_space_group_symop_operation_xyz
x,y,z
-x,1/2+y,1/2-z
-x,-y,-z
x,1/2-y,1/2+z
loop_
_atom_site_type_symbol
_atom_site_label
_atom_site_fract_x
_atom_site_fract_y
_atom_site_fract_z
Si Si1 0.248136 0.207799 0.121055
Si Si2 0.828358 0.013042 0.734479
Si Si3 0.655818 0.367830 0.079251
Si Si4 0.013662 0.861717 0.260108
Si Si5 0.809545 0.961986 0.253910
Si Si6 0.324859 0.099605 0.932923
O O1 0.887930 0.199908 0.397127
O O2 0.280128 0.294775 0.073572
O O3 0.612756 0.178363 0.939248
O O4 0.182400 0.151846 0.090092
O O5 0.093020 0.075902 0.610723
O O6 0.656755 0.051116 0.766748
O O7 0.040680 0.934391 0.592173
O O8 0.500000 0.000000 0.000000
O O9 0.375790 0.407397 0.193231
O O10 0.457791 0.350524 0.280294
O O11 0.060425 0.909322 0.154076
O O12 0.500000 0.000000 0.500000
O O13 0.039925 0.034464 0.081721
#
# Coordination Sequence:
#
# PCOD9251272 Si02
#       6
#     4   4   4   4   4   4
#     4  11  23  42  62  89 130 161 207 252 317 383
#     4  11  18  41  65  91 119 162 211 258 308 359
#     4  12  22  38  65  92 128 165 205 262 306 366
#     4  11  22  39  69  89 121 173 201 254 320 369
#     4  12  20  39  65  91 126 163 213 259 304 362
#     4  11  23  39  62  94 126 164 212 253 312 369
#
# _framework density 21.652569
#
# number of rings (size 3 to 8) (size 9 to 14) (size 15 to 20)
#    0.000    0.667    8.333    2.000    0.000    0.000 
#    0.000    8.333    0.000    0.000    0.000    0.000 
#    0.000    0.000    0.000    0.000    0.000    0.000 
#
# Total GULP energy -134153.073227 kJ/mol
# GULP energy per Si atom -5589.711384 kJ/mol
# Density = 2.160329 g / cm^3
# Si number density = 21.652569 Si / 1000 Ang^3
#
#
#
# Elastic Constant Matrix: (Units=GPa)
#
#
# Indices 1 2 3 4 5 6 
#
# 1 85.4565 -15.1624 23.5005 0.0000 2.5342 0.0000
# 2 -15.1624 57.4186 -7.7618 0.0000 -5.0829 0.0000
# 3 23.5005 -7.7618 35.9970 0.0000 4.4743 0.0000
# 4 0.0000 0.0000 0.0000 23.0021 0.0000 -13.2224
# 5 2.5342 -5.0829 4.4743 0.0000 21.9077 0.0000
# 6 0.0000 0.0000 0.0000 -13.2224 0.0000 33.2587
#
#
#
# Elastic Compliance Matrix: (Units=1/GPa)
#
#
# Indices 1 2 3 4 5 6 
#
# 1 0.014657 0.002713 -0.009082 0.000000 0.000789 0.000000
# 2 0.002713 0.018700 0.001807 0.000000 0.003656 0.000000
# 3 -0.009082 0.001807 0.034800 0.000000 -0.005637 0.000000
# 4 0.000000 0.000000 0.000000 0.056353 0.000000 0.022404
# 5 0.000789 0.003656 -0.005637 0.000000 0.047554 0.000000
# 6 0.000000 0.000000 0.000000 0.022404 0.000000 0.038974
#
#
# Mechanical properties :
#
#
# Convention : Reuss Voigt Hill
#
# Bulk Modulus (GPa) = 16.93998 20.00272 18.47135
# Shear Modulus (GPa) = 20.84714 27.52009 24.18361
#
# Velocity S-wave (km/s) = 3.10627 3.56895 3.34562
# Velocity P-wave (km/s) = 4.55036 5.12263 4.84495
#
# Compressibility (1/GPa) = 0.05903195
#
# Stress axis : x y z
#
# Youngs Moduli (GPa) = 68.22514 53.47540 28.73592
#
# Poissons Ratio (x) = -0.14506 0.26098
# Poissons Ratio (y) = -0.18507 -0.05192
# Poissons Ratio (z) = 0.61963 -0.09662
#
# Static dielectric constant tensor:
#      x y z
#    x 1.801030 0.000000 -0.018020 
#    y 0.000000 1.809890 0.000000 
#    z -0.018020 0.000000 1.826680 
# 
# From -- ./inp_files/14231.got.cif
#   From: 2010.05.17/outbox.cif.g08.bks.cpg/sg14_8_cif.got.tgz:14231.got - 2010.06.03 17:49:19.
