data_PCOD9251673
_publ_section_title
;
Structure prediction by ZEFSAII (Michael W. Deem and Ramdas Pophale) SiO2 
 PCOD9251673
Probable space group: P 21/C
;
_chemical_formula_sum "Si O2"
_cell_formula_units_Z 32
_cell_length_a 13.906952
_cell_length_b 11.685927
_cell_length_c 10.594158
_cell_angle_alpha 90.000000
_cell_angle_beta 50.919704
_cell_angle_gamma 90.000000
_cell_volume 1336.505028
_symmetry_space_group_name_H-M "P 21/C"
_symmetry_group_IT_number 14
_symmetry_cell_setting 'monoclinic'
loop_
_space_group_symop_operation_xyz
x,y,z
-x,1/2+y,1/2-z
-x,-y,-z
x,1/2-y,1/2+z
loop_
_atom_site_type_symbol
_atom_site_label
_atom_site_fract_x
_atom_site_fract_y
_atom_site_fract_z
Si Si1 0.989515 0.804573 0.501869
Si Si2 0.446809 0.395549 0.720267
Si Si3 0.338094 0.491355 0.043308
Si Si4 0.237890 0.688093 0.290416
Si Si5 0.731508 0.686250 0.685887
Si Si6 0.832918 0.012067 0.939103
Si Si7 0.329207 0.584598 0.639532
Si Si8 0.923140 0.013098 0.373413
O O1 0.861843 0.736811 0.629852
O O2 0.100485 0.725505 0.355284
O O3 0.045271 0.869912 0.578195
O O4 0.950418 0.905187 0.439952
O O5 0.362658 0.282477 0.785603
O O6 0.384628 0.483025 0.673780
O O7 0.580752 0.377162 0.548585
O O8 0.446526 0.457435 0.856638
O O9 0.324110 0.610551 0.129187
O O10 0.326695 0.390667 0.155265
O O11 0.215289 0.497992 0.058806
O O12 0.208617 0.614835 0.437387
O O13 0.305661 0.808483 0.249040
O O14 0.766946 0.601827 0.542382
O O15 0.792742 0.038883 0.829552
O O16 0.979829 0.997134 0.821082
#
# Coordination Sequence:
#
# PCOD9251673 Si02
#       8
#     4   4   4   4   4   4   4   4
#     4  11  22  37  66 101 135 170 214 261 327 399
#     4  11  26  45  69  96 127 175 228 275 329 389
#     4  11  25  43  67 100 134 172 219 271 331 395
#     4  11  25  43  67 100 134 172 219 271 331 395
#     4  11  25  43  67 100 134 172 219 271 331 395
#     4  11  25  43  67 100 134 172 219 271 331 395
#     4  11  26  45  69  96 127 175 228 275 329 389
#     4  11  22  37  66 101 135 170 214 261 327 399
#
# _framework density 23.943044
#
# number of rings (size 3 to 8) (size 9 to 14) (size 15 to 20)
#    0.000    1.000    2.500    3.000    7.000    6.000 
#    0.000    2.500    0.000    0.000    0.000    0.000 
#    0.000    0.000    0.000    0.000    0.000    0.000 
#
# Total GULP energy -179181.596192 kJ/mol
# GULP energy per Si atom -5599.424881 kJ/mol
# Density = 2.388855 g / cm^3
# Si number density = 23.943044 Si / 1000 Ang^3
#
#
#
# Elastic Constant Matrix: (Units=GPa)
#
#
# Indices 1 2 3 4 5 6 
#
# 1 52.8365 17.4174 -10.9670 0.0000 -2.4250 0.0000
# 2 17.4174 112.1237 18.2288 0.0000 3.9624 0.0000
# 3 -10.9670 18.2288 96.2405 0.0000 -5.2050 0.0000
# 4 0.0000 0.0000 0.0000 17.4588 0.0000 2.8062
# 5 -2.4250 3.9624 -5.2050 0.0000 31.4686 0.0000
# 6 0.0000 0.0000 0.0000 2.8062 0.0000 -3.9478
#
#
#
# Elastic Compliance Matrix: (Units=1/GPa)
#
#
# Indices 1 2 3 4 5 6 
#
# 1 0.021010 -0.003890 0.003274 0.000000 0.002650 0.000000
# 2 -0.003890 0.009989 -0.002441 0.000000 -0.001961 0.000000
# 3 0.003274 -0.002441 0.011358 0.000000 0.002438 0.000000
# 4 0.000000 0.000000 0.000000 0.051405 0.000000 0.036540
# 5 0.002650 -0.001961 0.002438 0.000000 0.032632 0.000000
# 6 0.000000 0.000000 0.000000 0.036540 0.000000 -0.227333
#
#
# Mechanical properties :
#
#
# Convention : Reuss Voigt Hill
#
# Bulk Modulus (GPa) = 27.59121 34.50655 31.04888
# Shear Modulus (GPa) = -60.42696 24.76402 -17.83147
#
# Velocity S-wave (km/s) = -5.02917 3.21952 -2.73196
# Velocity P-wave (km/s) = 4.70901 5.31636 1.74484
#
# Compressibility (1/GPa) = 0.03624342
#
# Stress axis : x y z
#
# Youngs Moduli (GPa) = 47.59690 100.10853 88.04339
#
# Poissons Ratio (x) = 0.38939 -0.28827
# Poissons Ratio (y) = 0.18514 0.21494
# Poissons Ratio (z) = -0.15584 0.24440
#
# Static dielectric constant tensor:
#      x y z
#    x 1.905370 0.000000 -0.031960 
#    y 0.000000 1.875050 0.000000 
#    z -0.031960 0.000000 1.959330 
# 
# From -- ./inp_files/32371.got.cif
#   From: 2010.05.17/outbox.cif.g08.bks.cpg/sg14_17_cif.got.tgz:32371.got - 2010.06.03 17:49:19.
