data_PCOD9251836
_publ_section_title
;
Structure prediction by ZEFSAII (Michael W. Deem and Ramdas Pophale) SiO2 
 PCOD9251836
Probable space group: P 21/C
;
_chemical_formula_sum "Si O2"
_cell_formula_units_Z 32
_cell_length_a 13.934505
_cell_length_b 11.645521
_cell_length_c 13.061399
_cell_angle_alpha 90.000000
_cell_angle_beta 136.190733
_cell_angle_gamma 90.000000
_cell_volume 1467.267648
_symmetry_space_group_name_H-M "P 21/C"
_symmetry_group_IT_number 14
_symmetry_cell_setting 'monoclinic'
loop_
_space_group_symop_operation_xyz
x,y,z
-x,1/2+y,1/2-z
-x,-y,-z
x,1/2-y,1/2+z
loop_
_atom_site_type_symbol
_atom_site_label
_atom_site_fract_x
_atom_site_fract_y
_atom_site_fract_z
Si Si1 0.959070 0.500586 0.088926
Si Si2 0.100154 0.746620 0.943647
Si Si3 0.567471 0.983679 0.788767
Si Si4 0.232175 0.934342 0.898627
Si Si5 0.181118 0.324828 0.874949
Si Si6 0.464281 0.237607 0.677098
Si Si7 0.335054 0.990119 0.354831
Si Si8 0.271995 0.748004 0.766720
O O1 0.097639 0.494102 0.264336
O O2 0.869149 0.388220 0.043435
O O3 0.883893 0.613208 0.074788
O O4 0.000000 0.500000 0.000000
O O5 0.190998 0.834921 0.948156
O O6 0.943844 0.767850 0.784799
O O7 0.137954 0.767006 0.091359
O O8 0.474405 0.101447 0.718124
O O9 0.673489 0.996833 0.774794
O O10 0.511664 0.852589 0.735625
O O11 0.646716 0.994739 0.956982
O O12 0.270131 0.865023 0.826556
O O13 0.250341 0.417585 0.852435
O O14 0.310554 0.251065 0.012913
O O15 0.588790 0.245856 0.692594
O O16 0.282490 0.864385 0.344260
O O17 0.500000 0.000000 0.500000
#
# Coordination Sequence:
#
# PCOD9251836 Si02
#       8
#     4   4   4   4   4   4   4   4
#     4  11  24  43  69  98 140 183 234 287 365 423
#     4  11  23  44  66 101 135 179 238 289 355 424
#     4  11  25  42  71 100 146 176 246 285 358 422
#     4  11  23  44  67 100 136 188 228 303 342 431
#     4  11  25  43  71  98 142 184 236 294 352 421
#     4  11  25  44  68 109 137 192 231 294 354 426
#     4  11  22  44  67 100 138 187 235 289 354 429
#     4  11  23  42  72  97 138 181 243 288 363 422
#
# _framework density 21.809246000000002
#
# number of rings (size 3 to 8) (size 9 to 14) (size 15 to 20)
#    0.000    1.000    6.250    1.500    3.500    2.000 
#    2.250    0.000    0.000    0.000    0.000    0.000 
#    0.000    0.000    0.000    0.000    0.000    0.000 
#
# Total GULP energy -178469.768821 kJ/mol
# GULP energy per Si atom -5577.180276 kJ/mol
# Density = 2.175961 g / cm^3
# Si number density = 21.809246 Si / 1000 Ang^3
#
#
#
# Elastic Constant Matrix: (Units=GPa)
#
#
# Indices 1 2 3 4 5 6 
#
# 1 66.6180 22.1920 19.6441 0.0000 -8.8867 0.0000
# 2 22.1920 120.5911 29.3034 0.0000 -1.2786 0.0000
# 3 19.6441 29.3034 110.7994 0.0000 -3.1725 0.0000
# 4 0.0000 0.0000 0.0000 29.1127 0.0000 -8.4071
# 5 -8.8867 -1.2786 -3.1725 0.0000 27.0342 0.0000
# 6 0.0000 0.0000 0.0000 -8.4071 0.0000 23.1683
#
#
#
# Elastic Compliance Matrix: (Units=1/GPa)
#
#
# Indices 1 2 3 4 5 6 
#
# 1 0.017228 -0.002574 -0.002222 0.000000 0.005281 0.000000
# 2 -0.002574 0.009247 -0.002008 0.000000 -0.000645 0.000000
# 3 -0.002222 -0.002008 0.009960 0.000000 0.000343 0.000000
# 4 0.000000 0.000000 0.000000 0.038370 0.000000 0.013923
# 5 0.005281 -0.000645 0.000343 0.000000 0.038736 0.000000
# 6 0.000000 0.000000 0.000000 0.013923 0.000000 0.048215
#
#
# Mechanical properties :
#
#
# Convention : Reuss Voigt Hill
#
# Bulk Modulus (GPa) = 43.80834 48.92083 46.36459
# Shear Modulus (GPa) = 27.32624 30.98764 29.15694
#
# Velocity S-wave (km/s) = 3.54357 3.77350 3.66034
# Velocity P-wave (km/s) = 6.07233 6.43939 6.25855
#
# Compressibility (1/GPa) = 0.02282670
#
# Stress axis : x y z
#
# Youngs Moduli (GPa) = 58.04387 108.13990 100.40010
#
# Poissons Ratio (x) = 0.27840 0.22313
# Poissons Ratio (y) = 0.14943 0.20157
# Poissons Ratio (z) = 0.12900 0.21711
#
# Static dielectric constant tensor:
#      x y z
#    x 1.786650 0.000000 -0.031850 
#    y 0.000000 1.860910 0.000000 
#    z -0.031850 0.000000 1.831750 
# 
# From -- ./inp_files/47165.got.cif
#   From: 2010.05.17/outbox.cif.g08.bks.cpg/sg14_24_cif.got.tgz:47165.got - 2010.06.03 17:49:19.
