data_PCOD9251944
_publ_section_title
;
Structure prediction by ZEFSAII (Michael W. Deem and Ramdas Pophale) SiO2 
 PCOD9251944
Probable space group: P 21/C
;
_chemical_formula_sum "Si O2"
_cell_formula_units_Z 32
_cell_length_a 5.406763
_cell_length_b 22.299402
_cell_length_c 11.662388
_cell_angle_alpha 90.000000
_cell_angle_beta 80.741561
_cell_angle_gamma 90.000000
_cell_volume 1387.788126
_symmetry_space_group_name_H-M "P 21/C"
_symmetry_group_IT_number 14
_symmetry_cell_setting 'monoclinic'
loop_
_space_group_symop_operation_xyz
x,y,z
-x,1/2+y,1/2-z
-x,-y,-z
x,1/2-y,1/2+z
loop_
_atom_site_type_symbol
_atom_site_label
_atom_site_fract_x
_atom_site_fract_y
_atom_site_fract_z
Si Si1 0.169044 0.732580 0.284205
Si Si2 0.906865 0.418307 0.398416
Si Si3 0.516711 0.343250 0.567345
Si Si4 0.348614 0.369373 0.937308
Si Si5 0.155512 0.159165 0.690510
Si Si6 0.811492 0.547697 0.397809
Si Si7 0.088892 0.892633 0.691123
Si Si8 0.602482 0.767840 0.120099
O O1 0.379314 0.704655 0.351259
O O2 0.030814 0.672374 0.254434
O O3 0.304834 0.759256 0.161681
O O4 0.025652 0.788947 0.347183
O O5 0.742653 0.368880 0.474664
O O6 0.744092 0.478382 0.391536
O O7 0.011543 0.391506 0.273316
O O8 0.116677 0.438027 0.475812
O O9 0.388557 0.402692 0.626220
O O10 0.337011 0.307767 0.494311
O O11 0.626815 0.389321 0.876987
O O12 0.312648 0.299724 0.904276
O O13 0.118826 0.402953 0.891682
O O14 0.317075 0.369010 0.076831
O O15 0.303433 0.196831 0.776064
O O16 0.047675 0.560168 0.296644
#
# Coordination Sequence:
#
# PCOD9251944 Si02
#       8
#     4   4   4   4   4   4   4   4
#     4  11  24  37  66  97 142 180 228 291 364 434
#     4  11  25  44  70 106 138 192 239 313 363 427
#     4  12  23  40  69 104 140 188 235 304 363 436
#     4  11  27  42  70 101 148 188 242 288 373 441
#     4  12  25  43  64 104 148 186 233 302 363 448
#     4  11  24  46  73  98 143 185 258 300 366 422
#     4  11  24  47  67 104 135 196 243 298 352 438
#     4  11  23  39  61 100 140 191 225 290 365 435
#
# _framework density 23.058271999999999
#
# number of rings (size 3 to 8) (size 9 to 14) (size 15 to 20)
#    0.000    0.750    5.000    2.625    8.750    0.000 
#    0.000    1.250    0.000    0.000    0.000    0.000 
#    0.000    0.000    0.000    0.000    0.000    0.000 
#
# Total GULP energy -178900.460112 kJ/mol
# GULP energy per Si atom -5590.639379 kJ/mol
# Density = 2.300579 g / cm^3
# Si number density = 23.058272 Si / 1000 Ang^3
#
#
#
# Elastic Constant Matrix: (Units=GPa)
#
#
# Indices 1 2 3 4 5 6 
#
# 1 65.0886 15.0100 37.6800 0.0000 4.5155 0.0000
# 2 15.0100 83.6109 26.8541 0.0000 2.2191 0.0000
# 3 37.6800 26.8541 131.8566 0.0000 -10.2045 0.0000
# 4 0.0000 0.0000 0.0000 26.5310 0.0000 -1.1851
# 5 4.5155 2.2191 -10.2045 0.0000 29.1508 0.0000
# 6 0.0000 0.0000 0.0000 -1.1851 0.0000 17.2571
#
#
#
# Elastic Compliance Matrix: (Units=1/GPa)
#
#
# Indices 1 2 3 4 5 6 
#
# 1 0.019277 -0.001545 -0.005567 0.000000 -0.004817 0.000000
# 2 -0.001545 0.013029 -0.002333 0.000000 -0.001569 0.000000
# 3 -0.005567 -0.002333 0.010001 0.000000 0.004541 0.000000
# 4 0.000000 0.000000 0.000000 0.037808 0.000000 0.002596
# 5 -0.004817 -0.001569 0.004541 0.000000 0.036760 0.000000
# 6 0.000000 0.000000 0.000000 0.002596 0.000000 0.058126
#
#
# Mechanical properties :
#
#
# Convention : Reuss Voigt Hill
#
# Bulk Modulus (GPa) = 42.70452 48.84937 45.77694
# Shear Modulus (GPa) = 24.78987 27.98858 26.38922
#
# Velocity S-wave (km/s) = 3.28242 3.48777 3.38665
# Velocity P-wave (km/s) = 5.73814 6.11969 5.93198
#
# Compressibility (1/GPa) = 0.02341673
#
# Stress axis : x y z
#
# Youngs Moduli (GPa) = 51.87598 76.75427 99.98537
#
# Poissons Ratio (x) = 0.11857 0.55660
# Poissons Ratio (y) = 0.08014 0.23331
# Poissons Ratio (z) = 0.28878 0.17910
#
# Static dielectric constant tensor:
#      x y z
#    x 1.979100 0.000000 0.004060 
#    y 0.000000 1.852590 0.000000 
#    z 0.004060 0.000000 1.885610 
# 
# From -- ./inp_files/22087.got.cif
#   From: 2010.05.17/outbox.cif.g08.bks.cpg/sg14_12_cif.got.tgz:22087.got - 2010.06.03 17:49:19.
