data_PCOD9251437
_publ_section_title
;
Structure prediction by ZEFSAII (Michael W. Deem and Ramdas Pophale) SiO2 
 PCOD9251437
Probable space group: P 21/C
;
_chemical_formula_sum "Si O2"
_cell_formula_units_Z 24
_cell_length_a 8.938290
_cell_length_b 13.488628
_cell_length_c 19.058452
_cell_angle_alpha 90.000000
_cell_angle_beta 28.722240
_cell_angle_gamma 90.000000
_cell_volume 1104.233750
_symmetry_space_group_name_H-M "P 21/C"
_symmetry_group_IT_number 14
_symmetry_cell_setting 'monoclinic'
loop_
_space_group_symop_operation_xyz
x,y,z
-x,1/2+y,1/2-z
-x,-y,-z
x,1/2-y,1/2+z
loop_
_atom_site_type_symbol
_atom_site_label
_atom_site_fract_x
_atom_site_fract_y
_atom_site_fract_z
Si Si1 0.480945 0.687806 0.472909
Si Si2 0.444821 0.175681 0.752717
Si Si3 0.603409 0.628073 0.566466
Si Si4 0.945123 0.533612 0.220757
Si Si5 0.078549 0.667105 0.050095
Si Si6 0.929984 0.974505 0.184960
O O1 0.543647 0.706779 0.528986
O O2 0.783402 0.635115 0.315969
O O3 0.349025 0.778943 0.484249
O O4 0.212080 0.604464 0.577307
O O5 0.402573 0.165608 0.852605
O O6 0.796514 0.177632 0.580284
O O7 0.308476 0.080165 0.767631
O O8 0.241912 0.271435 0.813975
O O9 0.324382 0.548110 0.675130
O O10 0.917830 0.569365 0.415928
O O11 0.161991 0.500572 0.196874
O O12 0.052972 0.561385 0.098417
#
# Coordination Sequence:
#
# PCOD9251437 Si02
#       6
#     4   4   4   4   4   4
#     4   8  16  35  56  77 103 147 177 211 263 326
#     4  11  22  36  54  83 112 143 171 226 275 316
#     4   9  18  36  58  79 108 140 185 218 267 319
#     4   9  17  35  58  78 102 143 185 220 252 322
#     4  11  21  36  55  78 115 143 178 217 275 316
#     4   8  17  34  59  78 100 141 184 213 262 321
#
# _framework density 21.734528999999998
#
# number of rings (size 3 to 8) (size 9 to 14) (size 15 to 20)
#    0.000    2.667    1.667    2.500    0.000    1.333 
#    6.000    0.000    0.000    0.000    0.000    0.000 
#    0.000    0.000    0.000    0.000    0.000    0.000 
#
# Total GULP energy -133806.022558 kJ/mol
# GULP energy per Si atom -5575.250940 kJ/mol
# Density = 2.168506 g / cm^3
# Si number density = 21.734529 Si / 1000 Ang^3
#
#
#
# Elastic Constant Matrix: (Units=GPa)
#
#
# Indices 1 2 3 4 5 6 
#
# 1 80.3326 5.0258 9.7717 0.0000 34.5116 0.0000
# 2 5.0258 13.0588 -9.7036 0.0000 7.6714 0.0000
# 3 9.7717 -9.7036 64.6712 0.0000 20.2628 0.0000
# 4 0.0000 0.0000 0.0000 21.7706 0.0000 11.6919
# 5 34.5116 7.6714 20.2628 0.0000 32.4057 0.0000
# 6 0.0000 0.0000 0.0000 11.6919 0.0000 18.1652
#
#
#
# Elastic Compliance Matrix: (Units=1/GPa)
#
#
# Indices 1 2 3 4 5 6 
#
# 1 0.028456 0.025442 0.013556 0.000000 -0.044804 0.000000
# 2 0.025442 0.161649 0.050853 0.000000 -0.097160 0.000000
# 3 0.013556 0.050853 0.036489 0.000000 -0.049291 0.000000
# 4 0.000000 0.000000 0.000000 0.070199 0.000000 -0.045183
# 5 -0.044804 -0.097160 -0.049291 0.000000 0.132397 0.000000
# 6 0.000000 0.000000 0.000000 -0.045183 0.000000 0.084132
#
#
# Mechanical properties :
#
#
# Convention : Reuss Voigt Hill
#
# Bulk Modulus (GPa) = 2.46127 18.69451 10.57789
# Shear Modulus (GPa) = 10.65980 24.66621 17.66301
#
# Velocity S-wave (km/s) = 2.21702 3.37246 2.85383
# Velocity P-wave (km/s) = 2.77281 4.87695 3.96693
#
# Compressibility (1/GPa) = 0.40629420
#
# Stress axis : x y z
#
# Youngs Moduli (GPa) = 35.14214 6.18624 27.40577
#
# Poissons Ratio (x) = -0.15739 -0.37151
# Poissons Ratio (y) = -0.89408 -1.39366
# Poissons Ratio (z) = -0.47638 -0.31459
#
# Static dielectric constant tensor:
#      x y z
#    x 1.797760 0.000000 0.014500 
#    y 0.000000 1.783010 0.000000 
#    z 0.014500 0.000000 1.854940 
# 
# From -- ./inp_files/8523.got.cif
#   From: 2010.05.17/outbox.cif.g08.bks.cpg/sg14_5_cif.got.tgz:8523.got - 2010.06.03 17:49:19.
