data_PCOD9251772
_publ_section_title
;
Structure prediction by ZEFSAII (Michael W. Deem and Ramdas Pophale) SiO2 
 PCOD9251772
Probable space group: P 21/C
;
_chemical_formula_sum "Si O2"
_cell_formula_units_Z 24
_cell_length_a 17.540106
_cell_length_b 5.073251
_cell_length_c 15.263881
_cell_angle_alpha 90.000000
_cell_angle_beta 40.785329
_cell_angle_gamma 90.000000
_cell_volume 887.253037
_symmetry_space_group_name_H-M "P 21/C"
_symmetry_group_IT_number 14
_symmetry_cell_setting 'monoclinic'
loop_
_space_group_symop_operation_xyz
x,y,z
-x,1/2+y,1/2-z
-x,-y,-z
x,1/2-y,1/2+z
loop_
_atom_site_type_symbol
_atom_site_label
_atom_site_fract_x
_atom_site_fract_y
_atom_site_fract_z
Si Si1 0.498454 0.738154 0.604337
Si Si2 0.648358 0.460741 0.117943
Si Si3 0.962692 0.939016 0.728597
Si Si4 0.739959 0.055878 0.250897
Si Si5 0.710110 0.421802 0.427886
Si Si6 0.844602 0.938053 0.564232
O O1 0.423082 0.541689 0.730011
O O2 0.602403 0.563537 0.471298
O O3 0.572287 0.903283 0.610408
O O4 0.400005 0.923291 0.646758
O O5 0.769321 0.591763 0.040178
O O6 0.672721 0.170791 0.057307
O O7 0.024671 0.037572 0.585136
O O8 0.981196 0.169924 0.784503
O O9 0.826082 0.910107 0.830872
O O10 0.803993 0.793729 0.163681
O O11 0.746139 0.156834 0.344846
O O12 0.802963 0.287133 0.141281
#
# Coordination Sequence:
#
# PCOD9251772 Si02
#       6
#     4   4   4   4   4   4
#     4  11  23  42  69 102 144 185 239 294 357 424
#     4  11  22  41  71  98 132 187 238 292 344 420
#     4  12  26  46  77 107 138 185 249 307 345 427
#     4  11  28  45  72 104 149 188 226 299 366 436
#     4  12  27  44  70 108 140 189 242 292 363 431
#     4  11  25  48  70 104 143 187 239 290 364 417
#
# _framework density 27.049783000000001
#
# number of rings (size 3 to 8) (size 9 to 14) (size 15 to 20)
#    0.000    0.667    3.333    3.500    9.333    2.000 
#    0.000    0.000    0.000    0.000    0.000    0.000 
#    0.000    0.000    0.000    0.000    0.000    0.000 
#
# Total GULP energy -134544.775823 kJ/mol
# GULP energy per Si atom -5606.032326 kJ/mol
# Density = 2.698822 g / cm^3
# Si number density = 27.049783 Si / 1000 Ang^3
#
#
#
# Elastic Constant Matrix: (Units=GPa)
#
#
# Indices 1 2 3 4 5 6 
#
# 1 74.1587 20.0830 22.0010 0.0000 -16.0329 0.0000
# 2 20.0830 128.4249 33.5240 0.0000 -2.8927 0.0000
# 3 22.0010 33.5240 154.6304 0.0000 -24.8029 0.0000
# 4 0.0000 0.0000 0.0000 56.0271 0.0000 12.8953
# 5 -16.0329 -2.8927 -24.8029 0.0000 45.2986 0.0000
# 6 0.0000 0.0000 0.0000 12.8953 0.0000 38.6904
#
#
#
# Elastic Compliance Matrix: (Units=1/GPa)
#
#
# Indices 1 2 3 4 5 6 
#
# 1 0.015358 -0.002039 -0.000978 0.000000 0.004770 0.000000
# 2 -0.002039 0.008535 -0.001741 0.000000 -0.001130 0.000000
# 3 -0.000978 -0.001741 0.007576 0.000000 0.003691 0.000000
# 4 0.000000 0.000000 0.000000 0.019331 0.000000 -0.006443
# 5 0.004770 -0.001130 0.003691 0.000000 0.025713 0.000000
# 6 0.000000 0.000000 0.000000 -0.006443 0.000000 0.027994
#
#
# Mechanical properties :
#
#
# Convention : Reuss Voigt Hill
#
# Bulk Modulus (GPa) = 45.55466 56.49223 51.02344
# Shear Modulus (GPa) = 41.20635 46.77696 43.99166
#
# Velocity S-wave (km/s) = 3.90725 4.16299 4.03714
# Velocity P-wave (km/s) = 6.10189 6.63605 6.37457
#
# Compressibility (1/GPa) = 0.02195165
#
# Stress axis : x y z
#
# Youngs Moduli (GPa) = 65.11181 117.16945 132.00042
#
# Poissons Ratio (x) = 0.23890 0.12910
# Poissons Ratio (y) = 0.13276 0.22988
# Poissons Ratio (z) = 0.06368 0.20405
#
# Static dielectric constant tensor:
#      x y z
#    x 2.124930 0.000000 0.019550 
#    y 0.000000 2.154100 0.000000 
#    z 0.019550 0.000000 2.146580 
# 
# From -- ./inp_files/49595.got.cif
#   From: 2010.05.17/outbox.cif.g08.bks.cpg/sg14_25_cif.got.tgz:49595.got - 2010.06.03 17:49:19.
