data_PCOD9251757
_publ_section_title
;
Structure prediction by ZEFSAII (Michael W. Deem and Ramdas Pophale) SiO2 
 PCOD9251757
Probable space group: P 21/C
;
_chemical_formula_sum "Si O2"
_cell_formula_units_Z 28
_cell_length_a 17.142205
_cell_length_b 7.988319
_cell_length_c 19.034828
_cell_angle_alpha 90.000000
_cell_angle_beta 150.647612
_cell_angle_gamma 90.000000
_cell_volume 1277.692335
_symmetry_space_group_name_H-M "P 21/C"
_symmetry_group_IT_number 14
_symmetry_cell_setting 'monoclinic'
loop_
_space_group_symop_operation_xyz
x,y,z
-x,1/2+y,1/2-z
-x,-y,-z
x,1/2-y,1/2+z
loop_
_atom_site_type_symbol
_atom_site_label
_atom_site_fract_x
_atom_site_fract_y
_atom_site_fract_z
Si Si1 0.428422 0.916501 0.374947
Si Si2 0.712899 0.403636 0.469083
Si Si3 0.855099 0.846852 0.531003
Si Si4 0.068867 0.673767 0.585588
Si Si5 0.571610 0.669376 0.250544
Si Si6 0.729895 0.696530 0.576848
Si Si7 0.982520 0.290969 0.105034
O O1 0.403244 0.066064 0.299968
O O2 0.500000 0.000000 0.500000
O O3 0.254992 0.838142 0.248510
O O4 0.557139 0.781570 0.447657
O O5 0.617726 0.537958 0.347140
O O6 0.605615 0.239021 0.387970
O O7 0.728394 0.499810 0.555153
O O8 0.875151 0.353089 0.557225
O O9 0.691278 0.823112 0.358621
O O10 0.821264 0.780643 0.582570
O O11 0.976763 0.733217 0.582174
O O12 0.919040 0.033237 0.583918
O O13 0.041393 0.793337 0.497140
O O14 0.000000 0.500000 0.500000
O O15 0.835402 0.729215 0.728399
#
# Coordination Sequence:
#
# PCOD9251757 Si02
#       7
#     4   4   4   4   4   4   4
#     4  12  26  45  71 105 142 186 235 299 355 419
#     4  11  22  41  72 101 141 183 236 293 350 425
#     4  11  25  43  73 101 138 186 242 284 358 423
#     4  12  24  47  70  99 141 188 234 288 359 426
#     4  11  22  41  68 102 135 181 235 291 353 419
#     4  11  26  45  70 105 142 183 238 292 351 422
#     4  12  24  43  72 102 141 180 236 291 357 423
#
# _framework density 21.91451
#
# number of rings (size 3 to 8) (size 9 to 14) (size 15 to 20)
#    0.000    0.571    2.857    6.429    2.000    3.429 
#    0.000    1.429    0.000    0.000    0.000    0.000 
#    0.000    0.000    0.000    0.000    0.000    0.000 
#
# Total GULP energy -156652.877732 kJ/mol
# GULP energy per Si atom -5594.745633 kJ/mol
# Density = 2.186463 g / cm^3
# Si number density = 21.914510 Si / 1000 Ang^3
#
#
#
# Elastic Constant Matrix: (Units=GPa)
#
#
# Indices 1 2 3 4 5 6 
#
# 1 78.7090 7.4323 40.0545 0.0000 14.3496 0.0000
# 2 7.4323 70.1717 11.2928 0.0000 12.3368 0.0000
# 3 40.0545 11.2928 130.0401 0.0000 9.2703 0.0000
# 4 0.0000 0.0000 0.0000 27.6390 0.0000 2.3746
# 5 14.3496 12.3368 9.2703 0.0000 33.1948 0.0000
# 6 0.0000 0.0000 0.0000 2.3746 0.0000 33.2614
#
#
#
# Elastic Compliance Matrix: (Units=1/GPa)
#
#
# Indices 1 2 3 4 5 6 
#
# 1 0.016049 0.000030 -0.004541 0.000000 -0.005680 0.000000
# 2 0.000030 0.015360 -0.000954 0.000000 -0.005455 0.000000
# 3 -0.004541 -0.000954 0.009189 0.000000 -0.000249 0.000000
# 4 0.000000 0.000000 0.000000 0.036404 0.000000 -0.002599
# 5 -0.005680 -0.005455 -0.000249 0.000000 0.034678 0.000000
# 6 0.000000 0.000000 0.000000 -0.002599 0.000000 0.030250
#
#
# Mechanical properties :
#
#
# Convention : Reuss Voigt Hill
#
# Bulk Modulus (GPa) = 33.70715 44.05333 38.88024
# Shear Modulus (GPa) = 30.72196 33.49511 32.10853
#
# Velocity S-wave (km/s) = 3.74826 3.91377 3.83191
# Velocity P-wave (km/s) = 5.84356 6.36942 6.11215
#
# Compressibility (1/GPa) = 0.02966730
#
# Stress axis : x y z
#
# Youngs Moduli (GPa) = 62.31039 65.10325 108.82346
#
# Poissons Ratio (x) = -0.00193 0.49416
# Poissons Ratio (y) = -0.00185 0.10383
# Poissons Ratio (z) = 0.28294 0.06212
#
# Static dielectric constant tensor:
#      x y z
#    x 1.810550 0.000000 -0.012790 
#    y 0.000000 1.843380 0.000000 
#    z -0.012790 0.000000 1.852210 
# 
# From -- ./inp_files/69089.got.cif
#   From: 2010.05.17/outbox.cif.g08.bks.cpg/sg14_35_cif.got.tgz:69089.got - 2010.06.03 17:49:19.
