data_PCOD9251792
_publ_section_title
;
Structure prediction by ZEFSAII (Michael W. Deem and Ramdas Pophale) SiO2 
 PCOD9251792
Probable space group: P 21/C
;
_chemical_formula_sum "Si O2"
_cell_formula_units_Z 32
_cell_length_a 15.732485
_cell_length_b 11.791321
_cell_length_c 13.804610
_cell_angle_alpha 90.000000
_cell_angle_beta 32.155182
_cell_angle_gamma 90.000000
_cell_volume 1362.920081
_symmetry_space_group_name_H-M "P 21/C"
_symmetry_group_IT_number 14
_symmetry_cell_setting 'monoclinic'
loop_
_space_group_symop_operation_xyz
x,y,z
-x,1/2+y,1/2-z
-x,-y,-z
x,1/2-y,1/2+z
loop_
_atom_site_type_symbol
_atom_site_label
_atom_site_fract_x
_atom_site_fract_y
_atom_site_fract_z
Si Si1 0.973755 0.836581 0.969819
Si Si2 0.732229 0.268000 0.916398
Si Si3 0.206300 0.105385 0.672514
Si Si4 0.539230 0.601556 0.389091
Si Si5 0.893554 0.895600 0.571066
Si Si6 0.438801 0.540709 0.828811
Si Si7 0.955949 0.060405 0.761290
Si Si8 0.774486 0.840717 0.965591
O O1 0.852236 0.899773 0.159261
O O2 0.989772 0.714942 0.007147
O O3 0.879714 0.819452 0.959797
O O4 0.157913 0.847341 0.758770
O O5 0.836001 0.164262 0.859039
O O6 0.585976 0.204734 0.002020
O O7 0.677041 0.349782 0.056427
O O8 0.233995 0.230065 0.594692
O O9 0.041330 0.060326 0.781605
O O10 0.364324 0.034911 0.488287
O O11 0.500000 0.500000 0.500000
O O12 0.711312 0.635470 0.264128
O O13 0.553818 0.541765 0.270384
O O14 0.898991 0.920066 0.451063
O O15 0.000000 0.000000 0.500000
O O16 0.610376 0.603465 0.662647
O O17 0.865007 0.944462 0.825527
#
# Coordination Sequence:
#
# PCOD9251792 Si02
#       8
#     4   4   4   4   4   4   4   4
#     4  11  25  44  72 103 141 196 244 303 366 456
#     4  11  24  46  69 106 147 187 250 306 368 445
#     4  12  26  47  74 104 146 198 244 305 383 447
#     4  12  25  44  70 112 142 193 252 313 371 450
#     4  11  22  42  69 102 142 184 247 298 361 429
#     4  12  26  45  71 101 152 192 236 315 379 435
#     4  11  23  42  70  99 138 192 237 301 360 437
#     4  12  25  46  72 105 148 190 249 309 370 451
#
# _framework density 23.478999999999999
#
# number of rings (size 3 to 8) (size 9 to 14) (size 15 to 20)
#    0.000    0.500    5.000    4.500    1.750    4.500 
#    0.000    1.250    0.000    0.000    0.000    0.000 
#    0.000    0.000    0.000    0.000    0.000    0.000 
#
# Total GULP energy -178294.862996 kJ/mol
# GULP energy per Si atom -5571.714469 kJ/mol
# Density = 2.342556 g / cm^3
# Si number density = 23.479000 Si / 1000 Ang^3
#
#
#
# Elastic Constant Matrix: (Units=GPa)
#
#
# Indices 1 2 3 4 5 6 
#
# 1 62.4365 8.5250 33.0873 0.0000 -6.3969 0.0000
# 2 8.5250 114.8126 44.2614 0.0000 -14.3945 0.0000
# 3 33.0873 44.2614 156.6507 0.0000 -8.2130 0.0000
# 4 0.0000 0.0000 0.0000 55.6579 0.0000 -4.0341
# 5 -6.3969 -14.3945 -8.2130 0.0000 40.1495 0.0000
# 6 0.0000 0.0000 0.0000 -4.0341 0.0000 25.4960
#
#
#
# Elastic Compliance Matrix: (Units=1/GPa)
#
#
# Indices 1 2 3 4 5 6 
#
# 1 0.018232 0.000414 -0.003849 0.000000 0.002266 0.000000
# 2 0.000414 0.010148 -0.002790 0.000000 0.003133 0.000000
# 3 -0.003849 -0.002790 0.007986 0.000000 0.000020 0.000000
# 4 0.000000 0.000000 0.000000 0.018175 0.000000 0.002876
# 5 0.002266 0.003133 0.000020 0.000000 0.026395 0.000000
# 6 0.000000 0.000000 0.000000 0.002876 0.000000 0.039677
#
#
# Mechanical properties :
#
#
# Convention : Reuss Voigt Hill
#
# Bulk Modulus (GPa) = 41.81500 56.18302 48.99901
# Shear Modulus (GPa) = 35.45215 40.79575 38.12395
#
# Velocity S-wave (km/s) = 3.89003 4.17291 4.03395
# Velocity P-wave (km/s) = 6.16641 6.87012 6.52775
#
# Compressibility (1/GPa) = 0.02391486
#
# Stress axis : x y z
#
# Youngs Moduli (GPa) = 54.84968 98.54481 125.21756
#
# Poissons Ratio (x) = -0.04082 0.48197
# Poissons Ratio (y) = -0.02272 0.34941
# Poissons Ratio (z) = 0.21112 0.27498
#
# Static dielectric constant tensor:
#      x y z
#    x 1.996740 0.000000 -0.027000 
#    y 0.000000 2.010820 0.000000 
#    z -0.027000 0.000000 2.140320 
# 
# From -- ./inp_files/48997.got.cif
#   From: 2010.05.17/outbox.cif.g08.bks.cpg/sg14_25_cif.got.tgz:48997.got - 2010.06.03 17:49:19.
