data_PCOD9251996
_publ_section_title
;
Structure prediction by ZEFSAII (Michael W. Deem and Ramdas Pophale) SiO2 
 PCOD9251996
Probable space group: P 21/C
;
_chemical_formula_sum "Si O2"
_cell_formula_units_Z 28
_cell_length_a 14.169226
_cell_length_b 13.421104
_cell_length_c 10.206900
_cell_angle_alpha 90.000000
_cell_angle_beta 43.776665
_cell_angle_gamma 90.000000
_cell_volume 1342.887555
_symmetry_space_group_name_H-M "P 21/C"
_symmetry_group_IT_number 14
_symmetry_cell_setting 'monoclinic'
loop_
_space_group_symop_operation_xyz
x,y,z
-x,1/2+y,1/2-z
-x,-y,-z
x,1/2-y,1/2+z
loop_
_atom_site_type_symbol
_atom_site_label
_atom_site_fract_x
_atom_site_fract_y
_atom_site_fract_z
Si Si1 0.636026 0.150427 0.273536
Si Si2 0.889517 0.489645 0.830730
Si Si3 0.328061 0.126356 0.603504
Si Si4 0.189143 0.462621 0.478858
Si Si5 0.255313 0.713913 0.052970
Si Si6 0.016811 0.323128 0.112435
Si Si7 0.835230 0.696293 0.307750
O O1 0.485162 0.104375 0.422320
O O2 0.668613 0.182718 0.389588
O O3 0.651787 0.238894 0.152899
O O4 0.745817 0.068516 0.117765
O O5 0.774677 0.553077 0.870405
O O6 0.821884 0.383456 0.927494
O O7 0.943509 0.563599 0.889902
O O8 0.027628 0.466493 0.611117
O O9 0.297055 0.239083 0.593006
O O10 0.278197 0.111898 0.801338
O O11 0.195754 0.415712 0.616734
O O12 0.140240 0.793708 0.212064
O O13 0.092930 0.253398 0.143300
O O14 0.068065 0.300172 0.915573
#
# Coordination Sequence:
#
# PCOD9251996 Si02
#       7
#     4   4   4   4   4   4   4
#     4  12  29  43  70 101 145 190 230 287 356 427
#     4  11  24  42  73 101 140 175 237 293 351 405
#     4  11  25  45  70  99 140 187 235 276 358 425
#     4  12  23  43  70 107 130 185 233 292 344 419
#     4  12  25  45  69 102 146 181 238 288 351 421
#     4  11  23  42  68 106 134 181 227 301 349 403
#     4  11  23  40  73  98 139 173 239 287 348 410
#
# _framework density 20.850593
#
# number of rings (size 3 to 8) (size 9 to 14) (size 15 to 20)
#    0.000    0.571    5.714    1.714    4.000    1.714 
#    0.000    0.000    0.000    4.286    0.000    0.000 
#    0.000    0.000    0.000    0.000    0.000    0.000 
#
# Total GULP energy -156415.215470 kJ/mol
# GULP energy per Si atom -5586.257695 kJ/mol
# Density = 2.080314 g / cm^3
# Si number density = 20.850593 Si / 1000 Ang^3
#
#
#
# Elastic Constant Matrix: (Units=GPa)
#
#
# Indices 1 2 3 4 5 6 
#
# 1 51.7365 35.0833 42.4934 0.0000 -4.9587 0.0000
# 2 35.0833 93.5162 48.6536 0.0000 7.8450 0.0000
# 3 42.4934 48.6536 101.8507 0.0000 -7.6872 0.0000
# 4 0.0000 0.0000 0.0000 35.7078 0.0000 6.3757
# 5 -4.9587 7.8450 -7.6872 0.0000 41.3345 0.0000
# 6 0.0000 0.0000 0.0000 6.3757 0.0000 29.2598
#
#
#
# Elastic Compliance Matrix: (Units=1/GPa)
#
#
# Indices 1 2 3 4 5 6 
#
# 1 0.032842 -0.007487 -0.009859 0.000000 0.003527 0.000000
# 2 -0.007487 0.016628 -0.005198 0.000000 -0.005021 0.000000
# 3 -0.009859 -0.005198 0.016633 0.000000 0.002897 0.000000
# 4 0.000000 0.000000 0.000000 0.029139 0.000000 -0.006349
# 5 0.003527 -0.005021 0.002897 0.000000 0.026108 0.000000
# 6 0.000000 0.000000 0.000000 -0.006349 0.000000 0.035560
#
#
# Mechanical properties :
#
#
# Convention : Reuss Voigt Hill
#
# Bulk Modulus (GPa) = 47.58768 55.50710 51.54739
# Shear Modulus (GPa) = 23.92303 29.31863 26.62083
#
# Velocity S-wave (km/s) = 3.39094 3.75391 3.57703
# Velocity P-wave (km/s) = 6.18094 6.74301 6.46808
#
# Compressibility (1/GPa) = 0.02101384
#
# Stress axis : x y z
#
# Youngs Moduli (GPa) = 30.44906 60.13976 60.11972
#
# Poissons Ratio (x) = 0.45029 0.59273
# Poissons Ratio (y) = 0.22798 0.31252
# Poissons Ratio (z) = 0.30020 0.31262
#
# Static dielectric constant tensor:
#      x y z
#    x 1.758820 0.000000 0.019170 
#    y 0.000000 1.808920 0.000000 
#    z 0.019170 0.000000 1.712510 
# 
# From -- ./inp_files/16408.got.cif
#   From: 2010.05.17/outbox.cif.g08.bks.cpg/sg14_9_cif.got.tgz:16408.got - 2010.06.03 17:49:19.
