data_PCOD9251410
_publ_section_title
;
Structure prediction by ZEFSAII (Michael W. Deem and Ramdas Pophale) SiO2 
 PCOD9251410
Probable space group: P 21/C
;
_chemical_formula_sum "Si O2"
_cell_formula_units_Z 26
_cell_length_a 7.881131
_cell_length_b 23.079575
_cell_length_c 9.443591
_cell_angle_alpha 90.000000
_cell_angle_beta 145.153377
_cell_angle_gamma 90.000000
_cell_volume 981.476148
_symmetry_space_group_name_H-M "P 21/C"
_symmetry_group_IT_number 14
_symmetry_cell_setting 'monoclinic'
loop_
_space_group_symop_operation_xyz
x,y,z
-x,1/2+y,1/2-z
-x,-y,-z
x,1/2-y,1/2+z
loop_
_atom_site_type_symbol
_atom_site_label
_atom_site_fract_x
_atom_site_fract_y
_atom_site_fract_z
Si Si1 0.577746 0.576751 0.455934
Si Si2 0.835828 0.280125 0.009477
Si Si3 0.380754 0.625353 0.918583
Si Si4 0.122175 0.997347 0.318918
Si Si5 0.056140 0.103577 0.084625
Si Si6 0.000000 0.000000 0.500000
Si Si7 0.487578 0.698260 0.508795
O O1 0.830060 0.533283 0.697285
O O2 0.752202 0.594252 0.430425
O O3 0.521883 0.629321 0.522092
O O4 0.262567 0.551531 0.198135
O O5 0.773892 0.336992 0.065827
O O6 0.734732 0.226782 0.034884
O O7 0.186920 0.278407 0.227863
O O8 0.636975 0.284900 0.732628
O O9 0.325693 0.555606 0.907325
O O10 0.229371 0.635747 0.666048
O O11 0.725645 0.637158 0.163561
O O12 0.010461 0.041233 0.125100
O O13 0.223509 0.030259 0.527176
#
# Coordination Sequence:
#
# PCOD9251410 Si02
#       7
#     4   4   4   4   4   2   4
#     4  11  23  45  66  97 141 187 219 289 360 417
#     4  12  24  49  75 103 140 187 245 297 370 425
#     4  11  20  42  69  92 130 178 225 282 328 410
#     4  11  23  40  65  97 135 180 230 273 345 417
#     4  11  22  39  73  95 124 181 232 268 326 424
#     4  12  24  40  64 100 150 178 224 280 364 426
#     4  12  26  49  76 104 144 190 243 304 368 424
#
# _framework density 26.490711999999998
#
# number of rings (size 3 to 8) (size 9 to 14) (size 15 to 20)
#    0.000    0.615    6.154    3.692    2.154    0.000 
#    5.538    0.000    0.000    0.000    0.000    0.000 
#    0.000    0.000    0.000    0.000    0.000    0.000 
#
# Total GULP energy -145218.114306 kJ/mol
# GULP energy per Si atom -5585.312089 kJ/mol
# Density = 2.643042 g / cm^3
# Si number density = 26.490712 Si / 1000 Ang^3
#
#
#
# Elastic Constant Matrix: (Units=GPa)
#
#
# Indices 1 2 3 4 5 6 
#
# 1 59.0673 28.7698 15.0276 0.0000 -17.3058 0.0000
# 2 28.7698 70.9780 13.8526 0.0000 4.0964 0.0000
# 3 15.0276 13.8526 165.5900 0.0000 6.2144 0.0000
# 4 0.0000 0.0000 0.0000 15.0545 0.0000 6.0940
# 5 -17.3058 4.0964 6.2144 0.0000 38.5237 0.0000
# 6 0.0000 0.0000 0.0000 6.0940 0.0000 38.4015
#
#
#
# Elastic Compliance Matrix: (Units=1/GPa)
#
#
# Indices 1 2 3 4 5 6 
#
# 1 0.026948 -0.011317 -0.002010 0.000000 0.013633 0.000000
# 2 -0.011317 0.019145 -0.000309 0.000000 -0.007070 0.000000
# 3 -0.002010 -0.000309 0.006318 0.000000 -0.001890 0.000000
# 4 0.000000 0.000000 0.000000 0.070985 0.000000 -0.011265
# 5 0.013633 -0.007070 -0.001890 0.000000 0.033139 0.000000
# 6 0.000000 0.000000 0.000000 -0.011265 0.000000 0.027828
#
#
# Mechanical properties :
#
#
# Convention : Reuss Voigt Hill
#
# Bulk Modulus (GPa) = 39.78232 45.65946 42.72089
# Shear Modulus (GPa) = 22.72555 34.26161 28.49358
#
# Velocity S-wave (km/s) = 2.93212 3.60021 3.28320
# Velocity P-wave (km/s) = 5.14909 5.87839 5.52579
#
# Compressibility (1/GPa) = 0.02513680
#
# Stress axis : x y z
#
# Youngs Moduli (GPa) = 37.10844 52.23413 158.27189
#
# Poissons Ratio (x) = 0.59115 0.31820
# Poissons Ratio (y) = 0.41997 0.04893
# Poissons Ratio (z) = 0.07461 0.01615
#
# Static dielectric constant tensor:
#      x y z
#    x 0.318730 0.000000 2.124040 
#    y 0.000000 1.829330 0.000000 
#    z 2.124040 0.000000 -0.387190 
# 
# From -- ./inp_files/27060.got.cif
#   From: 2010.05.17/outbox.cif.g08.bks.cpg/sg14_14_cif.got.tgz:27060.got - 2010.06.03 17:49:19.
