data_PCOD9251895
_publ_section_title
;
Structure prediction by ZEFSAII (Michael W. Deem and Ramdas Pophale) SiO2 
 PCOD9251895
Probable space group: P 21/C
;
_chemical_formula_sum "Si O2"
_cell_formula_units_Z 28
_cell_length_a 6.631022
_cell_length_b 19.497709
_cell_length_c 12.026951
_cell_angle_alpha 90.000000
_cell_angle_beta 126.411929
_cell_angle_gamma 90.000000
_cell_volume 1251.386592
_symmetry_space_group_name_H-M "P 21/C"
_symmetry_group_IT_number 14
_symmetry_cell_setting 'monoclinic'
loop_
_space_group_symop_operation_xyz
x,y,z
-x,1/2+y,1/2-z
-x,-y,-z
x,1/2-y,1/2+z
loop_
_atom_site_type_symbol
_atom_site_label
_atom_site_fract_x
_atom_site_fract_y
_atom_site_fract_z
Si Si1 0.005451 0.118816 0.918887
Si Si2 0.236048 0.006586 0.854181
Si Si3 0.062446 0.636025 0.346622
Si Si4 0.715223 0.518396 0.875163
Si Si5 0.435736 0.646645 0.886093
Si Si6 0.481142 0.867681 0.648688
Si Si7 0.503300 0.294576 0.621732
O O1 0.052056 0.045734 0.876747
O O2 0.799597 0.152746 0.773271
O O3 0.273187 0.157029 0.009996
O O4 0.916445 0.116317 0.016673
O O5 0.275327 0.042949 0.749482
O O6 0.135506 0.930679 0.799577
O O7 0.500000 0.000000 0.000000
O O8 0.260603 0.694193 0.381663
O O9 0.773964 0.650554 0.228376
O O10 0.590987 0.578011 0.907958
O O11 0.556151 0.447729 0.831578
O O12 0.000000 0.500000 0.000000
O O13 0.586132 0.716535 0.913334
O O14 0.354431 0.642939 0.988118
O O15 0.405919 0.819873 0.727109
#
# Coordination Sequence:
#
# PCOD9251895 Si02
#       7
#     4   4   4   4   4   4   4
#     4  11  25  44  69 108 139 180 245 292 350 423
#     4  12  20  40  73 102 135 178 232 290 351 415
#     4  11  22  46  71 100 144 182 234 287 364 422
#     4  12  25  45  72 107 145 192 237 294 367 426
#     4  12  28  44  73 105 145 184 247 296 351 434
#     4  11  25  49  72 100 144 189 236 289 363 426
#     4  11  27  47  70 102 142 197 230 297 366 421
#
# _framework density 22.375178999999999
#
# number of rings (size 3 to 8) (size 9 to 14) (size 15 to 20)
#    0.000    0.571    2.857    5.143    4.000    0.000 
#    5.143    0.000    0.000    0.000    0.000    0.000 
#    0.000    0.000    0.000    0.000    0.000    0.000 
#
# Total GULP energy -156672.222083 kJ/mol
# GULP energy per Si atom -5595.436503 kJ/mol
# Density = 2.232425 g / cm^3
# Si number density = 22.375179 Si / 1000 Ang^3
#
#
#
# Elastic Constant Matrix: (Units=GPa)
#
#
# Indices 1 2 3 4 5 6 
#
# 1 86.3332 19.5434 26.9402 0.0000 -5.6985 0.0000
# 2 19.5434 102.7103 4.4952 0.0000 -17.5697 0.0000
# 3 26.9402 4.4952 103.8150 0.0000 -14.1302 0.0000
# 4 0.0000 0.0000 0.0000 18.7446 0.0000 -2.0519
# 5 -5.6985 -17.5697 -14.1302 0.0000 37.8747 0.0000
# 6 0.0000 0.0000 0.0000 -2.0519 0.0000 15.8128
#
#
#
# Elastic Compliance Matrix: (Units=1/GPa)
#
#
# Indices 1 2 3 4 5 6 
#
# 1 0.013155 -0.002424 -0.003363 0.000000 -0.000400 0.000000
# 2 -0.002424 0.011027 0.000841 0.000000 0.005064 0.000000
# 3 -0.003363 0.000841 0.011012 0.000000 0.003993 0.000000
# 4 0.000000 0.000000 0.000000 0.054118 0.000000 0.007022
# 5 -0.000400 0.005064 0.003993 0.000000 0.030181 0.000000
# 6 0.000000 0.000000 0.000000 0.007022 0.000000 0.064151
#
#
# Mechanical properties :
#
#
# Convention : Reuss Voigt Hill
#
# Bulk Modulus (GPa) = 39.52428 43.86844 41.69636
# Shear Modulus (GPa) = 24.75603 30.61173 27.68388
#
# Velocity S-wave (km/s) = 3.32988 3.70281 3.52128
# Velocity P-wave (km/s) = 5.69972 6.15869 5.93365
#
# Compressibility (1/GPa) = 0.02530090
#
# Stress axis : x y z
#
# Youngs Moduli (GPa) = 76.01725 90.68736 90.80771
#
# Poissons Ratio (x) = 0.21986 0.30541
# Poissons Ratio (y) = 0.18429 -0.07636
# Poissons Ratio (z) = 0.25566 -0.07626
#
# Static dielectric constant tensor:
#      x y z
#    x 1.847330 0.000000 0.014910 
#    y 0.000000 1.895500 0.000000 
#    z 0.014910 0.000000 1.836390 
# 
# From -- ./inp_files/21695.got.cif
#   From: 2010.05.17/outbox.cif.g08.bks.cpg/sg14_11_cif.got.tgz:21695.got - 2010.06.03 17:49:19.
