data_PCOD9251103
_publ_section_title
;
Structure prediction by ZEFSAII (Michael W. Deem and Ramdas Pophale) SiO2 
 PCOD9251103
Probable space group: P 21/C
;
_chemical_formula_sum "Si O2"
_cell_formula_units_Z 18
_cell_length_a 20.319391
_cell_length_b 5.137674
_cell_length_c 9.901094
_cell_angle_alpha 90.000000
_cell_angle_beta 139.541020
_cell_angle_gamma 90.000000
_cell_volume 670.718861
_symmetry_space_group_name_H-M "P 21/C"
_symmetry_group_IT_number 14
_symmetry_cell_setting 'monoclinic'
loop_
_space_group_symop_operation_xyz
x,y,z
-x,1/2+y,1/2-z
-x,-y,-z
x,1/2-y,1/2+z
loop_
_atom_site_type_symbol
_atom_site_label
_atom_site_fract_x
_atom_site_fract_y
_atom_site_fract_z
Si Si1 0.189767 0.939193 0.840041
Si Si2 0.387418 0.263382 0.076976
Si Si3 0.061616 0.268988 0.812450
Si Si4 0.221499 0.951521 0.182887
Si Si5 0.500000 0.000000 0.000000
O O1 0.157897 0.715729 0.688863
O O2 0.101533 0.147127 0.734357
O O3 0.221196 0.819502 0.035653
O O4 0.292976 0.069688 0.952079
O O5 0.430720 0.313185 0.293198
O O6 0.330764 0.509531 0.919122
O O7 0.462230 0.150651 0.081633
O O8 0.015930 0.553121 0.749253
O O9 0.164838 0.221767 0.059162
#
# Coordination Sequence:
#
# PCOD9251103 Si02
#       5
#     4   4   4   4   2
#     4  10  26  46  77 108 160 202 255 330 411 472
#     4  12  28  52  76 116 154 208 270 342 422 484
#     4  10  25  47  76 120 159 214 273 323 396 495
#     4  10  26  46  77 108 160 202 255 330 411 472
#     4  12  30  50  84 108 154 202 280 336 404 520
#
# _framework density 26.836877999999999
#
# number of rings (size 3 to 8) (size 9 to 14) (size 15 to 20)
#    1.333    0.000    2.222    0.000   12.444    2.667 
#    0.000    0.000    0.000    0.000    0.000    0.000 
#    0.000    0.000    0.000    0.000    0.000    0.000 
#
# Total GULP energy -100243.364066 kJ/mol
# GULP energy per Si atom -5569.075781 kJ/mol
# Density = 2.677580 g / cm^3
# Si number density = 26.836878 Si / 1000 Ang^3
#
#
#
# Elastic Constant Matrix: (Units=GPa)
#
#
# Indices 1 2 3 4 5 6 
#
# 1 65.5488 14.3287 16.2767 0.0000 -19.0039 0.0000
# 2 14.3287 66.1592 17.6008 0.0000 4.2820 0.0000
# 3 16.2767 17.6008 128.0027 0.0000 -36.0880 0.0000
# 4 0.0000 0.0000 0.0000 30.2503 0.0000 10.1830
# 5 -19.0039 4.2820 -36.0880 0.0000 49.9296 0.0000
# 6 0.0000 0.0000 0.0000 10.1830 0.0000 53.5105
#
#
#
# Elastic Compliance Matrix: (Units=1/GPa)
#
#
# Indices 1 2 3 4 5 6 
#
# 1 0.018389 -0.004611 0.000478 0.000000 0.007740 0.000000
# 2 -0.004611 0.017393 -0.003417 0.000000 -0.005716 0.000000
# 3 0.000478 -0.003417 0.010494 0.000000 0.008059 0.000000
# 4 0.000000 0.000000 0.000000 0.035320 0.000000 -0.006721
# 5 0.007740 -0.005716 0.008059 0.000000 0.029290 0.000000
# 6 0.000000 0.000000 0.000000 -0.006721 0.000000 0.019967
#
#
# Mechanical properties :
#
#
# Convention : Reuss Voigt Hill
#
# Bulk Modulus (GPa) = 32.07623 39.56923 35.82273
# Shear Modulus (GPa) = 31.98092 40.83838 36.40965
#
# Velocity S-wave (km/s) = 3.45581 3.90516 3.68734
# Velocity P-wave (km/s) = 5.28221 5.92538 5.61301
#
# Compressibility (1/GPa) = 0.03117574
#
# Stress axis : x y z
#
# Youngs Moduli (GPa) = 54.38033 57.49571 95.29599
#
# Poissons Ratio (x) = 0.26510 -0.04553
# Poissons Ratio (y) = 0.25073 0.32561
# Poissons Ratio (z) = -0.02598 0.19645
#
# Static dielectric constant tensor:
#      x y z
#    x 2.142560 0.000000 -0.028290 
#    y 0.000000 2.201260 0.000000 
#    z -0.028290 0.000000 2.127790 
# 
# From -- ./inp_files/18419.got.cif
#   From: 2010.05.17/outbox.cif.g08.bks.cpg/sg14_10_cif.got.tgz:18419.got - 2010.06.03 17:49:19.
