data_PCOD9251482
_publ_section_title
;
Structure prediction by ZEFSAII (Michael W. Deem and Ramdas Pophale) SiO2 
 PCOD9251482
Probable space group: P 21/C
;
_chemical_formula_sum "Si O2"
_cell_formula_units_Z 28
_cell_length_a 11.376932
_cell_length_b 15.020569
_cell_length_c 8.234711
_cell_angle_alpha 90.000000
_cell_angle_beta 100.908839
_cell_angle_gamma 90.000000
_cell_volume 1381.784223
_symmetry_space_group_name_H-M "P 21/C"
_symmetry_group_IT_number 14
_symmetry_cell_setting 'monoclinic'
loop_
_space_group_symop_operation_xyz
x,y,z
-x,1/2+y,1/2-z
-x,-y,-z
x,1/2-y,1/2+z
loop_
_atom_site_type_symbol
_atom_site_label
_atom_site_fract_x
_atom_site_fract_y
_atom_site_fract_z
Si Si1 0.131703 0.705172 0.210689
Si Si2 0.873058 0.110596 0.644766
Si Si3 0.385074 0.563194 0.004811
Si Si4 0.598780 0.239063 0.663498
Si Si5 0.516943 0.127556 0.940173
Si Si6 0.047540 0.974074 0.834359
Si Si7 0.320259 0.005438 0.840982
O O1 0.095058 0.809121 0.220701
O O2 0.269941 0.715853 0.307073
O O3 0.059722 0.631841 0.298150
O O4 0.127864 0.663218 0.028587
O O5 0.740777 0.065677 0.630435
O O6 0.965510 0.030120 0.688347
O O7 0.342566 0.541443 0.174592
O O8 0.500000 0.500000 0.000000
O O9 0.422613 0.664085 0.979126
O O10 0.581465 0.186820 0.823768
O O11 0.506587 0.317087 0.602522
O O12 0.388625 0.098313 0.845188
O O13 0.605609 0.046086 0.000567
O O14 0.182899 0.007782 0.847638
O O15 0.000000 0.000000 0.000000
#
# Coordination Sequence:
#
# PCOD9251482 Si02
#       7
#     4   4   4   4   4   4   4
#     4  11  22  41  67 100 127 174 234 280 327 410
#     4  11  24  41  71  95 138 175 226 286 336 402
#     4  11  22  40  67 101 130 171 219 275 342 402
#     4  11  21  38  69 101 129 170 225 274 333 407
#     4  11  22  39  66  98 134 167 217 286 332 396
#     4  12  26  44  66  99 135 188 231 277 336 400
#     4  11  24  42  63  97 140 168 220 276 339 397
#
# _framework density 20.263656999999998
#
# number of rings (size 3 to 8) (size 9 to 14) (size 15 to 20)
#    0.000    0.857    4.286    3.857    4.000    0.000 
#    0.000    4.286    0.000    0.000    0.000    0.000 
#    0.000    0.000    0.000    0.000    0.000    0.000 
#
# Total GULP energy -156056.532008 kJ/mol
# GULP energy per Si atom -5573.447572 kJ/mol
# Density = 2.021754 g / cm^3
# Si number density = 20.263657 Si / 1000 Ang^3
#
#
#
# Elastic Constant Matrix: (Units=GPa)
#
#
# Indices 1 2 3 4 5 6 
#
# 1 127.1276 62.7618 33.9017 0.0000 -0.9834 0.0000
# 2 62.7618 115.1089 34.7343 0.0000 10.6929 0.0000
# 3 33.9017 34.7343 83.7316 0.0000 -11.6047 0.0000
# 4 0.0000 0.0000 0.0000 37.9906 0.0000 21.2521
# 5 -0.9834 10.6929 -11.6047 0.0000 31.5186 0.0000
# 6 0.0000 0.0000 0.0000 21.2521 0.0000 29.5164
#
#
#
# Elastic Compliance Matrix: (Units=1/GPa)
#
#
# Indices 1 2 3 4 5 6 
#
# 1 0.011194 -0.005651 -0.001975 0.000000 0.001539 0.000000
# 2 -0.005651 0.013644 -0.004255 0.000000 -0.006372 0.000000
# 3 -0.001975 -0.004255 0.015490 0.000000 0.007085 0.000000
# 4 0.000000 0.000000 0.000000 0.044074 0.000000 -0.031734
# 5 0.001539 -0.006372 0.007085 0.000000 0.036546 0.000000
# 6 0.000000 0.000000 0.000000 -0.031734 0.000000 0.056728
#
#
# Mechanical properties :
#
#
# Convention : Reuss Voigt Hill
#
# Bulk Modulus (GPa) = 60.36299 65.41820 62.89059
# Shear Modulus (GPa) = 24.15916 32.77648 28.46782
#
# Velocity S-wave (km/s) = 3.45663 4.02618 3.75223
# Velocity P-wave (km/s) = 6.76643 7.34623 7.06228
#
# Compressibility (1/GPa) = 0.01656644
#
# Stress axis : x y z
#
# Youngs Moduli (GPa) = 89.33054 73.29060 64.55855
#
# Poissons Ratio (x) = 0.41413 0.12751
# Poissons Ratio (y) = 0.50477 0.27472
# Poissons Ratio (z) = 0.17644 0.31188
#
# Static dielectric constant tensor:
#      x y z
#    x 1.706340 0.000000 -0.029600 
#    y 0.000000 1.834710 0.000000 
#    z -0.029600 0.000000 1.891660 
# 
# From -- ./inp_files/12894.got.cif
#   From: 2010.05.17/outbox.cif.g08.bks.cpg/sg14_7_cif.got.tgz:12894.got - 2010.06.03 17:49:19.
