data_PCOD9251058
_publ_section_title
;
Structure prediction by ZEFSAII (Michael W. Deem and Ramdas Pophale) SiO2 
 PCOD9251058
Probable space group: P 21/C
;
_chemical_formula_sum "Si O2"
_cell_formula_units_Z 28
_cell_length_a 10.947153
_cell_length_b 8.162150
_cell_length_c 23.031984
_cell_angle_alpha 90.000000
_cell_angle_beta 34.818107
_cell_angle_gamma 90.000000
_cell_volume 1175.040175
_symmetry_space_group_name_H-M "P 21/C"
_symmetry_group_IT_number 14
_symmetry_cell_setting 'monoclinic'
loop_
_space_group_symop_operation_xyz
x,y,z
-x,1/2+y,1/2-z
-x,-y,-z
x,1/2-y,1/2+z
loop_
_atom_site_type_symbol
_atom_site_label
_atom_site_fract_x
_atom_site_fract_y
_atom_site_fract_z
Si Si1 0.998546 0.271918 0.606125
Si Si2 0.181119 0.244177 0.405467
Si Si3 0.412974 0.982343 0.738737
Si Si4 0.467083 0.688301 0.011425
Si Si5 0.046074 0.610252 0.110905
Si Si6 0.384224 0.274182 0.662376
Si Si7 0.394716 0.052479 0.978909
O O1 0.756557 0.335220 0.705894
O O2 0.086216 0.274741 0.505878
O O3 0.146519 0.407884 0.579594
O O4 0.048113 0.087711 0.608748
O O5 0.298309 0.403430 0.332306
O O6 0.988010 0.181780 0.440113
O O7 0.361750 0.101362 0.334075
O O8 0.448776 0.110981 0.671812
O O9 0.644002 0.736693 0.894366
O O10 0.500000 0.500000 0.000000
O O11 0.492499 0.769080 0.064588
O O12 0.239133 0.702146 0.068212
O O13 0.831168 0.661811 0.226659
O O14 0.544707 0.429615 0.595627
O O15 0.500000 0.000000 0.000000
#
# Coordination Sequence:
#
# PCOD9251058 Si02
#       7
#     4   4   4   4   4   4   4
#     4  12  25  45  74 103 140 195 229 295 359 427
#     4  11  26  45  71 107 144 186 231 304 345 437
#     4  11  26  45  72 105 143 187 243 282 369 419
#     4  11  23  47  72 104 140 191 237 291 357 423
#     4  11  25  45  72 106 142 182 241 284 367 422
#     4  10  26  44  70 103 143 182 232 305 336 429
#     4  10  25  46  70 101 143 183 239 295 352 412
#
# _framework density 23.828970999999999
#
# number of rings (size 3 to 8) (size 9 to 14) (size 15 to 20)
#    0.000    1.143    1.429    2.571   14.000    3.429 
#    2.571    0.000    0.000    0.000    0.000    0.000 
#    0.000    0.000    0.000    0.000    0.000    0.000 
#
# Total GULP energy -156341.278955 kJ/mol
# GULP energy per Si atom -5583.617106 kJ/mol
# Density = 2.377474 g / cm^3
# Si number density = 23.828971 Si / 1000 Ang^3
#
#
#
# Elastic Constant Matrix: (Units=GPa)
#
#
# Indices 1 2 3 4 5 6 
#
# 1 56.5150 9.7653 23.3358 0.0000 -14.5927 0.0000
# 2 9.7653 78.5212 20.9864 0.0000 12.8355 0.0000
# 3 23.3358 20.9864 53.6450 0.0000 -5.2903 0.0000
# 4 0.0000 0.0000 0.0000 45.2829 0.0000 -3.3309
# 5 -14.5927 12.8355 -5.2903 0.0000 39.0774 0.0000
# 6 0.0000 0.0000 0.0000 -3.3309 0.0000 42.0021
#
#
#
# Elastic Compliance Matrix: (Units=1/GPa)
#
#
# Indices 1 2 3 4 5 6 
#
# 1 0.023812 -0.001988 -0.008756 0.000000 0.008359 0.000000
# 2 -0.001988 0.015658 -0.005920 0.000000 -0.006687 0.000000
# 3 -0.008756 -0.005920 0.024969 0.000000 0.002055 0.000000
# 4 0.000000 0.000000 0.000000 0.022213 0.000000 0.001762
# 5 0.008359 -0.006687 0.002055 0.000000 0.031187 0.000000
# 6 0.000000 0.000000 0.000000 0.001762 0.000000 0.023948
#
#
# Mechanical properties :
#
#
# Convention : Reuss Voigt Hill
#
# Bulk Modulus (GPa) = 32.14375 32.98403 32.56389
# Shear Modulus (GPa) = 26.95634 34.24538 30.60086
#
# Velocity S-wave (km/s) = 3.36704 3.79506 3.58744
# Velocity P-wave (km/s) = 5.35113 5.75112 5.55473
#
# Compressibility (1/GPa) = 0.03111024
#
# Stress axis : x y z
#
# Youngs Moduli (GPa) = 41.99570 63.86511 40.04981
#
# Poissons Ratio (x) = 0.12693 0.35069
# Poissons Ratio (y) = 0.08347 0.23711
# Poissons Ratio (z) = 0.36773 0.37811
#
# Static dielectric constant tensor:
#      x y z
#    x 1.879420 0.000000 0.017890 
#    y 0.000000 1.043120 0.000000 
#    z 0.017890 0.000000 1.845000 
# 
# From -- ./inp_files/77117.got.cif
#   From: 2010.05.17/outbox.cif.g08.bks.cpg/sg14_39_cif.got.tgz:77117.got - 2010.06.03 17:49:19.
