data_PCOD9251197
_publ_section_title
;
Structure prediction by ZEFSAII (Michael W. Deem and Ramdas Pophale) SiO2 
 PCOD9251197
Probable space group: P 21/C
;
_chemical_formula_sum "Si O2"
_cell_formula_units_Z 26
_cell_length_a 16.304470
_cell_length_b 7.918517
_cell_length_c 14.585258
_cell_angle_alpha 90.000000
_cell_angle_beta 36.503814
_cell_angle_gamma 90.000000
_cell_volume 1120.189039
_symmetry_space_group_name_H-M "P 21/C"
_symmetry_group_IT_number 14
_symmetry_cell_setting 'monoclinic'
loop_
_space_group_symop_operation_xyz
x,y,z
-x,1/2+y,1/2-z
-x,-y,-z
x,1/2-y,1/2+z
loop_
_atom_site_type_symbol
_atom_site_label
_atom_site_fract_x
_atom_site_fract_y
_atom_site_fract_z
Si Si1 0.371369 0.462994 0.813194
Si Si2 0.851474 0.002378 0.852430
Si Si3 0.500000 0.500000 0.000000
Si Si4 0.916363 0.446082 0.986464
Si Si5 0.988483 0.052247 0.905490
Si Si6 0.600094 0.710667 0.557481
Si Si7 0.736197 0.367160 0.906629
O O1 0.500763 0.548403 0.648444
O O2 0.402596 0.286984 0.835881
O O3 0.236472 0.478473 0.871500
O O4 0.327788 0.574643 0.939896
O O5 0.002967 0.016185 0.673612
O O6 0.873948 0.972359 0.940514
O O7 0.785443 0.178473 0.882437
O O8 0.754979 0.854622 0.900624
O O9 0.550309 0.648763 0.030410
O O10 0.376160 0.621024 0.072383
O O11 0.937565 0.246131 0.954070
O O12 0.000000 0.500000 0.000000
O O13 0.135441 0.988682 0.734283
O O14 0.000000 0.000000 0.000000
#
# Coordination Sequence:
#
# PCOD9251197 Si02
#       7
#     4   4   2   4   4   4   4
#     4  11  24  47  71 104 146 193 246 302 374 445
#     4  12  25  49  76 108 149 195 247 315 382 443
#     4  10  26  46  70 102 150 192 252 304 380 446
#     4  12  27  45  73 112 145 195 252 309 372 459
#     4  12  26  44  77 106 147 193 248 308 374 446
#     4  11  27  47  74 107 149 200 245 314 376 454
#     4  11  24  46  73 103 148 192 246 308 372 446
#
# _framework density 23.210366
#
# number of rings (size 3 to 8) (size 9 to 14) (size 15 to 20)
#    0.000    0.615    3.077    3.692    8.615    1.846 
#    8.308    0.000    0.000    0.000    0.000    0.000 
#    0.000    0.000    0.000    0.000    0.000    0.000 
#
# Total GULP energy -144783.179574 kJ/mol
# GULP energy per Si atom -5568.583830 kJ/mol
# Density = 2.315754 g / cm^3
# Si number density = 23.210366 Si / 1000 Ang^3
#
#
#
# Elastic Constant Matrix: (Units=GPa)
#
#
# Indices 1 2 3 4 5 6 
#
# 1 204.0863 37.1734 19.0268 0.0000 -28.3061 0.0000
# 2 37.1734 48.9342 12.2936 0.0000 -11.5041 0.0000
# 3 19.0268 12.2936 53.2593 0.0000 -8.0719 0.0000
# 4 0.0000 0.0000 0.0000 33.3476 0.0000 2.8606
# 5 -28.3061 -11.5041 -8.0719 0.0000 30.5297 0.0000
# 6 0.0000 0.0000 0.0000 2.8606 0.0000 26.3373
#
#
#
# Elastic Compliance Matrix: (Units=1/GPa)
#
#
# Indices 1 2 3 4 5 6 
#
# 1 0.006198 -0.003526 -0.000761 0.000000 0.004217 0.000000
# 2 -0.003526 0.025302 -0.003783 0.000000 0.005265 0.000000
# 3 -0.000761 -0.003783 0.020416 0.000000 0.003267 0.000000
# 4 0.000000 0.000000 0.000000 0.030269 0.000000 -0.003288
# 5 0.004217 0.005265 0.003267 0.000000 0.039512 0.000000
# 6 0.000000 0.000000 0.000000 -0.003288 0.000000 0.038326
#
#
# Mechanical properties :
#
#
# Convention : Reuss Voigt Hill
#
# Bulk Modulus (GPa) = 27.95124 49.25192 38.60158
# Shear Modulus (GPa) = 26.58318 33.89534 30.23926
#
# Velocity S-wave (km/s) = 3.38792 3.82560 3.61340
# Velocity P-wave (km/s) = 5.23190 6.38588 5.83748
#
# Compressibility (1/GPa) = 0.03577659
#
# Stress axis : x y z
#
# Youngs Moduli (GPa) = 161.34513 39.52243 48.98045
#
# Poissons Ratio (x) = 0.13935 0.03729
# Poissons Ratio (y) = 0.56886 0.18528
# Poissons Ratio (z) = 0.12283 0.14951
#
# Static dielectric constant tensor:
#      x y z
#    x 1.925300 0.000000 0.002260 
#    y 0.000000 1.831930 0.000000 
#    z 0.002260 0.000000 1.916810 
# 
# From -- ./inp_files/46420.got.cif
#   From: 2010.05.17/outbox.cif.g08.bks.cpg/sg14_24_cif.got.tgz:46420.got - 2010.06.03 17:49:19.
