data_PCOD9251138
_publ_section_title
;
Structure prediction by ZEFSAII (Michael W. Deem and Ramdas Pophale) SiO2 
 PCOD9251138
Probable space group: P 21/C
;
_chemical_formula_sum "Si O2"
_cell_formula_units_Z 20
_cell_length_a 9.835019
_cell_length_b 7.029364
_cell_length_c 14.724077
_cell_angle_alpha 90.000000
_cell_angle_beta 139.590122
_cell_angle_gamma 90.000000
_cell_volume 659.876458
_symmetry_space_group_name_H-M "P 21/C"
_symmetry_group_IT_number 14
_symmetry_cell_setting 'monoclinic'
loop_
_space_group_symop_operation_xyz
x,y,z
-x,1/2+y,1/2-z
-x,-y,-z
x,1/2-y,1/2+z
loop_
_atom_site_type_symbol
_atom_site_label
_atom_site_fract_x
_atom_site_fract_y
_atom_site_fract_z
Si Si1 0.306263 0.413704 0.526668
Si Si2 0.426022 0.529061 0.077643
Si Si3 0.905198 0.852248 0.848019
Si Si4 0.810775 0.302722 0.670109
Si Si5 0.249078 0.540276 0.170962
O O1 0.339388 0.863823 0.444269
O O2 0.093487 0.496953 0.463749
O O3 0.356180 0.190902 0.548247
O O4 0.287831 0.503649 0.417843
O O5 0.292032 0.619671 0.092901
O O6 0.670624 0.563539 0.222661
O O7 0.511471 0.997285 0.176773
O O8 0.979052 0.789159 0.783118
O O9 0.874407 0.659225 0.890335
O O10 0.835821 0.330356 0.789641
#
# Coordination Sequence:
#
# PCOD9251138 Si02
#       5
#     4   4   4   4   4
#     4  10  26  49  80 117 166 214 280 328 398 495
#     4  12  26  50  86 118 168 217 266 344 404 476
#     4  10  25  51  81 117 166 224 261 336 416 471
#     4  10  27  55  76 117 170 208 277 335 400 492
#     4  12  25  52  82 120 166 215 272 336 407 488
#
# _framework density 30.308702
#
# number of rings (size 3 to 8) (size 9 to 14) (size 15 to 20)
#    1.200    0.000    2.000    1.800    0.000    8.000 
#    3.600    2.000    0.000    0.000    0.000    0.000 
#    0.000    0.000    0.000    0.000    0.000    0.000 
#
# Total GULP energy -112213.710672 kJ/mol
# GULP energy per Si atom -5610.685534 kJ/mol
# Density = 3.023972 g / cm^3
# Si number density = 30.308702 Si / 1000 Ang^3
#
#
#
# Elastic Constant Matrix: (Units=GPa)
#
#
# Indices 1 2 3 4 5 6 
#
# 1 220.7979 32.1235 32.9928 0.0000 28.9114 0.0000
# 2 32.1235 165.2308 9.8814 0.0000 36.1903 0.0000
# 3 32.9928 9.8814 106.9227 0.0000 58.8455 0.0000
# 4 0.0000 0.0000 0.0000 72.2701 0.0000 9.6985
# 5 28.9114 36.1903 58.8455 0.0000 80.1020 0.0000
# 6 0.0000 0.0000 0.0000 9.6985 0.0000 50.1985
#
#
#
# Elastic Compliance Matrix: (Units=1/GPa)
#
#
# Indices 1 2 3 4 5 6 
#
# 1 0.004883 -0.000748 -0.001097 0.000000 -0.000618 0.000000
# 2 -0.000748 0.007035 0.001983 0.000000 -0.004365 0.000000
# 3 -0.001097 0.001983 0.016423 0.000000 -0.012565 0.000000
# 4 0.000000 0.000000 0.000000 0.014205 0.000000 -0.002745
# 5 -0.000618 -0.004365 -0.012565 0.000000 0.023910 0.000000
# 6 0.000000 0.000000 0.000000 -0.002745 0.000000 0.020451
#
#
# Mechanical properties :
#
#
# Convention : Reuss Voigt Hill
#
# Bulk Modulus (GPa) = 34.94514 71.43854 53.19184
# Shear Modulus (GPa) = 51.99080 68.37769 60.18425
#
# Velocity S-wave (km/s) = 4.14620 4.75493 4.46096
# Velocity P-wave (km/s) = 5.87163 7.33262 6.64242
#
# Compressibility (1/GPa) = 0.02861628
#
# Stress axis : x y z
#
# Youngs Moduli (GPa) = 204.80036 142.14320 60.89025
#
# Poissons Ratio (x) = 0.10636 0.06682
# Poissons Ratio (y) = 0.15325 -0.12076
# Poissons Ratio (z) = 0.22473 -0.28191
#
# Static dielectric constant tensor:
#      x y z
#    x 2.404270 0.000000 -0.027480 
#    y 0.000000 2.326050 0.000000 
#    z -0.027480 0.000000 2.310710 
# 
# From -- ./inp_files/54708.got.cif
#   From: 2010.05.17/outbox.cif.g08.bks.cpg/sg14_28_cif.got.tgz:54708.got - 2010.06.03 17:49:19.
