data_PCOD9251127
_publ_section_title
;
Structure prediction by ZEFSAII (Michael W. Deem and Ramdas Pophale) SiO2 
 PCOD9251127
Probable space group: P 21/C
;
_chemical_formula_sum "Si O2"
_cell_formula_units_Z 20
_cell_length_a 11.151448
_cell_length_b 11.045142
_cell_length_c 7.708557
_cell_angle_alpha 90.000000
_cell_angle_beta 49.975052
_cell_angle_gamma 90.000000
_cell_volume 727.061044
_symmetry_space_group_name_H-M "P 21/C"
_symmetry_group_IT_number 14
_symmetry_cell_setting 'monoclinic'
loop_
_space_group_symop_operation_xyz
x,y,z
-x,1/2+y,1/2-z
-x,-y,-z
x,1/2-y,1/2+z
loop_
_atom_site_type_symbol
_atom_site_label
_atom_site_fract_x
_atom_site_fract_y
_atom_site_fract_z
Si Si1 0.627636 0.616422 0.041096
Si Si2 0.743151 0.451475 0.248440
Si Si3 0.250785 0.356935 0.448519
Si Si4 0.076015 0.778450 0.222027
Si Si5 0.303747 0.815540 0.720993
O O1 0.628614 0.749459 0.125103
O O2 0.733701 0.610256 0.768721
O O3 0.694035 0.530526 0.129467
O O4 0.449360 0.605498 0.139490
O O5 0.723915 0.540544 0.430889
O O6 0.909245 0.380946 0.140053
O O7 0.642932 0.326486 0.343652
O O8 0.086425 0.287575 0.631951
O O9 0.212596 0.677723 0.124667
O O10 0.151681 0.839170 0.983864
#
# Coordination Sequence:
#
# PCOD9251127 Si02
#       5
#     4   4   4   4   4
#     4  12  25  48  80 116 156 203 264 325 386 470
#     4  10  28  50  84 106 160 210 256 316 412 448
#     4  12  25  48  80 116 156 203 264 325 386 470
#     4  10  25  49  77 111 157 201 263 322 380 473
#     4  10  25  49  77 111 157 201 263 322 380 473
#
# _framework density 27.508006000000002
#
# number of rings (size 3 to 8) (size 9 to 14) (size 15 to 20)
#    1.200    0.000    2.000    2.400    0.000    8.000 
#    0.000    6.000    4.400    0.000    0.000    0.000 
#    0.000    0.000    0.000    0.000    0.000    0.000 
#
# Total GULP energy -111633.168628 kJ/mol
# GULP energy per Si atom -5581.658431 kJ/mol
# Density = 2.744540 g / cm^3
# Si number density = 27.508006 Si / 1000 Ang^3
#
#
#
# Elastic Constant Matrix: (Units=GPa)
#
#
# Indices 1 2 3 4 5 6 
#
# 1 90.5601 36.5423 31.4744 0.0000 -9.0908 0.0000
# 2 36.5423 141.6914 24.9795 0.0000 -2.0355 0.0000
# 3 31.4744 24.9795 118.0155 0.0000 -3.8633 0.0000
# 4 0.0000 0.0000 0.0000 41.6977 0.0000 5.4014
# 5 -9.0908 -2.0355 -3.8633 0.0000 32.0901 0.0000
# 6 0.0000 0.0000 0.0000 5.4014 0.0000 26.1239
#
#
#
# Elastic Compliance Matrix: (Units=1/GPa)
#
#
# Indices 1 2 3 4 5 6 
#
# 1 0.013565 -0.002942 -0.002887 0.000000 0.003309 0.000000
# 2 -0.002942 0.007972 -0.000917 0.000000 -0.000438 0.000000
# 3 -0.002887 -0.000917 0.009446 0.000000 0.000261 0.000000
# 4 0.000000 0.000000 0.000000 0.024642 0.000000 -0.005095
# 5 0.003309 -0.000438 0.000261 0.000000 0.032103 0.000000
# 6 0.000000 0.000000 0.000000 -0.005095 0.000000 0.039333
#
#
# Mechanical properties :
#
#
# Convention : Reuss Voigt Hill
#
# Bulk Modulus (GPa) = 57.17162 59.58437 58.37800
# Shear Modulus (GPa) = 34.15711 37.13372 35.64542
#
# Velocity S-wave (km/s) = 3.52762 3.67812 3.60365
# Velocity P-wave (km/s) = 6.11726 6.30443 6.21155
#
# Compressibility (1/GPa) = 0.01749119
#
# Stress axis : x y z
#
# Youngs Moduli (GPa) = 73.71953 125.44382 105.86494
#
# Poissons Ratio (x) = 0.36905 0.30560
# Poissons Ratio (y) = 0.21688 0.09708
# Poissons Ratio (z) = 0.21281 0.11504
#
# Static dielectric constant tensor:
#      x y z
#    x 2.195730 0.000000 0.012450 
#    y 0.000000 2.259240 0.000000 
#    z 0.012450 0.000000 2.308610 
# 
# From -- ./inp_files/12151.got.cif
#   From: 2010.05.17/outbox.cif.g08.bks.cpg/sg14_7_cif.got.tgz:12151.got - 2010.06.03 17:49:19.
