data_PCOD9251386
_publ_section_title
;
Structure prediction by ZEFSAII (Michael W. Deem and Ramdas Pophale) SiO2 
 PCOD9251386
Probable space group: P 21/C
;
_chemical_formula_sum "Si O2"
_cell_formula_units_Z 28
_cell_length_a 14.241242
_cell_length_b 10.708828
_cell_length_c 10.003690
_cell_angle_alpha 90.000000
_cell_angle_beta 118.780755
_cell_angle_gamma 90.000000
_cell_volume 1337.169064
_symmetry_space_group_name_H-M "P 21/C"
_symmetry_group_IT_number 14
_symmetry_cell_setting 'monoclinic'
loop_
_space_group_symop_operation_xyz
x,y,z
-x,1/2+y,1/2-z
-x,-y,-z
x,1/2-y,1/2+z
loop_
_atom_site_type_symbol
_atom_site_label
_atom_site_fract_x
_atom_site_fract_y
_atom_site_fract_z
Si Si1 0.177669 0.324402 0.144444
Si Si2 0.956393 0.733110 0.203149
Si Si3 0.708767 0.911841 0.862314
Si Si4 0.536454 0.847068 0.954302
Si Si5 0.941879 0.998520 0.102317
Si Si6 0.352446 0.505157 0.251070
Si Si7 0.392244 0.438747 0.977983
O O1 0.136065 0.254515 0.248281
O O2 0.267009 0.234824 0.141456
O O3 0.233543 0.457398 0.210098
O O4 0.087493 0.319606 0.968115
O O5 0.036675 0.629823 0.313004
O O6 0.992532 0.876454 0.208966
O O7 0.606550 0.919279 0.888866
O O8 0.689291 0.960314 0.699691
O O9 0.816194 0.970160 0.997035
O O10 0.578455 0.706724 0.985211
O O11 0.410661 0.866691 0.836041
O O12 0.569168 0.907958 0.117978
O O13 0.000000 0.000000 0.000000
O O14 0.356699 0.493705 0.094829
O O15 0.500000 0.500000 0.000000
#
# Coordination Sequence:
#
# PCOD9251386 Si02
#       7
#     4   4   4   4   4   4   4
#     4  11  20  39  70  98 122 177 228 264 330 415
#     4  11  23  43  73 101 134 174 228 288 342 408
#     4  11  21  39  68  91 131 170 224 264 326 400
#     4  11  22  39  60  95 132 169 214 275 317 392
#     4  11  24  43  70 103 136 173 232 290 340 408
#     4  11  22  35  63  93 128 161 221 269 312 385
#     4  12  22  38  63  93 127 177 216 257 323 398
#
# _framework density 20.93976
#
# number of rings (size 3 to 8) (size 9 to 14) (size 15 to 20)
#    0.000    0.857    7.143    2.571    0.000    0.571 
#    0.000    1.429    6.286    0.000    0.000    0.000 
#    0.000    0.000    0.000    0.000    0.000    0.000 
#
# Total GULP energy -156200.108672 kJ/mol
# GULP energy per Si atom -5578.575310 kJ/mol
# Density = 2.089210 g / cm^3
# Si number density = 20.939760 Si / 1000 Ang^3
#
#
#
# Elastic Constant Matrix: (Units=GPa)
#
#
# Indices 1 2 3 4 5 6 
#
# 1 52.9027 26.1374 11.4830 0.0000 -6.9696 0.0000
# 2 26.1374 72.4693 31.5375 0.0000 4.1022 0.0000
# 3 11.4830 31.5375 115.9071 0.0000 -6.3253 0.0000
# 4 0.0000 0.0000 0.0000 38.0737 0.0000 8.8221
# 5 -6.9696 4.1022 -6.3253 0.0000 26.5486 0.0000
# 6 0.0000 0.0000 0.0000 8.8221 0.0000 33.3020
#
#
#
# Elastic Compliance Matrix: (Units=1/GPa)
#
#
# Indices 1 2 3 4 5 6 
#
# 1 0.024570 -0.009586 0.000615 0.000000 0.008078 0.000000
# 2 -0.009586 0.019716 -0.004781 0.000000 -0.006702 0.000000
# 3 0.000615 -0.004781 0.010047 0.000000 0.003294 0.000000
# 4 0.000000 0.000000 0.000000 0.027983 0.000000 -0.007413
# 5 0.008078 -0.006702 0.003294 0.000000 0.041608 0.000000
# 6 0.000000 0.000000 0.000000 -0.007413 0.000000 0.031992
#
#
# Mechanical properties :
#
#
# Convention : Reuss Voigt Hill
#
# Bulk Modulus (GPa) = 37.27291 42.17721 39.72506
# Shear Modulus (GPa) = 25.99258 31.05960 28.52609
#
# Velocity S-wave (km/s) = 3.52703 3.85552 3.69493
# Velocity P-wave (km/s) = 5.86731 6.32503 6.10046
#
# Compressibility (1/GPa) = 0.02682913
#
# Stress axis : x y z
#
# Youngs Moduli (GPa) = 40.70058 50.71937 99.53018
#
# Poissons Ratio (x) = 0.48622 -0.06122
# Poissons Ratio (y) = 0.39017 0.47582
# Poissons Ratio (z) = -0.02504 0.24247
#
# Static dielectric constant tensor:
#      x y z
#    x 1.807190 0.000000 0.033420 
#    y 0.000000 1.785190 0.000000 
#    z 0.033420 0.000000 1.832890 
# 
# From -- ./inp_files/15907.got.cif
#   From: 2010.05.17/outbox.cif.g08.bks.cpg/sg14_8_cif.got.tgz:15907.got - 2010.06.03 17:49:19.
