data_PCOD9251636
_publ_section_title
;
Structure prediction by ZEFSAII (Michael W. Deem and Ramdas Pophale) SiO2 
 PCOD9251636
Probable space group: P 21/C
;
_chemical_formula_sum "Si O2"
_cell_formula_units_Z 16
_cell_length_a 9.713173
_cell_length_b 12.282396
_cell_length_c 7.772976
_cell_angle_alpha 90.000000
_cell_angle_beta 140.857035
_cell_angle_gamma 90.000000
_cell_volume 585.380359
_symmetry_space_group_name_H-M "P 21/C"
_symmetry_group_IT_number 14
_symmetry_cell_setting 'monoclinic'
loop_
_space_group_symop_operation_xyz
x,y,z
-x,1/2+y,1/2-z
-x,-y,-z
x,1/2-y,1/2+z
loop_
_atom_site_type_symbol
_atom_site_label
_atom_site_fract_x
_atom_site_fract_y
_atom_site_fract_z
Si Si1 0.293003 0.395855 0.822352
Si Si2 0.752982 0.914501 0.102672
Si Si3 0.861255 0.362702 0.246697
Si Si4 0.566182 0.346563 0.417021
O O1 0.358047 0.380849 0.686299
O O2 0.258943 0.524657 0.823104
O O3 0.045289 0.350158 0.575070
O O4 0.449523 0.350559 0.118796
O O5 0.634798 0.854810 0.143524
O O6 0.002839 0.889838 0.296565
O O7 0.704244 0.042309 0.075097
O O8 0.725595 0.254052 0.096737
#
# Coordination Sequence:
#
# PCOD9251636 Si02
#       4
#     4   4   4   4
#     4   9  21  49  81 119 171 210 275 350 419 491
#     4   9  22  46  81 126 160 210 288 343 407 518
#     4   9  22  48  82 122 168 215 274 347 419 503
#     4  11  21  46  88 120 164 217 282 339 422 499
#
# _framework density 27.332657000000001
#
# number of rings (size 3 to 8) (size 9 to 14) (size 15 to 20)
#    1.500    1.000    0.000    0.750    0.000    1.000 
#   13.500    2.500   11.000    3.000    0.000    0.000 
#    0.000    0.000    0.000    0.000    0.000    0.000 
#
# Total GULP energy -89744.798267 kJ/mol
# GULP energy per Si atom -5609.049892 kJ/mol
# Density = 2.727045 g / cm^3
# Si number density = 27.332657 Si / 1000 Ang^3
#
#
#
# Elastic Constant Matrix: (Units=GPa)
#
#
# Indices 1 2 3 4 5 6 
#
# 1 203.1493 60.6391 32.5201 0.0000 5.6942 0.0000
# 2 60.6391 194.8436 85.8092 0.0000 -2.4818 0.0000
# 3 32.5201 85.8092 138.6183 0.0000 -29.2563 0.0000
# 4 0.0000 0.0000 0.0000 70.6727 0.0000 9.0222
# 5 5.6942 -2.4818 -29.2563 0.0000 46.1251 0.0000
# 6 0.0000 0.0000 0.0000 9.0222 0.0000 48.7443
#
#
#
# Elastic Compliance Matrix: (Units=1/GPa)
#
#
# Indices 1 2 3 4 5 6 
#
# 1 0.005488 -0.001440 -0.000641 0.000000 -0.001161 0.000000
# 2 -0.001440 0.007752 -0.005005 0.000000 -0.002580 0.000000
# 3 -0.000641 -0.005005 0.012034 0.000000 0.007443 0.000000
# 4 0.000000 0.000000 0.000000 0.014492 0.000000 -0.002682
# 5 -0.001161 -0.002580 0.007443 0.000000 0.026405 0.000000
# 6 0.000000 0.000000 0.000000 -0.002682 0.000000 0.021012
#
#
# Mechanical properties :
#
#
# Convention : Reuss Voigt Hill
#
# Bulk Modulus (GPa) = 90.08950 99.39421 94.74185
# Shear Modulus (GPa) = 47.59364 56.95127 52.27245
#
# Velocity S-wave (km/s) = 4.17738 4.56964 4.37791
# Velocity P-wave (km/s) = 7.50329 8.01784 7.76482
#
# Compressibility (1/GPa) = 0.01110007
#
# Stress axis : x y z
#
# Youngs Moduli (GPa) = 182.22951 128.99705 83.09993
#
# Poissons Ratio (x) = 0.18581 0.05326
# Poissons Ratio (y) = 0.26248 0.41595
# Poissons Ratio (z) = 0.11679 0.64568
#
# Static dielectric constant tensor:
#      x y z
#    x 2.133550 0.000000 0.077280 
#    y 0.000000 2.119330 0.000000 
#    z 0.077280 0.000000 2.177570 
# 
# From -- ./inp_files/23657.got.cif
#   From: 2010.05.17/outbox.cif.g08.bks.cpg/sg14_12_cif.got.tgz:23657.got - 2010.06.03 17:49:19.
