data_PCOD9251671
_publ_section_title
;
Structure prediction by ZEFSAII (Michael W. Deem and Ramdas Pophale) SiO2 
 PCOD9251671
Probable space group: P 21/C
;
_chemical_formula_sum "Si O2"
_cell_formula_units_Z 24
_cell_length_a 11.561374
_cell_length_b 9.347061
_cell_length_c 20.770202
_cell_angle_alpha 90.000000
_cell_angle_beta 147.431232
_cell_angle_gamma 90.000000
_cell_volume 1208.255809
_symmetry_space_group_name_H-M "P 21/C"
_symmetry_group_IT_number 14
_symmetry_cell_setting 'monoclinic'
loop_
_space_group_symop_operation_xyz
x,y,z
-x,1/2+y,1/2-z
-x,-y,-z
x,1/2-y,1/2+z
loop_
_atom_site_type_symbol
_atom_site_label
_atom_site_fract_x
_atom_site_fract_y
_atom_site_fract_z
Si Si1 0.183731 0.725878 0.481378
Si Si2 0.339614 0.027550 0.129495
Si Si3 0.107047 0.243558 0.933902
Si Si4 0.605355 0.002185 0.479633
Si Si5 0.188033 0.600061 0.112866
Si Si6 0.824077 0.984694 0.804237
O O1 0.315615 0.580418 0.557795
O O2 0.263659 0.850249 0.471643
O O3 0.208279 0.792173 0.563634
O O4 0.944972 0.667719 0.354163
O O5 0.584854 0.031170 0.266079
O O6 0.207313 0.993312 0.133191
O O7 0.253484 0.178492 0.060660
O O8 0.904661 0.327840 0.867444
O O9 0.985273 0.103179 0.849240
O O10 0.249256 0.360043 0.962959
O O11 0.500000 0.000000 0.500000
O O12 0.407826 0.005654 0.336522
O O13 0.000000 0.500000 0.000000
#
# Coordination Sequence:
#
# PCOD9251671 Si02
#       6
#     4   4   4   4   4   4
#     4  11  23  39  65  97 128 161 204 260 324 375
#     4  11  22  37  65 102 130 154 194 267 336 375
#     4  11  22  41  62  95 124 162 205 261 320 374
#     4  12  28  44  62  88 127 179 221 254 300 373
#     4  12  21  31  62  99 126 152 197 248 324 376
#     4  11  22  42  66  94 133 158 204 268 324 377
#
# _framework density 19.863343
#
# number of rings (size 3 to 8) (size 9 to 14) (size 15 to 20)
#    0.000    0.667    6.667    2.000    4.667    1.333 
#    0.000    3.333    0.000    0.000    0.000    0.000 
#    0.000    0.000    0.000    0.000    0.000    0.000 
#
# Total GULP energy -133732.287727 kJ/mol
# GULP energy per Si atom -5572.178655 kJ/mol
# Density = 1.981813 g / cm^3
# Si number density = 19.863343 Si / 1000 Ang^3
#
#
#
# Elastic Constant Matrix: (Units=GPa)
#
#
# Indices 1 2 3 4 5 6 
#
# 1 103.2885 43.2157 -5.2801 0.0000 15.0409 0.0000
# 2 43.2157 99.7367 14.9995 0.0000 20.1602 0.0000
# 3 -5.2801 14.9995 66.4832 0.0000 27.8839 0.0000
# 4 0.0000 0.0000 0.0000 26.6518 0.0000 12.8370
# 5 15.0409 20.1602 27.8839 0.0000 22.6185 0.0000
# 6 0.0000 0.0000 0.0000 12.8370 0.0000 18.8644
#
#
#
# Elastic Compliance Matrix: (Units=1/GPa)
#
#
# Indices 1 2 3 4 5 6 
#
# 1 0.014454 -0.004130 0.009457 0.000000 -0.017589 0.000000
# 2 -0.004130 0.013879 0.001195 0.000000 -0.011098 0.000000
# 3 0.009457 0.001195 0.038528 0.000000 -0.054851 0.000000
# 4 0.000000 0.000000 0.000000 0.055815 0.000000 -0.037981
# 5 -0.017589 -0.011098 -0.054851 0.000000 0.133419 0.000000
# 6 0.000000 0.000000 0.000000 -0.037981 0.000000 0.078856
#
#
# Mechanical properties :
#
#
# Convention : Reuss Voigt Hill
#
# Bulk Modulus (GPa) = 12.51472 41.70874 27.11173
# Shear Modulus (GPa) = 14.34547 28.06518 21.20532
#
# Velocity S-wave (km/s) = 2.69031 3.76295 3.27090
# Velocity P-wave (km/s) = 3.99555 6.31848 5.28619
#
# Compressibility (1/GPa) = 0.07990593
#
# Stress axis : x y z
#
# Youngs Moduli (GPa) = 69.18363 72.04894 25.95529
#
# Poissons Ratio (x) = 0.29755 -0.24545
# Poissons Ratio (y) = 0.28572 -0.03103
# Poissons Ratio (z) = -0.65425 -0.08613
#
# Static dielectric constant tensor:
#      x y z
#    x 1.581980 0.000000 0.080230 
#    y 0.000000 -7.551150 0.000000 
#    z 0.080230 0.000000 1.663570 
# 
# From -- ./inp_files/28047.got.cif
#   From: 2010.05.17/outbox.cif.g08.bks.cpg/sg14_15_cif.got.tgz:28047.got - 2010.06.03 17:49:19.
