data_PCOD9251508
_publ_section_title
;
Structure prediction by ZEFSAII (Michael W. Deem and Ramdas Pophale) SiO2 
 PCOD9251508
Probable space group: P 21/C
;
_chemical_formula_sum "Si O2"
_cell_formula_units_Z 20
_cell_length_a 11.761254
_cell_length_b 10.948688
_cell_length_c 9.386891
_cell_angle_alpha 90.000000
_cell_angle_beta 45.114348
_cell_angle_gamma 90.000000
_cell_volume 856.421382
_symmetry_space_group_name_H-M "P 21/C"
_symmetry_group_IT_number 14
_symmetry_cell_setting 'monoclinic'
loop_
_space_group_symop_operation_xyz
x,y,z
-x,1/2+y,1/2-z
-x,-y,-z
x,1/2-y,1/2+z
loop_
_atom_site_type_symbol
_atom_site_label
_atom_site_fract_x
_atom_site_fract_y
_atom_site_fract_z
Si Si1 0.893594 0.259838 0.455011
Si Si2 0.588000 0.125181 0.369370
Si Si3 0.887149 0.823331 0.485977
Si Si4 0.570694 0.780834 0.217835
Si Si5 0.673181 0.034959 0.576034
O O1 0.765229 0.336659 0.658370
O O2 0.984645 0.335245 0.253380
O O3 0.023833 0.203553 0.447241
O O4 0.794717 0.151006 0.468439
O O5 0.489512 0.161286 0.312528
O O6 0.505295 0.216621 0.557295
O O7 0.630853 0.012665 0.443502
O O8 0.761330 0.715606 0.558808
O O9 0.769120 0.938899 0.585123
O O10 0.490966 0.902693 0.221645
#
# Coordination Sequence:
#
# PCOD9251508 Si02
#       5
#     4   4   4   4   4
#     4  11  21  40  61  92 120 152 196 248 290 349
#     4   9  18  41  58  79 125 154 184 241 298 344
#     4  12  22  39  64  89 119 151 204 246 285 352
#     4   9  20  38  57  86 119 155 194 242 286 348
#     4   9  22  40  62  84 121 160 192 232 314 342
#
# _framework density 23.352988
#
# number of rings (size 3 to 8) (size 9 to 14) (size 15 to 20)
#    1.200    0.800    2.000    1.800    0.000    1.600 
#    0.000   13.000    0.000    0.000    0.000    0.000 
#    0.000    0.000    0.000    0.000    0.000    0.000 
#
# Total GULP energy -111339.285009 kJ/mol
# GULP energy per Si atom -5566.964250 kJ/mol
# Density = 2.329984 g / cm^3
# Si number density = 23.352988 Si / 1000 Ang^3
#
#
#
# Elastic Constant Matrix: (Units=GPa)
#
#
# Indices 1 2 3 4 5 6 
#
# 1 185.0171 38.9990 8.4308 0.0000 -29.9025 0.0000
# 2 38.9990 55.9792 9.3995 0.0000 -9.3399 0.0000
# 3 8.4308 9.3995 87.9187 0.0000 -4.4775 0.0000
# 4 0.0000 0.0000 0.0000 41.1916 0.0000 -47.6818
# 5 -29.9025 -9.3399 -4.4775 0.0000 40.0548 0.0000
# 6 0.0000 0.0000 0.0000 -47.6818 0.0000 311.9067
#
#
#
# Elastic Compliance Matrix: (Units=1/GPa)
#
#
# Indices 1 2 3 4 5 6 
#
# 1 0.006962 -0.004143 -0.000009 0.000000 0.004231 0.000000
# 2 -0.004143 0.021332 -0.001798 0.000000 0.001680 0.000000
# 3 -0.000009 -0.001798 0.011612 0.000000 0.000872 0.000000
# 4 0.000000 0.000000 0.000000 0.029496 0.000000 0.004509
# 5 0.004231 0.001680 0.000872 0.000000 0.028613 0.000000
# 6 0.000000 0.000000 0.000000 0.004509 0.000000 0.003895
#
#
# Mechanical properties :
#
#
# Convention : Reuss Voigt Hill
#
# Bulk Modulus (GPa) = 35.70650 49.17486 42.44068
# Shear Modulus (GPa) = 40.60181 96.76966 68.68573
#
# Velocity S-wave (km/s) = 4.17419 6.44420 5.42916
# Velocity P-wave (km/s) = 6.20926 8.74490 7.58381
#
# Compressibility (1/GPa) = 0.02800611
#
# Stress axis : x y z
#
# Youngs Moduli (GPa) = 143.62911 46.87716 86.12051
#
# Poissons Ratio (x) = 0.19422 0.00080
# Poissons Ratio (y) = 0.59507 0.15483
# Poissons Ratio (z) = 0.00133 0.08428
#
# Static dielectric constant tensor:
#      x y z
#    x 2.168800 0.000000 -0.185590 
#    y 0.000000 2.074470 0.000000 
#    z -0.185590 0.000000 1.911460 
# 
# From -- ./inp_files/7916.got.cif
#   From: 2010.05.17/outbox.cif.g08.bks.cpg/sg14_4_cif.got.tgz:7916.got - 2010.06.03 17:49:19.
