data_PCOD9251724
_publ_section_title
;
Structure prediction by ZEFSAII (Michael W. Deem and Ramdas Pophale) SiO2 
 PCOD9251724
Probable space group: P 21/C
;
_chemical_formula_sum "Si O2"
_cell_formula_units_Z 16
_cell_length_a 8.306745
_cell_length_b 4.587970
_cell_length_c 26.489552
_cell_angle_alpha 90.000000
_cell_angle_beta 145.459616
_cell_angle_gamma 90.000000
_cell_volume 572.399359
_symmetry_space_group_name_H-M "P 21/C"
_symmetry_group_IT_number 14
_symmetry_cell_setting 'monoclinic'
loop_
_space_group_symop_operation_xyz
x,y,z
-x,1/2+y,1/2-z
-x,-y,-z
x,1/2-y,1/2+z
loop_
_atom_site_type_symbol
_atom_site_label
_atom_site_fract_x
_atom_site_fract_y
_atom_site_fract_z
Si Si1 0.209012 0.831841 0.935303
Si Si2 0.290988 0.668158 0.564697
Si Si3 0.333544 0.738021 0.685291
Si Si4 0.833545 0.261978 0.685292
O O1 0.167650 0.657255 0.872946
O O2 0.250001 0.675136 0.000000
O O3 0.952950 0.063045 0.875823
O O4 0.500000 0.000000 0.000000
O O5 0.332350 0.842745 0.627054
O O6 0.547050 0.436954 0.624177
O O7 0.000000 0.500000 0.500000
O O8 0.585692 0.504918 0.758453
O O9 0.914308 0.995081 0.741546
#
# Coordination Sequence:
#
# PCOD9251724 Si02
#       4
#     4   4   4   4
#     4   9  20  40  60  87 120 154 192 239 292 344
#     4   9  20  40  60  87 120 154 192 239 292 344
#     4  11  22  40  62  87 116 154 196 239 286 344
#     4  11  22  40  62  87 116 154 196 239 286 344
#
# _framework density 27.952514000000001
#
# number of rings (size 3 to 8) (size 9 to 14) (size 15 to 20)
#    0.000    2.000    0.000    3.000    0.000    0.000 
#    0.000   50.000    0.000    0.000    0.000    0.000 
#    0.000    0.000    0.000    0.000    0.000    0.000 
#
# Total GULP energy -89767.326508 kJ/mol
# GULP energy per Si atom -5610.457907 kJ/mol
# Density = 2.788889 g / cm^3
# Si number density = 27.952514 Si / 1000 Ang^3
#
#
#
# Elastic Constant Matrix: (Units=GPa)
#
#
# Indices 1 2 3 4 5 6 
#
# 1 156.1521 10.6325 93.1096 0.0000 0.1502 0.0000
# 2 10.6325 76.3604 38.1758 0.0000 13.3987 0.0000
# 3 93.1096 38.1758 145.3801 0.0000 -12.4915 0.0000
# 4 0.0000 0.0000 0.0000 5.0250 0.0000 31.3890
# 5 0.1502 13.3987 -12.4915 0.0000 102.4192 0.0000
# 6 0.0000 0.0000 0.0000 31.3890 0.0000 34.7928
#
#
#
# Elastic Compliance Matrix: (Units=1/GPa)
#
#
# Indices 1 2 3 4 5 6 
#
# 1 0.010840 0.002584 -0.007733 0.000000 -0.001297 0.000000
# 2 0.002584 0.016342 -0.006195 0.000000 -0.002897 0.000000
# 3 -0.007733 -0.006195 0.013672 0.000000 0.002489 0.000000
# 4 0.000000 0.000000 0.000000 -0.042931 0.000000 0.038731
# 5 -0.001297 -0.002897 0.002489 0.000000 0.010448 0.000000
# 6 0.000000 0.000000 0.000000 0.038731 0.000000 -0.006200
#
#
# Mechanical properties :
#
#
# Convention : Reuss Voigt Hill
#
# Bulk Modulus (GPa) = 55.04806 73.52537 64.28671
# Shear Modulus (GPa) = 161.74642 44.17905 102.96274
#
# Velocity S-wave (km/s) = 7.61514 3.97987 6.07576
# Velocity P-wave (km/s) = 9.85173 6.89057 8.50107
#
# Compressibility (1/GPa) = 0.01816595
#
# Stress axis : x y z
#
# Youngs Moduli (GPa) = 92.25038 61.19372 73.14444
#
# Poissons Ratio (x) = -0.15813 0.56560
# Poissons Ratio (y) = -0.23838 0.45314
# Poissons Ratio (z) = 0.71333 0.37910
#
# Static dielectric constant tensor:
#      x y z
#    x 2.085920 0.000000 -0.013300 
#    y 0.000000 2.087870 0.000000 
#    z -0.013300 0.000000 2.189050 
# 
# From -- ./inp_files/882.got.cif
#   From: 2010.05.17/outbox.cif.g08.bks.cpg/sg14_1_cif.got.tgz:882.got - 2010.06.03 17:49:19.
