data_PCOD9251832
_publ_section_title
;
Structure prediction by ZEFSAII (Michael W. Deem and Ramdas Pophale) SiO2 
 PCOD9251832
Probable space group: P 21/C
;
_chemical_formula_sum "Si O2"
_cell_formula_units_Z 24
_cell_length_a 18.296647
_cell_length_b 9.797723
_cell_length_c 18.471755
_cell_angle_alpha 90.000000
_cell_angle_beta 16.023516
_cell_angle_gamma 90.000000
_cell_volume 914.037566
_symmetry_space_group_name_H-M "P 21/C"
_symmetry_group_IT_number 14
_symmetry_cell_setting 'monoclinic'
loop_
_space_group_symop_operation_xyz
x,y,z
-x,1/2+y,1/2-z
-x,-y,-z
x,1/2-y,1/2+z
loop_
_atom_site_type_symbol
_atom_site_label
_atom_site_fract_x
_atom_site_fract_y
_atom_site_fract_z
Si Si1 0.432546 0.107133 0.126491
Si Si2 0.704467 0.065188 0.359180
Si Si3 0.166736 0.283500 0.257049
Si Si4 0.970958 0.301558 0.147911
Si Si5 0.372899 0.081433 0.822762
Si Si6 0.633826 0.235722 0.194020
O O1 0.310015 0.227580 0.192198
O O2 0.188375 0.093270 0.413724
O O3 0.695515 0.122709 0.925621
O O4 0.500000 0.000000 0.000000
O O5 0.913437 0.943276 0.164078
O O6 0.500000 0.000000 0.500000
O O7 0.849298 0.203362 0.200472
O O8 0.545246 0.090777 0.584819
O O9 0.898629 0.217551 0.483403
O O10 0.392368 0.274768 0.980549
O O11 0.119793 0.186024 0.054619
O O12 0.548672 0.152921 0.716532
O O13 0.327038 0.918455 0.876494
#
# Coordination Sequence:
#
# PCOD9251832 Si02
#       6
#     4   4   4   4   4   4
#     4  12  27  43  68 104 144 179 229 294 373 426
#     4  11  22  43  77 108 135 178 246 311 360 432
#     4  11  24  43  68  98 135 179 235 286 353 426
#     4  12  23  44  72 101 137 183 233 298 358 429
#     4  11  26  45  70 105 142 190 245 296 367 435
#     4  11  27  43  69  97 139 187 237 289 351 439
#
# _framework density 26.257127000000001
#
# number of rings (size 3 to 8) (size 9 to 14) (size 15 to 20)
#    0.000    0.667    5.000    1.500    4.667    4.000 
#    0.000    0.000    0.000    0.000    0.000    0.000 
#    0.000    0.000    0.000    0.000    0.000    0.000 
#
# Total GULP energy -134084.194952 kJ/mol
# GULP energy per Si atom -5586.841456 kJ/mol
# Density = 2.619736 g / cm^3
# Si number density = 26.257127 Si / 1000 Ang^3
#
#
#
# Elastic Constant Matrix: (Units=GPa)
#
#
# Indices 1 2 3 4 5 6 
#
# 1 92.4221 12.0947 36.9118 0.0000 -17.8051 0.0000
# 2 12.0947 96.1307 30.7673 0.0000 -2.3798 0.0000
# 3 36.9118 30.7673 172.0724 0.0000 -35.9853 0.0000
# 4 0.0000 0.0000 0.0000 16.7460 0.0000 -4.3234
# 5 -17.8051 -2.3798 -35.9853 0.0000 42.9866 0.0000
# 6 0.0000 0.0000 0.0000 -4.3234 0.0000 35.3672
#
#
#
# Elastic Compliance Matrix: (Units=1/GPa)
#
#
# Indices 1 2 3 4 5 6 
#
# 1 0.012324 -0.000909 -0.001726 0.000000 0.003609 0.000000
# 2 -0.000909 0.011158 -0.002121 0.000000 -0.001534 0.000000
# 3 -0.001726 -0.002121 0.007742 0.000000 0.005649 0.000000
# 4 0.000000 0.000000 0.000000 0.061662 0.000000 0.007538
# 5 0.003609 -0.001534 0.005649 0.000000 0.029402 0.000000
# 6 0.000000 0.000000 0.000000 0.007538 0.000000 0.029196
#
#
# Mechanical properties :
#
#
# Convention : Reuss Voigt Hill
#
# Bulk Modulus (GPa) = 46.05797 57.79694 51.92746
# Shear Modulus (GPa) = 29.72076 37.74340 33.73208
#
# Velocity S-wave (km/s) = 3.36804 3.79549 3.58814
# Velocity P-wave (km/s) = 5.71875 6.42397 6.08159
#
# Compressibility (1/GPa) = 0.02171177
#
# Stress axis : x y z
#
# Youngs Moduli (GPa) = 81.14530 89.62440 129.15845
#
# Poissons Ratio (x) = 0.08143 0.22298
# Poissons Ratio (y) = 0.07373 0.27394
# Poissons Ratio (z) = 0.14009 0.19009
#
# Static dielectric constant tensor:
#      x y z
#    x 2.080400 0.000000 0.031180 
#    y 0.000000 2.228200 0.000000 
#    z 0.031180 0.000000 2.198030 
# 
# From -- ./inp_files/74952.got.cif
#   From: 2010.05.17/outbox.cif.g08.bks.cpg/sg14_38_cif.got.tgz:74952.got - 2010.06.03 17:49:19.
