data_PCOD9251192
_publ_section_title
;
Structure prediction by ZEFSAII (Michael W. Deem and Ramdas Pophale) SiO2 
 PCOD9251192
Probable space group: P 21/C
;
_chemical_formula_sum "Si O2"
_cell_formula_units_Z 18
_cell_length_a 11.609754
_cell_length_b 9.055205
_cell_length_c 7.717792
_cell_angle_alpha 90.000000
_cell_angle_beta 128.597033
_cell_angle_gamma 90.000000
_cell_volume 634.121802
_symmetry_space_group_name_H-M "P 21/C"
_symmetry_group_IT_number 14
_symmetry_cell_setting 'monoclinic'
loop_
_space_group_symop_operation_xyz
x,y,z
-x,1/2+y,1/2-z
-x,-y,-z
x,1/2-y,1/2+z
loop_
_atom_site_type_symbol
_atom_site_label
_atom_site_fract_x
_atom_site_fract_y
_atom_site_fract_z
Si Si1 0.740748 0.696028 0.691012
Si Si2 0.000000 0.500000 0.000000
Si Si3 0.589512 0.947333 0.356286
Si Si4 0.752185 0.048081 0.934933
Si Si5 0.823238 0.162740 0.643849
O O1 0.689493 0.856503 0.587238
O O2 0.614368 0.619850 0.689016
O O3 0.756541 0.611955 0.521525
O O4 0.888121 0.644497 0.923375
O O5 0.928874 0.416124 0.107560
O O6 0.421627 0.928178 0.251616
O O7 0.658635 0.110715 0.427250
O O8 0.840911 0.100933 0.852437
O O9 0.819942 0.157991 0.146386
#
# Coordination Sequence:
#
# PCOD9251192 Si02
#       5
#     4   2   4   4   4
#     4  11  24  42  68  97 142 183 225 280 330 406
#     4  10  26  46  62  94 130 180 226 262 334 400
#     4  11  22  41  67 103 137 177 227 283 343 394
#     4  12  23  42  69 102 133 178 228 285 344 394
#     4  11  24  41  67  96 137 178 224 281 334 407
#
# _framework density 28.385712999999999
#
# number of rings (size 3 to 8) (size 9 to 14) (size 15 to 20)
#    0.000    0.889    0.000    8.000    0.000    8.000 
#    0.000    0.000    0.000    0.000    0.000    0.000 
#    0.000    0.000    0.000    0.000    0.000    0.000 
#
# Total GULP energy -100518.668060 kJ/mol
# GULP energy per Si atom -5584.370448 kJ/mol
# Density = 2.832111 g / cm^3
# Si number density = 28.385713 Si / 1000 Ang^3
#
#
#
# Elastic Constant Matrix: (Units=GPa)
#
#
# Indices 1 2 3 4 5 6 
#
# 1 197.6337 15.1278 19.7877 0.0000 -21.5239 0.0000
# 2 15.1278 102.4766 -12.6518 0.0000 18.4502 0.0000
# 3 19.7877 -12.6518 63.4344 0.0000 6.3385 0.0000
# 4 0.0000 0.0000 0.0000 40.2574 0.0000 -8.6001
# 5 -21.5239 18.4502 6.3385 0.0000 60.0670 0.0000
# 6 0.0000 0.0000 0.0000 -8.6001 0.0000 32.0818
#
#
#
# Elastic Compliance Matrix: (Units=1/GPa)
#
#
# Indices 1 2 3 4 5 6 
#
# 1 0.005733 -0.001649 -0.002398 0.000000 0.002814 0.000000
# 2 -0.001649 0.011179 0.003180 0.000000 -0.004360 0.000000
# 3 -0.002398 0.003180 0.017515 0.000000 -0.003684 0.000000
# 4 0.000000 0.000000 0.000000 0.026349 0.000000 0.007063
# 5 0.002814 -0.004360 -0.003684 0.000000 0.019384 0.000000
# 6 0.000000 0.000000 0.000000 0.007063 0.000000 0.033064
#
#
# Mechanical properties :
#
#
# Convention : Reuss Voigt Hill
#
# Bulk Modulus (GPa) = 30.58869 45.34135 37.96502
# Shear Modulus (GPa) = 39.72786 49.23332 44.48059
#
# Velocity S-wave (km/s) = 3.74514 4.16918 3.96284
# Velocity P-wave (km/s) = 5.43148 6.25972 5.86025
#
# Compressibility (1/GPa) = 0.03269182
#
# Stress axis : x y z
#
# Youngs Moduli (GPa) = 174.43941 89.45053 57.09469
#
# Poissons Ratio (x) = 0.14750 0.13693
# Poissons Ratio (y) = 0.28764 -0.18155
# Poissons Ratio (z) = 0.41835 -0.28443
#
# Static dielectric constant tensor:
#      x y z
#    x 2.114860 0.000000 -0.072100 
#    y 0.000000 1.971910 0.000000 
#    z -0.072100 0.000000 1.933170 
# 
# From -- ./inp_files/11571.got.cif
#   From: 2010.05.17/outbox.cif.g08.bks.cpg/sg14_6_cif.got.tgz:11571.got - 2010.06.03 17:49:19.
