data_PCOD9251934
_publ_section_title
;
Structure prediction by ZEFSAII (Michael W. Deem and Ramdas Pophale) SiO2 
 PCOD9251934
Probable space group: P 21/C
;
_chemical_formula_sum "Si O2"
_cell_formula_units_Z 20
_cell_length_a 17.134345
_cell_length_b 7.975287
_cell_length_c 18.834827
_cell_angle_alpha 90.000000
_cell_angle_beta 158.881135
_cell_angle_gamma 90.000000
_cell_volume 927.351780
_symmetry_space_group_name_H-M "P 21/C"
_symmetry_group_IT_number 14
_symmetry_cell_setting 'monoclinic'
loop_
_space_group_symop_operation_xyz
x,y,z
-x,1/2+y,1/2-z
-x,-y,-z
x,1/2-y,1/2+z
loop_
_atom_site_type_symbol
_atom_site_label
_atom_site_fract_x
_atom_site_fract_y
_atom_site_fract_z
Si Si1 0.463478 0.241589 0.123694
Si Si2 0.637815 0.263951 0.626890
Si Si3 0.223715 0.085470 0.307932
Si Si4 0.148906 0.548405 0.315051
Si Si5 0.172142 0.724554 0.965326
O O1 0.638752 0.194206 0.210936
O O2 0.587726 0.252740 0.302120
O O3 0.349562 0.404340 0.991347
O O4 0.284259 0.096924 0.969764
O O5 0.386476 0.206322 0.401453
O O6 0.725326 0.405513 0.649819
O O7 0.772290 0.095916 0.722996
O O8 0.991266 0.162837 0.125467
O O9 0.144997 0.707755 0.362673
O O10 0.917517 0.464046 0.104054
#
# Coordination Sequence:
#
# PCOD9251934 Si02
#       5
#     4   4   4   4   4
#     4   9  21  38  59  84 111 150 192 230 279 341
#     4   9  18  41  61  82 120 148 182 240 283 332
#     4   8  19  39  60  85 114 148 184 232 283 334
#     4  11  23  38  56  85 116 150 187 240 284 331
#     4  11  23  38  59  84 116 151 193 232 285 340
#
# _framework density 21.566787999999999
#
# number of rings (size 3 to 8) (size 9 to 14) (size 15 to 20)
#    1.200    1.200    0.000    1.800    0.000    6.400 
#    0.000    0.000    0.000    0.000    0.000    0.000 
#    0.000    0.000    0.000    0.000    0.000    0.000 
#
# Total GULP energy -111454.945503 kJ/mol
# GULP energy per Si atom -5572.747275 kJ/mol
# Density = 2.151770 g / cm^3
# Si number density = 21.566788 Si / 1000 Ang^3
#
#
#
# Elastic Constant Matrix: (Units=GPa)
#
#
# Indices 1 2 3 4 5 6 
#
# 1 54.7326 2.1378 -10.0234 0.0000 7.1467 0.0000
# 2 2.1378 48.3785 1.8961 0.0000 -4.3627 0.0000
# 3 -10.0234 1.8961 57.5958 0.0000 -5.2570 0.0000
# 4 0.0000 0.0000 0.0000 14.6307 0.0000 7.5822
# 5 7.1467 -4.3627 -5.2570 0.0000 17.1368 0.0000
# 6 0.0000 0.0000 0.0000 7.5822 0.0000 44.2758
#
#
#
# Elastic Compliance Matrix: (Units=1/GPa)
#
#
# Indices 1 2 3 4 5 6 
#
# 1 0.019876 -0.001697 0.002797 0.000000 -0.007863 0.000000
# 2 -0.001697 0.021303 -0.000450 0.000000 0.005993 0.000000
# 3 0.002797 -0.000450 0.018258 0.000000 0.004320 0.000000
# 4 0.000000 0.000000 0.000000 0.075006 0.000000 -0.012845
# 5 -0.007863 0.005993 0.004320 0.000000 0.064484 0.000000
# 6 0.000000 0.000000 0.000000 -0.012845 0.000000 0.024785
#
#
# Mechanical properties :
#
#
# Convention : Reuss Voigt Hill
#
# Bulk Modulus (GPa) = 16.46398 16.52534 16.49466
# Shear Modulus (GPa) = 20.60507 26.32174 23.46340
#
# Velocity S-wave (km/s) = 3.09432 3.49732 3.30197
# Velocity P-wave (km/s) = 4.51851 4.89769 4.71192
#
# Compressibility (1/GPa) = 0.06073866
#
# Stress axis : x y z
#
# Youngs Moduli (GPa) = 50.31214 46.94083 54.76966
#
# Poissons Ratio (x) = 0.07966 -0.15320
# Poissons Ratio (y) = 0.08538 0.02463
# Poissons Ratio (z) = -0.14073 0.02111
#
# Static dielectric constant tensor:
#      x y z
#    x 1.819080 0.000000 0.008150 
#    y 0.000000 1.810010 0.000000 
#    z 0.008150 0.000000 1.772800 
# 
# From -- ./inp_files/52679.got.cif
#   From: 2010.05.17/outbox.cif.g08.bks.cpg/sg14_27_cif.got.tgz:52679.got - 2010.06.03 17:49:19.
