data_PCOD9251073
_publ_section_title
;
Structure prediction by ZEFSAII (Michael W. Deem and Ramdas Pophale) SiO2 
 PCOD9251073
Probable space group: P 21/C
;
_chemical_formula_sum "Si O2"
_cell_formula_units_Z 16
_cell_length_a 14.659210
_cell_length_b 4.865873
_cell_length_c 8.124243
_cell_angle_alpha 90.000000
_cell_angle_beta 104.389441
_cell_angle_gamma 90.000000
_cell_volume 561.321526
_symmetry_space_group_name_H-M "P 21/C"
_symmetry_group_IT_number 14
_symmetry_cell_setting 'monoclinic'
loop_
_space_group_symop_operation_xyz
x,y,z
-x,1/2+y,1/2-z
-x,-y,-z
x,1/2-y,1/2+z
loop_
_atom_site_type_symbol
_atom_site_label
_atom_site_fract_x
_atom_site_fract_y
_atom_site_fract_z
Si Si1 0.434648 0.429746 0.190484
Si Si2 0.190351 0.835333 0.562764
Si Si3 0.309292 0.048880 0.333490
Si Si4 0.934647 0.539008 0.708270
O O1 0.500250 0.660885 0.296010
O O2 0.347846 0.324051 0.265559
O O3 0.394180 0.520541 0.996441
O O4 0.276739 0.653672 0.674028
O O5 0.141683 0.015383 0.680923
O O6 0.115215 0.607653 0.468079
O O7 0.223296 0.020546 0.423859
O O8 0.979432 0.835345 0.704498
#
# Coordination Sequence:
#
# PCOD9251073 Si02
#       4
#     4   4   4   4
#     4  12  27  50  79 112 150 200 254 314 377 450
#     4  10  25  46  75 110 152 198 248 310 377 444
#     4  11  26  48  75 112 152 196 252 311 376 448
#     4  11  24  46  73 108 148 196 248 305 370 446
#
# _framework density 28.504161
#
# number of rings (size 3 to 8) (size 9 to 14) (size 15 to 20)
#    0.000    1.000    0.000    4.500    0.000   16.000 
#    0.000    0.000    0.000    0.000    0.000    0.000 
#    0.000    0.000    0.000    0.000    0.000    0.000 
#
# Total GULP energy -89890.329796 kJ/mol
# GULP energy per Si atom -5618.145612 kJ/mol
# Density = 2.843928 g / cm^3
# Si number density = 28.504161 Si / 1000 Ang^3
#
#
#
# Elastic Constant Matrix: (Units=GPa)
#
#
# Indices 1 2 3 4 5 6 
#
# 1 160.9030 69.2045 35.4427 0.0000 13.1428 0.0000
# 2 69.2045 142.9675 36.0858 0.0000 5.6397 0.0000
# 3 35.4427 36.0858 139.1544 0.0000 19.4930 0.0000
# 4 0.0000 0.0000 0.0000 57.0629 0.0000 1.4449
# 5 13.1428 5.6397 19.4930 0.0000 60.4595 0.0000
# 6 0.0000 0.0000 0.0000 1.4449 0.0000 55.9803
#
#
#
# Elastic Compliance Matrix: (Units=1/GPa)
#
#
# Indices 1 2 3 4 5 6 
#
# 1 0.008075 -0.003622 -0.000962 0.000000 -0.001107 0.000000
# 2 -0.003622 0.009110 -0.001499 0.000000 0.000421 0.000000
# 3 -0.000962 -0.001499 0.008139 0.000000 -0.002275 0.000000
# 4 0.000000 0.000000 0.000000 0.017536 0.000000 -0.000453
# 5 -0.001107 0.000421 -0.002275 0.000000 0.017475 0.000000
# 6 0.000000 0.000000 0.000000 -0.000453 0.000000 0.017875
#
#
# Mechanical properties :
#
#
# Convention : Reuss Voigt Hill
#
# Bulk Modulus (GPa) = 76.00517 80.49897 78.25207
# Shear Modulus (GPa) = 52.76371 54.85334 53.80852
#
# Velocity S-wave (km/s) = 4.30709 4.39155 4.34953
# Velocity P-wave (km/s) = 7.17337 7.34961 7.26202
#
# Compressibility (1/GPa) = 0.01315700
#
# Stress axis : x y z
#
# Youngs Moduli (GPa) = 123.83420 109.77320 122.86968
#
# Poissons Ratio (x) = 0.39764 0.11824
# Poissons Ratio (y) = 0.44857 0.18414
# Poissons Ratio (z) = 0.11917 0.16452
#
# Static dielectric constant tensor:
#      x y z
#    x 2.313500 0.000000 0.030140 
#    y 0.000000 2.120180 0.000000 
#    z 0.030140 0.000000 2.160960 
# 
# From -- ./inp_files/14741.got.cif
#   From: 2010.05.17/outbox.cif.g08.bks.cpg/sg14_8_cif.got.tgz:14741.got - 2010.06.03 17:49:19.
