data_PCOD9251987
_publ_section_title
;
Structure prediction by ZEFSAII (Michael W. Deem and Ramdas Pophale) SiO2 
 PCOD9251987
Probable space group: P 21/C
;
_chemical_formula_sum "Si O2"
_cell_formula_units_Z 20
_cell_length_a 19.069286
_cell_length_b 7.207859
_cell_length_c 9.118664
_cell_angle_alpha 90.000000
_cell_angle_beta 142.680140
_cell_angle_gamma 90.000000
_cell_volume 759.860336
_symmetry_space_group_name_H-M "P 21/C"
_symmetry_group_IT_number 14
_symmetry_cell_setting 'monoclinic'
loop_
_space_group_symop_operation_xyz
x,y,z
-x,1/2+y,1/2-z
-x,-y,-z
x,1/2-y,1/2+z
loop_
_atom_site_type_symbol
_atom_site_label
_atom_site_fract_x
_atom_site_fract_y
_atom_site_fract_z
Si Si1 0.097757 0.087719 0.524510
Si Si2 0.651229 0.448778 0.842005
Si Si3 0.239924 0.167383 0.041862
Si Si4 0.409509 0.885259 0.446551
Si Si5 0.085755 0.858947 0.229836
O O1 0.194001 0.103004 0.808717
O O2 0.140598 0.240313 0.474847
O O3 0.975532 0.160921 0.381392
O O4 0.091816 0.909252 0.412772
O O5 0.669013 0.664501 0.833681
O O6 0.572103 0.407147 0.850513
O O7 0.782080 0.379420 0.099655
O O8 0.606412 0.324289 0.633925
O O9 0.292150 0.996018 0.214393
O O10 0.500000 0.000000 0.500000
O O11 0.000000 0.000000 0.000000
#
# Coordination Sequence:
#
# PCOD9251987 Si02
#       5
#     4   4   4   4   4
#     4  11  23  40  69 103 143 197 226 296 350 442
#     4  11  28  47  73 110 144 186 245 300 358 438
#     4  11  24  48  70 104 152 181 245 294 362 432
#     4  12  30  49  78 104 138 193 248 308 372 418
#     4  11  23  41  68 105 148 184 239 280 361 434
#
# _framework density 26.320627000000002
#
# number of rings (size 3 to 8) (size 9 to 14) (size 15 to 20)
#    0.000    0.800    6.000    0.000   14.000    1.600 
#    0.000    0.000    0.000    0.000    0.000    0.000 
#    0.000    0.000    0.000    0.000    0.000    0.000 
#
# Total GULP energy -112225.512970 kJ/mol
# GULP energy per Si atom -5611.275649 kJ/mol
# Density = 2.626072 g / cm^3
# Si number density = 26.320627 Si / 1000 Ang^3
#
#
#
# Elastic Constant Matrix: (Units=GPa)
#
#
# Indices 1 2 3 4 5 6 
#
# 1 107.1031 8.7653 12.8665 0.0000 -9.7596 0.0000
# 2 8.7653 139.6470 44.1514 0.0000 -19.3756 0.0000
# 3 12.8665 44.1514 88.6337 0.0000 -11.2571 0.0000
# 4 0.0000 0.0000 0.0000 49.3466 0.0000 -1.9656
# 5 -9.7596 -19.3756 -11.2571 0.0000 45.2003 0.0000
# 6 0.0000 0.0000 0.0000 -1.9656 0.0000 34.2802
#
#
#
# Elastic Compliance Matrix: (Units=1/GPa)
#
#
# Indices 1 2 3 4 5 6 
#
# 1 0.009641 0.000017 -0.001180 0.000000 0.001795 0.000000
# 2 0.000017 0.008824 -0.004045 0.000000 0.002779 0.000000
# 3 -0.001180 -0.004045 0.013648 0.000000 0.001410 0.000000
# 4 0.000000 0.000000 0.000000 0.020311 0.000000 0.001165
# 5 0.001795 0.002779 0.001410 0.000000 0.024054 0.000000
# 6 0.000000 0.000000 0.000000 0.001165 0.000000 0.029238
#
#
# Mechanical properties :
#
#
# Convention : Reuss Voigt Hill
#
# Bulk Modulus (GPa) = 46.09041 51.88337 48.98689
# Shear Modulus (GPa) = 40.53026 43.73880 42.13453
#
# Velocity S-wave (km/s) = 3.92837 4.08090 4.00536
# Velocity P-wave (km/s) = 6.17457 6.47764 6.32792
#
# Compressibility (1/GPa) = 0.02169649
#
# Stress axis : x y z
#
# Youngs Moduli (GPa) = 103.72658 113.32263 73.27162
#
# Poissons Ratio (x) = -0.00193 0.08646
# Poissons Ratio (y) = -0.00176 0.29640
# Poissons Ratio (z) = 0.12240 0.45842
#
# Static dielectric constant tensor:
#      x y z
#    x 2.126370 0.000000 0.052400 
#    y 0.000000 2.055730 0.000000 
#    z 0.052400 0.000000 2.003020 
# 
# From -- ./inp_files/14996.got.cif
#   From: 2010.05.17/outbox.cif.g08.bks.cpg/sg14_8_cif.got.tgz:14996.got - 2010.06.03 17:49:19.
