data_PCOD9251664
_publ_section_title
;
Structure prediction by ZEFSAII (Michael W. Deem and Ramdas Pophale) SiO2 
 PCOD9251664
Probable space group: P 21/C
;
_chemical_formula_sum "Si O2"
_cell_formula_units_Z 28
_cell_length_a 21.250343
_cell_length_b 13.805271
_cell_length_c 20.958098
_cell_angle_alpha 90.000000
_cell_angle_beta 13.432195
_cell_angle_gamma 90.000000
_cell_volume 1428.241453
_symmetry_space_group_name_H-M "P 21/C"
_symmetry_group_IT_number 14
_symmetry_cell_setting 'monoclinic'
loop_
_space_group_symop_operation_xyz
x,y,z
-x,1/2+y,1/2-z
-x,-y,-z
x,1/2-y,1/2+z
loop_
_atom_site_type_symbol
_atom_site_label
_atom_site_fract_x
_atom_site_fract_y
_atom_site_fract_z
Si Si1 0.938157 0.933600 0.816949
Si Si2 0.442184 0.674405 0.864462
Si Si3 0.392041 0.131265 0.051688
Si Si4 0.898559 0.184698 0.467553
Si Si5 0.248475 0.173168 0.392030
Si Si6 0.091710 0.660882 0.647694
Si Si7 0.701571 0.092941 0.871260
O O1 0.877414 0.046266 0.886037
O O2 0.027424 0.899095 0.657880
O O3 0.180082 0.895395 0.625006
O O4 0.662471 0.878411 0.104364
O O5 0.612138 0.721006 0.755439
O O6 0.321633 0.771050 0.951317
O O7 0.552315 0.144558 0.959405
O O8 0.606570 0.158474 0.784598
O O9 0.117331 0.187340 0.308250
O O10 0.284208 0.020168 0.158978
O O11 0.936435 0.285212 0.391963
O O12 0.146052 0.171824 0.565730
O O13 0.984163 0.141977 0.612078
O O14 0.485653 0.098601 0.141617
#
# Coordination Sequence:
#
# PCOD9251664 Si02
#       7
#     4   4   4   4   4   4   4
#     4  11  23  36  59  84 125 164 183 247 302 364
#     4  11  22  38  53  90 119 146 213 233 292 367
#     4  11  23  39  54  91 119 161 200 245 292 366
#     4  11  22  37  59  86 131 151 197 247 297 371
#     4  12  21  38  57  86 117 156 198 247 279 366
#     4  11  24  37  62  89 125 159 199 238 325 354
#     4  11  23  37  62  82 121 165 205 232 301 362
#
# _framework density 19.604527999999998
#
# number of rings (size 3 to 8) (size 9 to 14) (size 15 to 20)
#    0.000    0.857    4.286    5.143    2.000    2.286 
#    0.000    0.000    0.000    0.000    0.000   20.000 
#    0.000    0.000    0.000    0.000    0.000    0.000 
#
# Total GULP energy -156071.532403 kJ/mol
# GULP energy per Si atom -5573.983300 kJ/mol
# Density = 1.955991 g / cm^3
# Si number density = 19.604528 Si / 1000 Ang^3
#
#
#
# Elastic Constant Matrix: (Units=GPa)
#
#
# Indices 1 2 3 4 5 6 
#
# 1 33.8981 31.0269 9.5886 0.0000 -3.8530 0.0000
# 2 31.0269 123.0811 29.7200 0.0000 -6.9458 0.0000
# 3 9.5886 29.7200 101.4327 0.0000 -8.8523 0.0000
# 4 0.0000 0.0000 0.0000 16.5532 0.0000 -4.2480
# 5 -3.8530 -6.9458 -8.8523 0.0000 19.4185 0.0000
# 6 0.0000 0.0000 0.0000 -4.2480 0.0000 27.5611
#
#
#
# Elastic Compliance Matrix: (Units=1/GPa)
#
#
# Indices 1 2 3 4 5 6 
#
# 1 0.038721 -0.009398 -0.000552 0.000000 0.004070 0.000000
# 2 -0.009398 0.011103 -0.002271 0.000000 0.001071 0.000000
# 3 -0.000552 -0.002271 0.010931 0.000000 0.004061 0.000000
# 4 0.000000 0.000000 0.000000 0.062899 0.000000 0.009695
# 5 0.004070 0.001071 0.004061 0.000000 0.054539 0.000000
# 6 0.000000 0.000000 0.000000 0.009695 0.000000 0.037777
#
#
# Mechanical properties :
#
#
# Convention : Reuss Voigt Hill
#
# Bulk Modulus (GPa) = 27.53852 44.34256 35.94054
# Shear Modulus (GPa) = 19.80070 25.24499 22.52284
#
# Velocity S-wave (km/s) = 3.18151 3.59236 3.39316
# Velocity P-wave (km/s) = 5.25105 6.31462 5.80723
#
# Compressibility (1/GPa) = 0.03631277
#
# Stress axis : x y z
#
# Youngs Moduli (GPa) = 25.82581 90.06800 91.48478
#
# Poissons Ratio (x) = 0.84647 0.05045
# Poissons Ratio (y) = 0.24271 0.20778
# Poissons Ratio (z) = 0.01424 0.20456
#
# Static dielectric constant tensor:
#      x y z
#    x 1.788380 0.000000 -0.030670 
#    y 0.000000 1.767720 0.000000 
#    z -0.030670 0.000000 1.724680 
# 
# From -- ./inp_files/74989.got.cif
#   From: 2010.05.17/outbox.cif.g08.bks.cpg/sg14_38_cif.got.tgz:74989.got - 2010.06.03 17:49:19.
