data_PCOD9251761
_publ_section_title
;
Structure prediction by ZEFSAII (Michael W. Deem and Ramdas Pophale) SiO2 
 PCOD9251761
Probable space group: P 21/C
;
_chemical_formula_sum "Si O2"
_cell_formula_units_Z 30
_cell_length_a 11.404179
_cell_length_b 8.686837
_cell_length_c 13.177840
_cell_angle_alpha 90.000000
_cell_angle_beta 55.676543
_cell_angle_gamma 90.000000
_cell_volume 1078.152794
_symmetry_space_group_name_H-M "P 21/C"
_symmetry_group_IT_number 14
_symmetry_cell_setting 'monoclinic'
loop_
_space_group_symop_operation_xyz
x,y,z
-x,1/2+y,1/2-z
-x,-y,-z
x,1/2-y,1/2+z
loop_
_atom_site_type_symbol
_atom_site_label
_atom_site_fract_x
_atom_site_fract_y
_atom_site_fract_z
Si Si1 0.915084 0.721937 0.377447
Si Si2 0.300838 0.581305 0.379572
Si Si3 0.947254 0.225143 0.473542
Si Si4 0.268359 0.996343 0.500661
Si Si5 0.786765 0.564107 0.263141
Si Si6 0.426064 0.290570 0.220788
Si Si7 0.500000 0.500000 0.000000
Si Si8 0.231933 0.788855 0.698187
O O1 0.803981 0.618134 0.371629
O O2 0.963791 0.717331 0.471603
O O3 0.067363 0.708375 0.248927
O O4 0.848241 0.889881 0.398909
O O5 0.152515 0.628928 0.511134
O O6 0.369936 0.411159 0.334095
O O7 0.420991 0.708702 0.344259
O O8 0.248325 0.617158 0.291841
O O9 0.817738 0.098557 0.541787
O O10 0.064957 0.126132 0.356722
O O11 0.421110 0.074524 0.426110
O O12 0.319503 0.881515 0.570602
O O13 0.679872 0.649530 0.241192
O O14 0.738844 0.388109 0.296844
O O15 0.419179 0.372967 0.114151
#
# Coordination Sequence:
#
# PCOD9251761 Si02
#       8
#     4   4   4   4   4   4   2   4
#     4  11  22  41  69 102 138 190 237 293 359 435
#     4  11  25  45  71 103 141 185 248 293 361 438
#     4  11  25  42  73 109 140 195 241 297 371 445
#     4  12  22  45  70  99 141 188 246 291 363 436
#     4  12  25  45  71 105 151 185 238 308 375 433
#     4  12  26  48  71 104 141 195 240 310 361 452
#     4  12  24  44  76  94 136 204 240 282 374 444
#     4  11  22  41  69 102 136 182 232 299 353 428
#
# _framework density 27.825371000000001
#
# number of rings (size 3 to 8) (size 9 to 14) (size 15 to 20)
#    0.000    0.533    6.667    1.200    1.867    2.667 
#    2.400    0.667    0.000    0.000    0.000    0.000 
#    0.000    0.000    0.000    0.000    0.000    0.000 
#
# Total GULP energy -167074.779514 kJ/mol
# GULP energy per Si atom -5569.159317 kJ/mol
# Density = 2.776204 g / cm^3
# Si number density = 27.825371 Si / 1000 Ang^3
#
#
#
# Elastic Constant Matrix: (Units=GPa)
#
#
# Indices 1 2 3 4 5 6 
#
# 1 163.0130 16.5975 9.7651 0.0000 -14.6509 0.0000
# 2 16.5975 116.0827 16.8086 0.0000 4.9469 0.0000
# 3 9.7651 16.8086 53.7396 0.0000 2.8531 0.0000
# 4 0.0000 0.0000 0.0000 29.4602 0.0000 10.4682
# 5 -14.6509 4.9469 2.8531 0.0000 38.7852 0.0000
# 6 0.0000 0.0000 0.0000 10.4682 0.0000 62.6987
#
#
#
# Elastic Compliance Matrix: (Units=1/GPa)
#
#
# Indices 1 2 3 4 5 6 
#
# 1 0.006527 -0.000895 -0.001047 0.000000 0.002657 0.000000
# 2 -0.000895 0.009181 -0.002639 0.000000 -0.001315 0.000000
# 3 -0.001047 -0.002639 0.019704 0.000000 -0.001508 0.000000
# 4 0.000000 0.000000 0.000000 0.036085 0.000000 -0.006025
# 5 0.002657 -0.001315 -0.001508 0.000000 0.027065 0.000000
# 6 0.000000 0.000000 0.000000 -0.006025 0.000000 0.016955
#
#
# Mechanical properties :
#
#
# Convention : Reuss Voigt Hill
#
# Bulk Modulus (GPa) = 38.09592 46.57530 42.33561
# Shear Modulus (GPa) = 37.47303 45.49977 41.48640
#
# Velocity S-wave (km/s) = 3.67375 4.04814 3.86548
# Velocity P-wave (km/s) = 5.63170 6.21487 5.93046
#
# Compressibility (1/GPa) = 0.02624953
#
# Stress axis : x y z
#
# Youngs Moduli (GPa) = 153.20749 108.92463 50.75094
#
# Poissons Ratio (x) = 0.09747 0.05315
# Poissons Ratio (y) = 0.13709 0.13394
# Poissons Ratio (z) = 0.16044 0.28746
#
# Static dielectric constant tensor:
#      x y z
#    x 2.581400 0.000000 -0.157700 
#    y 0.000000 2.437240 0.000000 
#    z -0.157700 0.000000 2.571160 
# 
# From -- ./inp_files/43665.got.cif
#   From: 2010.05.17/outbox.cif.g08.bks.cpg/sg14_22_cif.got.tgz:43665.got - 2010.06.03 17:49:19.
