data_PCOD9251642
_publ_section_title
;
Structure prediction by ZEFSAII (Michael W. Deem and Ramdas Pophale) SiO2 
 PCOD9251642
Probable space group: P 21/C
;
_chemical_formula_sum "Si O2"
_cell_formula_units_Z 32
_cell_length_a 23.456281
_cell_length_b 11.607054
_cell_length_c 22.309371
_cell_angle_alpha 90.000000
_cell_angle_beta 17.990733
_cell_angle_gamma 90.000000
_cell_volume 1876.007656
_symmetry_space_group_name_H-M "P 21/C"
_symmetry_group_IT_number 14
_symmetry_cell_setting 'monoclinic'
loop_
_space_group_symop_operation_xyz
x,y,z
-x,1/2+y,1/2-z
-x,-y,-z
x,1/2-y,1/2+z
loop_
_atom_site_type_symbol
_atom_site_label
_atom_site_fract_x
_atom_site_fract_y
_atom_site_fract_z
Si Si1 0.499999 0.819579 0.837772
Si Si2 0.215002 0.993865 0.896753
Si Si3 0.215212 0.840021 0.559047
Si Si4 0.500002 0.589957 0.674255
Si Si5 0.500001 0.155984 0.549495
Si Si6 0.784789 0.659977 0.489470
Si Si7 0.499999 0.199850 0.409846
Si Si8 0.215001 0.006134 0.673244
O O1 0.500000 0.759523 0.902810
O O2 0.676611 0.769098 0.625371
O O3 0.500000 0.955880 0.840833
O O4 0.323387 0.769100 0.978595
O O5 0.323928 0.075624 0.741095
O O6 0.233095 0.059536 0.942347
O O7 0.323419 0.873799 0.789017
O O8 0.000001 0.981813 0.097535
O O9 0.323460 0.879658 0.392041
O O10 0.233095 0.940463 0.591463
O O11 0.000001 0.816982 0.764298
O O12 0.676545 0.620340 0.538956
O O13 0.500003 0.674132 0.617706
O O14 0.500001 0.196333 0.481629
O O15 0.676077 0.075627 0.388946
O O16 0.323420 0.126199 0.564145
#
# Coordination Sequence:
#
# PCOD9251642 Si02
#       8
#     4   4   4   4   4   4   4   4
#     4   9  20  38  56  74 106 144 179 216 260 322
#     4   9  18  35  58  81 103 135 179 226 272 310
#     4   9  20  36  57  79 103 138 178 221 271 318
#     4  11  23  34  51  80 112 143 176 216 263 319
#     4   9  19  36  55  77 106 141 181 219 263 311
#     4   9  20  36  57  79 103 138 178 221 271 318
#     4  11  22  32  50  83 113 137 175 222 262 312
#     4   9  18  35  58  81 103 135 179 226 272 310
#
# _framework density 17.057500000000001
#
# number of rings (size 3 to 8) (size 9 to 14) (size 15 to 20)
#    0.000    2.500    0.000    3.750    7.000    4.500 
#    0.000    0.000    0.000    0.000    0.000   10.500 
#    0.000    0.000    0.000    0.000    0.000    0.000 
#
# Total GULP energy -178618.105981 kJ/mol
# GULP energy per Si atom -5581.815812 kJ/mol
# Density = 1.701868 g / cm^3
# Si number density = 17.057500 Si / 1000 Ang^3
#
#
#
# Elastic Constant Matrix: (Units=GPa)
#
#
# Indices 1 2 3 4 5 6 
#
# 1 37.3198 31.2703 31.2213 0.0000 -0.4991 0.0000
# 2 31.2703 145.4387 44.2857 0.0000 -3.7071 0.0000
# 3 31.2213 44.2857 124.2028 0.0000 -24.2448 0.0000
# 4 0.0000 0.0000 0.0000 4.7100 0.0000 2.1484
# 5 -0.4991 -3.7071 -24.2448 0.0000 10.6871 0.0000
# 6 0.0000 0.0000 0.0000 2.1484 0.0000 12.2543
#
#
#
# Elastic Compliance Matrix: (Units=1/GPa)
#
#
# Indices 1 2 3 4 5 6 
#
# 1 0.044842 -0.005535 -0.016628 0.000000 -0.037547 0.000000
# 2 -0.005535 0.008648 -0.002077 0.000000 -0.001970 0.000000
# 3 -0.016628 -0.002077 0.022757 0.000000 0.050130 0.000000
# 4 0.000000 0.000000 0.000000 0.230767 0.000000 -0.040458
# 5 -0.037547 -0.001970 0.050130 0.000000 0.204858 0.000000
# 6 0.000000 0.000000 0.000000 -0.040458 0.000000 0.088697
#
#
# Mechanical properties :
#
#
# Convention : Reuss Voigt Hill
#
# Bulk Modulus (GPa) = 36.01320 57.83508 46.92414
# Shear Modulus (GPa) = 7.59528 18.87589 13.23558
#
# Velocity S-wave (km/s) = 2.11244 3.33017 2.78859
# Velocity P-wave (km/s) = 5.20659 6.98329 6.15934
#
# Compressibility (1/GPa) = 0.02776759
#
# Stress axis : x y z
#
# Youngs Moduli (GPa) = 22.30064 115.63400 43.94246
#
# Poissons Ratio (x) = 0.64006 0.73066
# Poissons Ratio (y) = 0.12344 0.09125
# Poissons Ratio (z) = 0.37081 0.24013
#
# Static dielectric constant tensor:
#      x y z
#    x 1.576620 0.000000 0.000710 
#    y 0.000000 1.554930 0.000000 
#    z 0.000710 0.000000 1.574110 
# 
# From -- ./inp_files/69921.got.cif
#   From: 2010.05.17/outbox.cif.g08.bks.cpg/sg14_35_cif.got.tgz:69921.got - 2010.06.03 17:49:19.
