data_PCOD9251725
_publ_section_title
;
Structure prediction by ZEFSAII (Michael W. Deem and Ramdas Pophale) SiO2 
 PCOD9251725
Probable space group: P 21/C
;
_chemical_formula_sum "Si O2"
_cell_formula_units_Z 24
_cell_length_a 23.388193
_cell_length_b 4.596558
_cell_length_c 8.470758
_cell_angle_alpha 90.000000
_cell_angle_beta 106.873919
_cell_angle_gamma 90.000000
_cell_volume 871.443098
_symmetry_space_group_name_H-M "P 21/C"
_symmetry_group_IT_number 14
_symmetry_cell_setting 'monoclinic'
loop_
_space_group_symop_operation_xyz
x,y,z
-x,1/2+y,1/2-z
-x,-y,-z
x,1/2-y,1/2+z
loop_
_atom_site_type_symbol
_atom_site_label
_atom_site_fract_x
_atom_site_fract_y
_atom_site_fract_z
Si Si1 0.291922 0.580822 0.546369
Si Si2 0.125427 0.035386 0.134288
Si Si3 0.958157 0.584867 0.708063
Si Si4 0.543346 0.007680 0.289927
Si Si5 0.377528 0.914488 0.372087
Si Si6 0.788660 0.026850 0.289973
O O1 0.334367 0.749749 0.458942
O O2 0.335363 0.426873 0.709008
O O3 0.249125 0.415314 0.390267
O O4 0.252666 0.807022 0.617298
O O5 0.085770 0.223804 0.221171
O O6 0.175011 0.260272 0.110179
O O7 0.162643 0.764540 0.228616
O O8 0.081050 0.943643 0.960533
O O9 0.994398 0.323487 0.817605
O O10 0.493062 0.237131 0.304950
O O11 0.583632 0.181170 0.196190
O O12 0.581163 0.911561 0.472992
#
# Coordination Sequence:
#
# PCOD9251725 Si02
#       6
#     4   4   4   4   4   4
#     4   9  20  41  62  88 122 157 200 247 300 354
#     4  12  24  41  64  90 120 157 200 244 296 354
#     4  12  24  41  62  90 122 157 196 244 296 354
#     4  11  22  40  62  90 122 160 202 247 296 354
#     4   9  20  40  62  90 122 160 200 247 300 354
#     4  11  22  41  62  88 118 157 198 247 296 354
#
# _framework density 27.540526
#
# number of rings (size 3 to 8) (size 9 to 14) (size 15 to 20)
#    0.000    1.333    0.000    6.000    0.000    0.000 
#    0.000   33.333    0.000    0.000    0.000    0.000 
#    0.000    0.000    0.000    0.000    0.000    0.000 
#
# Total GULP energy -134657.355090 kJ/mol
# GULP energy per Si atom -5610.723129 kJ/mol
# Density = 2.747784 g / cm^3
# Si number density = 27.540526 Si / 1000 Ang^3
#
#
#
# Elastic Constant Matrix: (Units=GPa)
#
#
# Indices 1 2 3 4 5 6 
#
# 1 138.2207 44.7839 68.7316 0.0000 -16.3394 0.0000
# 2 44.7839 91.7177 0.4660 0.0000 2.2306 0.0000
# 3 68.7316 0.4660 146.9308 0.0000 23.8678 0.0000
# 4 0.0000 0.0000 0.0000 9.9720 0.0000 -35.8302
# 5 -16.3394 2.2306 23.8678 0.0000 65.3235 0.0000
# 6 0.0000 0.0000 0.0000 -35.8302 0.0000 19.7572
#
#
#
# Elastic Compliance Matrix: (Units=1/GPa)
#
#
# Indices 1 2 3 4 5 6 
#
# 1 0.014057 -0.006984 -0.007616 0.000000 0.006537 0.000000
# 2 -0.006984 0.014382 0.003811 0.000000 -0.003631 0.000000
# 3 -0.007616 0.003811 0.011361 0.000000 -0.006186 0.000000
# 4 0.000000 0.000000 0.000000 -0.018179 0.000000 -0.032969
# 5 0.006537 -0.003631 -0.006186 0.000000 0.019328 0.000000
# 6 0.000000 0.000000 0.000000 -0.032969 0.000000 -0.009176
#
#
# Mechanical properties :
#
#
# Convention : Reuss Voigt Hill
#
# Bulk Modulus (GPa) = 54.87370 67.20357 61.03863
# Shear Modulus (GPa) = 84.13922 36.53638 60.33780
#
# Velocity S-wave (km/s) = 5.53330 3.64626 4.68575
# Velocity P-wave (km/s) = 7.79687 6.49474 7.17540
#
# Compressibility (1/GPa) = 0.01822367
#
# Stress axis : x y z
#
# Youngs Moduli (GPa) = 71.13674 69.53028 88.01907
#
# Poissons Ratio (x) = 0.48562 0.67032
# Poissons Ratio (y) = 0.49684 -0.33546
# Poissons Ratio (z) = 0.54175 -0.26500
#
# Static dielectric constant tensor:
#      x y z
#    x 2.192750 0.000000 0.021730 
#    y 0.000000 2.067790 0.000000 
#    z 0.021730 0.000000 2.057120 
# 
# From -- ./inp_files/19280.got.cif
#   From: 2010.05.17/outbox.cif.g08.bks.cpg/sg14_10_cif.got.tgz:19280.got - 2010.06.03 17:49:19.
