data_PCOD9251548
_publ_section_title
;
Structure prediction by ZEFSAII (Michael W. Deem and Ramdas Pophale) SiO2 
 PCOD9251548
Probable space group: P 21/C
;
_chemical_formula_sum "Si O2"
_cell_formula_units_Z 28
_cell_length_a 26.074497
_cell_length_b 5.306106
_cell_length_c 17.675420
_cell_angle_alpha 90.000000
_cell_angle_beta 150.258690
_cell_angle_gamma 90.000000
_cell_volume 1213.158485
_symmetry_space_group_name_H-M "P 21/C"
_symmetry_group_IT_number 14
_symmetry_cell_setting 'monoclinic'
loop_
_space_group_symop_operation_xyz
x,y,z
-x,1/2+y,1/2-z
-x,-y,-z
x,1/2-y,1/2+z
loop_
_atom_site_type_symbol
_atom_site_label
_atom_site_fract_x
_atom_site_fract_y
_atom_site_fract_z
Si Si1 0.317349 0.074752 0.896270
Si Si2 0.240299 0.805377 0.656869
Si Si3 0.795891 0.824282 0.620003
Si Si4 0.992289 0.263158 0.189577
Si Si5 0.674757 0.692967 0.314368
Si Si6 0.488581 0.413914 0.118187
Si Si7 0.365319 0.703891 0.082903
O O1 0.275988 0.861519 0.787834
O O2 0.227901 0.225020 0.826070
O O3 0.373794 0.938778 0.038144
O O4 0.401265 0.256063 0.963357
O O5 0.117050 0.804777 0.490732
O O6 0.280417 0.541808 0.675579
O O7 0.286059 0.046610 0.670859
O O8 0.725209 0.691843 0.463734
O O9 0.912796 0.789232 0.745068
O O10 0.752216 0.109705 0.560945
O O11 0.015479 0.516052 0.267146
O O12 0.550968 0.643733 0.160984
O O13 0.427025 0.495012 0.114561
O O14 0.581141 0.243040 0.268720
#
# Coordination Sequence:
#
# PCOD9251548 Si02
#       7
#     4   4   4   4   4   4   4
#     4  11  27  43  69 107 151 184 239 308 358 428
#     4  12  28  48  68 110 149 182 239 311 370 414
#     4  11  24  43  76 102 134 192 250 294 352 441
#     4  12  25  48  77 104 138 190 244 305 363 438
#     4  12  25  45  74 100 146 193 243 289 354 439
#     4  11  22  40  71 100 142 198 239 288 345 440
#     4  11  21  41  68 105 138 187 247 293 350 429
#
# _framework density 23.080249999999999
#
# number of rings (size 3 to 8) (size 9 to 14) (size 15 to 20)
#    0.000    0.571    5.714    1.714    8.000    1.714 
#    0.000    0.714    0.000    0.000    0.000    0.000 
#    0.000    0.000    0.000    0.000    0.000    0.000 
#
# Total GULP energy -156604.043116 kJ/mol
# GULP energy per Si atom -5593.001540 kJ/mol
# Density = 2.302772 g / cm^3
# Si number density = 23.080250 Si / 1000 Ang^3
#
#
#
# Elastic Constant Matrix: (Units=GPa)
#
#
# Indices 1 2 3 4 5 6 
#
# 1 94.0808 30.9831 40.1636 0.0000 24.2711 0.0000
# 2 30.9831 113.6175 22.1590 0.0000 13.4497 0.0000
# 3 40.1636 22.1590 86.4138 0.0000 25.8598 0.0000
# 4 0.0000 0.0000 0.0000 28.7528 0.0000 3.3329
# 5 24.2711 13.4497 25.8598 0.0000 42.0445 0.0000
# 6 0.0000 0.0000 0.0000 3.3329 0.0000 39.8991
#
#
#
# Elastic Compliance Matrix: (Units=1/GPa)
#
#
# Indices 1 2 3 4 5 6 
#
# 1 0.014725 -0.002521 -0.004774 0.000000 -0.004758 0.000000
# 2 -0.002521 0.009814 -0.001031 0.000000 -0.001050 0.000000
# 3 -0.004774 -0.001031 0.016094 0.000000 -0.006814 0.000000
# 4 0.000000 0.000000 0.000000 0.035119 0.000000 -0.002934
# 5 -0.004758 -0.001050 -0.006814 0.000000 0.031057 0.000000
# 6 0.000000 0.000000 0.000000 -0.002934 0.000000 0.025308
#
#
# Mechanical properties :
#
#
# Convention : Reuss Voigt Hill
#
# Bulk Modulus (GPa) = 41.69695 53.41370 47.55533
# Shear Modulus (GPa) = 31.89530 35.52636 33.71083
#
# Velocity S-wave (km/s) = 3.72147 3.92759 3.82592
# Velocity P-wave (km/s) = 6.04740 6.61519 6.33766
#
# Compressibility (1/GPa) = 0.02398257
#
# Stress axis : x y z
#
# Youngs Moduli (GPa) = 67.91320 101.89217 62.13452
#
# Poissons Ratio (x) = 0.25689 0.29660
# Poissons Ratio (y) = 0.17122 0.06403
# Poissons Ratio (z) = 0.32418 0.10501
#
# Static dielectric constant tensor:
#      x y z
#    x 1.879740 0.000000 -0.002950 
#    y 0.000000 1.931440 0.000000 
#    z -0.002950 0.000000 1.842520 
# 
# From -- ./inp_files/62157.got.cif
#   From: 2010.05.17/outbox.cif.g08.bks.cpg/sg14_32_cif.got.tgz:62157.got - 2010.06.03 17:49:19.
