data_PCOD9251395
_publ_section_title
;
Structure prediction by ZEFSAII (Michael W. Deem and Ramdas Pophale) SiO2 
 PCOD9251395
Probable space group: P 21/C
;
_chemical_formula_sum "Si O2"
_cell_formula_units_Z 28
_cell_length_a 9.016256
_cell_length_b 5.342433
_cell_length_c 26.657529
_cell_angle_alpha 90.000000
_cell_angle_beta 68.689048
_cell_angle_gamma 90.000000
_cell_volume 1196.257958
_symmetry_space_group_name_H-M "P 21/C"
_symmetry_group_IT_number 14
_symmetry_cell_setting 'monoclinic'
loop_
_space_group_symop_operation_xyz
x,y,z
-x,1/2+y,1/2-z
-x,-y,-z
x,1/2-y,1/2+z
loop_
_atom_site_type_symbol
_atom_site_label
_atom_site_fract_x
_atom_site_fract_y
_atom_site_fract_z
Si Si1 0.066414 0.624767 0.302418
Si Si2 0.155477 0.511634 0.866186
Si Si3 0.807877 0.008052 0.525552
Si Si4 0.598453 0.854354 0.748030
Si Si5 0.155317 0.748348 0.623163
Si Si6 0.235400 0.074366 0.692542
Si Si7 0.687732 0.991287 0.985424
O O1 0.954492 0.386403 0.322298
O O2 0.203762 0.595021 0.245214
O O3 0.940891 0.831914 0.300253
O O4 0.135362 0.706669 0.347655
O O5 0.235288 0.491839 0.910145
O O6 0.255808 0.379869 0.809473
O O7 0.975793 0.404512 0.891647
O O8 0.740819 0.769316 0.503661
O O9 0.743858 0.269652 0.511340
O O10 0.000000 0.000000 0.500000
O O11 0.496868 0.612156 0.744521
O O12 0.658679 0.794478 0.797275
O O13 0.281678 0.920240 0.637396
O O14 0.231519 0.540599 0.578560
O O15 0.500000 0.000000 0.000000
#
# Coordination Sequence:
#
# PCOD9251395 Si02
#       7
#     4   4   4   4   4   4   4
#     4  11  20  40  71 106 139 177 242 310 356 431
#     4  11  25  44  74 107 139 191 254 305 363 442
#     4  12  26  51  84 109 143 199 262 312 372 446
#     4  12  28  46  66 101 155 197 240 296 364 451
#     4  11  24  42  77 104 142 191 246 308 371 444
#     4  11  22  40  68 103 143 188 237 294 368 434
#     4  12  29  52  75 114 157 191 250 324 385 439
#
# _framework density 23.406324000000001
#
# number of rings (size 3 to 8) (size 9 to 14) (size 15 to 20)
#    0.000    0.571    4.286    3.429    6.000    1.143 
#    2.571    0.000    0.000    0.000    0.000    0.000 
#    0.000    0.000    0.000    0.000    0.000    0.000 
#
# Total GULP energy -156593.937455 kJ/mol
# GULP energy per Si atom -5592.640623 kJ/mol
# Density = 2.335305 g / cm^3
# Si number density = 23.406324 Si / 1000 Ang^3
#
#
#
# Elastic Constant Matrix: (Units=GPa)
#
#
# Indices 1 2 3 4 5 6 
#
# 1 115.7718 43.6683 19.3964 0.0000 6.6468 0.0000
# 2 43.6683 115.1916 13.1537 0.0000 9.6927 0.0000
# 3 19.3964 13.1537 79.2275 0.0000 21.3526 0.0000
# 4 0.0000 0.0000 0.0000 36.6979 0.0000 9.2345
# 5 6.6468 9.6927 21.3526 0.0000 26.8422 0.0000
# 6 0.0000 0.0000 0.0000 9.2345 0.0000 41.8530
#
#
#
# Elastic Compliance Matrix: (Units=1/GPa)
#
#
# Indices 1 2 3 4 5 6 
#
# 1 0.010361 -0.003730 -0.002022 0.000000 0.000390 0.000000
# 2 -0.003730 0.010334 -0.000058 0.000000 -0.002762 0.000000
# 3 -0.002022 -0.000058 0.016530 0.000000 -0.012627 0.000000
# 4 0.000000 0.000000 0.000000 0.028851 0.000000 -0.006366
# 5 0.000390 -0.002762 -0.012627 0.000000 0.048200 0.000000
# 6 0.000000 0.000000 0.000000 -0.006366 0.000000 0.025298
#
#
# Mechanical properties :
#
#
# Convention : Reuss Voigt Hill
#
# Bulk Modulus (GPa) = 39.05614 51.40307 45.22960
# Shear Modulus (GPa) = 31.30283 36.67680 33.98982
#
# Velocity S-wave (km/s) = 3.66097 3.96278 3.81486
# Velocity P-wave (km/s) = 5.88155 6.55340 6.22654
#
# Compressibility (1/GPa) = 0.02560417
#
# Stress axis : x y z
#
# Youngs Moduli (GPa) = 96.51654 96.76696 60.49634
#
# Poissons Ratio (x) = 0.36090 0.12235
# Poissons Ratio (y) = 0.35997 0.00353
# Poissons Ratio (z) = 0.19520 0.00564
#
# Static dielectric constant tensor:
#      x y z
#    x 1.879740 0.000000 0.014490 
#    y 0.000000 1.937670 0.000000 
#    z 0.014490 0.000000 1.930870 
# 
# From -- ./inp_files/76019.got.cif
#   From: 2010.05.17/outbox.cif.g08.bks.cpg/sg14_39_cif.got.tgz:76019.got - 2010.06.03 17:49:19.
