data_PCOD9251561
_publ_section_title
;
Structure prediction by ZEFSAII (Michael W. Deem and Ramdas Pophale) SiO2 
 PCOD9251561
Probable space group: P 21/C
;
_chemical_formula_sum "Si O2"
_cell_formula_units_Z 28
_cell_length_a 32.868911
_cell_length_b 8.182749
_cell_length_c 33.299937
_cell_angle_alpha 90.000000
_cell_angle_beta 8.563620
_cell_angle_gamma 90.000000
_cell_volume 1333.658184
_symmetry_space_group_name_H-M "P 21/C"
_symmetry_group_IT_number 14
_symmetry_cell_setting 'monoclinic'
loop_
_space_group_symop_operation_xyz
x,y,z
-x,1/2+y,1/2-z
-x,-y,-z
x,1/2-y,1/2+z
loop_
_atom_site_type_symbol
_atom_site_label
_atom_site_fract_x
_atom_site_fract_y
_atom_site_fract_z
Si Si1 0.230197 0.402061 0.893103
Si Si2 0.722755 0.313365 0.885261
Si Si3 0.956351 0.722997 0.140398
Si Si4 0.757493 0.776449 0.971490
Si Si5 0.480172 0.353499 0.877087
Si Si6 0.734120 0.486044 0.052040
Si Si7 0.217769 0.016443 0.752549
O O1 0.006118 0.264933 0.122426
O O2 0.076879 0.542644 0.017455
O O3 0.484252 0.320302 0.622790
O O4 0.309423 0.483616 0.858195
O O5 0.623736 0.468886 0.007668
O O6 0.776524 0.379925 0.787960
O O7 0.704803 0.726230 0.416869
O O8 0.846870 0.815703 0.208063
O O9 0.206550 0.827504 0.915621
O O10 0.591441 0.679660 0.098965
O O11 0.816794 0.652563 0.949386
O O12 0.551244 0.918574 0.186442
O O13 0.028727 0.855305 0.688145
O O14 0.500000 0.000000 0.500000
O O15 0.000000 0.000000 0.000000
#
# Coordination Sequence:
#
# PCOD9251561 Si02
#       7
#     4   4   4   4   4   4   4
#     4  12  23  43  63  99 134 169 223 273 325 383
#     4  11  25  39  70  98 129 171 221 268 325 397
#     4  11  22  42  70  93 126 179 212 267 326 403
#     4  12  25  44  63  96 131 175 227 274 335 375
#     4  11  21  42  64  91 127 177 225 257 319 400
#     4  12  27  43  66  94 139 175 222 281 329 382
#     4  11  23  45  69  99 132 169 217 271 334 413
#
# _framework density 20.994885
#
# number of rings (size 3 to 8) (size 9 to 14) (size 15 to 20)
#    0.000    0.571    2.857    6.857    4.000    0.000 
#    0.000    4.286    0.000    0.000    0.000    0.000 
#    0.000    0.000    0.000    0.000    0.000    0.000 
#
# Total GULP energy -156638.409726 kJ/mol
# GULP energy per Si atom -5594.228919 kJ/mol
# Density = 2.094710 g / cm^3
# Si number density = 20.994885 Si / 1000 Ang^3
#
#
#
# Elastic Constant Matrix: (Units=GPa)
#
#
# Indices 1 2 3 4 5 6 
#
# 1 77.0414 37.1033 28.4486 0.0000 15.8334 0.0000
# 2 37.1033 88.0047 24.6097 0.0000 17.4218 0.0000
# 3 28.4486 24.6097 122.3792 0.0000 8.3404 0.0000
# 4 0.0000 0.0000 0.0000 46.7130 0.0000 0.6215
# 5 15.8334 17.4218 8.3404 0.0000 28.1596 0.0000
# 6 0.0000 0.0000 0.0000 0.6215 0.0000 23.9565
#
#
#
# Elastic Compliance Matrix: (Units=1/GPa)
#
#
# Indices 1 2 3 4 5 6 
#
# 1 0.017856 -0.005654 -0.002621 0.000000 -0.005766 0.000000
# 2 -0.005654 0.015291 -0.001360 0.000000 -0.005878 0.000000
# 3 -0.002621 -0.001360 0.009080 0.000000 -0.000374 0.000000
# 4 0.000000 0.000000 0.000000 0.021415 0.000000 -0.000556
# 5 -0.005766 -0.005878 -0.000374 0.000000 0.042501 0.000000
# 6 0.000000 0.000000 0.000000 -0.000556 0.000000 0.041757
#
#
# Mechanical properties :
#
#
# Convention : Reuss Voigt Hill
#
# Bulk Modulus (GPa) = 43.56032 51.97203 47.76618
# Shear Modulus (GPa) = 28.60082 32.91673 30.75877
#
# Velocity S-wave (km/s) = 3.69491 3.96390 3.83176
# Velocity P-wave (km/s) = 6.24469 6.76449 6.50978
#
# Compressibility (1/GPa) = 0.02295667
#
# Stress axis : x y z
#
# Youngs Moduli (GPa) = 56.00474 65.39929 110.13743
#
# Poissons Ratio (x) = 0.36975 0.28866
# Poissons Ratio (y) = 0.31664 0.14978
# Poissons Ratio (z) = 0.14678 0.08894
#
# Static dielectric constant tensor:
#      x y z
#    x 1.759300 0.000000 -0.011540 
#    y 0.000000 1.805090 0.000000 
#    z -0.011540 0.000000 1.733080 
# 
# From -- ./inp_files/80965.got.cif
#   From: 2010.05.17/outbox.cif.g08.bks.cpg/sg14_41_cif.got.tgz:80965.got - 2010.06.03 17:49:19.
