data_PCOD9251237
_publ_section_title
;
Structure prediction by ZEFSAII (Michael W. Deem and Ramdas Pophale) SiO2 
 PCOD9251237
Probable space group: P 21/C
;
_chemical_formula_sum "Si O2"
_cell_formula_units_Z 16
_cell_length_a 9.242050
_cell_length_b 5.026092
_cell_length_c 22.930823
_cell_angle_alpha 90.000000
_cell_angle_beta 146.948997
_cell_angle_gamma 90.000000
_cell_volume 580.927426
_symmetry_space_group_name_H-M "P 21/C"
_symmetry_group_IT_number 14
_symmetry_cell_setting 'monoclinic'
loop_
_space_group_symop_operation_xyz
x,y,z
-x,1/2+y,1/2-z
-x,-y,-z
x,1/2-y,1/2+z
loop_
_atom_site_type_symbol
_atom_site_label
_atom_site_fract_x
_atom_site_fract_y
_atom_site_fract_z
Si Si1 0.317197 0.511823 0.104865
Si Si2 0.691615 0.649990 0.768700
Si Si3 0.999737 0.499643 0.292522
Si Si4 0.727703 0.860088 0.539274
O O1 0.378469 0.363741 0.187268
O O2 0.404054 0.827751 0.139583
O O3 0.368906 0.380885 0.059335
O O4 0.000000 0.500000 0.000000
O O5 0.968622 0.486801 0.855105
O O6 0.770581 0.923308 0.760620
O O7 0.039419 0.749274 0.263388
O O8 0.228348 0.421418 0.414775
O O9 0.500000 0.000000 0.500000
#
# Coordination Sequence:
#
# PCOD9251237 Si02
#       4
#     4   4   4   4
#     4  10  26  51  76 122 169 227 286 348 430 515
#     4  11  26  51  81 118 174 222 285 358 430 506
#     4  12  26  50  81 121 169 223 280 359 430 509
#     4  11  26  52  83 130 168 228 289 360 437 525
#
# _framework density 27.542166000000002
#
# number of rings (size 3 to 8) (size 9 to 14) (size 15 to 20)
#    0.000    1.000    2.500    1.500    7.000    2.000 
#    4.500    0.000    0.000    0.000    0.000    0.000 
#    0.000    0.000    0.000    0.000    0.000    0.000 
#
# Total GULP energy -89124.877828 kJ/mol
# GULP energy per Si atom -5570.304864 kJ/mol
# Density = 2.747948 g / cm^3
# Si number density = 27.542166 Si / 1000 Ang^3
#
#
#
# Elastic Constant Matrix: (Units=GPa)
#
#
# Indices 1 2 3 4 5 6 
#
# 1 248.8075 65.1093 41.2594 0.0000 -48.2284 0.0000
# 2 65.1093 134.8500 48.2745 0.0000 -24.3276 0.0000
# 3 41.2594 48.2745 135.4633 0.0000 -33.2496 0.0000
# 4 0.0000 0.0000 0.0000 55.3658 0.0000 8.5937
# 5 -48.2284 -24.3276 -33.2496 0.0000 65.5932 0.0000
# 6 0.0000 0.0000 0.0000 8.5937 0.0000 -9.9335
#
#
#
# Elastic Compliance Matrix: (Units=1/GPa)
#
#
# Indices 1 2 3 4 5 6 
#
# 1 0.005114 -0.001875 -0.000157 0.000000 0.002986 0.000000
# 2 -0.001875 0.009388 -0.002579 0.000000 0.000796 0.000000
# 3 -0.000157 -0.002579 0.009235 0.000000 0.003609 0.000000
# 4 0.000000 0.000000 0.000000 0.015923 0.000000 0.013776
# 5 0.002986 0.000796 0.003609 0.000000 0.019566 0.000000
# 6 0.000000 0.000000 0.000000 0.013776 0.000000 -0.088752
#
#
# Mechanical properties :
#
#
# Convention : Reuss Voigt Hill
#
# Bulk Modulus (GPa) = 68.89011 92.04523 80.46767
# Shear Modulus (GPa) = -323.29256 46.50360 -138.39448
#
# Velocity S-wave (km/s) = -10.84600 4.11353 -7.09629
# Velocity P-wave (km/s) = 11.47958 7.48691 6.15333
#
# Compressibility (1/GPa) = 0.01451587
#
# Stress axis : x y z
#
# Youngs Moduli (GPa) = 195.52279 106.52287 108.28540
#
# Poissons Ratio (x) = 0.19969 0.01699
# Poissons Ratio (y) = 0.36653 0.27928
# Poissons Ratio (z) = 0.03067 0.27473
#
# Static dielectric constant tensor:
#      x y z
#    x 3.552130 0.000000 1.878290 
#    y 0.000000 2.167000 0.000000 
#    z 1.878290 0.000000 4.614480 
# 
# From -- ./inp_files/64248.got.cif
#   From: 2010.05.17/outbox.cif.g08.bks.cpg/sg14_33_cif.got.tgz:64248.got - 2010.06.03 17:49:19.
