data_PCOD9251246
_publ_section_title
;
Structure prediction by ZEFSAII (Michael W. Deem and Ramdas Pophale) SiO2 
 PCOD9251246
Probable space group: P 21/C
;
_chemical_formula_sum "Si O2"
_cell_formula_units_Z 20
_cell_length_a 12.174546
_cell_length_b 7.530391
_cell_length_c 24.873145
_cell_angle_alpha 90.000000
_cell_angle_beta 20.525802
_cell_angle_gamma 90.000000
_cell_volume 799.556266
_symmetry_space_group_name_H-M "P 21/C"
_symmetry_group_IT_number 14
_symmetry_cell_setting 'monoclinic'
loop_
_space_group_symop_operation_xyz
x,y,z
-x,1/2+y,1/2-z
-x,-y,-z
x,1/2-y,1/2+z
loop_
_atom_site_type_symbol
_atom_site_label
_atom_site_fract_x
_atom_site_fract_y
_atom_site_fract_z
Si Si1 0.880056 0.355939 0.781275
Si Si2 0.943350 0.927194 0.586631
Si Si3 0.784553 0.458943 0.548855
Si Si4 0.639544 0.365486 0.010411
Si Si5 0.568161 0.945353 0.044738
O O1 0.670735 0.521295 0.857933
O O2 0.224844 0.392285 0.601531
O O3 0.735249 0.177159 0.821901
O O4 0.835418 0.351764 0.865569
O O5 0.577032 0.945705 0.767017
O O6 0.046443 0.723188 0.544024
O O7 0.170572 0.981175 0.531888
O O8 0.000000 0.000000 0.500000
O O9 0.773552 0.594950 0.504305
O O10 0.000000 0.500000 0.500000
O O11 0.539731 0.158807 0.066110
#
# Coordination Sequence:
#
# PCOD9251246 Si02
#       5
#     4   4   4   4   4
#     4  11  27  46  77 109 149 204 245 314 383 451
#     4  11  26  46  76 100 151 191 249 312 374 445
#     4  11  27  46  73 109 143 198 252 311 380 448
#     4  10  27  47  74 110 151 198 254 307 382 447
#     4  11  28  45  76 108 156 190 261 305 384 448
#
# _framework density 25.013874000000001
#
# number of rings (size 3 to 8) (size 9 to 14) (size 15 to 20)
#    0.000    1.200    0.000    1.800   25.200    0.000 
#    0.000    0.000    0.000    0.000    0.000    0.000 
#    0.000    0.000    0.000    0.000    0.000    0.000 
#
# Total GULP energy -111821.039173 kJ/mol
# GULP energy per Si atom -5591.051959 kJ/mol
# Density = 2.495694 g / cm^3
# Si number density = 25.013874 Si / 1000 Ang^3
#
#
#
# Elastic Constant Matrix: (Units=GPa)
#
#
# Indices 1 2 3 4 5 6 
#
# 1 133.2800 21.3740 16.6597 0.0000 -24.0062 0.0000
# 2 21.3740 137.6847 22.0059 0.0000 -9.1143 0.0000
# 3 16.6597 22.0059 107.7432 0.0000 -11.6195 0.0000
# 4 0.0000 0.0000 0.0000 43.8012 0.0000 -7.1984
# 5 -24.0062 -9.1143 -11.6195 0.0000 46.6345 0.0000
# 6 0.0000 0.0000 0.0000 -7.1984 0.0000 48.6014
#
#
#
# Elastic Compliance Matrix: (Units=1/GPa)
#
#
# Indices 1 2 3 4 5 6 
#
# 1 0.008460 -0.000939 -0.000685 0.000000 0.004001 0.000000
# 2 -0.000939 0.007669 -0.001348 0.000000 0.000680 0.000000
# 3 -0.000685 -0.001348 0.009861 0.000000 0.001841 0.000000
# 4 0.000000 0.000000 0.000000 0.023400 0.000000 0.003466
# 5 0.004001 0.000680 0.001841 0.000000 0.024094 0.000000
# 6 0.000000 0.000000 0.000000 0.003466 0.000000 0.021089
#
#
# Mechanical properties :
#
#
# Convention : Reuss Voigt Hill
#
# Bulk Modulus (GPa) = 49.88391 55.42081 52.65236
# Shear Modulus (GPa) = 46.64226 49.05197 47.84712
#
# Velocity S-wave (km/s) = 4.32285 4.43311 4.37833
# Velocity P-wave (km/s) = 6.70088 6.95754 6.83042
#
# Compressibility (1/GPa) = 0.02004654
#
# Stress axis : x y z
#
# Youngs Moduli (GPa) = 118.20614 130.39237 101.40893
#
# Poissons Ratio (x) = 0.12244 0.06945
# Poissons Ratio (y) = 0.11099 0.13669
# Poissons Ratio (z) = 0.08095 0.17576
#
# Static dielectric constant tensor:
#      x y z
#    x 3.612570 0.000000 -0.848710 
#    y 0.000000 4.035140 0.000000 
#    z -0.848710 0.000000 2.347000 
# 
# From -- ./inp_files/79930.got.cif
#   From: 2010.05.17/outbox.cif.g08.bks.cpg/sg14_40_cif.got.tgz:79930.got - 2010.06.03 17:49:19.
