data_PCOD9251162
_publ_section_title
;
Structure prediction by ZEFSAII (Michael W. Deem and Ramdas Pophale) SiO2 
 PCOD9251162
Probable space group: P 21/C
;
_chemical_formula_sum "Si O2"
_cell_formula_units_Z 30
_cell_length_a 11.014815
_cell_length_b 12.626151
_cell_length_c 19.866168
_cell_angle_alpha 90.000000
_cell_angle_beta 30.028549
_cell_angle_gamma 90.000000
_cell_volume 1382.632912
_symmetry_space_group_name_H-M "P 21/C"
_symmetry_group_IT_number 14
_symmetry_cell_setting 'monoclinic'
loop_
_space_group_symop_operation_xyz
x,y,z
-x,1/2+y,1/2-z
-x,-y,-z
x,1/2-y,1/2+z
loop_
_atom_site_type_symbol
_atom_site_label
_atom_site_fract_x
_atom_site_fract_y
_atom_site_fract_z
Si Si1 0.487844 0.241302 0.172045
Si Si2 0.000000 0.000000 0.000000
Si Si3 0.678306 0.905708 0.937575
Si Si4 0.981706 0.446431 0.082332
Si Si5 0.999985 0.751315 0.504679
Si Si6 0.597830 0.671022 0.930776
Si Si7 0.437355 0.001655 0.873161
Si Si8 0.849262 0.022016 0.361752
O O1 0.412995 0.309487 0.143636
O O2 0.244345 0.231610 0.333838
O O3 0.549465 0.122838 0.116230
O O4 0.737877 0.281311 0.086982
O O5 0.704132 0.989617 0.128497
O O6 0.974278 0.127719 0.019602
O O7 0.592822 0.785096 0.968975
O O8 0.911449 0.921699 0.779515
O O9 0.717858 0.935753 0.996600
O O10 0.500000 0.000000 0.000000
O O11 0.706781 0.455276 0.240013
O O12 0.141448 0.502541 0.062645
O O13 0.037684 0.323798 0.042565
O O14 0.000000 0.500000 0.000000
O O15 0.821079 0.595263 0.843536
O O16 0.365864 0.598667 0.058289
#
# Coordination Sequence:
#
# PCOD9251162 Si02
#       8
#     4   2   4   4   4   4   4   4
#     4  11  23  43  75 100 142 192 244 295 363 439
#     4  10  26  44  66 102 144 174 244 292 358 432
#     4  12  25  45  78 104 143 190 245 303 366 449
#     4  12  23  45  74  97 145 186 240 293 362 436
#     4  11  25  44  71 104 140 195 239 302 363 438
#     4  11  27  47  72 107 149 183 242 308 370 439
#     4  11  24  46  68 109 136 190 241 295 367 428
#     4  11  28  48  71 113 141 194 243 305 375 440
#
# _framework density 21.697731999999998
#
# number of rings (size 3 to 8) (size 9 to 14) (size 15 to 20)
#    0.000    0.800    4.000    1.600    9.333    0.000 
#    2.400    0.000    0.000    0.000    0.000    0.000 
#    0.000    0.000    0.000    0.000    0.000    0.000 
#
# Total GULP energy -167024.024171 kJ/mol
# GULP energy per Si atom -5567.467472 kJ/mol
# Density = 2.164835 g / cm^3
# Si number density = 21.697732 Si / 1000 Ang^3
#
#
#
# Elastic Constant Matrix: (Units=GPa)
#
#
# Indices 1 2 3 4 5 6 
#
# 1 50.4696 27.5856 21.6377 0.0000 -7.6165 0.0000
# 2 27.5856 154.7580 22.5668 0.0000 -0.7450 0.0000
# 3 21.6377 22.5668 52.0917 0.0000 -2.8372 0.0000
# 4 0.0000 0.0000 0.0000 15.9669 0.0000 -9.8495
# 5 -7.6165 -0.7450 -2.8372 0.0000 29.1487 0.0000
# 6 0.0000 0.0000 0.0000 -9.8495 0.0000 24.7533
#
#
#
# Elastic Compliance Matrix: (Units=1/GPa)
#
#
# Indices 1 2 3 4 5 6 
#
# 1 0.026499 -0.003348 -0.009233 0.000000 0.005940 0.000000
# 2 -0.003348 0.007321 -0.001828 0.000000 -0.000866 0.000000
# 3 -0.009233 -0.001828 0.023816 0.000000 -0.000141 0.000000
# 4 0.000000 0.000000 0.000000 0.083003 0.000000 0.033027
# 5 0.005940 -0.000866 -0.000141 0.000000 0.035823 0.000000
# 6 0.000000 0.000000 0.000000 0.033027 0.000000 0.053540
#
#
# Mechanical properties :
#
#
# Convention : Reuss Voigt Hill
#
# Bulk Modulus (GPa) = 34.70095 44.54439 39.62267
# Shear Modulus (GPa) = 18.62704 26.34239 22.48472
#
# Velocity S-wave (km/s) = 2.93316 3.48812 3.22261
# Velocity P-wave (km/s) = 5.24393 6.06603 5.66990
#
# Compressibility (1/GPa) = 0.02881765
#
# Stress axis : x y z
#
# Youngs Moduli (GPa) = 37.73738 136.59462 41.98822
#
# Poissons Ratio (x) = 0.45739 0.38767
# Poissons Ratio (y) = 0.12636 0.07675
# Poissons Ratio (z) = 0.34843 0.24967
#
# Static dielectric constant tensor:
#      x y z
#    x 1.889820 0.000000 0.010800 
#    y 0.000000 1.789020 0.000000 
#    z 0.010800 0.000000 1.832710 
# 
# From -- ./inp_files/67341.got.cif
#   From: 2010.05.17/outbox.cif.g08.bks.cpg/sg14_34_cif.got.tgz:67341.got - 2010.06.03 17:49:19.
