data_PCOD9251075
_publ_section_title
;
Structure prediction by ZEFSAII (Michael W. Deem and Ramdas Pophale) SiO2 
 PCOD9251075
Probable space group: P 21/C
;
_chemical_formula_sum "Si O2"
_cell_formula_units_Z 20
_cell_length_a 17.795178
_cell_length_b 5.235221
_cell_length_c 9.023333
_cell_angle_alpha 90.000000
_cell_angle_beta 90.863813
_cell_angle_gamma 90.000000
_cell_volume 840.533413
_symmetry_space_group_name_H-M "P 21/C"
_symmetry_group_IT_number 14
_symmetry_cell_setting 'monoclinic'
loop_
_space_group_symop_operation_xyz
x,y,z
-x,1/2+y,1/2-z
-x,-y,-z
x,1/2-y,1/2+z
loop_
_atom_site_type_symbol
_atom_site_label
_atom_site_fract_x
_atom_site_fract_y
_atom_site_fract_z
Si Si1 0.208167 0.551796 0.660659
Si Si2 0.526752 0.068538 0.836352
Si Si3 0.665270 0.402049 0.838152
Si Si4 0.296294 0.247911 0.914689
Si Si5 0.970669 0.042163 0.832685
O O1 0.246957 0.828294 0.651983
O O2 0.246558 0.420283 0.803860
O O3 0.239134 0.403978 0.518330
O O4 0.119517 0.557994 0.667964
O O5 0.490030 0.326594 0.768047
O O6 0.614445 0.151336 0.841598
O O7 0.500000 0.000000 0.000000
O O8 0.656954 0.553379 0.685478
O O9 0.651279 0.579391 0.979068
O O10 0.003595 0.302250 0.765499
O O11 0.000000 0.000000 0.000000
#
# Coordination Sequence:
#
# PCOD9251075 Si02
#       5
#     4   4   4   4   4
#     4  11  25  44  79 106 154 203 268 321 398 472
#     4  12  32  56  85 120 167 213 265 330 409 477
#     4  11  27  47  80 113 156 206 270 327 396 478
#     4  10  25  46  76 112 152 200 272 328 388 463
#     4  12  29  49  77 115 165 210 263 329 406 474
#
# _framework density 23.794412000000001
#
# number of rings (size 3 to 8) (size 9 to 14) (size 15 to 20)
#    0.000    0.800    0.000    3.600   22.400    0.000 
#    0.000    0.000    0.000    0.000    0.000    0.000 
#    0.000    0.000    0.000    0.000    0.000    0.000 
#
# Total GULP energy -112261.305056 kJ/mol
# GULP energy per Si atom -5613.065253 kJ/mol
# Density = 2.374025 g / cm^3
# Si number density = 23.794412 Si / 1000 Ang^3
#
#
#
# Elastic Constant Matrix: (Units=GPa)
#
#
# Indices 1 2 3 4 5 6 
#
# 1 163.9089 54.2992 55.3264 0.0000 -11.8421 0.0000
# 2 54.2992 144.5381 59.1392 0.0000 -6.6446 0.0000
# 3 55.3264 59.1392 161.7713 0.0000 2.7135 0.0000
# 4 0.0000 0.0000 0.0000 50.5302 0.0000 -0.8413
# 5 -11.8421 -6.6446 2.7135 0.0000 23.0625 0.0000
# 6 0.0000 0.0000 0.0000 -0.8413 0.0000 38.6037
#
#
#
# Elastic Compliance Matrix: (Units=1/GPa)
#
#
# Indices 1 2 3 4 5 6 
#
# 1 0.007662 -0.001899 -0.001987 0.000000 0.003621 0.000000
# 2 -0.001899 0.008777 -0.002590 0.000000 0.001859 0.000000
# 3 -0.001987 -0.002590 0.007853 0.000000 -0.002691 0.000000
# 4 0.000000 0.000000 0.000000 0.019797 0.000000 0.000431
# 5 0.003621 0.001859 -0.002691 0.000000 0.046072 0.000000
# 6 0.000000 0.000000 0.000000 0.000431 0.000000 0.025914
#
#
# Mechanical properties :
#
#
# Convention : Reuss Voigt Hill
#
# Bulk Modulus (GPa) = 88.18435 89.74978 88.96707
# Shear Modulus (GPa) = 37.64802 42.53616 40.09209
#
# Velocity S-wave (km/s) = 3.98203 4.23265 4.10925
# Velocity P-wave (km/s) = 7.63436 7.85416 7.74504
#
# Compressibility (1/GPa) = 0.01133988
#
# Stress axis : x y z
#
# Youngs Moduli (GPa) = 130.50732 113.92930 127.33536
#
# Poissons Ratio (x) = 0.21636 0.25302
# Poissons Ratio (y) = 0.24784 0.32986
# Poissons Ratio (z) = 0.25933 0.29513
#
# Static dielectric constant tensor:
#      x y z
#    x 1.890510 0.000000 0.021840 
#    y 0.000000 1.919180 0.000000 
#    z 0.021840 0.000000 1.867210 
# 
# From -- ./inp_files/17234.got.cif
#   From: 2010.05.17/outbox.cif.g08.bks.cpg/sg14_9_cif.got.tgz:17234.got - 2010.06.03 17:49:19.
