data_PCOD9251975
_publ_section_title
;
Structure prediction by ZEFSAII (Michael W. Deem and Ramdas Pophale) SiO2 
 PCOD9251975
Probable space group: P 21/C
;
_chemical_formula_sum "Si O2"
_cell_formula_units_Z 12
_cell_length_a 13.624943
_cell_length_b 5.274384
_cell_length_c 22.758535
_cell_angle_alpha 90.000000
_cell_angle_beta 161.695599
_cell_angle_gamma 90.000000
_cell_volume 513.654161
_symmetry_space_group_name_H-M "P 21/C"
_symmetry_group_IT_number 14
_symmetry_cell_setting 'monoclinic'
loop_
_space_group_symop_operation_xyz
x,y,z
-x,1/2+y,1/2-z
-x,-y,-z
x,1/2-y,1/2+z
loop_
_atom_site_type_symbol
_atom_site_label
_atom_site_fract_x
_atom_site_fract_y
_atom_site_fract_z
Si Si1 0.756999 0.710395 0.161096
Si Si2 0.363801 0.912087 0.702867
Si Si3 0.342457 0.048895 0.009087
O O1 0.067631 0.636790 0.372389
O O2 0.592289 0.915407 0.108910
O O3 0.500000 0.500000 0.000000
O O4 0.847206 0.782294 0.145527
O O5 0.443865 0.660989 0.710279
O O6 0.485677 0.840020 0.837509
O O7 0.000000 0.000000 0.500000
#
# Coordination Sequence:
#
# PCOD9251975 Si02
#       3
#     4   4   4
#     4  11  23  40  66 101 130 176 219 298 347 407
#     4  12  29  49  76 106 148 200 243 298 357 438
#     4  11  25  42  70  99 139 174 239 282 360 418
#
# _framework density 23.362022
#
# number of rings (size 3 to 8) (size 9 to 14) (size 15 to 20)
#    0.000    0.667    3.333    3.000    9.333    0.000 
#    0.000    0.000    0.000    0.000    0.000    0.000 
#    0.000    0.000    0.000    0.000    0.000    0.000 
#
# Total GULP energy -66968.660119 kJ/mol
# GULP energy per Si atom -5580.721677 kJ/mol
# Density = 2.330885 g / cm^3
# Si number density = 23.362022 Si / 1000 Ang^3
#
#
#
# Elastic Constant Matrix: (Units=GPa)
#
#
# Indices 1 2 3 4 5 6 
#
# 1 83.0535 17.3845 25.8760 0.0000 -13.6767 0.0000
# 2 17.3845 61.5235 -13.4953 0.0000 6.2209 0.0000
# 3 25.8760 -13.4953 102.2719 0.0000 -2.9774 0.0000
# 4 0.0000 0.0000 0.0000 33.4074 0.0000 7.3318
# 5 -13.6767 6.2209 -2.9774 0.0000 47.8680 0.0000
# 6 0.0000 0.0000 0.0000 7.3318 0.0000 36.2811
#
#
#
# Elastic Compliance Matrix: (Units=1/GPa)
#
#
# Indices 1 2 3 4 5 6 
#
# 1 0.015497 -0.005874 -0.004553 0.000000 0.004908 0.000000
# 2 -0.005874 0.019166 0.003901 0.000000 -0.003926 0.000000
# 3 -0.004553 0.003901 0.011413 0.000000 -0.001098 0.000000
# 4 0.000000 0.000000 0.000000 0.031323 0.000000 -0.006330
# 5 0.004908 -0.003926 -0.001098 0.000000 0.022735 0.000000
# 6 0.000000 0.000000 0.000000 -0.006330 0.000000 0.028842
#
#
# Mechanical properties :
#
#
# Convention : Reuss Voigt Hill
#
# Bulk Modulus (GPa) = 30.28115 34.04215 32.16165
# Shear Modulus (GPa) = 32.67232 37.98355 35.32793
#
# Velocity S-wave (km/s) = 3.74374 4.03658 3.89291
# Velocity P-wave (km/s) = 5.62826 6.02731 5.83120
#
# Compressibility (1/GPa) = 0.03302384
#
# Stress axis : x y z
#
# Youngs Moduli (GPa) = 64.53016 52.17470 87.62238
#
# Poissons Ratio (x) = 0.30646 0.39895
# Poissons Ratio (y) = 0.37904 -0.34181
# Poissons Ratio (z) = 0.29381 -0.20353
#
# Static dielectric constant tensor:
#      x y z
#    x 2.041220 0.000000 -0.054380 
#    y 0.000000 2.364450 0.000000 
#    z -0.054380 0.000000 2.056210 
# 
# From -- ./inp_files/7062.got.cif
#   From: 2010.05.17/outbox.cif.g08.bks.cpg/sg14_4_cif.got.tgz:7062.got - 2010.06.03 17:49:19.
