data_PCOD9251734
_publ_section_title
;
Structure prediction by ZEFSAII (Michael W. Deem and Ramdas Pophale) SiO2 
 PCOD9251734
Probable space group: P 21/C
;
_chemical_formula_sum "Si O2"
_cell_formula_units_Z 32
_cell_length_a 29.672893
_cell_length_b 7.682534
_cell_length_c 20.667558
_cell_angle_alpha 90.000000
_cell_angle_beta 160.942461
_cell_angle_gamma 90.000000
_cell_volume 1538.367297
_symmetry_space_group_name_H-M "P 21/C"
_symmetry_group_IT_number 14
_symmetry_cell_setting 'monoclinic'
loop_
_space_group_symop_operation_xyz
x,y,z
-x,1/2+y,1/2-z
-x,-y,-z
x,1/2-y,1/2+z
loop_
_atom_site_type_symbol
_atom_site_label
_atom_site_fract_x
_atom_site_fract_y
_atom_site_fract_z
Si Si1 0.252429 0.594977 0.321486
Si Si2 0.200229 0.814070 0.034744
Si Si3 0.927528 0.079886 0.963242
Si Si4 0.145594 0.272045 0.106292
Si Si5 0.433772 0.664743 0.446309
Si Si6 0.086077 0.256655 0.788905
Si Si7 0.725407 0.785579 0.848452
Si Si8 0.164833 0.623458 0.343223
O O1 0.142531 0.737159 0.146794
O O2 0.193191 0.403053 0.226297
O O3 0.379544 0.621081 0.444825
O O4 0.261389 0.624327 0.410688
O O5 0.311408 0.732808 0.234275
O O6 0.207159 0.022596 0.056680
O O7 0.222831 0.794067 0.988339
O O8 0.049041 0.742574 0.848488
O O9 0.818975 0.929634 0.833831
O O10 0.037568 0.109908 0.168830
O O11 0.000000 0.000000 0.000000
O O12 0.219816 0.316042 0.139872
O O13 0.981735 0.290426 0.874281
O O14 0.500000 0.500000 0.500000
O O15 0.561337 0.798003 0.625194
O O16 0.124444 0.075009 0.806932
O O17 0.214770 0.310870 0.007439
#
# Coordination Sequence:
#
# PCOD9251734 Si02
#       8
#     4   4   4   4   4   4   4   4
#     4  12  24  45  64  99 144 173 231 280 335 411
#     4  11  23  43  68 100 136 171 232 286 335 412
#     4  12  23  37  65 104 133 174 216 281 347 401
#     4  12  20  37  68  98 133 173 218 277 342 389
#     4  12  25  44  69  93 134 187 229 274 340 414
#     4  11  22  40  67 102 136 168 228 286 335 409
#     4  11  24  40  69 100 131 179 229 279 338 403
#     4  11  23  39  67  97 137 175 213 291 346 385
#
# _framework density 20.801275
#
# number of rings (size 3 to 8) (size 9 to 14) (size 15 to 20)
#    0.000    0.500    7.500    1.500    0.000    1.000 
#    0.000    2.500    0.000    0.000    0.000    0.000 
#    0.000    0.000    0.000    0.000    0.000    0.000 
#
# Total GULP energy -178777.147172 kJ/mol
# GULP energy per Si atom -5586.785849 kJ/mol
# Density = 2.075393 g / cm^3
# Si number density = 20.801275 Si / 1000 Ang^3
#
#
#
# Elastic Constant Matrix: (Units=GPa)
#
#
# Indices 1 2 3 4 5 6 
#
# 1 181.5208 16.2972 37.4613 0.0000 -9.2353 0.0000
# 2 16.2972 49.3057 6.9088 0.0000 -6.9217 0.0000
# 3 37.4613 6.9088 75.6918 0.0000 -2.3560 0.0000
# 4 0.0000 0.0000 0.0000 17.5555 0.0000 -4.6320
# 5 -9.2353 -6.9217 -2.3560 0.0000 30.2483 0.0000
# 6 0.0000 0.0000 0.0000 -4.6320 0.0000 31.4888
#
#
#
# Elastic Compliance Matrix: (Units=1/GPa)
#
#
# Indices 1 2 3 4 5 6 
#
# 1 0.006320 -0.001485 -0.002950 0.000000 0.001360 0.000000
# 2 -0.001485 0.021542 -0.001095 0.000000 0.004391 0.000000
# 3 -0.002950 -0.001095 0.014771 0.000000 -0.000001 0.000000
# 4 0.000000 0.000000 0.000000 0.059262 0.000000 0.008718
# 5 0.001360 0.004391 -0.000001 0.000000 0.034480 0.000000
# 6 0.000000 0.000000 0.000000 0.008718 0.000000 0.033040
#
#
# Mechanical properties :
#
#
# Convention : Reuss Voigt Hill
#
# Bulk Modulus (GPa) = 31.67104 47.53922 39.60513
# Shear Modulus (GPa) = 26.17802 32.24860 29.21331
#
# Velocity S-wave (km/s) = 3.55136 3.94168 3.75160
# Velocity P-wave (km/s) = 5.66346 6.60450 6.15200
#
# Compressibility (1/GPa) = 0.03157459
#
# Stress axis : x y z
#
# Youngs Moduli (GPa) = 158.21872 46.42046 67.69801
#
# Poissons Ratio (x) = 0.06892 0.19972
# Poissons Ratio (y) = 0.23492 0.07411
# Poissons Ratio (z) = 0.46678 0.05082
#
# Static dielectric constant tensor:
#      x y z
#    x 1.822670 0.000000 -0.008200 
#    y 0.000000 1.831870 0.000000 
#    z -0.008200 0.000000 1.722330 
# 
# From -- ./inp_files/70721.got.cif
#   From: 2010.05.17/outbox.cif.g08.bks.cpg/sg14_36_cif.got.tgz:70721.got - 2010.06.03 17:49:19.
