data_PCOD9251204
_publ_section_title
;
Structure prediction by ZEFSAII (Michael W. Deem and Ramdas Pophale) SiO2 
 PCOD9251204
Probable space group: P 21/C
;
_chemical_formula_sum "Si O2"
_cell_formula_units_Z 26
_cell_length_a 7.256588
_cell_length_b 15.609781
_cell_length_c 14.791889
_cell_angle_alpha 90.000000
_cell_angle_beta 40.688366
_cell_angle_gamma 90.000000
_cell_volume 1092.354263
_symmetry_space_group_name_H-M "P 21/C"
_symmetry_group_IT_number 14
_symmetry_cell_setting 'monoclinic'
loop_
_space_group_symop_operation_xyz
x,y,z
-x,1/2+y,1/2-z
-x,-y,-z
x,1/2-y,1/2+z
loop_
_atom_site_type_symbol
_atom_site_label
_atom_site_fract_x
_atom_site_fract_y
_atom_site_fract_z
Si Si1 0.182485 0.342970 0.153756
Si Si2 0.275111 0.897135 0.877549
Si Si3 0.552547 0.711609 0.756478
Si Si4 0.799566 0.813921 0.969467
Si Si5 0.320358 0.971048 0.364122
Si Si6 0.305103 0.582447 0.571080
Si Si7 0.500000 0.000000 0.500000
O O1 0.267935 0.303951 0.218993
O O2 0.075090 0.264839 0.133077
O O3 0.427746 0.395150 0.012429
O O4 0.945206 0.414907 0.263008
O O5 0.404353 0.802508 0.822172
O O6 0.508092 0.968359 0.768018
O O7 0.184865 0.908716 0.014895
O O8 0.014088 0.893239 0.904741
O O9 0.724956 0.713262 0.599119
O O10 0.351222 0.628102 0.825751
O O11 0.518377 0.841523 0.020313
O O12 0.471400 0.981884 0.403807
O O13 0.000000 0.000000 0.500000
O O14 0.500000 0.500000 0.500000
#
# Coordination Sequence:
#
# PCOD9251204 Si02
#       7
#     4   4   4   4   4   4   2
#     4  11  25  51  75 113 149 201 257 315 384 466
#     4  12  27  47  77 112 148 202 256 319 387 467
#     4  11  25  49  74 109 153 191 255 319 381 467
#     4  12  26  47  79 105 152 200 251 315 390 456
#     4  11  28  47  76 109 151 200 252 315 388 461
#     4  12  28  47  75 109 153 199 252 320 387 461
#     4  10  26  46  74 106 146 190 252 316 374 454
#
# _framework density 23.801804000000001
#
# number of rings (size 3 to 8) (size 9 to 14) (size 15 to 20)
#    0.000    0.615    3.077    2.769   12.923    1.231 
#    0.000    0.000    0.000    0.000    0.000    0.000 
#    0.000    0.000    0.000    0.000    0.000    0.000 
#
# Total GULP energy -145075.692785 kJ/mol
# GULP energy per Si atom -5579.834338 kJ/mol
# Density = 2.374763 g / cm^3
# Si number density = 23.801804 Si / 1000 Ang^3
#
#
#
# Elastic Constant Matrix: (Units=GPa)
#
#
# Indices 1 2 3 4 5 6 
#
# 1 85.9773 21.2450 17.7393 0.0000 15.0587 0.0000
# 2 21.2450 112.0002 23.1447 0.0000 12.4611 0.0000
# 3 17.7393 23.1447 67.6417 0.0000 15.5071 0.0000
# 4 0.0000 0.0000 0.0000 43.9001 0.0000 -3.7354
# 5 15.0587 12.4611 15.5071 0.0000 28.5521 0.0000
# 6 0.0000 0.0000 0.0000 -3.7354 0.0000 43.0737
#
#
#
# Elastic Compliance Matrix: (Units=1/GPa)
#
#
# Indices 1 2 3 4 5 6 
#
# 1 0.013320 -0.001570 -0.001716 0.000000 -0.005408 0.000000
# 2 -0.001570 0.009986 -0.002508 0.000000 -0.002168 0.000000
# 3 -0.001716 -0.002508 0.017857 0.000000 -0.007699 0.000000
# 4 0.000000 0.000000 0.000000 0.022948 0.000000 0.001990
# 5 -0.005408 -0.002168 -0.007699 0.000000 0.043003 0.000000
# 6 0.000000 0.000000 0.000000 0.001990 0.000000 0.023389
#
#
# Mechanical properties :
#
#
# Convention : Reuss Voigt Hill
#
# Bulk Modulus (GPa) = 33.81356 43.31970 38.56663
# Shear Modulus (GPa) = 32.90548 36.67121 34.78834
#
# Velocity S-wave (km/s) = 3.72220 3.92942 3.82721
# Velocity P-wave (km/s) = 5.71928 6.23112 5.98068
#
# Compressibility (1/GPa) = 0.02957393
#
# Stress axis : x y z
#
# Youngs Moduli (GPa) = 75.07346 100.14120 56.00063
#
# Poissons Ratio (x) = 0.15726 0.09611
# Poissons Ratio (y) = 0.11789 0.14045
# Poissons Ratio (z) = 0.12884 0.25116
#
# Static dielectric constant tensor:
#      x y z
#    x 1.986420 0.000000 -0.077810 
#    y 0.000000 1.926560 0.000000 
#    z -0.077810 0.000000 1.897130 
# 
# From -- ./inp_files/41113.got.cif
#   From: 2010.05.17/outbox.cif.g08.bks.cpg/sg14_21_cif.got.tgz:41113.got - 2010.06.03 17:49:19.
