data_PCOD9251150
_publ_section_title
;
Structure prediction by ZEFSAII (Michael W. Deem and Ramdas Pophale) SiO2 
 PCOD9251150
Probable space group: P 21/C
;
_chemical_formula_sum "Si O2"
_cell_formula_units_Z 22
_cell_length_a 12.433116
_cell_length_b 5.008715
_cell_length_c 22.065324
_cell_angle_alpha 90.000000
_cell_angle_beta 138.219877
_cell_angle_gamma 90.000000
_cell_volume 915.523207
_symmetry_space_group_name_H-M "P 21/C"
_symmetry_group_IT_number 14
_symmetry_cell_setting 'monoclinic'
loop_
_space_group_symop_operation_xyz
x,y,z
-x,1/2+y,1/2-z
-x,-y,-z
x,1/2-y,1/2+z
loop_
_atom_site_type_symbol
_atom_site_label
_atom_site_fract_x
_atom_site_fract_y
_atom_site_fract_z
Si Si1 0.265333 0.451393 0.122585
Si Si2 0.120924 0.821890 0.151093
Si Si3 0.955414 0.598860 0.194819
Si Si4 0.404042 0.247482 0.935361
Si Si5 0.000000 0.500000 0.500000
Si Si6 0.420206 0.167975 0.302584
O O1 0.144517 0.693535 0.092777
O O2 0.363637 0.365255 0.224816
O O3 0.399837 0.565534 0.134483
O O4 0.162950 0.203049 0.057438
O O5 0.043696 0.636116 0.168112
O O6 0.292378 0.926281 0.244524
O O7 0.012640 0.062240 0.081067
O O8 0.776620 0.715095 0.117062
O O9 0.956688 0.299755 0.220826
O O10 0.400636 0.222324 0.861283
O O11 0.500000 0.500000 0.000000
O O12 0.500000 0.000000 0.000000
#
# Coordination Sequence:
#
# PCOD9251150 Si02
#       6
#     4   4   4   4   2   4
#     4  11  23  45  74 105 146 192 244 314 377 453
#     4  11  24  45  72 100 144 188 247 298 372 451
#     4  12  26  49  77 104 144 200 253 304 373 457
#     4  12  29  49  73 112 153 198 253 319 383 452
#     4  10  26  42  66 112 138 186 240 306 376 434
#     4  11  24  44  73 105 143 197 250 304 382 454
#
# _framework density 24.029975
#
# number of rings (size 3 to 8) (size 9 to 14) (size 15 to 20)
#    0.000    0.727    3.636    2.727    7.636    1.455 
#    0.000    0.000    0.000    0.000    0.000    0.000 
#    0.000    0.000    0.000    0.000    0.000    0.000 
#
# Total GULP energy -122849.008586 kJ/mol
# GULP energy per Si atom -5584.045845 kJ/mol
# Density = 2.397528 g / cm^3
# Si number density = 24.029975 Si / 1000 Ang^3
#
#
#
# Elastic Constant Matrix: (Units=GPa)
#
#
# Indices 1 2 3 4 5 6 
#
# 1 111.9286 17.2231 31.4698 0.0000 5.9477 0.0000
# 2 17.2231 95.3700 22.0064 0.0000 9.1289 0.0000
# 3 31.4698 22.0064 105.2499 0.0000 23.0485 0.0000
# 4 0.0000 0.0000 0.0000 50.0289 0.0000 -5.6962
# 5 5.9477 9.1289 23.0485 0.0000 28.2537 0.0000
# 6 0.0000 0.0000 0.0000 -5.6962 0.0000 14.5410
#
#
#
# Elastic Compliance Matrix: (Units=1/GPa)
#
#
# Indices 1 2 3 4 5 6 
#
# 1 0.009883 -0.001188 -0.002843 0.000000 0.000623 0.000000
# 2 -0.001188 0.011258 -0.001530 0.000000 -0.002139 0.000000
# 3 -0.002843 -0.001530 0.012701 0.000000 -0.009268 0.000000
# 4 0.000000 0.000000 0.000000 0.020922 0.000000 0.008196
# 5 0.000623 -0.002139 -0.009268 0.000000 0.043514 0.000000
# 6 0.000000 0.000000 0.000000 0.008196 0.000000 0.071982
#
#
# Mechanical properties :
#
#
# Convention : Reuss Voigt Hill
#
# Bulk Modulus (GPa) = 44.01608 50.43856 47.22732
# Shear Modulus (GPa) = 26.46121 34.68798 30.57459
#
# Velocity S-wave (km/s) = 3.32200 3.80350 3.57087
# Velocity P-wave (km/s) = 5.75075 6.35014 6.05786
#
# Compressibility (1/GPa) = 0.02271897
#
# Stress axis : x y z
#
# Youngs Moduli (GPa) = 101.17981 88.82627 78.73527
#
# Poissons Ratio (x) = 0.10557 0.22385
# Poissons Ratio (y) = 0.12025 0.12047
# Poissons Ratio (z) = 0.28766 0.13591
#
# Static dielectric constant tensor:
#      x y z
#    x 0.052230 0.000000 -5.664490 
#    y 0.000000 -0.513780 0.000000 
#    z -5.664490 0.000000 -15.578910 
# 
# From -- ./inp_files/42587.got.cif
#   From: 2010.05.17/outbox.cif.g08.bks.cpg/sg14_22_cif.got.tgz:42587.got - 2010.06.03 17:49:19.
