data_PCOD9251702
_publ_section_title
;
Structure prediction by ZEFSAII (Michael W. Deem and Ramdas Pophale) SiO2 
 PCOD9251702
Probable space group: P 21/C
;
_chemical_formula_sum "Si O2"
_cell_formula_units_Z 32
_cell_length_a 11.134807
_cell_length_b 21.359868
_cell_length_c 16.985372
_cell_angle_alpha 90.000000
_cell_angle_beta 23.008193
_cell_angle_gamma 90.000000
_cell_volume 1578.994461
_symmetry_space_group_name_H-M "P 21/C"
_symmetry_group_IT_number 14
_symmetry_cell_setting 'monoclinic'
loop_
_space_group_symop_operation_xyz
x,y,z
-x,1/2+y,1/2-z
-x,-y,-z
x,1/2-y,1/2+z
loop_
_atom_site_type_symbol
_atom_site_label
_atom_site_fract_x
_atom_site_fract_y
_atom_site_fract_z
Si Si1 0.742728 0.135418 0.842304
Si Si2 0.207263 0.178221 0.065336
Si Si3 0.733673 0.703241 0.073503
Si Si4 0.292746 0.920864 0.677507
Si Si5 0.228940 0.207002 0.821959
Si Si6 0.189122 0.895601 0.912206
Si Si7 0.962519 0.551556 0.715026
Si Si8 0.149837 0.739011 0.597634
O O1 0.692997 0.187357 0.941002
O O2 0.034136 0.162485 0.618400
O O3 0.823368 0.073066 0.841873
O O4 0.465791 0.134312 0.947543
O O5 0.915159 0.140506 0.208376
O O6 0.067887 0.218563 0.219534
O O7 0.343944 0.232173 0.925968
O O8 0.883796 0.732604 0.060961
O O9 0.445797 0.659111 0.266399
O O10 0.298470 0.933340 0.768716
O O11 0.631954 0.915264 0.434616
O O12 0.124701 0.978866 0.737263
O O13 0.587966 0.218239 0.597921
O O14 0.065641 0.207275 0.836424
O O15 0.124823 0.141221 0.920397
O O16 0.117475 0.930243 0.037547
#
# Coordination Sequence:
#
# PCOD9251702 Si02
#       8
#     4   4   4   4   4   4   4   4
#     4  11  22  39  59  89 124 168 205 260 318 375
#     4  11  24  38  60  93 131 165 201 266 326 379
#     4  11  23  35  62  93 130 163 204 258 326 387
#     4  11  25  45  66  94 123 171 221 265 308 374
#     4  12  20  36  57  92 125 162 202 250 319 381
#     4  12  22  40  66  95 125 163 213 264 310 376
#     4  11  24  44  70  89 122 172 226 263 306 368
#     4  11  23  35  59  92 127 162 207 254 318 391
#
# _framework density 20.266062000000002
#
# number of rings (size 3 to 8) (size 9 to 14) (size 15 to 20)
#    0.000    0.750    6.250    1.875    1.750    0.500 
#    0.000    0.000    0.000    0.750    0.000    0.000 
#    0.000    0.000    0.000    0.000    0.000    0.000 
#
# Total GULP energy -178525.930309 kJ/mol
# GULP energy per Si atom -5578.935322 kJ/mol
# Density = 2.021994 g / cm^3
# Si number density = 20.266062 Si / 1000 Ang^3
#
#
#
# Elastic Constant Matrix: (Units=GPa)
#
#
# Indices 1 2 3 4 5 6 
#
# 1 53.8270 -8.7069 19.7985 0.0000 13.3378 0.0000
# 2 -8.7069 15.6806 8.0699 0.0000 4.6592 0.0000
# 3 19.7985 8.0699 77.8328 0.0000 16.4181 0.0000
# 4 0.0000 0.0000 0.0000 26.3479 0.0000 2.3215
# 5 13.3378 4.6592 16.4181 0.0000 31.6169 0.0000
# 6 0.0000 0.0000 0.0000 2.3215 0.0000 16.7933
#
#
#
# Elastic Compliance Matrix: (Units=1/GPa)
#
#
# Indices 1 2 3 4 5 6 
#
# 1 0.027506 0.022185 -0.006917 0.000000 -0.011281 0.000000
# 2 0.022185 0.086701 -0.011189 0.000000 -0.016325 0.000000
# 3 -0.006917 -0.011189 0.016626 0.000000 -0.004066 0.000000
# 4 0.000000 0.000000 0.000000 0.038422 0.000000 -0.005311
# 5 -0.011281 -0.016325 -0.004066 0.000000 0.040905 0.000000
# 6 0.000000 0.000000 0.000000 -0.005311 0.000000 0.060282
#
#
# Mechanical properties :
#
#
# Convention : Reuss Voigt Hill
#
# Bulk Modulus (GPa) = 7.19476 20.62928 13.91202
# Shear Modulus (GPa) = 16.20150 23.49687 19.84919
#
# Velocity S-wave (km/s) = 2.83050 3.40872 3.13298
# Velocity P-wave (km/s) = 3.77362 5.06891 4.46845
#
# Compressibility (1/GPa) = 0.13899009
#
# Stress axis : x y z
#
# Youngs Moduli (GPa) = 36.35526 11.53394 60.14852
#
# Poissons Ratio (x) = -0.25588 0.41608
# Poissons Ratio (y) = -0.80655 0.67300
# Poissons Ratio (z) = 0.25149 0.12905
#
# Static dielectric constant tensor:
#      x y z
#    x 1.766990 0.000000 0.038560 
#    y 0.000000 1.722720 0.000000 
#    z 0.038560 0.000000 1.741570 
# 
# From -- ./inp_files/10203.got.cif
#   From: 2010.05.17/outbox.cif.g08.bks.cpg/sg14_6_cif.got.tgz:10203.got - 2010.06.03 17:49:19.
