data_PCOD9251678
_publ_section_title
;
Structure prediction by ZEFSAII (Michael W. Deem and Ramdas Pophale) SiO2 
 PCOD9251678
Probable space group: P 21/C
;
_chemical_formula_sum "Si O2"
_cell_formula_units_Z 32
_cell_length_a 13.473156
_cell_length_b 20.375133
_cell_length_c 9.509556
_cell_angle_alpha 90.000000
_cell_angle_beta 149.168469
_cell_angle_gamma 90.000000
_cell_volume 1337.941198
_symmetry_space_group_name_H-M "P 21/C"
_symmetry_group_IT_number 14
_symmetry_cell_setting 'monoclinic'
loop_
_space_group_symop_operation_xyz
x,y,z
-x,1/2+y,1/2-z
-x,-y,-z
x,1/2-y,1/2+z
loop_
_atom_site_type_symbol
_atom_site_label
_atom_site_fract_x
_atom_site_fract_y
_atom_site_fract_z
Si Si1 0.468046 0.815208 0.351386
Si Si2 0.454156 0.812517 0.010152
Si Si3 0.008185 0.314879 0.731362
Si Si4 0.017239 0.314148 0.065946
Si Si5 0.518316 0.068115 0.442300
Si Si6 0.069991 0.947542 0.974120
Si Si7 0.010344 0.458579 0.156710
Si Si8 0.562408 0.441406 0.675502
O O1 0.514538 0.750670 0.495937
O O2 0.562232 0.874717 0.555433
O O3 0.524439 0.813825 0.256298
O O4 0.230052 0.816755 0.054466
O O5 0.218371 0.814032 0.724862
O O6 0.505796 0.876504 0.985993
O O7 0.076652 0.310439 0.975307
O O8 0.068605 0.251034 0.716087
O O9 0.060967 0.386301 0.731982
O O10 0.078485 0.384008 0.208291
O O11 0.477321 0.059529 0.228555
O O12 0.500000 0.000000 0.500000
O O13 0.746237 0.084299 0.726672
O O14 0.116388 0.992277 0.893968
O O15 0.000000 0.000000 0.000000
O O16 0.795581 0.447809 0.960156
O O17 0.000000 0.500000 0.000000
O O18 0.500000 0.500000 0.500000
#
# Coordination Sequence:
#
# PCOD9251678 Si02
#       8
#     4   4   4   4   4   4   4   4
#     4   9  17  31  53  79 110 145 186 234 278 329
#     4   9  17  31  53  79 110 144 188 233 278 330
#     4   9  18  30  50  78 111 143 187 231 277 329
#     4   9  18  30  50  79 109 146 184 232 278 328
#     4  11  23  37  57  85 117 149 190 236 286 339
#     4  11  22  38  58  86 115 151 192 237 286 338
#     4  11  22  38  60  84 117 151 191 236 288 341
#     4  11  23  37  57  86 115 150 190 235 287 340
#
# _framework density 23.917344
#
# number of rings (size 3 to 8) (size 9 to 14) (size 15 to 20)
#    0.000    2.000    2.500    1.500    5.250    3.000 
#    0.000    0.000    0.000    3.000    0.000    0.000 
#    0.000    0.000    0.000    0.000    0.000    0.000 
#
# Total GULP energy -178868.919213 kJ/mol
# GULP energy per Si atom -5589.653725 kJ/mol
# Density = 2.386291 g / cm^3
# Si number density = 23.917344 Si / 1000 Ang^3
#
#
#
# Elastic Constant Matrix: (Units=GPa)
#
#
# Indices 1 2 3 4 5 6 
#
# 1 113.8693 69.0458 63.5123 0.0000 -53.7306 0.0000
# 2 69.0458 232.1760 58.5067 0.0000 -57.7333 0.0000
# 3 63.5123 58.5067 103.8108 0.0000 -36.7836 0.0000
# 4 0.0000 0.0000 0.0000 30.8172 0.0000 -8.9362
# 5 -53.7306 -57.7333 -36.7836 0.0000 68.0789 0.0000
# 6 0.0000 0.0000 0.0000 -8.9362 0.0000 39.8683
#
#
#
# Elastic Compliance Matrix: (Units=1/GPa)
#
#
# Indices 1 2 3 4 5 6 
#
# 1 0.017719 -0.001246 -0.006874 0.000000 0.009214 0.000000
# 2 -0.001246 0.005824 -0.001383 0.000000 0.003208 0.000000
# 3 -0.006874 -0.001383 0.015188 0.000000 0.001608 0.000000
# 4 0.000000 0.000000 0.000000 0.034705 0.000000 0.007779
# 5 0.009214 0.003208 0.001608 0.000000 0.025550 0.000000
# 6 0.000000 0.000000 0.000000 0.007779 0.000000 0.026826
#
#
# Mechanical properties :
#
#
# Convention : Reuss Voigt Hill
#
# Bulk Modulus (GPa) = 50.69745 92.44286 71.57015
# Shear Modulus (GPa) = 33.02656 45.00563 39.01610
#
# Velocity S-wave (km/s) = 3.72003 4.34258 4.04330
# Velocity P-wave (km/s) = 6.30035 7.99243 7.19629
#
# Compressibility (1/GPa) = 0.01972486
#
# Stress axis : x y z
#
# Youngs Moduli (GPa) = 56.43571 171.70522 65.84322
#
# Poissons Ratio (x) = 0.21397 0.45258
# Poissons Ratio (y) = 0.07033 0.09107
# Poissons Ratio (z) = 0.38792 0.23750
#
# Static dielectric constant tensor:
#      x y z
#    x 1.959590 0.000000 0.085730 
#    y 0.000000 1.955670 0.000000 
#    z 0.085730 0.000000 2.098090 
# 
# From -- ./inp_files/16861.got.cif
#   From: 2010.05.17/outbox.cif.g08.bks.cpg/sg14_9_cif.got.tgz:16861.got - 2010.06.03 17:49:19.
