data_PCOD9251143
_publ_section_title
;
Structure prediction by ZEFSAII (Michael W. Deem and Ramdas Pophale) SiO2 
 PCOD9251143
Probable space group: P 21/C
;
_chemical_formula_sum "Si O2"
_cell_formula_units_Z 20
_cell_length_a 12.074412
_cell_length_b 7.418489
_cell_length_c 17.465513
_cell_angle_alpha 90.000000
_cell_angle_beta 154.906983
_cell_angle_gamma 90.000000
_cell_volume 663.467808
_symmetry_space_group_name_H-M "P 21/C"
_symmetry_group_IT_number 14
_symmetry_cell_setting 'monoclinic'
loop_
_space_group_symop_operation_xyz
x,y,z
-x,1/2+y,1/2-z
-x,-y,-z
x,1/2-y,1/2+z
loop_
_atom_site_type_symbol
_atom_site_label
_atom_site_fract_x
_atom_site_fract_y
_atom_site_fract_z
Si Si1 0.826409 0.560234 0.966124
Si Si2 0.464195 0.042533 0.117795
Si Si3 0.100018 0.982722 0.313142
Si Si4 0.408353 0.221323 0.404647
Si Si5 0.168305 0.612129 0.664954
O O1 0.539319 0.542315 0.747820
O O2 0.866129 0.464098 0.073433
O O3 0.000000 0.500000 0.000000
O O4 0.932483 0.759156 0.047895
O O5 0.612015 0.914685 0.146569
O O6 0.606044 0.237416 0.209093
O O7 0.174164 0.013741 0.902950
O O8 0.287203 0.827224 0.393773
O O9 0.234283 0.171920 0.369066
O O10 0.314150 0.059703 0.292218
O O11 0.000000 0.500000 0.500000
#
# Coordination Sequence:
#
# PCOD9251143 Si02
#       5
#     4   4   4   4   4
#     4  10  25  54  87 126 178 240 307 382 455 553
#     4  11  27  55  91 125 179 245 307 385 463 550
#     4  11  29  54  87 134 182 244 310 384 467 559
#     4  11  28  55  83 132 183 233 307 381 465 554
#     4  11  25  52  88 129 181 232 308 380 459 550
#
# _framework density 30.144642000000001
#
# number of rings (size 3 to 8) (size 9 to 14) (size 15 to 20)
#    0.000    1.200    2.000    0.000    8.400    8.000 
#    7.200    3.000    0.000    0.000    0.000    1.400 
#    0.000    0.000    0.000    0.000    0.000    0.000 
#
# Total GULP energy -111798.025008 kJ/mol
# GULP energy per Si atom -5589.901250 kJ/mol
# Density = 3.007603 g / cm^3
# Si number density = 30.144642 Si / 1000 Ang^3
#
#
#
# Elastic Constant Matrix: (Units=GPa)
#
#
# Indices 1 2 3 4 5 6 
#
# 1 164.6386 41.6866 105.9036 0.0000 -5.0113 0.0000
# 2 41.6866 136.6009 61.8900 0.0000 -17.8299 0.0000
# 3 105.9036 61.8900 356.8416 0.0000 0.8636 0.0000
# 4 0.0000 0.0000 0.0000 66.8489 0.0000 -22.9870
# 5 -5.0113 -17.8299 0.8636 0.0000 64.5915 0.0000
# 6 0.0000 0.0000 0.0000 -22.9870 0.0000 66.4914
#
#
#
# Elastic Compliance Matrix: (Units=1/GPa)
#
#
# Indices 1 2 3 4 5 6 
#
# 1 0.007762 -0.001403 -0.002061 0.000000 0.000242 0.000000
# 2 -0.001403 0.008528 -0.001068 0.000000 0.002259 0.000000
# 3 -0.002061 -0.001068 0.003600 0.000000 -0.000503 0.000000
# 4 0.000000 0.000000 0.000000 0.016977 0.000000 0.005869
# 5 0.000242 0.002259 -0.000503 0.000000 0.016131 0.000000
# 6 0.000000 0.000000 0.000000 0.005869 0.000000 0.017069
#
#
# Mechanical properties :
#
#
# Convention : Reuss Voigt Hill
#
# Bulk Modulus (GPa) = 92.37208 119.67128 106.02168
# Shear Modulus (GPa) = 60.42973 69.49309 64.96141
#
# Velocity S-wave (km/s) = 4.48220 4.80659 4.64722
# Velocity P-wave (km/s) = 7.58263 8.40176 8.00268
#
# Compressibility (1/GPa) = 0.01082578
#
# Stress axis : x y z
#
# Youngs Moduli (GPa) = 128.82785 117.26543 277.74431
#
# Poissons Ratio (x) = 0.16458 0.57239
# Poissons Ratio (y) = 0.18081 0.29662
# Poissons Ratio (z) = 0.26550 0.12524
#
# Static dielectric constant tensor:
#      x y z
#    x 2.862120 0.000000 0.237400 
#    y 0.000000 2.367010 0.000000 
#    z 0.237400 0.000000 2.620290 
# 
# From -- ./inp_files/58917.got.cif
#   From: 2010.05.17/outbox.cif.g08.bks.cpg/sg14_30_cif.got.tgz:58917.got - 2010.06.03 17:49:19.
