data_PCOD9251029
_publ_section_title
;
Structure prediction by ZEFSAII (Michael W. Deem and Ramdas Pophale) SiO2 
 PCOD9251029
Probable space group: P 21/C
;
_chemical_formula_sum "Si O2"
_cell_formula_units_Z 28
_cell_length_a 16.441313
_cell_length_b 11.832123
_cell_length_c 8.371832
_cell_angle_alpha 90.000000
_cell_angle_beta 53.199457
_cell_angle_gamma 90.000000
_cell_volume 1304.077621
_symmetry_space_group_name_H-M "P 21/C"
_symmetry_group_IT_number 14
_symmetry_cell_setting 'monoclinic'
loop_
_space_group_symop_operation_xyz
x,y,z
-x,1/2+y,1/2-z
-x,-y,-z
x,1/2-y,1/2+z
loop_
_atom_site_type_symbol
_atom_site_label
_atom_site_fract_x
_atom_site_fract_y
_atom_site_fract_z
Si Si1 0.717595 0.400814 0.287861
Si Si2 0.247960 0.127845 0.769552
Si Si3 0.828476 0.240239 0.914969
Si Si4 0.727037 0.862463 0.641000
Si Si5 0.904588 0.077786 0.069557
Si Si6 0.471172 0.111648 0.624895
Si Si7 0.497293 0.844818 0.042481
O O1 0.765352 0.352160 0.391065
O O2 0.762684 0.519970 0.176513
O O3 0.595312 0.407568 0.435287
O O4 0.750749 0.306133 0.120860
O O5 0.212156 0.253167 0.865622
O O6 0.271159 0.134202 0.552812
O O7 0.349614 0.116805 0.754551
O O8 0.180578 0.016671 0.869009
O O9 0.874924 0.338667 0.749789
O O10 0.910789 0.167312 0.916921
O O11 0.608984 0.856375 0.834793
O O12 0.000000 0.000000 0.000000
O O13 0.521211 0.212513 0.465145
O O14 0.503120 0.123378 0.771023
O O15 0.500000 0.000000 0.500000
#
# Coordination Sequence:
#
# PCOD9251029 Si02
#       7
#     4   4   4   4   4   4   4
#     4  11  22  41  67  95 143 181 229 276 335 399
#     4  11  24  42  64  95 137 179 226 292 332 406
#     4  10  25  45  72 105 130 176 222 278 346 408
#     4  11  23  40  61  98 138 184 236 271 336 398
#     4  11  26  51  75 102 137 167 228 285 348 414
#     4  11  24  38  59  93 135 181 235 272 339 394
#     4  11  23  37  60  97 137 190 232 279 321 402
#
# _framework density 21.471114
#
# number of rings (size 3 to 8) (size 9 to 14) (size 15 to 20)
#    0.000    1.143    1.429    5.571    8.000    2.286 
#    0.000    1.429    0.000    0.000    0.000    0.000 
#    0.000    0.000    0.000    0.000    0.000    0.000 
#
# Total GULP energy -156426.235968 kJ/mol
# GULP energy per Si atom -5586.651285 kJ/mol
# Density = 2.142224 g / cm^3
# Si number density = 21.471114 Si / 1000 Ang^3
#
#
#
# Elastic Constant Matrix: (Units=GPa)
#
#
# Indices 1 2 3 4 5 6 
#
# 1 74.6705 42.2371 23.9217 0.0000 3.4717 0.0000
# 2 42.2371 144.8073 16.1232 0.0000 3.5829 0.0000
# 3 23.9217 16.1232 38.2501 0.0000 15.2384 0.0000
# 4 0.0000 0.0000 0.0000 35.8107 0.0000 3.3877
# 5 3.4717 3.5829 15.2384 0.0000 18.8286 0.0000
# 6 0.0000 0.0000 0.0000 3.3877 0.0000 41.1994
#
#
#
# Elastic Compliance Matrix: (Units=1/GPa)
#
#
# Indices 1 2 3 4 5 6 
#
# 1 0.020030 -0.004491 -0.014025 0.000000 0.008512 0.000000
# 2 -0.004491 0.008286 -0.000569 0.000000 -0.000288 0.000000
# 3 -0.014025 -0.000569 0.050299 0.000000 -0.038014 0.000000
# 4 0.000000 0.000000 0.000000 0.028144 0.000000 -0.002314
# 5 0.008512 -0.000288 -0.038014 0.000000 0.082362 0.000000
# 6 0.000000 0.000000 0.000000 -0.002314 0.000000 0.024462
#
#
# Mechanical properties :
#
#
# Convention : Reuss Voigt Hill
#
# Bulk Modulus (GPa) = 24.72497 46.92133 35.82315
# Shear Modulus (GPa) = 18.85120 30.86411 24.85765
#
# Velocity S-wave (km/s) = 2.96629 3.79551 3.40623
# Velocity P-wave (km/s) = 4.82413 6.41160 5.67366
#
# Compressibility (1/GPa) = 0.04044495
#
# Stress axis : x y z
#
# Youngs Moduli (GPa) = 49.92534 120.68167 19.88107
#
# Poissons Ratio (x) = 0.54202 0.27882
# Poissons Ratio (y) = 0.22423 0.01132
# Poissons Ratio (z) = 0.70018 0.06869
#
# Static dielectric constant tensor:
#      x y z
#    x 1.794030 0.000000 -0.015670 
#    y 0.000000 1.740550 0.000000 
#    z -0.015670 0.000000 1.815250 
# 
# From -- ./inp_files/15681.got.cif
#   From: 2010.05.17/outbox.cif.g08.bks.cpg/sg14_8_cif.got.tgz:15681.got - 2010.06.03 17:49:19.
