data_PCOD9251502
_publ_section_title
;
Structure prediction by ZEFSAII (Michael W. Deem and Ramdas Pophale) SiO2 
 PCOD9251502
Probable space group: P 21/C
;
_chemical_formula_sum "Si O2"
_cell_formula_units_Z 20
_cell_length_a 8.775304
_cell_length_b 18.814540
_cell_length_c 6.086468
_cell_angle_alpha 90.000000
_cell_angle_beta 55.682243
_cell_angle_gamma 90.000000
_cell_volume 829.967331
_symmetry_space_group_name_H-M "P 21/C"
_symmetry_group_IT_number 14
_symmetry_cell_setting 'monoclinic'
loop_
_space_group_symop_operation_xyz
x,y,z
-x,1/2+y,1/2-z
-x,-y,-z
x,1/2-y,1/2+z
loop_
_atom_site_type_symbol
_atom_site_label
_atom_site_fract_x
_atom_site_fract_y
_atom_site_fract_z
Si Si1 0.868403 0.063120 0.195463
Si Si2 0.873633 0.848271 0.689180
Si Si3 0.201064 0.626245 0.679917
Si Si4 0.311115 0.008953 0.286009
Si Si5 0.507233 0.780150 0.096981
O O1 0.706428 0.022406 0.456935
O O2 0.002836 0.113796 0.226404
O O3 0.776457 0.116232 0.094907
O O4 0.000000 0.000000 0.000000
O O5 0.725492 0.795019 0.907437
O O6 0.027142 0.825619 0.386781
O O7 0.752873 0.910280 0.672454
O O8 0.168799 0.544159 0.777714
O O9 0.375697 0.651808 0.674173
O O10 0.500000 0.000000 0.000000
O O11 0.468443 0.745793 0.881122
#
# Coordination Sequence:
#
# PCOD9251502 Si02
#       5
#     4   4   4   4   4
#     4  11  21  39  72 112 145 180 228 290 383 459
#     4  11  24  45  72 105 146 185 237 302 375 436
#     4  11  24  45  72 104 145 184 234 303 369 441
#     4  11  21  39  69 112 145 179 229 296 384 447
#     4  12  32  52  71 102 141 200 263 300 349 424
#
# _framework density 24.097334
#
# number of rings (size 3 to 8) (size 9 to 14) (size 15 to 20)
#    0.000    0.800    6.000    1.200    8.400    2.400 
#    0.000    0.000    0.000    0.000    0.000    0.000 
#    0.000    0.000    0.000    0.000    0.000    0.000 
#
# Total GULP energy -111468.195051 kJ/mol
# GULP energy per Si atom -5573.409753 kJ/mol
# Density = 2.404249 g / cm^3
# Si number density = 24.097334 Si / 1000 Ang^3
#
#
#
# Elastic Constant Matrix: (Units=GPa)
#
#
# Indices 1 2 3 4 5 6 
#
# 1 61.1310 7.1621 15.1868 0.0000 3.1513 0.0000
# 2 7.1621 26.0044 12.9448 0.0000 12.7174 0.0000
# 3 15.1868 12.9448 120.5520 0.0000 -6.3896 0.0000
# 4 0.0000 0.0000 0.0000 38.0606 0.0000 0.9615
# 5 3.1513 12.7174 -6.3896 0.0000 46.5976 0.0000
# 6 0.0000 0.0000 0.0000 0.9615 0.0000 42.0175
#
#
#
# Elastic Compliance Matrix: (Units=1/GPa)
#
#
# Indices 1 2 3 4 5 6 
#
# 1 0.017256 -0.003650 -0.001804 0.000000 -0.000418 0.000000
# 2 -0.003650 0.049010 -0.005539 0.000000 -0.013888 0.000000
# 3 -0.001804 -0.005539 0.009271 0.000000 0.002905 0.000000
# 4 0.000000 0.000000 0.000000 0.026289 0.000000 -0.000602
# 5 -0.000418 -0.013888 0.002905 0.000000 0.025677 0.000000
# 6 0.000000 0.000000 0.000000 -0.000602 0.000000 0.023813
#
#
# Mechanical properties :
#
#
# Convention : Reuss Voigt Hill
#
# Bulk Modulus (GPa) = 18.67395 30.91941 24.79668
# Shear Modulus (GPa) = 26.15713 36.82804 31.49259
#
# Velocity S-wave (km/s) = 3.29823 3.91359 3.61902
# Velocity P-wave (km/s) = 4.71918 5.76893 5.27026
#
# Compressibility (1/GPa) = 0.05355053
#
# Stress axis : x y z
#
# Youngs Moduli (GPa) = 57.95191 20.40416 107.86114
#
# Poissons Ratio (x) = 0.07448 0.19459
# Poissons Ratio (y) = 0.21153 0.59743
# Poissons Ratio (z) = 0.10455 0.11302
#
# Static dielectric constant tensor:
#      x y z
#    x 1.940930 0.000000 0.045200 
#    y 0.000000 2.036680 0.000000 
#    z 0.045200 0.000000 2.172060 
# 
# From -- ./inp_files/1375.got.cif
#   From: 2010.05.17/outbox.cif.g08.bks.cpg/sg14_1_cif.got.tgz:1375.got - 2010.06.03 17:49:19.
