data_PCOD9251431
_publ_section_title
;
Structure prediction by ZEFSAII (Michael W. Deem and Ramdas Pophale) SiO2 
 PCOD9251431
Probable space group: P 21/C
;
_chemical_formula_sum "Si O2"
_cell_formula_units_Z 32
_cell_length_a 7.185573
_cell_length_b 6.891998
_cell_length_c 23.668897
_cell_angle_alpha 90.000000
_cell_angle_beta 70.575301
_cell_angle_gamma 90.000000
_cell_volume 1105.434002
_symmetry_space_group_name_H-M "P 21/C"
_symmetry_group_IT_number 14
_symmetry_cell_setting 'monoclinic'
loop_
_space_group_symop_operation_xyz
x,y,z
-x,1/2+y,1/2-z
-x,-y,-z
x,1/2-y,1/2+z
loop_
_atom_site_type_symbol
_atom_site_label
_atom_site_fract_x
_atom_site_fract_y
_atom_site_fract_z
Si Si1 0.064322 0.154257 0.613598
Si Si2 0.622620 0.213591 0.613899
Si Si3 0.206717 0.258919 0.985619
Si Si4 0.243009 0.805257 0.011449
Si Si5 0.027163 0.476994 0.755507
Si Si6 0.342098 0.340089 0.359471
Si Si7 0.661316 0.864317 0.261026
Si Si8 0.890141 0.101104 0.864428
O O1 0.842594 0.165353 0.612328
O O2 0.040602 0.037257 0.674509
O O3 0.193817 0.112446 0.543897
O O4 0.130781 0.370360 0.624507
O O5 0.613877 0.200017 0.547032
O O6 0.597334 0.444388 0.628091
O O7 0.477399 0.110135 0.671642
O O8 0.335309 0.294355 0.915965
O O9 0.259736 0.038233 0.998526
O O10 0.979155 0.246109 0.987038
O O11 0.252897 0.789504 0.077903
O O12 0.196341 0.318631 0.742043
O O13 0.128289 0.630239 0.700322
O O14 0.819488 0.460819 0.742071
O O15 0.440471 0.315245 0.288110
O O16 0.109399 0.346667 0.364778
#
# Coordination Sequence:
#
# PCOD9251431 Si02
#       8
#     4   4   4   4   4   4   4   4
#     4   9  16  30  53  76 103 135 173 222 260 305
#     4   9  18  32  54  82 103 129 174 233 271 292
#     4   7  11  24  49  75  98 129 171 215 260 303
#     4   7  11  24  49  76  99 125 167 225 265 292
#     4  11  21  35  49  76 108 148 178 203 256 328
#     4   8  16  31  52  78 104 134 174 220 264 306
#     4  11  23  35  53  77 111 144 177 212 262 324
#     4   8  14  29  51  74 103 137 175 211 256 316
#
# _framework density 28.947906
#
# number of rings (size 3 to 8) (size 9 to 14) (size 15 to 20)
#    0.000    3.250    1.250    3.000    1.750    0.000 
#    0.000    1.250    0.000    0.000    0.000   14.000 
#    0.000    0.250    0.000    0.000    0.000    0.000 
#
# Total GULP energy -178831.822143 kJ/mol
# GULP energy per Si atom -5588.494442 kJ/mol
# Density = 2.888202 g / cm^3
# Si number density = 28.947906 Si / 1000 Ang^3
#
#
#
# Elastic Constant Matrix: (Units=GPa)
#
#
# Indices 1 2 3 4 5 6 
#
# 1 105.0246 15.8240 47.9471 0.0000 -6.6575 0.0000
# 2 15.8240 65.3327 23.5880 0.0000 0.0397 0.0000
# 3 47.9471 23.5880 315.0586 0.0000 17.6123 0.0000
# 4 0.0000 0.0000 0.0000 62.4388 0.0000 11.9018
# 5 -6.6575 0.0397 17.6123 0.0000 17.3418 0.0000
# 6 0.0000 0.0000 0.0000 11.9018 0.0000 26.4241
#
#
#
# Elastic Compliance Matrix: (Units=1/GPa)
#
#
# Indices 1 2 3 4 5 6 
#
# 1 0.011073 -0.002007 -0.001879 0.000000 0.006164 0.000000
# 2 -0.002007 0.016120 -0.000908 0.000000 0.000115 0.000000
# 3 -0.001879 -0.000908 0.003783 0.000000 -0.004561 0.000000
# 4 0.000000 0.000000 0.000000 0.017520 0.000000 -0.007891
# 5 0.006164 0.000115 -0.004561 0.000000 0.064663 0.000000
# 6 0.000000 0.000000 0.000000 -0.007891 0.000000 0.041399
#
#
# Mechanical properties :
#
#
# Convention : Reuss Voigt Hill
#
# Bulk Modulus (GPa) = 46.75709 73.34823 60.05266
# Shear Modulus (GPa) = 29.19281 47.77806 38.48543
#
# Velocity S-wave (km/s) = 3.17907 4.06702 3.65015
# Velocity P-wave (km/s) = 5.44633 6.88820 6.20926
#
# Compressibility (1/GPa) = 0.02138713
#
# Stress axis : x y z
#
# Youngs Moduli (GPa) = 90.31178 62.03439 264.34108
#
# Poissons Ratio (x) = 0.12451 0.49681
# Poissons Ratio (y) = 0.18126 0.23998
# Poissons Ratio (z) = 0.16973 0.05632
#
# Static dielectric constant tensor:
#      x y z
#    x 2.186910 0.000000 -0.022900 
#    y 0.000000 2.540600 0.000000 
#    z -0.022900 0.000000 2.353310 
# 
# From -- ./inp_files/70571.got.cif
#   From: 2010.05.17/outbox.cif.g08.bks.cpg/sg14_36_cif.got.tgz:70571.got - 2010.06.03 17:49:19.
