data_PCOD9251209
_publ_section_title
;
Structure prediction by ZEFSAII (Michael W. Deem and Ramdas Pophale) SiO2 
 PCOD9251209
Probable space group: P 21/C
;
_chemical_formula_sum "Si O2"
_cell_formula_units_Z 26
_cell_length_a 14.932705
_cell_length_b 13.581619
_cell_length_c 9.202908
_cell_angle_alpha 90.000000
_cell_angle_beta 148.202004
_cell_angle_gamma 90.000000
_cell_volume 983.478329
_symmetry_space_group_name_H-M "P 21/C"
_symmetry_group_IT_number 14
_symmetry_cell_setting 'monoclinic'
loop_
_space_group_symop_operation_xyz
x,y,z
-x,1/2+y,1/2-z
-x,-y,-z
x,1/2-y,1/2+z
loop_
_atom_site_type_symbol
_atom_site_label
_atom_site_fract_x
_atom_site_fract_y
_atom_site_fract_z
Si Si1 0.904294 0.387989 0.120258
Si Si2 0.636962 0.701110 0.535900
Si Si3 0.147439 0.567242 0.482719
Si Si4 0.002608 0.771933 0.981654
Si Si5 0.675409 0.386498 0.572131
Si Si6 0.500000 0.500000 0.500000
Si Si7 0.547176 0.322744 0.997682
O O1 0.046844 0.466358 0.354425
O O2 0.888678 0.315459 0.233517
O O3 0.956236 0.327857 0.048834
O O4 0.726873 0.432366 0.810251
O O5 0.820946 0.749193 0.799337
O O6 0.597174 0.606138 0.575410
O O7 0.512118 0.786208 0.426398
O O8 0.604637 0.669827 0.324639
O O9 0.202744 0.588007 0.393037
O O10 0.323760 0.587099 0.810352
O O11 0.020207 0.646579 0.379553
O O12 0.507822 0.451673 0.339334
O O13 0.646403 0.273018 0.571277
#
# Coordination Sequence:
#
# PCOD9251209 Si02
#       7
#     4   4   4   4   4   2   4
#     4  12  27  47  77 113 152 200 264 327 395 473
#     4  11  25  50  75 111 155 205 256 332 392 471
#     4  12  26  48  79 114 152 209 264 322 398 485
#     4  12  27  49  76 113 155 198 262 331 392 462
#     4  11  24  47  76 111 152 207 250 329 390 471
#     4  10  26  46  78 108 158 202 272 302 404 474
#     4  11  24  47  75 102 154 201 255 310 401 464
#
# _framework density 26.436779999999999
#
# number of rings (size 3 to 8) (size 9 to 14) (size 15 to 20)
#    0.000    0.615    3.077    3.692    4.308    3.692 
#    8.308    2.308    0.000    0.000    0.000    0.000 
#    0.000    0.000    0.000    0.000    0.000    0.000 
#
# Total GULP energy -144995.452821 kJ/mol
# GULP energy per Si atom -5576.748185 kJ/mol
# Density = 2.637661 g / cm^3
# Si number density = 26.436780 Si / 1000 Ang^3
#
#
#
# Elastic Constant Matrix: (Units=GPa)
#
#
# Indices 1 2 3 4 5 6 
#
# 1 157.9808 26.1802 23.8539 0.0000 -0.3388 0.0000
# 2 26.1802 84.9524 23.3579 0.0000 2.4738 0.0000
# 3 23.8539 23.3579 93.1633 0.0000 -16.5350 0.0000
# 4 0.0000 0.0000 0.0000 43.8706 0.0000 3.9853
# 5 -0.3388 2.4738 -16.5350 0.0000 35.8801 0.0000
# 6 0.0000 0.0000 0.0000 3.9853 0.0000 47.4714
#
#
#
# Elastic Compliance Matrix: (Units=1/GPa)
#
#
# Indices 1 2 3 4 5 6 
#
# 1 0.006823 -0.001704 -0.001402 0.000000 -0.000464 0.000000
# 2 -0.001704 0.013284 -0.003332 0.000000 -0.002468 0.000000
# 3 -0.001402 -0.003332 0.013033 0.000000 0.006223 0.000000
# 4 0.000000 0.000000 0.000000 0.022969 0.000000 -0.001928
# 5 -0.000464 -0.002468 0.006223 0.000000 0.030904 0.000000
# 6 0.000000 0.000000 0.000000 -0.001928 0.000000 0.021227
#
#
# Mechanical properties :
#
#
# Convention : Reuss Voigt Hill
#
# Bulk Modulus (GPa) = 49.34972 53.65342 51.50157
# Shear Modulus (GPa) = 39.10162 42.95804 41.02983
#
# Velocity S-wave (km/s) = 3.85003 4.03542 3.94381
# Velocity P-wave (km/s) = 6.20252 6.48474 6.34520
#
# Compressibility (1/GPa) = 0.02026354
#
# Stress axis : x y z
#
# Youngs Moduli (GPa) = 146.56454 75.27609 76.72951
#
# Poissons Ratio (x) = 0.12824 0.10759
# Poissons Ratio (y) = 0.24968 0.25570
# Poissons Ratio (z) = 0.20552 0.25086
#
# Static dielectric constant tensor:
#      x y z
#    x 3.003520 0.000000 1.487730 
#    y 0.000000 -76.608410 0.000000 
#    z 1.487730 0.000000 4.556970 
# 
# From -- ./inp_files/16366.got.cif
#   From: 2010.05.17/outbox.cif.g08.bks.cpg/sg14_9_cif.got.tgz:16366.got - 2010.06.03 17:49:19.
