data_PCOD9251120
_publ_section_title
;
Structure prediction by ZEFSAII (Michael W. Deem and Ramdas Pophale) SiO2 
 PCOD9251120
Probable space group: P 21/C
;
_chemical_formula_sum "Si O2"
_cell_formula_units_Z 16
_cell_length_a 16.878298
_cell_length_b 9.654885
_cell_length_c 8.652575
_cell_angle_alpha 90.000000
_cell_angle_beta 155.370645
_cell_angle_gamma 90.000000
_cell_volume 587.615400
_symmetry_space_group_name_H-M "P 21/C"
_symmetry_group_IT_number 14
_symmetry_cell_setting 'monoclinic'
loop_
_space_group_symop_operation_xyz
x,y,z
-x,1/2+y,1/2-z
-x,-y,-z
x,1/2-y,1/2+z
loop_
_atom_site_type_symbol
_atom_site_label
_atom_site_fract_x
_atom_site_fract_y
_atom_site_fract_z
Si Si1 0.683458 0.833175 0.200888
Si Si2 0.397029 0.924065 0.178876
Si Si3 0.871524 0.305053 0.576669
Si Si4 0.783941 0.045793 0.607621
O O1 0.903056 0.792760 0.554699
O O2 0.679348 0.906074 0.363765
O O3 0.534884 0.710022 0.909921
O O4 0.624943 0.959663 0.988318
O O5 0.500000 0.000000 0.500000
O O6 0.186401 0.887111 0.870590
O O7 0.781392 0.157406 0.463155
O O8 0.771830 0.378495 0.252990
O O9 0.000000 0.000000 0.000000
#
# Coordination Sequence:
#
# PCOD9251120 Si02
#       4
#     4   4   4   4
#     4  11  29  53  84 120 171 218 280 339 414 497
#     4  12  31  50  84 124 165 216 281 339 414 494
#     4  11  26  51  85 115 166 218 279 342 415 486
#     4  10  25  48  83 115 160 215 278 337 418 482
#
# _framework density 27.228695999999999
#
# number of rings (size 3 to 8) (size 9 to 14) (size 15 to 20)
#    0.000    1.000    0.000    2.250   21.000    1.000 
#    0.000    0.000    0.000    0.000    0.000    0.000 
#    0.000    0.000    0.000    0.000    0.000    0.000 
#
# Total GULP energy -89472.745717 kJ/mol
# GULP energy per Si atom -5592.046607 kJ/mol
# Density = 2.716672 g / cm^3
# Si number density = 27.228696 Si / 1000 Ang^3
#
#
#
# Elastic Constant Matrix: (Units=GPa)
#
#
# Indices 1 2 3 4 5 6 
#
# 1 158.9444 93.2194 53.7475 0.0000 5.6179 0.0000
# 2 93.2194 188.9934 58.1697 0.0000 -15.8334 0.0000
# 3 53.7475 58.1697 109.8253 0.0000 19.0042 0.0000
# 4 0.0000 0.0000 0.0000 70.5715 0.0000 -18.5018
# 5 5.6179 -15.8334 19.0042 0.0000 67.0377 0.0000
# 6 0.0000 0.0000 0.0000 -18.5018 0.0000 18.6915
#
#
#
# Elastic Compliance Matrix: (Units=1/GPa)
#
#
# Indices 1 2 3 4 5 6 
#
# 1 0.009494 -0.004067 -0.002301 0.000000 -0.001104 0.000000
# 2 -0.004067 0.008514 -0.003077 0.000000 0.003224 0.000000
# 3 -0.002301 -0.003077 0.012570 0.000000 -0.004098 0.000000
# 4 0.000000 0.000000 0.000000 0.019136 0.000000 0.018942
# 5 -0.001104 0.003224 -0.004098 0.000000 0.016933 0.000000
# 6 0.000000 0.000000 0.000000 0.018942 0.000000 0.072250
#
#
# Mechanical properties :
#
#
# Convention : Reuss Voigt Hill
#
# Bulk Modulus (GPa) = 85.55784 96.44851 91.00317
# Shear Modulus (GPa) = 30.92455 48.10191 39.51323
#
# Velocity S-wave (km/s) = 3.37372 4.20764 3.81354
# Velocity P-wave (km/s) = 6.83126 7.68792 7.27222
#
# Compressibility (1/GPa) = 0.01168800
#
# Stress axis : x y z
#
# Youngs Moduli (GPa) = 105.33051 117.44687 79.55162
#
# Poissons Ratio (x) = 0.47766 0.18306
# Poissons Ratio (y) = 0.42838 0.24480
# Poissons Ratio (z) = 0.24238 0.36142
#
# Static dielectric constant tensor:
#      x y z
#    x 2.288700 0.000000 -0.134840 
#    y 0.000000 2.192310 0.000000 
#    z -0.134840 0.000000 2.421400 
# 
# From -- ./inp_files/12302.got.cif
#   From: 2010.05.17/outbox.cif.g08.bks.cpg/sg14_7_cif.got.tgz:12302.got - 2010.06.03 17:49:19.
