data_PCOD9251780
_publ_section_title
;
Structure prediction by ZEFSAII (Michael W. Deem and Ramdas Pophale) SiO2 
 PCOD9251780
Probable space group: P 21/C
;
_chemical_formula_sum "Si O2"
_cell_formula_units_Z 28
_cell_length_a 7.386153
_cell_length_b 15.513013
_cell_length_c 15.204461
_cell_angle_alpha 90.000000
_cell_angle_beta 43.852626
_cell_angle_gamma 90.000000
_cell_volume 1206.971485
_symmetry_space_group_name_H-M "P 21/C"
_symmetry_group_IT_number 14
_symmetry_cell_setting 'monoclinic'
loop_
_space_group_symop_operation_xyz
x,y,z
-x,1/2+y,1/2-z
-x,-y,-z
x,1/2-y,1/2+z
loop_
_atom_site_type_symbol
_atom_site_label
_atom_site_fract_x
_atom_site_fract_y
_atom_site_fract_z
Si Si1 0.203296 0.907665 0.867256
Si Si2 0.851338 0.980516 0.417582
Si Si3 0.501817 0.670261 0.101373
Si Si4 0.976170 0.336641 0.841921
Si Si5 0.816840 0.707593 0.592676
Si Si6 0.577771 0.441743 0.296900
Si Si7 0.865204 0.520677 0.340215
O O1 0.346045 0.848061 0.745753
O O2 0.961898 0.957823 0.903244
O O3 0.074083 0.848689 0.986140
O O4 0.413583 0.976138 0.824340
O O5 0.621480 0.920555 0.528627
O O6 0.134484 0.944332 0.345949
O O7 0.863712 0.081568 0.436874
O O8 0.881305 0.980138 0.300103
O O9 0.280198 0.703531 0.113056
O O10 0.742226 0.733011 0.035451
O O11 0.138179 0.269655 0.841043
O O12 0.148045 0.387516 0.707875
O O13 0.575954 0.641908 0.678486
O O14 0.639264 0.458457 0.380434
#
# Coordination Sequence:
#
# PCOD9251780 Si02
#       7
#     4   4   4   4   4   4   4
#     4  11  23  39  65  88 125 168 211 255 304 372
#     4   8  19  44  66  87 114 166 214 250 308 356
#     4  11  22  42  65  90 122 160 217 264 296 368
#     4   8  20  40  63  90 122 161 207 259 305 360
#     4  12  25  37  59  99 131 163 196 255 331 366
#     4   9  22  41  60  88 127 164 207 248 308 387
#     4   7  19  41  63  90 112 166 212 249 299 364
#
# _framework density 23.198561000000002
#
# number of rings (size 3 to 8) (size 9 to 14) (size 15 to 20)
#    1.714    0.571    0.000    2.571    2.000    5.143 
#    0.000    0.000    0.000    0.000    0.000    0.000 
#    0.000    0.000    0.000    0.000    0.000    0.000 
#
# Total GULP energy -156077.089705 kJ/mol
# GULP energy per Si atom -5574.181775 kJ/mol
# Density = 2.314576 g / cm^3
# Si number density = 23.198561 Si / 1000 Ang^3
#
#
#
# Elastic Constant Matrix: (Units=GPa)
#
#
# Indices 1 2 3 4 5 6 
#
# 1 94.6768 28.6625 11.5515 0.0000 -20.3647 0.0000
# 2 28.6625 60.3931 -1.2149 0.0000 -13.1828 0.0000
# 3 11.5515 -1.2149 29.0414 0.0000 -11.0768 0.0000
# 4 0.0000 0.0000 0.0000 17.1706 0.0000 13.5933
# 5 -20.3647 -13.1828 -11.0768 0.0000 26.7838 0.0000
# 6 0.0000 0.0000 0.0000 13.5933 0.0000 96.6728
#
#
#
# Elastic Compliance Matrix: (Units=1/GPa)
#
#
# Indices 1 2 3 4 5 6 
#
# 1 0.013986 -0.005234 -0.003216 0.000000 0.006728 0.000000
# 2 -0.005234 0.021157 0.006436 0.000000 0.009096 0.000000
# 3 -0.003216 0.006436 0.043048 0.000000 0.018526 0.000000
# 4 0.000000 0.000000 0.000000 0.065534 0.000000 -0.009215
# 5 0.006728 0.009096 0.018526 0.000000 0.054590 0.000000
# 6 0.000000 0.000000 0.000000 -0.009215 0.000000 0.011640
#
#
# Mechanical properties :
#
#
# Convention : Reuss Voigt Hill
#
# Bulk Modulus (GPa) = 13.48368 29.12330 21.30349
# Shear Modulus (GPa) = 20.94644 37.79959 29.37302
#
# Velocity S-wave (km/s) = 3.00812 4.04095 3.56217
# Velocity P-wave (km/s) = 4.22965 5.86119 5.11095
#
# Compressibility (1/GPa) = 0.07416376
#
# Stress axis : x y z
#
# Youngs Moduli (GPa) = 71.49814 47.26548 23.22993
#
# Poissons Ratio (x) = 0.24739 0.07471
# Poissons Ratio (y) = 0.37422 -0.14951
# Poissons Ratio (z) = 0.22994 -0.30421
#
# Static dielectric constant tensor:
#      x y z
#    x 1.907180 0.000000 0.024510 
#    y 0.000000 1.896800 0.000000 
#    z 0.024510 0.000000 1.933820 
# 
# From -- ./inp_files/65531.got.cif
#   From: 2010.05.17/outbox.cif.g08.bks.cpg/sg14_33_cif.got.tgz:65531.got - 2010.06.03 17:49:19.
