data_PCOD9251341
_publ_section_title
;
Structure prediction by ZEFSAII (Michael W. Deem and Ramdas Pophale) SiO2 
 PCOD9251341
Probable space group: P 21/C
;
_chemical_formula_sum "Si O2"
_cell_formula_units_Z 24
_cell_length_a 18.075111
_cell_length_b 5.103736
_cell_length_c 23.723855
_cell_angle_alpha 90.000000
_cell_angle_beta 35.097037
_cell_angle_gamma 90.000000
_cell_volume 1258.329242
_symmetry_space_group_name_H-M "P 21/C"
_symmetry_group_IT_number 14
_symmetry_cell_setting 'monoclinic'
loop_
_space_group_symop_operation_xyz
x,y,z
-x,1/2+y,1/2-z
-x,-y,-z
x,1/2-y,1/2+z
loop_
_atom_site_type_symbol
_atom_site_label
_atom_site_fract_x
_atom_site_fract_y
_atom_site_fract_z
Si Si1 0.498298 0.022845 0.288084
Si Si2 0.238580 0.193062 0.217939
Si Si3 0.991747 0.258099 0.794517
Si Si4 0.612044 0.668163 0.487084
Si Si5 0.705752 0.346289 0.993131
Si Si6 0.339450 0.703650 0.208965
O O1 0.540634 0.778670 0.223326
O O2 0.380040 0.914448 0.399264
O O3 0.608729 0.121240 0.262157
O O4 0.106193 0.175469 0.266197
O O5 0.350746 0.155098 0.101151
O O6 0.255404 0.475249 0.234630
O O7 0.263178 0.973567 0.249695
O O8 0.992981 0.475121 0.744072
O O9 0.853128 0.271085 0.910958
O O10 0.639733 0.392408 0.500214
O O11 0.470116 0.765730 0.590806
O O12 0.702864 0.892051 0.457108
#
# Coordination Sequence:
#
# PCOD9251341 Si02
#       6
#     4   4   4   4   4   4
#     4  11  23  42  65  83 110 150 202 265 301 331
#     4  12  21  35  57  85 130 159 182 232 289 357
#     4  12  22  38  58  85 127 167 194 220 273 362
#     4  11  20  35  57  85 128 155 188 232 287 360
#     4  11  21  38  60  90 115 156 206 235 281 348
#     4  11  23  36  56  90 115 154 198 240 302 348
#
# _framework density 19.072911000000001
#
# number of rings (size 3 to 8) (size 9 to 14) (size 15 to 20)
#    0.000    0.667    3.333    8.000    0.000    0.000 
#    0.000    0.000    0.000    6.000    0.000    0.000 
#    0.000    0.000    0.000    0.000    0.000    0.000 
#
# Total GULP energy -134173.898904 kJ/mol
# GULP energy per Si atom -5590.579121 kJ/mol
# Density = 1.902950 g / cm^3
# Si number density = 19.072911 Si / 1000 Ang^3
#
#
#
# Elastic Constant Matrix: (Units=GPa)
#
#
# Indices 1 2 3 4 5 6 
#
# 1 49.8705 28.2843 14.7389 0.0000 -11.8132 0.0000
# 2 28.2843 69.6562 19.7284 0.0000 37.8053 0.0000
# 3 14.7389 19.7284 19.6830 0.0000 -13.4249 0.0000
# 4 0.0000 0.0000 0.0000 4.8640 0.0000 -6.4745
# 5 -11.8132 37.8053 -13.4249 0.0000 12.2568 0.0000
# 6 0.0000 0.0000 0.0000 -6.4745 0.0000 42.0267
#
#
#
# Elastic Compliance Matrix: (Units=1/GPa)
#
#
# Indices 1 2 3 4 5 6 
#
# 1 0.024931 0.001332 -0.025369 0.000000 -0.007867 0.000000
# 2 0.001332 -0.001182 0.014039 0.000000 0.020308 0.000000
# 3 -0.025369 0.014039 0.037638 0.000000 -0.026527 0.000000
# 4 0.000000 0.000000 0.000000 0.258624 0.000000 0.039842
# 5 -0.007867 0.020308 -0.026527 0.000000 -0.017688 0.000000
# 6 0.000000 0.000000 0.000000 0.039842 0.000000 0.029932
#
#
# Mechanical properties :
#
#
# Convention : Reuss Voigt Hill
#
# Bulk Modulus (GPa) = 24.16112 29.41254 26.78683
# Shear Modulus (GPa) = 13.65939 16.92674 15.29306
#
# Velocity S-wave (km/s) = 2.67903 2.98228 2.83472
# Velocity P-wave (km/s) = 4.71857 5.22621 4.97886
#
# Compressibility (1/GPa) = 0.04138881
#
# Stress axis : x y z
#
# Youngs Moduli (GPa) = 40.11143 -845.67790 26.56868
#
# Poissons Ratio (x) = 1.12649 0.67403
# Poissons Ratio (y) = -0.05343 -0.37299
# Poissons Ratio (z) = 1.01760 11.87211
#
# Static dielectric constant tensor:
#      x y z
#    x 1.694680 0.000000 -0.013870 
#    y 0.000000 1.679480 0.000000 
#    z -0.013870 0.000000 1.661080 
# 
# From -- ./inp_files/73468.got.cif
#   From: 2010.05.17/outbox.cif.g08.bks.cpg/sg14_37_cif.got.tgz:73468.got - 2010.06.03 17:49:19.
