data_PCOD9251321
_publ_section_title
;
Structure prediction by ZEFSAII (Michael W. Deem and Ramdas Pophale) SiO2 
 PCOD9251321
Probable space group: P 21/C
;
_chemical_formula_sum "Si O2"
_cell_formula_units_Z 30
_cell_length_a 14.700568
_cell_length_b 13.861711
_cell_length_c 21.671305
_cell_angle_alpha 90.000000
_cell_angle_beta 16.621322
_cell_angle_gamma 90.000000
_cell_volume 1263.194848
_symmetry_space_group_name_H-M "P 21/C"
_symmetry_group_IT_number 14
_symmetry_cell_setting 'monoclinic'
loop_
_space_group_symop_operation_xyz
x,y,z
-x,1/2+y,1/2-z
-x,-y,-z
x,1/2-y,1/2+z
loop_
_atom_site_type_symbol
_atom_site_label
_atom_site_fract_x
_atom_site_fract_y
_atom_site_fract_z
Si Si1 0.129445 0.198030 0.519935
Si Si2 0.299333 0.558592 0.780747
Si Si3 0.516000 0.355542 0.210984
Si Si4 0.317116 0.803351 0.593869
Si Si5 0.431062 0.043782 0.406362
Si Si6 0.972815 0.727753 0.204463
Si Si7 0.500000 0.000000 0.500000
Si Si8 0.752317 0.976760 0.888049
O O1 0.268120 0.268063 0.376718
O O2 0.405781 0.136161 0.376253
O O3 0.868879 0.128764 0.658645
O O4 0.933091 0.260569 0.696470
O O5 0.449377 0.610195 0.741716
O O6 0.580072 0.500458 0.564334
O O7 0.000000 0.500000 0.000000
O O8 0.460543 0.448652 0.202874
O O9 0.848756 0.311423 0.971176
O O10 0.688968 0.798969 0.372457
O O11 0.286583 0.917793 0.606298
O O12 0.247318 0.746963 0.575387
O O13 0.599909 0.044390 0.363472
O O14 0.060599 0.034805 0.666547
O O15 0.804107 0.637950 0.347485
O O16 0.500000 0.000000 0.000000
#
# Coordination Sequence:
#
# PCOD9251321 Si02
#       8
#     4   4   4   4   4   4   2   4
#     4  12  26  46  73 110 147 201 241 318 382 453
#     4  12  23  42  73 105 142 188 245 313 382 430
#     4  11  26  45  69 109 157 180 250 311 387 448
#     4  12  25  48  75 108 146 200 262 304 380 450
#     4  11  24  50  71 109 148 195 256 306 373 457
#     4  11  24  47  72 102 146 197 251 312 360 463
#     4  12  26  44  76 100 150 192 248 310 366 448
#     4  11  19  42  73 103 132 187 246 308 356 445
#
# _framework density 23.749305
#
# number of rings (size 3 to 8) (size 9 to 14) (size 15 to 20)
#    0.000    0.533    6.667    2.400    3.733    0.000 
#    4.800    0.667    0.000    0.000    0.000    0.000 
#    0.000    0.000    0.000    0.000    0.000    0.000 
#
# Total GULP energy -167093.775047 kJ/mol
# GULP energy per Si atom -5569.792502 kJ/mol
# Density = 2.369525 g / cm^3
# Si number density = 23.749305 Si / 1000 Ang^3
#
#
#
# Elastic Constant Matrix: (Units=GPa)
#
#
# Indices 1 2 3 4 5 6 
#
# 1 121.4922 10.6814 17.1380 0.0000 13.4906 0.0000
# 2 10.6814 65.7773 19.6077 0.0000 16.3667 0.0000
# 3 17.1380 19.6077 74.6132 0.0000 24.2277 0.0000
# 4 0.0000 0.0000 0.0000 41.6162 0.0000 13.3891
# 5 13.4906 16.3667 24.2277 0.0000 33.7538 0.0000
# 6 0.0000 0.0000 0.0000 13.3891 0.0000 25.7106
#
#
#
# Elastic Compliance Matrix: (Units=1/GPa)
#
#
# Indices 1 2 3 4 5 6 
#
# 1 0.008699 -0.000478 -0.001068 0.000000 -0.002479 0.000000
# 2 -0.000478 0.017644 -0.002361 0.000000 -0.006669 0.000000
# 3 -0.001068 -0.002361 0.017939 0.000000 -0.011304 0.000000
# 4 0.000000 0.000000 0.000000 0.028865 0.000000 -0.015032
# 5 -0.002479 -0.006669 -0.011304 0.000000 0.041965 0.000000
# 6 0.000000 0.000000 0.000000 -0.015032 0.000000 0.046722
#
#
# Mechanical properties :
#
#
# Convention : Reuss Voigt Hill
#
# Bulk Modulus (GPa) = 27.42095 39.63744 33.52919
# Shear Modulus (GPa) = 27.50225 34.51316 31.00770
#
# Velocity S-wave (km/s) = 3.40667 3.81626 3.61726
# Velocity P-wave (km/s) = 5.20047 6.01204 5.62092
#
# Compressibility (1/GPa) = 0.03646847
#
# Stress axis : x y z
#
# Youngs Moduli (GPa) = 114.95806 56.67731 55.74486
#
# Poissons Ratio (x) = 0.02707 0.05952
# Poissons Ratio (y) = 0.05490 0.13163
# Poissons Ratio (z) = 0.12273 0.13383
#
# Static dielectric constant tensor:
#      x y z
#    x 1.976660 0.000000 -0.080410 
#    y 0.000000 2.140340 0.000000 
#    z -0.080410 0.000000 1.905570 
# 
# From -- ./inp_files/68654.got.cif
#   From: 2010.05.17/outbox.cif.g08.bks.cpg/sg14_35_cif.got.tgz:68654.got - 2010.06.03 17:49:19.
