data_PCOD9251746
_publ_section_title
;
Structure prediction by ZEFSAII (Michael W. Deem and Ramdas Pophale) SiO2 
 PCOD9251746
Probable space group: P 21/C
;
_chemical_formula_sum "Si O2"
_cell_formula_units_Z 24
_cell_length_a 20.827728
_cell_length_b 9.176348
_cell_length_c 8.236255
_cell_angle_alpha 90.000000
_cell_angle_beta 36.910060
_cell_angle_gamma 90.000000
_cell_volume 945.362588
_symmetry_space_group_name_H-M "P 21/C"
_symmetry_group_IT_number 14
_symmetry_cell_setting 'monoclinic'
loop_
_space_group_symop_operation_xyz
x,y,z
-x,1/2+y,1/2-z
-x,-y,-z
x,1/2-y,1/2+z
loop_
_atom_site_type_symbol
_atom_site_label
_atom_site_fract_x
_atom_site_fract_y
_atom_site_fract_z
Si Si1 0.173312 0.042507 0.887459
Si Si2 0.918889 0.454320 0.897959
Si Si3 0.192571 0.734673 0.156919
Si Si4 0.224467 0.308452 0.946373
Si Si5 0.566555 0.278499 0.427148
Si Si6 0.447944 0.068283 0.872513
O O1 0.219971 0.135010 0.941023
O O2 0.215330 0.134114 0.647238
O O3 0.204487 0.878054 0.784201
O O4 0.045476 0.045615 0.154223
O O5 0.879360 0.355737 0.825497
O O6 0.866298 0.377887 0.160287
O O7 0.874193 0.615032 0.949459
O O8 0.310874 0.759571 0.851800
O O9 0.330778 0.372550 0.651719
O O10 0.493361 0.141414 0.619062
O O11 0.556632 0.394918 0.596057
O O12 0.524796 0.368994 0.357949
#
# Coordination Sequence:
#
# PCOD9251746 Si02
#       6
#     4   4   4   4   4   4
#     4  11  22  41  67  90 128 166 210 261 315 375
#     4  11  22  41  65  92 127 166 211 259 316 375
#     4  11  23  43  62  94 127 166 209 262 317 370
#     4  11  23  42  61  97 126 166 212 260 316 370
#     4  11  24  44  65  95 127 168 211 260 319 372
#     4  11  24  43  66  94 128 168 211 261 316 376
#
# _framework density 25.387084000000002
#
# number of rings (size 3 to 8) (size 9 to 14) (size 15 to 20)
#    0.000    1.000    3.333    6.000    2.333    2.000 
#    3.000    3.333    0.000    0.000    0.000    0.000 
#    0.000    0.000    0.000    0.000    0.000    0.000 
#
# Total GULP energy -134618.632993 kJ/mol
# GULP energy per Si atom -5609.109708 kJ/mol
# Density = 2.532930 g / cm^3
# Si number density = 25.387084 Si / 1000 Ang^3
#
#
#
# Elastic Constant Matrix: (Units=GPa)
#
#
# Indices 1 2 3 4 5 6 
#
# 1 41.9932 5.8408 6.3297 0.0000 -9.7243 0.0000
# 2 5.8408 105.2926 53.2250 0.0000 14.8532 0.0000
# 3 6.3297 53.2250 153.7199 0.0000 -15.8685 0.0000
# 4 0.0000 0.0000 0.0000 82.5891 0.0000 2.9748
# 5 -9.7243 14.8532 -15.8685 0.0000 26.5801 0.0000
# 6 0.0000 0.0000 0.0000 2.9748 0.0000 47.0856
#
#
#
# Elastic Compliance Matrix: (Units=1/GPa)
#
#
# Indices 1 2 3 4 5 6 
#
# 1 0.027251 -0.004285 0.001746 0.000000 0.013406 0.000000
# 2 -0.004285 0.014906 -0.006401 0.000000 -0.013719 0.000000
# 3 0.001746 -0.006401 0.009682 0.000000 0.009995 0.000000
# 4 0.000000 0.000000 0.000000 0.012136 0.000000 -0.000767
# 5 0.013406 -0.013719 0.009995 0.000000 0.056160 0.000000
# 6 0.000000 0.000000 0.000000 -0.000767 0.000000 0.021286
#
#
# Mechanical properties :
#
#
# Convention : Reuss Voigt Hill
#
# Bulk Modulus (GPa) = 29.44880 47.97742 38.71311
# Shear Modulus (GPa) = 29.30476 46.95829 38.13152
#
# Velocity S-wave (km/s) = 3.40121 4.30547 3.87978
# Velocity P-wave (km/s) = 5.20090 6.60723 5.94579
#
# Compressibility (1/GPa) = 0.03395724
#
# Stress axis : x y z
#
# Youngs Moduli (GPa) = 36.69620 67.08752 103.28922
#
# Poissons Ratio (x) = 0.28749 -0.18030
# Poissons Ratio (y) = 0.15725 0.66114
# Poissons Ratio (z) = -0.06406 0.42942
#
# Static dielectric constant tensor:
#      x y z
#    x 2.057740 0.000000 0.080230 
#    y 0.000000 2.029670 0.000000 
#    z 0.080230 0.000000 1.927160 
# 
# From -- ./inp_files/19456.got.cif
#   From: 2010.05.17/outbox.cif.g08.bks.cpg/sg14_10_cif.got.tgz:19456.got - 2010.06.03 17:49:19.
