data_PCOD9251774
_publ_section_title
;
Structure prediction by ZEFSAII (Michael W. Deem and Ramdas Pophale) SiO2 
 PCOD9251774
Probable space group: P 21/C
;
_chemical_formula_sum "Si O2"
_cell_formula_units_Z 22
_cell_length_a 8.191679
_cell_length_b 5.105112
_cell_length_c 23.669075
_cell_angle_alpha 90.000000
_cell_angle_beta 129.731430
_cell_angle_gamma 90.000000
_cell_volume 761.225836
_symmetry_space_group_name_H-M "P 21/C"
_symmetry_group_IT_number 14
_symmetry_cell_setting 'monoclinic'
loop_
_space_group_symop_operation_xyz
x,y,z
-x,1/2+y,1/2-z
-x,-y,-z
x,1/2-y,1/2+z
loop_
_atom_site_type_symbol
_atom_site_label
_atom_site_fract_x
_atom_site_fract_y
_atom_site_fract_z
Si Si1 0.837374 0.364330 0.379345
Si Si2 0.500000 0.500000 0.500000
Si Si3 0.435284 0.401647 0.588089
Si Si4 0.818012 0.751628 0.169029
Si Si5 0.877391 0.125475 0.580531
Si Si6 0.302949 0.930310 0.267124
O O1 0.734872 0.431546 0.416150
O O2 0.663801 0.354154 0.290132
O O3 0.971982 0.613004 0.386887
O O4 0.963781 0.093421 0.410214
O O5 0.361414 0.289704 0.512603
O O6 0.661900 0.258744 0.512764
O O7 0.528646 0.208658 0.655202
O O8 0.646699 0.544574 0.604013
O O9 0.828144 0.498739 0.131693
O O10 0.716375 0.717036 0.208744
O O11 0.060524 0.836909 0.226641
#
# Coordination Sequence:
#
# PCOD9251774 Si02
#       6
#     4   2   4   4   4   4
#     4  11  29  46  75 112 153 185 246 322 395 426
#     4  12  26  52  76 104 148 204 272 288 362 462
#     4  12  28  44  74 111 148 202 243 315 370 451
#     4  11  22  43  74 107 142 194 247 308 365 449
#     4  11  26  50  75 107 147 200 247 313 369 451
#     4  11  22  41  72 104 147 185 246 307 377 441
#
# _framework density 28.900753000000002
#
# number of rings (size 3 to 8) (size 9 to 14) (size 15 to 20)
#    0.000    0.727    3.636    3.273    7.636    4.364 
#    0.000    0.000    0.000    0.000    0.000    0.000 
#    0.000    0.000    0.000    0.000    0.000    0.000 
#
# Total GULP energy -122814.729278 kJ/mol
# GULP energy per Si atom -5582.487694 kJ/mol
# Density = 2.883497 g / cm^3
# Si number density = 28.900753 Si / 1000 Ang^3
#
#
#
# Elastic Constant Matrix: (Units=GPa)
#
#
# Indices 1 2 3 4 5 6 
#
# 1 149.5535 22.1718 36.2478 0.0000 -48.1001 0.0000
# 2 22.1718 114.8887 -11.0224 0.0000 18.6369 0.0000
# 3 36.2478 -11.0224 89.3242 0.0000 -16.5740 0.0000
# 4 0.0000 0.0000 0.0000 41.5673 0.0000 10.1275
# 5 -48.1001 18.6369 -16.5740 0.0000 60.3544 0.0000
# 6 0.0000 0.0000 0.0000 10.1275 0.0000 62.2381
#
#
#
# Elastic Compliance Matrix: (Units=1/GPa)
#
#
# Indices 1 2 3 4 5 6 
#
# 1 0.010961 -0.003894 -0.003250 0.000000 0.009045 0.000000
# 2 -0.003894 0.010581 0.001795 0.000000 -0.005878 0.000000
# 3 -0.003250 0.001795 0.012805 0.000000 0.000372 0.000000
# 4 0.000000 0.000000 0.000000 0.025050 0.000000 -0.004076
# 5 0.009045 -0.005878 0.000372 0.000000 0.025695 0.000000
# 6 0.000000 0.000000 0.000000 -0.004076 0.000000 0.016731
#
#
# Mechanical properties :
#
#
# Convention : Reuss Voigt Hill
#
# Bulk Modulus (GPa) = 42.28580 49.84009 46.06295
# Shear Modulus (GPa) = 41.52685 53.25660 47.39172
#
# Velocity S-wave (km/s) = 3.79473 4.29737 4.05385
# Velocity P-wave (km/s) = 5.81920 6.47348 6.15504
#
# Compressibility (1/GPa) = 0.02364860
#
# Stress axis : x y z
#
# Youngs Moduli (GPa) = 91.23323 94.50527 78.09704
#
# Poissons Ratio (x) = 0.36804 0.25383
# Poissons Ratio (y) = 0.35530 -0.14022
# Poissons Ratio (z) = 0.29652 -0.16968
#
# Static dielectric constant tensor:
#      x y z
#    x 2.215150 0.000000 -0.126580 
#    y 0.000000 2.452860 0.000000 
#    z -0.126580 0.000000 2.759130 
# 
# From -- ./inp_files/76124.got.cif
#   From: 2010.05.17/outbox.cif.g08.bks.cpg/sg14_39_cif.got.tgz:76124.got - 2010.06.03 17:49:19.
