data_PCOD9251621
_publ_section_title
;
Structure prediction by ZEFSAII (Michael W. Deem and Ramdas Pophale) SiO2 
 PCOD9251621
Probable space group: P 21/C
;
_chemical_formula_sum "Si O2"
_cell_formula_units_Z 28
_cell_length_a 8.025929
_cell_length_b 11.563615
_cell_length_c 18.229556
_cell_angle_alpha 90.000000
_cell_angle_beta 49.327079
_cell_angle_gamma 90.000000
_cell_volume 1283.180224
_symmetry_space_group_name_H-M "P 21/C"
_symmetry_group_IT_number 14
_symmetry_cell_setting 'monoclinic'
loop_
_space_group_symop_operation_xyz
x,y,z
-x,1/2+y,1/2-z
-x,-y,-z
x,1/2-y,1/2+z
loop_
_atom_site_type_symbol
_atom_site_label
_atom_site_fract_x
_atom_site_fract_y
_atom_site_fract_z
Si Si1 0.543482 0.308520 0.665516
Si Si2 0.099748 0.430942 0.261819
Si Si3 0.037868 0.321382 0.763686
Si Si4 0.539157 0.514270 0.074226
Si Si5 0.887907 0.162166 0.471817
Si Si6 0.207215 0.460287 0.395781
Si Si7 0.381381 0.263111 0.867700
O O1 0.300853 0.321506 0.701689
O O2 0.720606 0.251687 0.559667
O O3 0.633615 0.433433 0.663246
O O4 0.510266 0.248183 0.754091
O O5 0.995676 0.315150 0.254148
O O6 0.353923 0.437574 0.165594
O O7 0.111729 0.413473 0.345992
O O8 0.010288 0.560203 0.268073
O O9 0.907931 0.333991 0.877843
O O10 0.510761 0.644716 0.110018
O O11 0.500000 0.500000 0.000000
O O12 0.776707 0.460418 0.022884
O O13 0.135786 0.186772 0.425292
O O14 0.337135 0.365778 0.405996
O O15 0.000000 0.500000 0.500000
#
# Coordination Sequence:
#
# PCOD9251621 Si02
#       7
#     4   4   4   4   4   4   4
#     4  11  22  43  69  95 135 181 224 290 344 418
#     4  12  24  46  68  99 143 180 230 291 351 423
#     4  11  25  44  69 100 139 185 227 287 361 417
#     4  12  24  42  68  99 137 177 228 291 348 416
#     4  11  21  45  67  96 137 176 232 283 345 422
#     4  12  23  45  70  98 135 180 238 292 349 420
#     4  11  24  41  70  98 130 183 233 279 354 419
#
# _framework density 21.820785999999998
#
# number of rings (size 3 to 8) (size 9 to 14) (size 15 to 20)
#    0.000    0.571    8.571    0.429    0.000    2.286 
#    0.000    1.429    0.000    0.000    0.000    0.000 
#    0.000    0.000    0.000    0.000    0.000    0.000 
#
# Total GULP energy -156184.653529 kJ/mol
# GULP energy per Si atom -5578.023340 kJ/mol
# Density = 2.177112 g / cm^3
# Si number density = 21.820786 Si / 1000 Ang^3
#
#
#
# Elastic Constant Matrix: (Units=GPa)
#
#
# Indices 1 2 3 4 5 6 
#
# 1 43.8762 16.9085 10.4913 0.0000 0.3039 0.0000
# 2 16.9085 145.6999 11.9817 0.0000 5.3233 0.0000
# 3 10.4913 11.9817 110.7777 0.0000 -0.0055 0.0000
# 4 0.0000 0.0000 0.0000 37.8556 0.0000 -7.2892
# 5 0.3039 5.3233 -0.0055 0.0000 20.2852 0.0000
# 6 0.0000 0.0000 0.0000 -7.2892 0.0000 45.6535
#
#
#
# Elastic Compliance Matrix: (Units=1/GPa)
#
#
# Indices 1 2 3 4 5 6 
#
# 1 0.024298 -0.002666 -0.002013 0.000000 0.000335 0.000000
# 2 -0.002666 0.007285 -0.000536 0.000000 -0.001872 0.000000
# 3 -0.002013 -0.000536 0.009276 0.000000 0.000173 0.000000
# 4 0.000000 0.000000 0.000000 0.027254 0.000000 0.004351
# 5 0.000335 -0.001872 0.000173 0.000000 0.049783 0.000000
# 6 0.000000 0.000000 0.000000 0.004351 0.000000 0.022599
#
#
# Mechanical properties :
#
#
# Convention : Reuss Voigt Hill
#
# Bulk Modulus (GPa) = 32.86306 42.12411 37.49359
# Shear Modulus (GPa) = 31.04283 38.15701 34.59992
#
# Velocity S-wave (km/s) = 3.77586 4.18623 3.98633
# Velocity P-wave (km/s) = 5.83975 6.53548 6.19738
#
# Compressibility (1/GPa) = 0.03042930
#
# Stress axis : x y z
#
# Youngs Moduli (GPa) = 41.15580 137.26263 107.80931
#
# Poissons Ratio (x) = 0.36601 0.21699
# Poissons Ratio (y) = 0.10974 0.05774
# Poissons Ratio (z) = 0.08284 0.07351
#
# Static dielectric constant tensor:
#      x y z
#    x 1.741380 0.000000 -0.080670 
#    y 0.000000 1.874940 0.000000 
#    z -0.080670 0.000000 1.677060 
# 
# From -- ./inp_files/48759.got.cif
#   From: 2010.05.17/outbox.cif.g08.bks.cpg/sg14_25_cif.got.tgz:48759.got - 2010.06.03 17:49:19.
