data_PCOD9251555
_publ_section_title
;
Structure prediction by ZEFSAII (Michael W. Deem and Ramdas Pophale) SiO2 
 PCOD9251555
Probable space group: P 21/C
;
_chemical_formula_sum "Si O2"
_cell_formula_units_Z 24
_cell_length_a 21.218645
_cell_length_b 11.585577
_cell_length_c 14.459856
_cell_angle_alpha 90.000000
_cell_angle_beta 19.081127
_cell_angle_gamma 90.000000
_cell_volume 1162.045135
_symmetry_space_group_name_H-M "P 21/C"
_symmetry_group_IT_number 14
_symmetry_cell_setting 'monoclinic'
loop_
_space_group_symop_operation_xyz
x,y,z
-x,1/2+y,1/2-z
-x,-y,-z
x,1/2-y,1/2+z
loop_
_atom_site_type_symbol
_atom_site_label
_atom_site_fract_x
_atom_site_fract_y
_atom_site_fract_z
Si Si1 0.560454 0.151874 0.693864
Si Si2 0.149828 0.190762 0.196794
Si Si3 0.894126 0.536372 0.739865
Si Si4 0.646351 0.949363 0.870240
Si Si5 0.962880 0.006599 0.761729
Si Si6 0.803361 0.124563 0.808652
O O1 0.691083 0.256860 0.479139
O O2 0.700739 0.041604 0.510583
O O3 0.371599 0.149723 0.891212
O O4 0.453574 0.159502 0.941795
O O5 0.150948 0.328074 0.196097
O O6 0.015510 0.148252 0.469490
O O7 0.045752 0.128129 0.255215
O O8 0.035876 0.515091 0.630427
O O9 0.000000 0.500000 0.500000
O O10 0.698626 0.041522 0.879287
O O11 0.838533 0.933414 0.545254
O O12 0.500000 0.000000 0.000000
O O13 0.818879 0.066764 0.888439
#
# Coordination Sequence:
#
# PCOD9251555 Si02
#       6
#     4   4   4   4   4   4
#     4  12  23  43  70  98 139 179 227 280 347 405
#     4  11  24  45  71  97 142 181 227 285 342 406
#     4  12  27  45  68 103 142 180 229 288 352 399
#     4  11  21  41  70 102 125 176 237 275 330 416
#     4  11  24  44  70  99 135 183 236 280 336 416
#     4  11  23  43  69  99 141 178 227 287 342 408
#
# _framework density 20.653241999999999
#
# number of rings (size 3 to 8) (size 9 to 14) (size 15 to 20)
#    0.000    0.667    6.667    2.000    2.333    0.000 
#    0.000    0.833    0.000    0.000    0.000    0.000 
#    0.000    0.000    0.000    0.000    0.000    0.000 
#
# Total GULP energy -133821.061248 kJ/mol
# GULP energy per Si atom -5575.877552 kJ/mol
# Density = 2.060623 g / cm^3
# Si number density = 20.653242 Si / 1000 Ang^3
#
#
#
# Elastic Constant Matrix: (Units=GPa)
#
#
# Indices 1 2 3 4 5 6 
#
# 1 154.1486 38.2612 31.8214 0.0000 0.7317 0.0000
# 2 38.2612 113.1792 26.4594 0.0000 -6.4345 0.0000
# 3 31.8214 26.4594 84.6776 0.0000 -9.9388 0.0000
# 4 0.0000 0.0000 0.0000 25.0884 0.0000 7.6860
# 5 0.7317 -6.4345 -9.9388 0.0000 29.1421 0.0000
# 6 0.0000 0.0000 0.0000 7.6860 0.0000 16.4231
#
#
#
# Elastic Compliance Matrix: (Units=1/GPa)
#
#
# Indices 1 2 3 4 5 6 
#
# 1 0.007490 -0.002067 -0.002338 0.000000 -0.001442 0.000000
# 2 -0.002067 0.010139 -0.002211 0.000000 0.001537 0.000000
# 3 -0.002338 -0.002211 0.013884 0.000000 0.004306 0.000000
# 4 0.000000 0.000000 0.000000 0.046530 0.000000 -0.021776
# 5 -0.001442 0.001537 0.004306 0.000000 0.036158 0.000000
# 6 0.000000 0.000000 0.000000 -0.021776 0.000000 0.071081
#
#
# Mechanical properties :
#
#
# Convention : Reuss Voigt Hill
#
# Bulk Modulus (GPa) = 54.70276 60.56546 57.63411
# Shear Modulus (GPa) = 24.43695 31.16162 27.79928
#
# Velocity S-wave (km/s) = 3.44350 3.88854 3.67277
# Velocity P-wave (km/s) = 6.50800 7.03915 6.77878
#
# Compressibility (1/GPa) = 0.01828061
#
# Stress axis : x y z
#
# Youngs Moduli (GPa) = 133.51383 98.63242 72.02411
#
# Poissons Ratio (x) = 0.20392 0.16838
# Poissons Ratio (y) = 0.27603 0.15923
# Poissons Ratio (z) = 0.31214 0.21805
#
# Static dielectric constant tensor:
#      x y z
#    x 1.773320 0.000000 -0.010330 
#    y 0.000000 1.775200 0.000000 
#    z -0.010330 0.000000 1.782580 
# 
# From -- ./inp_files/44259.got.cif
#   From: 2010.05.17/outbox.cif.g08.bks.cpg/sg14_23_cif.got.tgz:44259.got - 2010.06.03 17:49:19.
