data_PCOD9251781
_publ_section_title
;
Structure prediction by ZEFSAII (Michael W. Deem and Ramdas Pophale) SiO2 
 PCOD9251781
Probable space group: P 21/C
;
_chemical_formula_sum "Si O2"
_cell_formula_units_Z 20
_cell_length_a 11.254891
_cell_length_b 8.808891
_cell_length_c 15.372364
_cell_angle_alpha 90.000000
_cell_angle_beta 152.913149
_cell_angle_gamma 90.000000
_cell_volume 693.968187
_symmetry_space_group_name_H-M "P 21/C"
_symmetry_group_IT_number 14
_symmetry_cell_setting 'monoclinic'
loop_
_space_group_symop_operation_xyz
x,y,z
-x,1/2+y,1/2-z
-x,-y,-z
x,1/2-y,1/2+z
loop_
_atom_site_type_symbol
_atom_site_label
_atom_site_fract_x
_atom_site_fract_y
_atom_site_fract_z
Si Si1 0.022499 0.836325 0.741356
Si Si2 0.967701 0.740074 0.889298
Si Si3 0.407448 0.521637 0.128300
Si Si4 0.481264 0.993051 0.869589
Si Si5 0.225993 0.836320 0.230453
O O1 0.889069 0.818211 0.747727
O O2 0.111744 0.679951 0.752616
O O3 0.825573 0.904867 0.542850
O O4 0.274110 0.943958 0.917930
O O5 0.764224 0.605576 0.777046
O O6 0.250712 0.675873 0.040632
O O7 0.023313 0.819217 0.017958
O O8 0.548362 0.495601 0.311328
O O9 0.605743 0.484762 0.180826
O O10 0.398314 0.819113 0.832583
#
# Coordination Sequence:
#
# PCOD9251781 Si02
#       5
#     4   4   4   4   4
#     4  12  23  38  69  93 126 171 212 256 316 374
#     4  11  23  43  66  96 128 165 216 258 312 379
#     4  11  23  40  65  96 129 164 211 264 309 375
#     4  11  22  44  67  92 124 170 215 259 315 375
#     4  11  22  42  66  92 129 167 208 265 313 371
#
# _framework density 28.819762000000001
#
# number of rings (size 3 to 8) (size 9 to 14) (size 15 to 20)
#    0.000    0.800    6.000    3.000    2.800    0.800 
#    0.000    0.000    0.000    6.000    0.000    0.000 
#    0.000    0.000    0.000    0.000    0.000    0.000 
#
# Total GULP energy -112219.476194 kJ/mol
# GULP energy per Si atom -5610.973810 kJ/mol
# Density = 2.875417 g / cm^3
# Si number density = 28.819762 Si / 1000 Ang^3
#
#
#
# Elastic Constant Matrix: (Units=GPa)
#
#
# Indices 1 2 3 4 5 6 
#
# 1 189.0573 46.6608 38.9744 0.0000 -24.9606 0.0000
# 2 46.6608 94.0556 26.0180 0.0000 15.7044 0.0000
# 3 38.9744 26.0180 129.4617 0.0000 -22.4883 0.0000
# 4 0.0000 0.0000 0.0000 48.7912 0.0000 15.5430
# 5 -24.9606 15.7044 -22.4883 0.0000 48.2739 0.0000
# 6 0.0000 0.0000 0.0000 15.5430 0.0000 60.7100
#
#
#
# Elastic Compliance Matrix: (Units=1/GPa)
#
#
# Indices 1 2 3 4 5 6 
#
# 1 0.007043 -0.004169 -0.000451 0.000000 0.004788 0.000000
# 2 -0.004169 0.015029 -0.003252 0.000000 -0.008560 0.000000
# 3 -0.000451 -0.003252 0.009419 0.000000 0.005213 0.000000
# 4 0.000000 0.000000 0.000000 0.022316 0.000000 -0.005713
# 5 0.004788 -0.008560 0.005213 0.000000 0.028404 0.000000
# 6 0.000000 0.000000 0.000000 -0.005713 0.000000 0.017934
#
#
# Mechanical properties :
#
#
# Convention : Reuss Voigt Hill
#
# Bulk Modulus (GPa) = 63.50213 70.65341 67.07777
# Shear Modulus (GPa) = 41.27488 51.61645 46.44567
#
# Velocity S-wave (km/s) = 3.78851 4.23662 4.01882
# Velocity P-wave (km/s) = 6.42021 6.96425 6.69776
#
# Compressibility (1/GPa) = 0.01574750
#
# Stress axis : x y z
#
# Youngs Moduli (GPa) = 141.97595 66.53735 106.16696
#
# Poissons Ratio (x) = 0.27739 0.04787
# Poissons Ratio (y) = 0.59190 0.34528
# Poissons Ratio (z) = 0.06401 0.21640
#
# Static dielectric constant tensor:
#      x y z
#    x 2.230990 0.000000 0.051150 
#    y 0.000000 2.299860 0.000000 
#    z 0.051150 0.000000 2.221970 
# 
# From -- ./inp_files/23747.got.cif
#   From: 2010.05.17/outbox.cif.g08.bks.cpg/sg14_12_cif.got.tgz:23747.got - 2010.06.03 17:49:19.
