data_PCOD9251641
_publ_section_title
;
Structure prediction by ZEFSAII (Michael W. Deem and Ramdas Pophale) SiO2 
 PCOD9251641
Probable space group: P 21/C
;
_chemical_formula_sum "Si O2"
_cell_formula_units_Z 30
_cell_length_a 11.722837
_cell_length_b 13.993732
_cell_length_c 9.472779
_cell_angle_alpha 90.000000
_cell_angle_beta 127.316138
_cell_angle_gamma 90.000000
_cell_volume 1235.879638
_symmetry_space_group_name_H-M "P 21/C"
_symmetry_group_IT_number 14
_symmetry_cell_setting 'monoclinic'
loop_
_space_group_symop_operation_xyz
x,y,z
-x,1/2+y,1/2-z
-x,-y,-z
x,1/2-y,1/2+z
loop_
_atom_site_type_symbol
_atom_site_label
_atom_site_fract_x
_atom_site_fract_y
_atom_site_fract_z
Si Si1 0.139881 0.630987 0.873966
Si Si2 0.725502 0.061079 0.012818
Si Si3 0.000000 0.000000 0.500000
Si Si4 0.634249 0.172360 0.220851
Si Si5 0.401408 0.892552 0.372767
Si Si6 0.678587 0.852570 0.966275
Si Si7 0.000554 0.665258 0.224293
Si Si8 0.289232 0.331455 0.826449
O O1 0.257122 0.584918 0.853721
O O2 0.044096 0.721176 0.746228
O O3 0.053966 0.548660 0.890824
O O4 0.243820 0.674408 0.071865
O O5 0.620286 0.068679 0.801554
O O6 0.748938 0.950689 0.064933
O O7 0.666345 0.107198 0.110935
O O8 0.870797 0.116816 0.090292
O O9 0.001155 0.108241 0.424799
O O10 0.613162 0.278052 0.148940
O O11 0.490949 0.133759 0.185417
O O12 0.570114 0.900056 0.545195
O O13 0.739606 0.822960 0.861161
O O14 0.682003 0.773840 0.089487
O O15 0.852708 0.644731 0.193314
#
# Coordination Sequence:
#
# PCOD9251641 Si02
#       8
#     4   4   2   4   4   4   4   4
#     4  12  24  50  84 114 160 214 274 328 411 490
#     4  12  26  46  80 115 150 204 268 323 402 485
#     4  12  30  50  80 122 162 212 274 336 416 484
#     4  11  21  48  77 113 149 205 260 326 392 482
#     4  11  23  47  80 110 152 205 260 329 395 475
#     4  11  28  47  75 115 152 206 265 335 395 478
#     4  12  29  49  78 117 162 216 267 334 408 493
#     4  11  29  48  75 112 164 206 261 336 407 472
#
# _framework density 24.274208999999999
#
# number of rings (size 3 to 8) (size 9 to 14) (size 15 to 20)
#    0.000    0.533    5.333    0.400   11.200    2.133 
#    0.000    0.000    0.000    0.000    0.000    0.000 
#    0.000    0.000    0.000    0.000    0.000    0.000 
#
# Total GULP energy -167270.005830 kJ/mol
# GULP energy per Si atom -5575.666861 kJ/mol
# Density = 2.421896 g / cm^3
# Si number density = 24.274209 Si / 1000 Ang^3
#
#
#
# Elastic Constant Matrix: (Units=GPa)
#
#
# Indices 1 2 3 4 5 6 
#
# 1 123.2764 58.0963 79.9642 0.0000 -29.2211 0.0000
# 2 58.0963 100.0484 -7.8874 0.0000 10.9598 0.0000
# 3 79.9642 -7.8874 -49.8082 0.0000 43.8648 0.0000
# 4 0.0000 0.0000 0.0000 13.9180 0.0000 -31.8874
# 5 -29.2211 10.9598 43.8648 0.0000 12.0345 0.0000
# 6 0.0000 0.0000 0.0000 -31.8874 0.0000 28.5113
#
#
#
# Elastic Compliance Matrix: (Units=1/GPa)
#
#
# Indices 1 2 3 4 5 6 
#
# 1 0.004987 -0.002082 0.004909 0.000000 -0.003890 0.000000
# 2 -0.002082 0.010773 -0.004309 0.000000 0.000840 0.000000
# 3 0.004909 -0.004309 0.000580 0.000000 0.013731 0.000000
# 4 0.000000 0.000000 0.000000 -0.045987 0.000000 -0.051433
# 5 -0.003890 0.000840 0.013731 0.000000 0.022834 0.000000
# 6 0.000000 0.000000 0.000000 -0.051433 0.000000 -0.022449
#
#
# Mechanical properties :
#
#
# Convention : Reuss Voigt Hill
#
# Bulk Modulus (GPa) = 74.76834 48.20695 61.48764
# Shear Modulus (GPa) = -228.94022 13.78233 -107.57895
#
# Velocity S-wave (km/s) = -9.72208 2.38539 -6.66441
# Velocity P-wave (km/s) = 9.75484 5.24302 5.81668
#
# Compressibility (1/GPa) = 0.01337465
#
# Stress axis : x y z
#
# Youngs Moduli (GPa) = 200.53868 92.82776 1724.26562
#
# Poissons Ratio (x) = 0.19331 -8.46520
# Poissons Ratio (y) = 0.41761 7.43036
# Poissons Ratio (z) = -0.98454 0.40002
#
# Static dielectric constant tensor:
#      x y z
#    x 1.971070 0.000000 0.099920 
#    y 0.000000 1.958600 0.000000 
#    z 0.099920 0.000000 1.945010 
# 
# From -- ./inp_files/13442.got.cif
#   From: 2010.05.17/outbox.cif.g08.bks.cpg/sg14_7_cif.got.tgz:13442.got - 2010.06.03 17:49:19.
