data_PCOD9251812
_publ_section_title
;
Structure prediction by ZEFSAII (Michael W. Deem and Ramdas Pophale) SiO2 
 PCOD9251812
Probable space group: P 21/C
;
_chemical_formula_sum "Si O2"
_cell_formula_units_Z 28
_cell_length_a 9.016859
_cell_length_b 5.249005
_cell_length_c 27.177812
_cell_angle_alpha 90.000000
_cell_angle_beta 67.653538
_cell_angle_gamma 90.000000
_cell_volume 1189.713354
_symmetry_space_group_name_H-M "P 21/C"
_symmetry_group_IT_number 14
_symmetry_cell_setting 'monoclinic'
loop_
_space_group_symop_operation_xyz
x,y,z
-x,1/2+y,1/2-z
-x,-y,-z
x,1/2-y,1/2+z
loop_
_atom_site_type_symbol
_atom_site_label
_atom_site_fract_x
_atom_site_fract_y
_atom_site_fract_z
Si Si1 0.008216 0.784542 0.298623
Si Si2 0.158082 0.387276 0.865711
Si Si3 0.811434 0.065383 0.534558
Si Si4 0.526824 0.688592 0.715128
Si Si5 0.121011 0.577369 0.609859
Si Si6 0.243520 0.851329 0.682461
Si Si7 0.675680 0.925041 0.999175
O O1 0.994666 0.544228 0.335092
O O2 0.105852 0.758949 0.236552
O O3 0.823224 0.862243 0.312529
O O4 0.097497 0.981358 0.323179
O O5 0.209422 0.571885 0.903404
O O6 0.300846 0.203829 0.831717
O O7 0.000834 0.245855 0.905668
O O8 0.702613 0.830033 0.527609
O O9 0.747862 0.329187 0.518940
O O10 0.000000 0.000000 0.500000
O O11 0.486237 0.409221 0.741187
O O12 0.403600 0.786747 0.689807
O O13 0.240928 0.742537 0.627884
O O14 0.213284 0.387588 0.563305
O O15 0.500000 0.000000 0.000000
#
# Coordination Sequence:
#
# PCOD9251812 Si02
#       7
#     4   4   4   4   4   4   4
#     4  11  22  43  67 101 139 184 237 288 352 446
#     4  11  26  44  75 102 140 192 241 299 363 433
#     4  12  26  51  79 108 145 196 257 308 373 440
#     4  12  28  45  67 103 148 183 236 297 354 429
#     4  11  25  44  74  99 143 189 244 289 371 436
#     4  11  24  40  66  99 139 186 230 282 361 424
#     4  12  29  50  75 112 153 191 250 319 373 440
#
# _framework density 23.535083
#
# number of rings (size 3 to 8) (size 9 to 14) (size 15 to 20)
#    0.000    0.571    4.286    2.571   10.000    1.143 
#    0.000    0.000    0.000    0.000    0.000    0.000 
#    0.000    0.000    0.000    0.000    0.000    0.000 
#
# Total GULP energy -156447.230368 kJ/mol
# GULP energy per Si atom -5587.401085 kJ/mol
# Density = 2.348152 g / cm^3
# Si number density = 23.535083 Si / 1000 Ang^3
#
#
#
# Elastic Constant Matrix: (Units=GPa)
#
#
# Indices 1 2 3 4 5 6 
#
# 1 102.8123 7.8998 2.2043 0.0000 18.7220 0.0000
# 2 7.8998 81.2916 6.5135 0.0000 13.6761 0.0000
# 3 2.2043 6.5135 82.5789 0.0000 1.2369 0.0000
# 4 0.0000 0.0000 0.0000 15.4323 0.0000 7.0150
# 5 18.7220 13.6761 1.2369 0.0000 16.5284 0.0000
# 6 0.0000 0.0000 0.0000 7.0150 0.0000 12.6125
#
#
#
# Elastic Compliance Matrix: (Units=1/GPa)
#
#
# Indices 1 2 3 4 5 6 
#
# 1 0.012383 0.001360 -0.000211 0.000000 -0.015136 0.000000
# 2 0.001360 0.014515 -0.000979 0.000000 -0.013477 0.000000
# 3 -0.000211 -0.000979 0.012190 0.000000 0.000137 0.000000
# 4 0.000000 0.000000 0.000000 0.086726 0.000000 -0.048237
# 5 -0.015136 -0.013477 0.000137 0.000000 0.088788 0.000000
# 6 0.000000 0.000000 0.000000 -0.048237 0.000000 0.106116
#
#
# Mechanical properties :
#
#
# Convention : Reuss Voigt Hill
#
# Bulk Modulus (GPa) = 25.36321 33.32425 29.34373
# Shear Modulus (GPa) = 14.99157 25.58566 20.28861
#
# Velocity S-wave (km/s) = 2.52660 3.30074 2.93927
# Velocity P-wave (km/s) = 4.39452 5.35879 4.90043
#
# Compressibility (1/GPa) = 0.03942719
#
# Stress axis : x y z
#
# Youngs Moduli (GPa) = 80.75806 68.89390 82.03143
#
# Poissons Ratio (x) = -0.09369 0.01732
# Poissons Ratio (y) = -0.10982 0.08034
# Poissons Ratio (z) = 0.01705 0.06747
#
# Static dielectric constant tensor:
#      x y z
#    x 1.927720 0.000000 -0.017580 
#    y 0.000000 1.972300 0.000000 
#    z -0.017580 0.000000 1.860790 
# 
# From -- ./inp_files/76020.got.cif
#   From: 2010.05.17/outbox.cif.g08.bks.cpg/sg14_39_cif.got.tgz:76020.got - 2010.06.03 17:49:19.
