data_PCOD9251499
_publ_section_title
;
Structure prediction by ZEFSAII (Michael W. Deem and Ramdas Pophale) SiO2 
 PCOD9251499
Probable space group: P 21/C
;
_chemical_formula_sum "Si O2"
_cell_formula_units_Z 24
_cell_length_a 9.441077
_cell_length_b 24.732364
_cell_length_c 10.552476
_cell_angle_alpha 90.000000
_cell_angle_beta 151.947880
_cell_angle_gamma 90.000000
_cell_volume 1158.758743
_symmetry_space_group_name_H-M "P 21/C"
_symmetry_group_IT_number 14
_symmetry_cell_setting 'monoclinic'
loop_
_space_group_symop_operation_xyz
x,y,z
-x,1/2+y,1/2-z
-x,-y,-z
x,1/2-y,1/2+z
loop_
_atom_site_type_symbol
_atom_site_label
_atom_site_fract_x
_atom_site_fract_y
_atom_site_fract_z
Si Si1 0.887918 0.909385 0.103015
Si Si2 0.133870 0.451885 0.018967
Si Si3 0.452880 0.896106 0.974980
Si Si4 0.485990 0.527318 0.123710
Si Si5 0.312426 0.778028 0.753623
Si Si6 0.971690 0.717052 0.712172
O O1 0.911891 0.844914 0.122259
O O2 0.201279 0.932178 0.400339
O O3 0.611056 0.923705 0.978164
O O4 0.784559 0.939476 0.894610
O O5 0.284750 0.402768 0.215460
O O6 0.395237 0.478930 0.144845
O O7 0.000000 0.500000 0.000000
O O8 0.845504 0.427751 0.720036
O O9 0.368327 0.836486 0.862804
O O10 0.500000 0.500000 0.000000
O O11 0.145447 0.744331 0.731811
O O12 0.140480 0.782602 0.482388
O O13 0.645543 0.756422 0.981185
#
# Coordination Sequence:
#
# PCOD9251499 Si02
#       6
#     4   4   4   4   4   4
#     4  11  21  42  66  87 128 176 210 251 334 400
#     4  12  21  38  65  92 122 163 217 265 305 380
#     4  11  21  39  67  94 120 166 221 264 314 380
#     4  12  25  40  59  93 134 166 213 262 324 391
#     4  11  24  45  70 100 135 171 224 280 335 401
#     4  11  24  45  73  97 133 177 222 279 337 399
#
# _framework density 20.711818999999998
#
# number of rings (size 3 to 8) (size 9 to 14) (size 15 to 20)
#    0.000    0.667    3.333    7.000    0.000    0.000 
#    9.000    0.000    0.000    0.000    0.000    0.000 
#    0.000    0.000    0.000    0.000    0.000    0.000 
#
# Total GULP energy -133987.701471 kJ/mol
# GULP energy per Si atom -5582.820895 kJ/mol
# Density = 2.066468 g / cm^3
# Si number density = 20.711819 Si / 1000 Ang^3
#
#
#
# Elastic Constant Matrix: (Units=GPa)
#
#
# Indices 1 2 3 4 5 6 
#
# 1 91.0370 28.8549 23.2006 0.0000 -10.4310 0.0000
# 2 28.8549 39.7156 13.5950 0.0000 -4.7990 0.0000
# 3 23.2006 13.5950 118.4340 0.0000 -0.0078 0.0000
# 4 0.0000 0.0000 0.0000 27.4626 0.0000 7.6580
# 5 -10.4310 -4.7990 -0.0078 0.0000 31.7354 0.0000
# 6 0.0000 0.0000 0.0000 7.6580 0.0000 17.2197
#
#
#
# Elastic Compliance Matrix: (Units=1/GPa)
#
#
# Indices 1 2 3 4 5 6 
#
# 1 0.014953 -0.009833 -0.001800 0.000000 0.003427 0.000000
# 2 -0.009833 0.033184 -0.001883 0.000000 0.001785 0.000000
# 3 -0.001800 -0.001883 0.009012 0.000000 -0.000874 0.000000
# 4 0.000000 0.000000 0.000000 0.041568 0.000000 -0.018486
# 5 0.003427 0.001785 -0.000874 0.000000 0.032907 0.000000
# 6 0.000000 0.000000 0.000000 -0.018486 0.000000 0.066294
#
#
# Mechanical properties :
#
#
# Convention : Reuss Voigt Hill
#
# Bulk Modulus (GPa) = 33.20491 42.27638 37.74065
# Shear Modulus (GPa) = 21.27760 27.51929 24.39844
#
# Velocity S-wave (km/s) = 3.20866 3.64905 3.43592
# Velocity P-wave (km/s) = 5.45838 6.18144 5.83113
#
# Compressibility (1/GPa) = 0.03011602
#
# Stress axis : x y z
#
# Youngs Moduli (GPa) = 66.87705 30.13535 110.96039
#
# Poissons Ratio (x) = 0.29633 0.19975
# Poissons Ratio (y) = 0.65763 0.20891
# Poissons Ratio (z) = 0.12039 0.05674
#
# Static dielectric constant tensor:
#      x y z
#    x 1.770350 0.000000 -0.024220 
#    y 0.000000 1.739810 0.000000 
#    z -0.024220 0.000000 1.809860 
# 
# From -- ./inp_files/11362.got.cif
#   From: 2010.05.17/outbox.cif.g08.bks.cpg/sg14_6_cif.got.tgz:11362.got - 2010.06.03 17:49:19.
