data_PCOD9251859
_publ_section_title
;
Structure prediction by ZEFSAII (Michael W. Deem and Ramdas Pophale) SiO2 
 PCOD9251859
Probable space group: P 21/C
;
_chemical_formula_sum "Si O2"
_cell_formula_units_Z 24
_cell_length_a 8.251462
_cell_length_b 9.518727
_cell_length_c 15.897242
_cell_angle_alpha 90.000000
_cell_angle_beta 59.492206
_cell_angle_gamma 90.000000
_cell_volume 1075.764341
_symmetry_space_group_name_H-M "P 21/C"
_symmetry_group_IT_number 14
_symmetry_cell_setting 'monoclinic'
loop_
_space_group_symop_operation_xyz
x,y,z
-x,1/2+y,1/2-z
-x,-y,-z
x,1/2-y,1/2+z
loop_
_atom_site_type_symbol
_atom_site_label
_atom_site_fract_x
_atom_site_fract_y
_atom_site_fract_z
Si Si1 0.463153 0.551158 0.916433
Si Si2 0.135960 0.130253 0.772659
Si Si3 0.971275 0.675500 0.348538
Si Si4 0.617366 0.792482 0.670505
Si Si5 0.372973 0.080765 0.966648
Si Si6 0.708614 0.312473 0.607595
O O1 0.664536 0.579854 0.819343
O O2 0.358067 0.433815 0.888545
O O3 0.343068 0.693095 0.945080
O O4 0.500000 0.500000 0.000000
O O5 0.033157 0.232301 0.734080
O O6 0.197951 0.220621 0.838004
O O7 0.021056 0.988099 0.818912
O O8 0.767008 0.678613 0.444436
O O9 0.121323 0.727538 0.376884
O O10 0.529708 0.677512 0.629367
O O11 0.473790 0.825564 0.783782
O O12 0.261064 0.960213 0.945691
O O13 0.500000 0.000000 0.000000
#
# Coordination Sequence:
#
# PCOD9251859 Si02
#       6
#     4   4   4   4   4   4
#     4  11  23  44  67 100 134 180 232 277 350 411
#     4  11  26  43  68 101 137 184 228 286 347 408
#     4  12  26  45  67 106 139 175 240 286 348 407
#     4  11  22  45  67  97 133 179 229 275 340 413
#     4  12  25  44  72  99 136 185 228 283 345 417
#     4  11  23  43  69  97 137 178 225 283 342 409
#
# _framework density 22.309719000000001
#
# number of rings (size 3 to 8) (size 9 to 14) (size 15 to 20)
#    0.000    0.667    3.333    5.500    4.667    1.333 
#    0.000    1.667    0.000    0.000    0.000    0.000 
#    0.000    0.000    0.000    0.000    0.000    0.000 
#
# Total GULP energy -134326.731747 kJ/mol
# GULP energy per Si atom -5596.947156 kJ/mol
# Density = 2.225894 g / cm^3
# Si number density = 22.309719 Si / 1000 Ang^3
#
#
#
# Elastic Constant Matrix: (Units=GPa)
#
#
# Indices 1 2 3 4 5 6 
#
# 1 61.8705 7.9782 4.9104 0.0000 21.4989 0.0000
# 2 7.9782 79.8837 18.8572 0.0000 11.1941 0.0000
# 3 4.9104 18.8572 55.4864 0.0000 20.0070 0.0000
# 4 0.0000 0.0000 0.0000 43.4107 0.0000 17.2038
# 5 21.4989 11.1941 20.0070 0.0000 31.8857 0.0000
# 6 0.0000 0.0000 0.0000 17.2038 0.0000 48.0283
#
#
#
# Elastic Compliance Matrix: (Units=1/GPa)
#
#
# Indices 1 2 3 4 5 6 
#
# 1 0.021952 -0.000844 0.004619 0.000000 -0.017404 0.000000
# 2 -0.000844 0.013789 -0.003969 0.000000 -0.001781 0.000000
# 3 0.004619 -0.003969 0.025309 0.000000 -0.017602 0.000000
# 4 0.000000 0.000000 0.000000 0.026847 0.000000 -0.009617
# 5 -0.017404 -0.001781 -0.017602 0.000000 0.054766 0.000000
# 6 0.000000 0.000000 0.000000 -0.009617 0.000000 0.024266
#
#
# Mechanical properties :
#
#
# Convention : Reuss Voigt Hill
#
# Bulk Modulus (GPa) = 16.48454 28.97025 22.72739
# Shear Modulus (GPa) = 26.66117 35.69791 31.17954
#
# Velocity S-wave (km/s) = 3.46070 4.00447 3.74247
# Velocity P-wave (km/s) = 4.83462 5.86470 5.37440
#
# Compressibility (1/GPa) = 0.06066290
#
# Stress axis : x y z
#
# Youngs Moduli (GPa) = 45.55299 72.52108 39.51103
#
# Poissons Ratio (x) = 0.06122 -0.18252
# Poissons Ratio (y) = 0.03845 0.15683
# Poissons Ratio (z) = -0.21043 0.28786
#
# Static dielectric constant tensor:
#      x y z
#    x 1.805350 0.000000 0.004370 
#    y 0.000000 1.809470 0.000000 
#    z 0.004370 0.000000 1.804180 
# 
# From -- ./inp_files/54518.got.cif
#   From: 2010.05.17/outbox.cif.g08.bks.cpg/sg14_28_cif.got.tgz:54518.got - 2010.06.03 17:49:19.
