data_PCOD9251036
_publ_section_title
;
Structure prediction by ZEFSAII (Michael W. Deem and Ramdas Pophale) SiO2 
 PCOD9251036
Probable space group: P 21/C
;
_chemical_formula_sum "Si O2"
_cell_formula_units_Z 16
_cell_length_a 4.970923
_cell_length_b 10.340447
_cell_length_c 12.965508
_cell_angle_alpha 90.000000
_cell_angle_beta 73.167631
_cell_angle_gamma 90.000000
_cell_volume 637.894178
_symmetry_space_group_name_H-M "P 21/C"
_symmetry_group_IT_number 14
_symmetry_cell_setting 'monoclinic'
loop_
_space_group_symop_operation_xyz
x,y,z
-x,1/2+y,1/2-z
-x,-y,-z
x,1/2-y,1/2+z
loop_
_atom_site_type_symbol
_atom_site_label
_atom_site_fract_x
_atom_site_fract_y
_atom_site_fract_z
Si Si1 0.228429 0.088887 0.527261
Si Si2 0.074743 0.226065 0.221032
Si Si3 0.633168 0.415674 0.638140
Si Si4 0.572187 0.180527 0.911289
O O1 0.327443 0.215737 0.455571
O O2 0.126416 0.144387 0.648195
O O3 0.500000 0.000000 0.500000
O O4 0.000000 0.000000 0.500000
O O5 0.918067 0.121569 0.164167
O O6 0.850287 0.256700 0.333263
O O7 0.376526 0.166901 0.214952
O O8 0.545122 0.564644 0.645923
O O9 0.647634 0.372409 0.516990
#
# Coordination Sequence:
#
# PCOD9251036 Si02
#       4
#     4   4   4   4
#     4  11  25  43  65 102 136 171 223 280 332 399
#     4  11  25  42  72 100 134 183 226 275 349 397
#     4  10  25  46  66 105 130 183 233 276 340 404
#     4  10  25  45  73  95 144 178 225 289 330 414
#
# _framework density 25.082528
#
# number of rings (size 3 to 8) (size 9 to 14) (size 15 to 20)
#    0.000    1.500    0.000    3.000    7.000   17.000 
#    0.000    0.000    0.000    0.000    0.000    0.000 
#    0.000    0.000    0.000    0.000    0.000    0.000 
#
# Total GULP energy -89850.950341 kJ/mol
# GULP energy per Si atom -5615.684396 kJ/mol
# Density = 2.502544 g / cm^3
# Si number density = 25.082528 Si / 1000 Ang^3
#
#
#
# Elastic Constant Matrix: (Units=GPa)
#
#
# Indices 1 2 3 4 5 6 
#
# 1 106.6942 14.2272 3.5289 0.0000 -20.7569 0.0000
# 2 14.2272 112.3091 19.7118 0.0000 -8.6422 0.0000
# 3 3.5289 19.7118 126.7339 0.0000 -21.3858 0.0000
# 4 0.0000 0.0000 0.0000 25.9618 0.0000 -12.4800
# 5 -20.7569 -8.6422 -21.3858 0.0000 34.0026 0.0000
# 6 0.0000 0.0000 0.0000 -12.4800 0.0000 37.5934
#
#
#
# Elastic Compliance Matrix: (Units=1/GPa)
#
#
# Indices 1 2 3 4 5 6 
#
# 1 0.010838 -0.001016 0.001039 0.000000 0.007011 0.000000
# 2 -0.001016 0.009328 -0.001261 0.000000 0.000958 0.000000
# 3 0.001039 -0.001261 0.009074 0.000000 0.006021 0.000000
# 4 0.000000 0.000000 0.000000 0.045832 0.000000 0.015215
# 5 0.007011 0.000958 0.006021 0.000000 0.037720 0.000000
# 6 0.000000 0.000000 0.000000 0.015215 0.000000 0.031651
#
#
# Mechanical properties :
#
#
# Convention : Reuss Voigt Hill
#
# Bulk Modulus (GPa) = 37.36309 46.74143 42.05226
# Shear Modulus (GPa) = 32.08449 40.06285 36.07367
#
# Velocity S-wave (km/s) = 3.58041 4.00089 3.79647
# Velocity P-wave (km/s) = 5.65870 6.32600 6.00163
#
# Compressibility (1/GPa) = 0.02676438
#
# Stress axis : x y z
#
# Youngs Moduli (GPa) = 92.27060 107.20783 110.20829
#
# Poissons Ratio (x) = 0.10890 -0.11455
# Poissons Ratio (y) = 0.09373 0.13896
# Poissons Ratio (z) = -0.09590 0.13518
#
# Static dielectric constant tensor:
#      x y z
#    x 1.913400 0.000000 0.067980 
#    y 0.000000 1.954950 0.000000 
#    z 0.067980 0.000000 1.962730 
# 
# From -- ./inp_files/46330.got.cif
#   From: 2010.05.17/outbox.cif.g08.bks.cpg/sg14_24_cif.got.tgz:46330.got - 2010.06.03 17:49:19.
