data_PCOD9251991
_publ_section_title
;
Structure prediction by ZEFSAII (Michael W. Deem and Ramdas Pophale) SiO2 
 PCOD9251991
Probable space group: P 21/C
;
_chemical_formula_sum "Si O2"
_cell_formula_units_Z 30
_cell_length_a 28.374051
_cell_length_b 8.579415
_cell_length_c 9.451486
_cell_angle_alpha 90.000000
_cell_angle_beta 33.616870
_cell_angle_gamma 90.000000
_cell_volume 1273.808202
_symmetry_space_group_name_H-M "P 21/C"
_symmetry_group_IT_number 14
_symmetry_cell_setting 'monoclinic'
loop_
_space_group_symop_operation_xyz
x,y,z
-x,1/2+y,1/2-z
-x,-y,-z
x,1/2-y,1/2+z
loop_
_atom_site_type_symbol
_atom_site_label
_atom_site_fract_x
_atom_site_fract_y
_atom_site_fract_z
Si Si1 0.815760 0.528242 0.114904
Si Si2 0.815760 0.971758 0.306297
Si Si3 0.432240 0.421034 0.919401
Si Si4 0.000000 0.000000 0.500000
Si Si5 0.331864 0.250000 0.920341
Si Si6 0.963822 0.750000 0.340444
Si Si7 0.385060 0.717283 0.537350
Si Si8 0.741380 0.250000 0.396549
O O1 0.733238 0.639083 0.332382
O O2 0.898816 0.630250 0.926732
O O3 0.800525 0.399037 0.273607
O O4 0.821471 0.451846 0.946322
O O5 0.733238 0.860917 0.501426
O O6 0.898816 0.869750 0.079189
O O7 0.800525 0.100962 0.223766
O O8 0.389398 0.344259 0.887769
O O9 0.532674 0.389876 0.668315
O O10 0.389398 0.344258 0.165242
O O11 0.415907 0.604249 0.960234
O O12 0.994985 0.140287 0.639816
O O13 0.994985 0.140288 0.385260
O O14 0.323688 0.696411 0.559460
O O15 0.323688 0.696409 0.822100
#
# Coordination Sequence:
#
# PCOD9251991 Si02
#       8
#     4   4   4   2   4   4   4   4
#     4  11  23  46  77 110 144 199 260 325 393 472
#     4  11  23  46  77 110 144 199 260 325 393 472
#     4  12  26  41  59  91 138 186 251 319 401 473
#     4  12  28  58  88 132 176 218 264 324 400 512
#     4  11  23  40  70  93 133 188 252 326 387 465
#     4  11  28  53  89 124 167 212 264 316 409 488
#     4  12  28  40  61  97 134 199 254 321 406 474
#     4  12  25  43  69 101 144 188 268 328 386 467
#
# _framework density 23.551427
#
# number of rings (size 3 to 8) (size 9 to 14) (size 15 to 20)
#    0.000    0.533    6.667    0.800    3.733    4.800 
#    4.800    0.000    0.000    0.000    0.000    0.000 
#    0.000    0.000    0.000    0.000    0.000    0.000 
#
# Total GULP energy -167088.521224 kJ/mol
# GULP energy per Si atom -5569.617374 kJ/mol
# Density = 2.349782 g / cm^3
# Si number density = 23.551427 Si / 1000 Ang^3
#
#
#
# Elastic Constant Matrix: (Units=GPa)
#
#
# Indices 1 2 3 4 5 6 
#
# 1 138.0207 13.7540 1.1957 0.0000 -8.9871 0.0000
# 2 13.7540 125.6211 22.9254 0.0000 -15.5492 0.0000
# 3 1.1957 22.9254 136.4327 0.0000 11.6794 0.0000
# 4 0.0000 0.0000 0.0000 11.7656 0.0000 -11.3938
# 5 -8.9871 -15.5492 11.6794 0.0000 36.0362 0.0000
# 6 0.0000 0.0000 0.0000 -11.3938 0.0000 5.0425
#
#
#
# Elastic Compliance Matrix: (Units=1/GPa)
#
#
# Indices 1 2 3 4 5 6 
#
# 1 0.007411 -0.000591 -0.000105 0.000000 0.001627 0.000000
# 2 -0.000591 0.008895 -0.001857 0.000000 0.004293 0.000000
# 3 -0.000105 -0.001857 0.007934 0.000000 -0.003399 0.000000
# 4 0.000000 0.000000 0.000000 -0.071533 0.000000 -0.161634
# 5 0.001627 0.004293 -0.003399 0.000000 0.031110 0.000000
# 6 0.000000 0.000000 0.000000 -0.161634 0.000000 -0.166908
#
#
# Mechanical properties :
#
#
# Convention : Reuss Voigt Hill
#
# Bulk Modulus (GPa) = 52.26228 52.86943 52.56585
# Shear Modulus (GPa) = -29.13628 34.71547 2.78960
#
# Velocity S-wave (km/s) = -3.52111 3.84347 1.08951
# Velocity P-wave (km/s) = 2.38913 6.49566 4.89395
#
# Compressibility (1/GPa) = 0.01913426
#
# Stress axis : x y z
#
# Youngs Moduli (GPa) = 134.93381 112.41775 126.04708
#
# Poissons Ratio (x) = 0.06642 0.01323
# Poissons Ratio (y) = 0.07972 0.23408
# Poissons Ratio (z) = 0.01417 0.20876
#
# Static dielectric constant tensor:
#      x y z
#    x 1.897050 0.000000 0.019440 
#    y 0.000000 1.915500 0.000000 
#    z 0.019440 0.000000 1.885580 
# 
# From -- ./inp_files/19742.got.cif
#   From: 2010.05.17/outbox.cif.g08.bks.cpg/sg14_10_cif.got.tgz:19742.got - 2010.06.03 17:49:19.
