data_PCOD9251043
_publ_section_title
;
Structure prediction by ZEFSAII (Michael W. Deem and Ramdas Pophale) SiO2 
 PCOD9251043
Probable space group: P 21/C
;
_chemical_formula_sum "Si O2"
_cell_formula_units_Z 32
_cell_length_a 9.202758
_cell_length_b 13.849391
_cell_length_c 11.153551
_cell_angle_alpha 90.000000
_cell_angle_beta 116.336869
_cell_angle_gamma 90.000000
_cell_volume 1273.993832
_symmetry_space_group_name_H-M "P 21/C"
_symmetry_group_IT_number 14
_symmetry_cell_setting 'monoclinic'
loop_
_space_group_symop_operation_xyz
x,y,z
-x,1/2+y,1/2-z
-x,-y,-z
x,1/2-y,1/2+z
loop_
_atom_site_type_symbol
_atom_site_label
_atom_site_fract_x
_atom_site_fract_y
_atom_site_fract_z
Si Si1 0.947664 0.903062 0.344824
Si Si2 0.790998 0.070114 0.756915
Si Si3 0.301194 0.555131 0.186398
Si Si4 0.635890 0.971902 0.908698
Si Si5 0.960064 0.270047 0.483457
Si Si6 0.260978 0.285327 0.421877
Si Si7 0.436593 0.664690 0.008715
Si Si8 0.220433 0.853816 0.892116
O O1 0.837771 0.975943 0.379644
O O2 0.065892 0.948740 0.286681
O O3 0.059225 0.837652 0.470809
O O4 0.825558 0.834169 0.224368
O O5 0.747849 0.984812 0.832113
O O6 0.631085 0.102054 0.626379
O O7 0.846002 0.163487 0.856633
O O8 0.453199 0.502645 0.307610
O O9 0.390884 0.606429 0.110193
O O10 0.226877 0.632162 0.253338
O O11 0.637933 0.868051 0.970945
O O12 0.711717 0.048219 0.027557
O O13 0.948543 0.330242 0.604580
O O14 0.122736 0.261387 0.467171
O O15 0.377811 0.196948 0.433466
O O16 0.334759 0.764636 0.970344
#
# Coordination Sequence:
#
# PCOD9251043 Si02
#       8
#     4   4   4   4   4   4   4   4
#     4  11  24  48  70 115 147 193 253 312 379 445
#     4  10  26  48  74 107 152 200 257 303 384 451
#     4  12  27  43  76 110 155 197 248 322 377 446
#     4  11  24  45  73 109 145 199 251 312 375 454
#     4  10  25  45  77 103 146 196 248 314 367 452
#     4  11  25  45  75 109 146 194 256 312 375 453
#     4  12  27  46  71 110 148 200 246 313 375 455
#     4  11  23  45  73 104 147 200 251 291 389 454
#
# _framework density 25.117858999999999
#
# number of rings (size 3 to 8) (size 9 to 14) (size 15 to 20)
#    0.000    1.000    3.750    1.125    8.750    2.500 
#    0.000    0.000    0.000    0.000    0.000    0.000 
#    0.000    0.000    0.000    0.000    0.000    0.000 
#
# Total GULP energy -179174.167419 kJ/mol
# GULP energy per Si atom -5599.192732 kJ/mol
# Density = 2.506069 g / cm^3
# Si number density = 25.117859 Si / 1000 Ang^3
#
#
#
# Elastic Constant Matrix: (Units=GPa)
#
#
# Indices 1 2 3 4 5 6 
#
# 1 158.8530 49.1218 70.5886 0.0000 -19.9284 0.0000
# 2 49.1218 75.9530 33.0088 0.0000 -18.6072 0.0000
# 3 70.5886 33.0088 107.0855 0.0000 -22.4873 0.0000
# 4 0.0000 0.0000 0.0000 25.5315 0.0000 0.3375
# 5 -19.9284 -18.6072 -22.4873 0.0000 45.0030 0.0000
# 6 0.0000 0.0000 0.0000 0.3375 0.0000 54.8889
#
#
#
# Elastic Compliance Matrix: (Units=1/GPa)
#
#
# Indices 1 2 3 4 5 6 
#
# 1 0.009907 -0.004110 -0.005250 0.000000 0.000064 0.000000
# 2 -0.004110 0.017732 -0.001787 0.000000 0.004619 0.000000
# 3 -0.005250 -0.001787 0.014196 0.000000 0.004030 0.000000
# 4 0.000000 0.000000 0.000000 0.039170 0.000000 -0.000241
# 5 0.000064 0.004619 0.004030 0.000000 0.026173 0.000000
# 6 0.000000 0.000000 0.000000 -0.000241 0.000000 0.018220
#
#
# Mechanical properties :
#
#
# Convention : Reuss Voigt Hill
#
# Bulk Modulus (GPa) = 51.17263 71.92556 61.54909
# Shear Modulus (GPa) = 32.42414 37.69618 35.06016
#
# Velocity S-wave (km/s) = 3.59678 3.87818 3.74013
# Velocity P-wave (km/s) = 6.13729 6.98220 6.57333
#
# Compressibility (1/GPa) = 0.01954170
#
# Stress axis : x y z
#
# Youngs Moduli (GPa) = 100.93807 56.39490 70.44147
#
# Poissons Ratio (x) = 0.23177 0.36983
# Poissons Ratio (y) = 0.41484 0.12587
# Poissons Ratio (z) = 0.52994 0.10077
#
# Static dielectric constant tensor:
#      x y z
#    x 1.981770 0.000000 0.017440 
#    y 0.000000 1.976640 0.000000 
#    z 0.017440 0.000000 2.011510 
# 
# From -- ./inp_files/25548.got.cif
#   From: 2010.05.17/outbox.cif.g08.bks.cpg/sg14_13_cif.got.tgz:25548.got - 2010.06.03 17:49:19.
