data_PCOD9251312
_publ_section_title
;
Structure prediction by ZEFSAII (Michael W. Deem and Ramdas Pophale) SiO2 
 PCOD9251312
Probable space group: P 21/C
;
_chemical_formula_sum "Si O2"
_cell_formula_units_Z 32
_cell_length_a 15.111561
_cell_length_b 13.158678
_cell_length_c 21.756171
_cell_angle_alpha 90.000000
_cell_angle_beta 159.486939
_cell_angle_gamma 90.000000
_cell_volume 1515.981999
_symmetry_space_group_name_H-M "P 21/C"
_symmetry_group_IT_number 14
_symmetry_cell_setting 'monoclinic'
loop_
_space_group_symop_operation_xyz
x,y,z
-x,1/2+y,1/2-z
-x,-y,-z
x,1/2-y,1/2+z
loop_
_atom_site_type_symbol
_atom_site_label
_atom_site_fract_x
_atom_site_fract_y
_atom_site_fract_z
Si Si1 0.363925 0.647087 0.961108
Si Si2 0.492173 0.637487 0.302179
Si Si3 0.070880 0.215279 0.369717
Si Si4 0.717499 0.585710 0.093712
Si Si5 0.975065 0.689465 0.024619
Si Si6 0.221322 0.589247 0.689909
Si Si7 0.212457 0.554458 0.546996
Si Si8 0.560594 0.256347 0.359981
O O1 0.636183 0.633275 0.105730
O O2 0.391590 0.692551 0.047361
O O3 0.239393 0.534758 0.876965
O O4 0.180475 0.719002 0.802779
O O5 0.683137 0.711638 0.463769
O O6 0.215618 0.635162 0.151817
O O7 0.627381 0.529895 0.384085
O O8 0.460147 0.683525 0.212949
O O9 0.085890 0.145121 0.319702
O O10 0.062566 0.156935 0.429201
O O11 0.458876 0.598186 0.887431
O O12 0.052593 0.809320 0.078541
O O13 0.712546 0.686849 0.817069
O O14 0.322038 0.574347 0.686397
O O15 0.052084 0.497162 0.605584
O O16 0.230864 0.658347 0.521002
#
# Coordination Sequence:
#
# PCOD9251312 Si02
#       8
#     4   4   4   4   4   4   4   4
#     4  11  25  40  61  95 126 162 207 263 315 367
#     4  11  21  39  64  89 123 165 208 254 308 379
#     4  11  21  42  63  90 119 163 214 255 305 369
#     4  11  23  42  67  88 122 166 221 252 305 379
#     4  11  21  41  65  88 123 166 207 254 307 381
#     4  11  19  39  69  92 114 168 221 258 291 377
#     4  11  22  35  64  98 125 159 207 266 316 363
#     4  11  24  38  58  97 134 157 201 266 328 357
#
# _framework density 21.108429999999998
#
# number of rings (size 3 to 8) (size 9 to 14) (size 15 to 20)
#    0.000    1.000    6.250    1.500    1.750    4.500 
#    0.000    1.250    0.000    3.000    0.000    0.000 
#    0.000    0.000    0.000    0.000    0.000    0.000 
#
# Total GULP energy -178857.806432 kJ/mol
# GULP energy per Si atom -5589.306451 kJ/mol
# Density = 2.106039 g / cm^3
# Si number density = 21.108430 Si / 1000 Ang^3
#
#
#
# Elastic Constant Matrix: (Units=GPa)
#
#
# Indices 1 2 3 4 5 6 
#
# 1 117.5849 46.5779 22.4282 0.0000 1.9842 0.0000
# 2 46.5779 59.7709 0.6713 0.0000 -7.3110 0.0000
# 3 22.4282 0.6713 59.1572 0.0000 -0.2953 0.0000
# 4 0.0000 0.0000 0.0000 18.2262 0.0000 6.7291
# 5 1.9842 -7.3110 -0.2953 0.0000 29.0134 0.0000
# 6 0.0000 0.0000 0.0000 6.7291 0.0000 39.9784
#
#
#
# Elastic Compliance Matrix: (Units=1/GPa)
#
#
# Indices 1 2 3 4 5 6 
#
# 1 0.014078 -0.011387 -0.005227 0.000000 -0.003885 0.000000
# 2 -0.011387 0.026475 0.004054 0.000000 0.007491 0.000000
# 3 -0.005227 0.004054 0.018848 0.000000 0.001571 0.000000
# 4 0.000000 0.000000 0.000000 0.058502 0.000000 -0.009847
# 5 -0.003885 0.007491 0.001571 0.000000 0.036636 0.000000
# 6 0.000000 0.000000 0.000000 -0.009847 0.000000 0.026671
#
#
# Mechanical properties :
#
#
# Convention : Reuss Voigt Hill
#
# Bulk Modulus (GPa) = 29.17171 41.76310 35.46740
# Shear Modulus (GPa) = 22.96142 28.56597 25.76370
#
# Velocity S-wave (km/s) = 3.30174 3.68271 3.49741
# Velocity P-wave (km/s) = 5.32778 6.15720 5.75744
#
# Compressibility (1/GPa) = 0.03427979
#
# Stress axis : x y z
#
# Youngs Moduli (GPa) = 71.03398 37.77165 53.05650
#
# Poissons Ratio (x) = 0.43010 0.27735
# Poissons Ratio (y) = 0.80886 -0.21510
# Poissons Ratio (z) = 0.37133 -0.15313
#
# Static dielectric constant tensor:
#      x y z
#    x 1.788830 0.000000 -0.008380 
#    y 0.000000 1.794250 0.000000 
#    z -0.008380 0.000000 1.771530 
# 
# From -- ./inp_files/68673.got.cif
#   From: 2010.05.17/outbox.cif.g08.bks.cpg/sg14_35_cif.got.tgz:68673.got - 2010.06.03 17:49:19.
