data_PCOD9251447
_publ_section_title
;
Structure prediction by ZEFSAII (Michael W. Deem and Ramdas Pophale) SiO2 
 PCOD9251447
Probable space group: P 21/C
;
_chemical_formula_sum "Si O2"
_cell_formula_units_Z 20
_cell_length_a 9.972622
_cell_length_b 6.661208
_cell_length_c 14.200097
_cell_angle_alpha 90.000000
_cell_angle_beta 59.790851
_cell_angle_gamma 90.000000
_cell_volume 815.201830
_symmetry_space_group_name_H-M "P 21/C"
_symmetry_group_IT_number 14
_symmetry_cell_setting 'monoclinic'
loop_
_space_group_symop_operation_xyz
x,y,z
-x,1/2+y,1/2-z
-x,-y,-z
x,1/2-y,1/2+z
loop_
_atom_site_type_symbol
_atom_site_label
_atom_site_fract_x
_atom_site_fract_y
_atom_site_fract_z
Si Si1 0.697185 0.058648 0.226026
Si Si2 0.311549 0.486697 0.566036
Si Si3 0.395613 0.264107 0.886216
Si Si4 0.899392 0.300084 0.505671
Si Si5 0.821738 0.633219 0.193765
O O1 0.566805 0.150924 0.338437
O O2 0.808420 0.220128 0.136827
O O3 0.604632 0.947299 0.171981
O O4 0.792137 0.871233 0.233049
O O5 0.500000 0.500000 0.500000
O O6 0.297446 0.276423 0.513866
O O7 0.226482 0.646523 0.529811
O O8 0.225540 0.480428 0.695536
O O9 0.300013 0.397412 0.847757
O O10 0.000000 0.500000 0.500000
O O11 0.012408 0.141821 0.415906
#
# Coordination Sequence:
#
# PCOD9251447 Si02
#       5
#     4   4   4   4   4
#     4   8  17  32  59  78 113 153 190 234 296 339
#     4  11  21  36  61  88 112 155 203 243 295 354
#     4   9  18  35  56  82 117 148 194 242 292 346
#     4   9  17  38  56  76 115 156 181 237 299 338
#     4   9  19  34  59  82 115 154 197 233 298 352
#
# _framework density 24.533801
#
# number of rings (size 3 to 8) (size 9 to 14) (size 15 to 20)
#    1.200    1.600    2.000    2.400    0.000    0.800 
#    7.200    2.000    0.000    3.600    0.000    0.000 
#    0.000    0.000    0.000    0.000    0.000    0.000 
#
# Total GULP energy -111357.317022 kJ/mol
# GULP energy per Si atom -5567.865851 kJ/mol
# Density = 2.447796 g / cm^3
# Si number density = 24.533801 Si / 1000 Ang^3
#
#
#
# Elastic Constant Matrix: (Units=GPa)
#
#
# Indices 1 2 3 4 5 6 
#
# 1 76.8151 -5.1619 30.6634 0.0000 -16.4250 0.0000
# 2 -5.1619 35.2396 19.1624 0.0000 -9.9374 0.0000
# 3 30.6634 19.1624 114.1671 0.0000 5.3275 0.0000
# 4 0.0000 0.0000 0.0000 36.2428 0.0000 -11.5636
# 5 -16.4250 -9.9374 5.3275 0.0000 37.5959 0.0000
# 6 0.0000 0.0000 0.0000 -11.5636 0.0000 26.6488
#
#
#
# Elastic Compliance Matrix: (Units=1/GPa)
#
#
# Indices 1 2 3 4 5 6 
#
# 1 0.019328 0.010364 -0.007502 0.000000 0.012247 0.000000
# 2 0.010364 0.040181 -0.010303 0.000000 0.016609 0.000000
# 3 -0.007502 -0.010303 0.012869 0.000000 -0.007824 0.000000
# 4 0.000000 0.000000 0.000000 0.032026 0.000000 0.013897
# 5 0.012247 0.016609 -0.007824 0.000000 0.037448 0.000000
# 6 0.000000 0.000000 0.000000 0.013897 0.000000 0.043555
#
#
# Mechanical properties :
#
#
# Convention : Reuss Voigt Hill
#
# Bulk Modulus (GPa) = 17.39247 35.06106 26.22677
# Shear Modulus (GPa) = 22.78379 32.20136 27.49258
#
# Velocity S-wave (km/s) = 3.05071 3.62682 3.35117
# Velocity P-wave (km/s) = 4.41743 5.64450 5.06824
#
# Compressibility (1/GPa) = 0.05749614
#
# Stress axis : x y z
#
# Youngs Moduli (GPa) = 51.73781 24.88713 77.70899
#
# Poissons Ratio (x) = -0.25794 0.58300
# Poissons Ratio (y) = -0.53623 0.80063
# Poissons Ratio (z) = 0.38815 0.25641
#
# Static dielectric constant tensor:
#      x y z
#    x 1.995580 0.000000 0.021110 
#    y 0.000000 2.097280 0.000000 
#    z 0.021110 0.000000 1.986650 
# 
# From -- ./inp_files/23756.got.cif
#   From: 2010.05.17/outbox.cif.g08.bks.cpg/sg14_12_cif.got.tgz:23756.got - 2010.06.03 17:49:19.
