data_PCOD9251420
_publ_section_title
;
Structure prediction by ZEFSAII (Michael W. Deem and Ramdas Pophale) SiO2 
 PCOD9251420
Probable space group: P 21/C
;
_chemical_formula_sum "Si O2"
_cell_formula_units_Z 32
_cell_length_a 11.783842
_cell_length_b 16.310705
_cell_length_c 14.182606
_cell_angle_alpha 90.000000
_cell_angle_beta 147.760432
_cell_angle_gamma 90.000000
_cell_volume 1454.179334
_symmetry_space_group_name_H-M "P 21/C"
_symmetry_group_IT_number 14
_symmetry_cell_setting 'monoclinic'
loop_
_space_group_symop_operation_xyz
x,y,z
-x,1/2+y,1/2-z
-x,-y,-z
x,1/2-y,1/2+z
loop_
_atom_site_type_symbol
_atom_site_label
_atom_site_fract_x
_atom_site_fract_y
_atom_site_fract_z
Si Si1 0.387985 0.395955 0.858304
Si Si2 0.801284 0.124996 0.763038
Si Si3 0.304838 0.205428 0.747402
Si Si4 0.892248 0.305418 0.838213
Si Si5 0.301307 0.643843 0.591595
Si Si6 0.097200 0.165459 0.301465
Si Si7 0.757896 0.542047 0.439392
Si Si8 0.604502 0.675806 0.481504
O O1 0.349752 0.301559 0.798351
O O2 0.221968 0.402215 0.828071
O O3 0.352834 0.449123 0.740821
O O4 0.618202 0.404496 0.065409
O O5 0.883955 0.213898 0.787867
O O6 0.716076 0.143343 0.808083
O O7 0.997080 0.063976 0.906590
O O8 0.479392 0.177593 0.794335
O O9 0.340434 0.157824 0.870374
O O10 0.068285 0.194365 0.542697
O O11 0.652048 0.320771 0.701593
O O12 0.985318 0.361134 0.819653
O O13 0.276660 0.548634 0.546558
O O14 0.100861 0.691138 0.404804
O O15 0.268872 0.237728 0.443588
O O16 0.676784 0.609810 0.456066
#
# Coordination Sequence:
#
# PCOD9251420 Si02
#       8
#     4   4   4   4   4   4   4   4
#     4  11  23  41  70 101 128 177 231 277 332 403
#     4  12  22  41  69  99 136 173 222 283 338 403
#     4  11  23  43  69 100 130 178 231 280 334 402
#     4  12  22  43  72 104 129 173 233 289 327 395
#     4  12  26  44  70  98 145 181 220 280 350 409
#     4  11  20  43  69  98 131 175 224 273 337 402
#     4  12  27  46  63 102 144 181 220 283 345 400
#     4  11  24  43  70  99 133 175 234 281 329 398
#
# _framework density 22.005538999999999
#
# number of rings (size 3 to 8) (size 9 to 14) (size 15 to 20)
#    0.000    0.500    7.500    1.875    1.750    2.000 
#    2.250    0.625    0.000    0.000    0.000    0.000 
#    0.000    0.000    0.000    0.000    0.000    0.000 
#
# Total GULP energy -179033.314726 kJ/mol
# GULP energy per Si atom -5594.791085 kJ/mol
# Density = 2.195545 g / cm^3
# Si number density = 22.005539 Si / 1000 Ang^3
#
#
#
# Elastic Constant Matrix: (Units=GPa)
#
#
# Indices 1 2 3 4 5 6 
#
# 1 119.1970 31.8953 64.2079 0.0000 14.6975 0.0000
# 2 31.8953 56.4296 15.3701 0.0000 1.5893 0.0000
# 3 64.2079 15.3701 218.6002 0.0000 7.0482 0.0000
# 4 0.0000 0.0000 0.0000 21.1819 0.0000 -0.3403
# 5 14.6975 1.5893 7.0482 0.0000 32.7257 0.0000
# 6 0.0000 0.0000 0.0000 -0.3403 0.0000 13.1497
#
#
#
# Elastic Compliance Matrix: (Units=1/GPa)
#
#
# Indices 1 2 3 4 5 6 
#
# 1 0.012151 -0.005922 -0.003007 0.000000 -0.004522 0.000000
# 2 -0.005922 0.020965 0.000214 0.000000 0.001595 0.000000
# 3 -0.003007 0.000214 0.005437 0.000000 0.000169 0.000000
# 4 0.000000 0.000000 0.000000 0.047230 0.000000 0.001222
# 5 -0.004522 0.001595 0.000169 0.000000 0.032474 0.000000
# 6 0.000000 0.000000 0.000000 0.001222 0.000000 0.076079
#
#
# Mechanical properties :
#
#
# Convention : Reuss Voigt Hill
#
# Bulk Modulus (GPa) = 47.33967 68.57482 57.95724
# Shear Modulus (GPa) = 22.85111 32.26171 27.55641
#
# Velocity S-wave (km/s) = 3.22596 3.83309 3.54255
# Velocity P-wave (km/s) = 5.95273 7.12883 6.56716
#
# Compressibility (1/GPa) = 0.02112393
#
# Stress axis : x y z
#
# Youngs Moduli (GPa) = 82.29473 47.69816 183.91501
#
# Poissons Ratio (x) = 0.28246 0.55303
# Poissons Ratio (y) = 0.48734 -0.03933
# Poissons Ratio (z) = 0.24746 -0.01020
#
# Static dielectric constant tensor:
#      x y z
#    x 1.815850 0.000000 -0.010200 
#    y 0.000000 1.833690 0.000000 
#    z -0.010200 0.000000 1.805370 
# 
# From -- ./inp_files/45428.got.cif
#   From: 2010.05.17/outbox.cif.g08.bks.cpg/sg14_23_cif.got.tgz:45428.got - 2010.06.03 17:49:19.
