data_PCOD9251218
_publ_section_title
;
Structure prediction by ZEFSAII (Michael W. Deem and Ramdas Pophale) SiO2 
 PCOD9251218
Probable space group: P 21/C
;
_chemical_formula_sum "Si O2"
_cell_formula_units_Z 18
_cell_length_a 16.996379
_cell_length_b 5.233801
_cell_length_c 9.095571
_cell_angle_alpha 90.000000
_cell_angle_beta 55.498023
_cell_angle_gamma 90.000000
_cell_volume 666.786804
_symmetry_space_group_name_H-M "P 21/C"
_symmetry_group_IT_number 14
_symmetry_cell_setting 'monoclinic'
loop_
_space_group_symop_operation_xyz
x,y,z
-x,1/2+y,1/2-z
-x,-y,-z
x,1/2-y,1/2+z
loop_
_atom_site_type_symbol
_atom_site_label
_atom_site_fract_x
_atom_site_fract_y
_atom_site_fract_z
Si Si1 0.938722 0.458730 0.826353
Si Si2 0.637369 0.424514 0.855167
Si Si3 0.500000 0.000000 0.000000
Si Si4 0.657050 0.814834 0.055212
Si Si5 0.183818 0.875381 0.267023
O O1 0.871181 0.332266 0.773817
O O2 0.983897 0.729734 0.733204
O O3 0.884520 0.495733 0.038300
O O4 0.644049 0.530389 0.011747
O O5 0.640333 0.674454 0.746343
O O6 0.733770 0.268714 0.728322
O O7 0.547249 0.267654 0.901736
O O8 0.578894 0.986621 0.054809
O O9 0.759479 0.923986 0.895966
#
# Coordination Sequence:
#
# PCOD9251218 Si02
#       5
#     4   4   2   4   4
#     4  12  28  48  78 114 159 210 274 339 406 486
#     4  11  26  47  79 111 159 206 265 327 399 487
#     4  10  26  48  72 116 150 202 256 324 398 464
#     4  11  26  45  78 111 155 204 264 324 398 486
#     4  11  26  47  73 113 153 213 259 329 406 483
#
# _framework density 26.995132999999999
#
# number of rings (size 3 to 8) (size 9 to 14) (size 15 to 20)
#    0.000    0.889    2.222    2.000   12.444    1.778 
#    0.000    0.000    0.000    0.000    0.000    0.000 
#    0.000    0.000    0.000    0.000    0.000    0.000 
#
# Total GULP energy -100620.211156 kJ/mol
# GULP energy per Si atom -5590.011731 kJ/mol
# Density = 2.693369 g / cm^3
# Si number density = 26.995133 Si / 1000 Ang^3
#
#
#
# Elastic Constant Matrix: (Units=GPa)
#
#
# Indices 1 2 3 4 5 6 
#
# 1 106.4626 18.2013 33.9096 0.0000 -16.8982 0.0000
# 2 18.2013 101.7918 40.6913 0.0000 -9.1563 0.0000
# 3 33.9096 40.6913 152.8283 0.0000 7.8901 0.0000
# 4 0.0000 0.0000 0.0000 28.1891 0.0000 14.8674
# 5 -16.8982 -9.1563 7.8901 0.0000 24.0115 0.0000
# 6 0.0000 0.0000 0.0000 14.8674 0.0000 41.9675
#
#
#
# Elastic Compliance Matrix: (Units=1/GPa)
#
#
# Indices 1 2 3 4 5 6 
#
# 1 0.011876 -0.000039 -0.003108 0.000000 0.009364 0.000000
# 2 -0.000039 0.011684 -0.003388 0.000000 0.005542 0.000000
# 3 -0.003108 -0.003388 0.008458 0.000000 -0.006259 0.000000
# 4 0.000000 0.000000 0.000000 0.043626 0.000000 -0.015455
# 5 0.009364 0.005542 -0.006259 0.000000 0.052407 0.000000
# 6 0.000000 0.000000 0.000000 -0.015455 0.000000 0.029303
#
#
# Mechanical properties :
#
#
# Convention : Reuss Voigt Hill
#
# Bulk Modulus (GPa) = 52.77743 60.74299 56.76021
# Shear Modulus (GPa) = 28.29016 36.71900 32.50458
#
# Velocity S-wave (km/s) = 3.24075 3.69210 3.47377
# Velocity P-wave (km/s) = 5.79625 6.38168 6.09599
#
# Compressibility (1/GPa) = 0.01894749
#
# Stress axis : x y z
#
# Youngs Moduli (GPa) = 84.20397 85.58796 118.22786
#
# Poissons Ratio (x) = 0.00331 0.36747
# Poissons Ratio (y) = 0.00326 0.40060
# Poissons Ratio (z) = 0.26172 0.29001
#
# Static dielectric constant tensor:
#      x y z
#    x 2.114980 0.000000 -0.326340 
#    y 0.000000 0.941850 0.000000 
#    z -0.326340 0.000000 1.411390 
# 
# From -- ./inp_files/14866.got.cif
#   From: 2010.05.17/outbox.cif.g08.bks.cpg/sg14_8_cif.got.tgz:14866.got - 2010.06.03 17:49:19.
