data_PCOD9251741
_publ_section_title
;
Structure prediction by ZEFSAII (Michael W. Deem and Ramdas Pophale) SiO2 
 PCOD9251741
Probable space group: P 21/C
;
_chemical_formula_sum "Si O2"
_cell_formula_units_Z 24
_cell_length_a 7.937130
_cell_length_b 18.442177
_cell_length_c 13.770816
_cell_angle_alpha 90.000000
_cell_angle_beta 36.459164
_cell_angle_gamma 90.000000
_cell_volume 1197.855227
_symmetry_space_group_name_H-M "P 21/C"
_symmetry_group_IT_number 14
_symmetry_cell_setting 'monoclinic'
loop_
_space_group_symop_operation_xyz
x,y,z
-x,1/2+y,1/2-z
-x,-y,-z
x,1/2-y,1/2+z
loop_
_atom_site_type_symbol
_atom_site_label
_atom_site_fract_x
_atom_site_fract_y
_atom_site_fract_z
Si Si1 0.541124 0.321610 0.768410
Si Si2 0.884539 0.541627 0.786052
Si Si3 0.259942 0.537353 0.434892
Si Si4 0.683181 0.379100 0.913589
Si Si5 0.815851 0.051324 0.655783
Si Si6 0.111226 0.807513 0.489477
O O1 0.620448 0.398227 0.684817
O O2 0.599980 0.332535 0.856520
O O3 0.733809 0.263003 0.623515
O O4 0.216281 0.305084 0.891386
O O5 0.844387 0.453663 0.805950
O O6 0.123651 0.562188 0.598625
O O7 0.985424 0.564406 0.845048
O O8 0.591981 0.584745 0.906287
O O9 0.525603 0.484638 0.324938
O O10 0.000000 0.500000 0.500000
O O11 0.846898 0.329288 0.916413
O O12 0.753105 0.124631 0.629479
O O13 0.000000 0.000000 0.500000
#
# Coordination Sequence:
#
# PCOD9251741 Si02
#       6
#     4   4   4   4   4   4
#     4  12  28  48  68 105 145 188 233 290 359 426
#     4  11  22  40  75 107 137 183 238 296 350 416
#     4  12  24  41  72 107 137 181 248 292 343 420
#     4  11  23  46  73 103 141 187 231 291 360 415
#     4  12  22  45  72 104 139 185 240 297 348 413
#     4  12  28  45  73 101 147 184 233 293 354 423
#
# _framework density 20.035810999999999
#
# number of rings (size 3 to 8) (size 9 to 14) (size 15 to 20)
#    0.000    0.333    6.667    1.500    4.667    2.667 
#    0.000    0.000    0.000    0.000    0.000    0.000 
#    0.000    0.000    0.000    0.000    0.000    0.000 
#
# Total GULP energy -134105.839803 kJ/mol
# GULP energy per Si atom -5587.743325 kJ/mol
# Density = 1.999021 g / cm^3
# Si number density = 20.035811 Si / 1000 Ang^3
#
#
#
# Elastic Constant Matrix: (Units=GPa)
#
#
# Indices 1 2 3 4 5 6 
#
# 1 143.6889 25.7009 23.3899 0.0000 7.8606 0.0000
# 2 25.7009 55.2298 -3.2496 0.0000 -13.7134 0.0000
# 3 23.3899 -3.2496 78.2557 0.0000 -4.5485 0.0000
# 4 0.0000 0.0000 0.0000 33.9785 0.0000 -2.1774
# 5 7.8606 -13.7134 -4.5485 0.0000 32.2565 0.0000
# 6 0.0000 0.0000 0.0000 -2.1774 0.0000 18.8002
#
#
#
# Elastic Compliance Matrix: (Units=1/GPa)
#
#
# Indices 1 2 3 4 5 6 
#
# 1 0.008707 -0.005445 -0.003112 0.000000 -0.004876 0.000000
# 2 -0.005445 0.023791 0.003308 0.000000 0.011908 0.000000
# 3 -0.003112 0.003308 0.014087 0.000000 0.004151 0.000000
# 4 0.000000 0.000000 0.000000 0.029650 0.000000 0.003434
# 5 -0.004876 0.011908 0.004151 0.000000 0.037837 0.000000
# 6 0.000000 0.000000 0.000000 0.003434 0.000000 0.053589
#
#
# Mechanical properties :
#
#
# Convention : Reuss Voigt Hill
#
# Bulk Modulus (GPa) = 27.71123 40.98410 34.34766
# Shear Modulus (GPa) = 26.28953 32.42926 29.35939
#
# Velocity S-wave (km/s) = 3.62626 4.02750 3.83214
# Velocity P-wave (km/s) = 5.60302 6.49057 6.06306
#
# Compressibility (1/GPa) = 0.03608645
#
# Stress axis : x y z
#
# Youngs Moduli (GPa) = 114.85372 42.03196 70.98563
#
# Poissons Ratio (x) = 0.22888 0.22090
# Poissons Ratio (y) = 0.62541 -0.23480
# Poissons Ratio (z) = 0.35741 -0.13903
#
# Static dielectric constant tensor:
#      x y z
#    x 1.707290 0.000000 -0.003890 
#    y 0.000000 1.684900 0.000000 
#    z -0.003890 0.000000 1.515160 
# 
# From -- ./inp_files/16618.got.cif
#   From: 2010.05.17/outbox.cif.g08.bks.cpg/sg14_9_cif.got.tgz:16618.got - 2010.06.03 17:49:19.
