data_PCOD9251605
_publ_section_title
;
Structure prediction by ZEFSAII (Michael W. Deem and Ramdas Pophale) SiO2 
 PCOD9251605
Probable space group: P 21/C
;
_chemical_formula_sum "Si O2"
_cell_formula_units_Z 24
_cell_length_a 8.482349
_cell_length_b 11.939562
_cell_length_c 11.770020
_cell_angle_alpha 90.000000
_cell_angle_beta 88.664566
_cell_angle_gamma 90.000000
_cell_volume 1191.691268
_symmetry_space_group_name_H-M "P 21/C"
_symmetry_group_IT_number 14
_symmetry_cell_setting 'monoclinic'
loop_
_space_group_symop_operation_xyz
x,y,z
-x,1/2+y,1/2-z
-x,-y,-z
x,1/2-y,1/2+z
loop_
_atom_site_type_symbol
_atom_site_label
_atom_site_fract_x
_atom_site_fract_y
_atom_site_fract_z
Si Si1 0.196186 0.848415 0.179308
Si Si2 0.317425 0.427792 0.794020
Si Si3 0.821423 0.975792 0.461189
Si Si4 0.898231 0.400591 0.557136
Si Si5 0.318042 0.883287 0.731224
Si Si6 0.887271 0.732353 0.805898
O O1 0.302173 0.751337 0.232917
O O2 0.017692 0.817623 0.218204
O O3 0.240827 0.969445 0.226395
O O4 0.204297 0.850193 0.043496
O O5 0.502440 0.420775 0.767550
O O6 0.233440 0.312793 0.757123
O O7 0.281732 0.452534 0.926158
O O8 0.815291 0.868746 0.378611
O O9 0.760503 0.077383 0.385323
O O10 0.000000 0.000000 0.500000
O O11 0.784815 0.432753 0.663452
O O12 0.000000 0.500000 0.500000
O O13 0.016867 0.309718 0.607134
#
# Coordination Sequence:
#
# PCOD9251605 Si02
#       6
#     4   4   4   4   4   4
#     4  11  24  44  69  95 139 176 231 282 339 415
#     4  12  26  45  67 105 138 181 226 291 351 403
#     4  12  23  46  73  97 137 183 238 278 343 415
#     4  11  21  44  67  97 130 176 232 277 337 408
#     4  11  28  41  68 101 139 182 224 291 354 399
#     4  11  23  42  71 101 129 179 238 277 338 416
#
# _framework density 20.139444999999998
#
# number of rings (size 3 to 8) (size 9 to 14) (size 15 to 20)
#    0.000    0.667    3.333    5.500    4.667    2.000 
#    0.000    0.000    0.000    0.000    0.000    0.000 
#    0.000    0.000    0.000    0.000    0.000    0.000 
#
# Total GULP energy -134267.122870 kJ/mol
# GULP energy per Si atom -5594.463453 kJ/mol
# Density = 2.009361 g / cm^3
# Si number density = 20.139445 Si / 1000 Ang^3
#
#
#
# Elastic Constant Matrix: (Units=GPa)
#
#
# Indices 1 2 3 4 5 6 
#
# 1 86.6770 35.0610 17.7089 0.0000 -5.3640 0.0000
# 2 35.0610 82.9785 21.7079 0.0000 -2.9678 0.0000
# 3 17.7089 21.7079 111.1576 0.0000 -7.6700 0.0000
# 4 0.0000 0.0000 0.0000 41.1048 0.0000 1.3318
# 5 -5.3640 -2.9678 -7.6700 0.0000 26.4353 0.0000
# 6 0.0000 0.0000 0.0000 1.3318 0.0000 24.1203
#
#
#
# Elastic Compliance Matrix: (Units=1/GPa)
#
#
# Indices 1 2 3 4 5 6 
#
# 1 0.014147 -0.005642 -0.001018 0.000000 0.001942 0.000000
# 2 -0.005642 0.014964 -0.002027 0.000000 -0.000053 0.000000
# 3 -0.001018 -0.002027 0.009719 0.000000 0.002386 0.000000
# 4 0.000000 0.000000 0.000000 0.024372 0.000000 -0.001346
# 5 0.001942 -0.000053 0.002386 0.000000 0.038908 0.000000
# 6 0.000000 0.000000 0.000000 -0.001346 0.000000 0.041533
#
#
# Mechanical properties :
#
#
# Convention : Reuss Voigt Hill
#
# Bulk Modulus (GPa) = 46.60740 47.75206 47.17973
# Shear Modulus (GPa) = 29.73194 32.08777 30.90985
#
# Velocity S-wave (km/s) = 3.84644 3.99592 3.92189
# Velocity P-wave (km/s) = 6.55129 6.71208 6.63217
#
# Compressibility (1/GPa) = 0.02145582
#
# Stress axis : x y z
#
# Youngs Moduli (GPa) = 70.68421 66.82883 102.89214
#
# Poissons Ratio (x) = 0.37704 0.10475
# Poissons Ratio (y) = 0.39880 0.20857
# Poissons Ratio (z) = 0.07196 0.13547
#
# Static dielectric constant tensor:
#      x y z
#    x 1.688630 0.000000 -0.001360 
#    y 0.000000 1.741360 0.000000 
#    z -0.001360 0.000000 1.700230 
# 
# From -- ./inp_files/24149.got.cif
#   From: 2010.05.17/outbox.cif.g08.bks.cpg/sg14_13_cif.got.tgz:24149.got - 2010.06.03 17:49:19.
