data_PCOD9251640
_publ_section_title
;
Structure prediction by ZEFSAII (Michael W. Deem and Ramdas Pophale) SiO2 
 PCOD9251640
Probable space group: P 21/C
;
_chemical_formula_sum "Si O2"
_cell_formula_units_Z 32
_cell_length_a 19.756344
_cell_length_b 11.963481
_cell_length_c 15.592169
_cell_angle_alpha 90.000000
_cell_angle_beta 19.493634
_cell_angle_gamma 90.000000
_cell_volume 1229.786287
_symmetry_space_group_name_H-M "P 21/C"
_symmetry_group_IT_number 14
_symmetry_cell_setting 'monoclinic'
loop_
_space_group_symop_operation_xyz
x,y,z
-x,1/2+y,1/2-z
-x,-y,-z
x,1/2-y,1/2+z
loop_
_atom_site_type_symbol
_atom_site_label
_atom_site_fract_x
_atom_site_fract_y
_atom_site_fract_z
Si Si1 0.331104 0.647726 0.169487
Si Si2 0.315700 0.433702 0.071335
Si Si3 0.608557 0.220030 0.715419
Si Si4 0.869248 0.062234 0.521538
Si Si5 0.267600 0.038748 0.146932
Si Si6 0.793088 0.688623 0.643746
Si Si7 0.823480 0.298682 0.294866
Si Si8 0.022624 0.516201 0.660566
O O1 0.384540 0.541034 0.044256
O O2 0.187049 0.600318 0.418711
O O3 0.227517 0.736621 0.231920
O O4 0.551674 0.699648 0.929359
O O5 0.184904 0.466122 0.145197
O O6 0.488529 0.339745 0.854374
O O7 0.839963 0.623258 0.675938
O O8 0.760446 0.169250 0.607211
O O9 0.733216 0.225977 0.479284
O O10 0.438525 0.124966 0.918158
O O11 0.058382 0.089179 0.358727
O O12 0.954990 0.987001 0.340246
O O13 0.271123 0.003546 0.242731
O O14 0.276703 0.919612 0.088529
O O15 0.935331 0.795027 0.477484
O O16 0.870266 0.604015 0.479677
#
# Coordination Sequence:
#
# PCOD9251640 Si02
#       8
#     4   4   4   4   4   4   4   4
#     4  11  24  46  82 124 159 204 268 344 420 476
#     4  11  23  45  79 118 166 205 264 343 404 482
#     4  12  29  52  82 119 160 225 274 327 413 502
#     4  11  27  55  80 110 167 220 276 328 399 504
#     4  11  31  55  81 114 171 222 272 339 413 481
#     4  11  23  44  75 118 165 206 262 341 414 466
#     4  12  27  49  80 122 166 209 277 342 402 495
#     4  11  21  47  80 116 160 207 269 340 403 489
#
# _framework density 26.020782000000001
#
# number of rings (size 3 to 8) (size 9 to 14) (size 15 to 20)
#    0.000    0.750    3.750    2.625   10.500    2.000 
#    4.500    0.000    0.000    0.000    0.000    0.000 
#    0.000    0.000    0.000    0.000    0.000    0.000 
#
# Total GULP energy -178995.978228 kJ/mol
# GULP energy per Si atom -5593.624320 kJ/mol
# Density = 2.596156 g / cm^3
# Si number density = 26.020782 Si / 1000 Ang^3
#
#
#
# Elastic Constant Matrix: (Units=GPa)
#
#
# Indices 1 2 3 4 5 6 
#
# 1 169.5351 58.2513 88.0819 0.0000 1.5402 0.0000
# 2 58.2513 164.8817 66.9107 0.0000 -2.7801 0.0000
# 3 88.0819 66.9107 144.1593 0.0000 -10.7807 0.0000
# 4 0.0000 0.0000 0.0000 44.1714 0.0000 4.6254
# 5 1.5402 -2.7801 -10.7807 0.0000 43.4133 0.0000
# 6 0.0000 0.0000 0.0000 4.6254 0.0000 37.1144
#
#
#
# Elastic Compliance Matrix: (Units=1/GPa)
#
#
# Indices 1 2 3 4 5 6 
#
# 1 0.008927 -0.001131 -0.005052 0.000000 -0.001644 0.000000
# 2 -0.001131 0.007622 -0.002860 0.000000 -0.000182 0.000000
# 3 -0.005052 -0.002860 0.011566 0.000000 0.002868 0.000000
# 4 0.000000 0.000000 0.000000 0.022938 0.000000 -0.002859
# 5 -0.001644 -0.000182 0.002868 0.000000 0.023793 0.000000
# 6 0.000000 0.000000 0.000000 -0.002859 0.000000 0.027300
#
#
# Mechanical properties :
#
#
# Convention : Reuss Voigt Hill
#
# Bulk Modulus (GPa) = 99.72598 100.56267 100.14432
# Shear Modulus (GPa) = 40.46058 42.62860 41.54459
#
# Velocity S-wave (km/s) = 3.94754 4.05192 4.00007
# Velocity P-wave (km/s) = 7.69325 7.78600 7.73976
#
# Compressibility (1/GPa) = 0.01002748
#
# Stress axis : x y z
#
# Youngs Moduli (GPa) = 112.01916 131.19453 86.46178
#
# Poissons Ratio (x) = 0.14842 0.43683
# Poissons Ratio (y) = 0.12673 0.24730
# Poissons Ratio (z) = 0.56596 0.37525
#
# Static dielectric constant tensor:
#      x y z
#    x 2.085320 0.000000 0.025540 
#    y 0.000000 2.103960 0.000000 
#    z 0.025540 0.000000 2.040690 
# 
# From -- ./inp_files/49282.got.cif
#   From: 2010.05.17/outbox.cif.g08.bks.cpg/sg14_25_cif.got.tgz:49282.got - 2010.06.03 17:49:19.
