data_PCOD9251672
_publ_section_title
;
Structure prediction by ZEFSAII (Michael W. Deem and Ramdas Pophale) SiO2 
 PCOD9251672
Probable space group: P 21/C
;
_chemical_formula_sum "Si O2"
_cell_formula_units_Z 20
_cell_length_a 7.139850
_cell_length_b 9.508892
_cell_length_c 22.350953
_cell_angle_alpha 90.000000
_cell_angle_beta 39.647949
_cell_angle_gamma 90.000000
_cell_volume 968.238640
_symmetry_space_group_name_H-M "P 21/C"
_symmetry_group_IT_number 14
_symmetry_cell_setting 'monoclinic'
loop_
_space_group_symop_operation_xyz
x,y,z
-x,1/2+y,1/2-z
-x,-y,-z
x,1/2-y,1/2+z
loop_
_atom_site_type_symbol
_atom_site_label
_atom_site_fract_x
_atom_site_fract_y
_atom_site_fract_z
Si Si1 0.250133 0.266181 0.292857
Si Si2 0.994612 0.009838 0.773516
Si Si3 0.414902 0.089630 0.961457
Si Si4 0.790297 0.064334 0.153688
Si Si5 0.301070 0.613272 0.081775
O O1 0.530283 0.173326 0.210834
O O2 0.310721 0.401573 0.319139
O O3 0.122528 0.338939 0.263796
O O4 0.980930 0.174411 0.384801
O O5 0.080744 0.914955 0.810020
O O6 0.153230 0.957165 0.676047
O O7 0.642950 0.026408 0.857188
O O8 0.505161 0.251069 0.949282
O O9 0.066434 0.080389 0.042033
O O10 0.500000 0.000000 0.000000
O O11 0.500000 0.500000 0.000000
#
# Coordination Sequence:
#
# PCOD9251672 Si02
#       5
#     4   4   4   4   4
#     4   9  21  40  59  93 122 160 197 252 315 360
#     4   8  20  38  60  87 122 156 211 240 302 372
#     4   9  18  39  59  85 119 160 202 251 297 363
#     4   9  19  41  62  86 130 156 199 252 316 367
#     4  11  22  37  65  88 119 167 213 255 297 365
#
# _framework density 20.656065999999999
#
# number of rings (size 3 to 8) (size 9 to 14) (size 15 to 20)
#    1.200    1.600    2.000    0.000    2.800    6.400 
#    0.000    5.000    0.000    0.000    0.000    0.000 
#    0.000    0.000    0.000    0.000    0.000    0.000 
#
# Total GULP energy -111428.473679 kJ/mol
# GULP energy per Si atom -5571.423684 kJ/mol
# Density = 2.060905 g / cm^3
# Si number density = 20.656066 Si / 1000 Ang^3
#
#
#
# Elastic Constant Matrix: (Units=GPa)
#
#
# Indices 1 2 3 4 5 6 
#
# 1 37.0625 29.7746 47.0376 0.0000 -13.3363 0.0000
# 2 29.7746 138.6855 102.4642 0.0000 -19.2735 0.0000
# 3 47.0376 102.4642 192.3611 0.0000 -24.0299 0.0000
# 4 0.0000 0.0000 0.0000 49.9909 0.0000 -22.0974
# 5 -13.3363 -19.2735 -24.0299 0.0000 41.2835 0.0000
# 6 0.0000 0.0000 0.0000 -22.0974 0.0000 83.4095
#
#
#
# Elastic Compliance Matrix: (Units=1/GPa)
#
#
# Indices 1 2 3 4 5 6 
#
# 1 0.041732 -0.001738 -0.008299 0.000000 0.007839 0.000000
# 2 -0.001738 0.012119 -0.005817 0.000000 0.001711 0.000000
# 3 -0.008299 -0.005817 0.010409 0.000000 0.000662 0.000000
# 4 0.000000 0.000000 0.000000 0.022657 0.000000 0.006002
# 5 0.007839 0.001711 0.000662 0.000000 0.027939 0.000000
# 6 0.000000 0.000000 0.000000 0.006002 0.000000 0.013579
#
#
# Mechanical properties :
#
#
# Convention : Reuss Voigt Hill
#
# Bulk Modulus (GPa) = 30.72095 80.74020 55.73058
# Shear Modulus (GPa) = 29.24087 47.52565 38.38326
#
# Velocity S-wave (km/s) = 3.76654 4.80188 4.31537
# Velocity P-wave (km/s) = 5.81555 8.36163 7.20199
#
# Compressibility (1/GPa) = 0.03255107
#
# Stress axis : x y z
#
# Youngs Moduli (GPa) = 23.96263 82.51566 96.07064
#
# Poissons Ratio (x) = 0.14343 0.79733
# Poissons Ratio (y) = 0.04165 0.55880
# Poissons Ratio (z) = 0.19888 0.47996
#
# Static dielectric constant tensor:
#      x y z
#    x 1.811870 0.000000 0.006580 
#    y 0.000000 1.778260 0.000000 
#    z 0.006580 0.000000 1.729740 
# 
# From -- ./inp_files/51809.got.cif
#   From: 2010.05.17/outbox.cif.g08.bks.cpg/sg14_26_cif.got.tgz:51809.got - 2010.06.03 17:49:19.
