data_PCOD9251901
_publ_section_title
;
Structure prediction by ZEFSAII (Michael W. Deem and Ramdas Pophale) SiO2 
 PCOD9251901
Probable space group: P 21/C
;
_chemical_formula_sum "Si O2"
_cell_formula_units_Z 20
_cell_length_a 20.745488
_cell_length_b 5.739164
_cell_length_c 13.346740
_cell_angle_alpha 90.000000
_cell_angle_beta 145.133152
_cell_angle_gamma 90.000000
_cell_volume 908.434932
_symmetry_space_group_name_H-M "P 21/C"
_symmetry_group_IT_number 14
_symmetry_cell_setting 'monoclinic'
loop_
_space_group_symop_operation_xyz
x,y,z
-x,1/2+y,1/2-z
-x,-y,-z
x,1/2-y,1/2+z
loop_
_atom_site_type_symbol
_atom_site_label
_atom_site_fract_x
_atom_site_fract_y
_atom_site_fract_z
Si Si1 0.001120 0.749787 0.442601
Si Si2 0.239603 0.810194 0.647331
Si Si3 0.598850 0.002778 0.774880
Si Si4 0.631662 0.290127 0.011135
Si Si5 0.768902 0.623689 0.059088
O O1 0.886377 0.746864 0.232070
O O2 0.000000 0.500000 0.500000
O O3 0.115067 0.745263 0.523445
O O4 0.000000 0.000000 0.500000
O O5 0.316046 0.603086 0.699478
O O6 0.225296 0.987320 0.538126
O O7 0.313132 0.886304 0.838367
O O8 0.476735 0.921781 0.583410
O O9 0.587041 0.188121 0.849399
O O10 0.665616 0.795652 0.912828
O O11 0.733968 0.455448 0.106129
#
# Coordination Sequence:
#
# PCOD9251901 Si02
#       5
#     4   4   4   4   4
#     4  12  28  50  78 105 149 201 246 310 377 440
#     4  11  27  43  72 107 141 193 251 308 374 444
#     4  11  24  43  71 102 142 193 248 307 371 456
#     4  11  22  47  68 104 146 191 246 304 385 436
#     4  11  26  44  72 105 144 192 247 307 368 456
#
# _framework density 22.015886999999999
#
# number of rings (size 3 to 8) (size 9 to 14) (size 15 to 20)
#    0.000    0.800    4.000    1.800    8.400    2.400 
#    0.000    0.000    0.000    0.000    0.000    0.000 
#    0.000    0.000    0.000    0.000    0.000    0.000 
#
# Total GULP energy -111683.045865 kJ/mol
# GULP energy per Si atom -5584.152293 kJ/mol
# Density = 2.196578 g / cm^3
# Si number density = 22.015887 Si / 1000 Ang^3
#
#
#
# Elastic Constant Matrix: (Units=GPa)
#
#
# Indices 1 2 3 4 5 6 
#
# 1 124.1308 37.2317 63.3881 0.0000 34.8287 0.0000
# 2 37.2317 72.1958 31.8302 0.0000 8.2786 0.0000
# 3 63.3881 31.8302 180.4649 0.0000 18.9601 0.0000
# 4 0.0000 0.0000 0.0000 38.4244 0.0000 -1.2673
# 5 34.8287 8.2786 18.9601 0.0000 39.4524 0.0000
# 6 0.0000 0.0000 0.0000 -1.2673 0.0000 17.5367
#
#
#
# Elastic Compliance Matrix: (Units=1/GPa)
#
#
# Indices 1 2 3 4 5 6 
#
# 1 0.013677 -0.004635 -0.002970 0.000000 -0.009674 0.000000
# 2 -0.004635 0.016738 -0.001459 0.000000 0.001280 0.000000
# 3 -0.002970 -0.001459 0.006882 0.000000 -0.000379 0.000000
# 4 0.000000 0.000000 0.000000 0.026087 0.000000 0.001885
# 5 -0.009674 0.001280 -0.000379 0.000000 0.033801 0.000000
# 6 0.000000 0.000000 0.000000 0.001885 0.000000 0.057160
#
#
# Mechanical properties :
#
#
# Convention : Reuss Voigt Hill
#
# Bulk Modulus (GPa) = 52.16654 71.29904 61.73279
# Shear Modulus (GPa) = 27.95456 35.37213 31.66334
#
# Velocity S-wave (km/s) = 3.56721 4.01267 3.79648
# Velocity P-wave (km/s) = 6.38068 7.34331 6.87886
#
# Compressibility (1/GPa) = 0.01916938
#
# Stress axis : x y z
#
# Youngs Moduli (GPa) = 73.11351 59.74556 145.31364
#
# Poissons Ratio (x) = 0.27689 0.43162
# Poissons Ratio (y) = 0.33885 0.21198
# Poissons Ratio (z) = 0.21717 0.08716
#
# Static dielectric constant tensor:
#      x y z
#    x 1.953700 0.000000 -0.105140 
#    y 0.000000 1.930350 0.000000 
#    z -0.105140 0.000000 1.800250 
# 
# From -- ./inp_files/42562.got.cif
#   From: 2010.05.17/outbox.cif.g08.bks.cpg/sg14_22_cif.got.tgz:42562.got - 2010.06.03 17:49:19.
