data_PCOD9251358
_publ_section_title
;
Structure prediction by ZEFSAII (Michael W. Deem and Ramdas Pophale) SiO2 
 PCOD9251358
Probable space group: P 21/C
;
_chemical_formula_sum "Si O2"
_cell_formula_units_Z 28
_cell_length_a 8.280403
_cell_length_b 9.625403
_cell_length_c 15.443500
_cell_angle_alpha 90.000000
_cell_angle_beta 59.033079
_cell_angle_gamma 90.000000
_cell_volume 1055.436918
_symmetry_space_group_name_H-M "P 21/C"
_symmetry_group_IT_number 14
_symmetry_cell_setting 'monoclinic'
loop_
_space_group_symop_operation_xyz
x,y,z
-x,1/2+y,1/2-z
-x,-y,-z
x,1/2-y,1/2+z
loop_
_atom_site_type_symbol
_atom_site_label
_atom_site_fract_x
_atom_site_fract_y
_atom_site_fract_z
Si Si1 0.597867 0.574113 0.210854
Si Si2 0.956419 0.481816 0.658008
Si Si3 0.908713 0.966548 0.350655
Si Si4 0.614167 0.605426 0.409411
Si Si5 0.428978 0.131435 0.468489
Si Si6 0.777741 0.196422 0.653673
Si Si7 0.993314 0.218812 0.418830
O O1 0.557311 0.602109 0.323602
O O2 0.505067 0.638366 0.148641
O O3 0.595159 0.405179 0.200654
O O4 0.802329 0.647467 0.141422
O O5 0.160060 0.419911 0.634724
O O6 0.852150 0.555008 0.767988
O O7 0.825493 0.358228 0.658617
O O8 0.995782 0.614932 0.587046
O O9 0.899845 0.133064 0.365599
O O10 0.794678 0.894139 0.458696
O O11 0.108728 0.890501 0.304706
O O12 0.500000 0.500000 0.500000
O O13 0.541742 0.743699 0.475015
O O14 0.500000 0.000000 0.500000
O O15 0.871307 0.175529 0.534472
#
# Coordination Sequence:
#
# PCOD9251358 Si02
#       7
#     4   4   4   4   4   4   4
#     4  11  23  47  74  98 139 183 232 291 355 413
#     4  12  23  38  68 108 142 172 229 297 349 407
#     4  11  20  40  68  96 130 178 232 277 348 406
#     4  12  28  45  67 101 147 185 230 292 349 420
#     4  12  27  48  70  99 139 191 238 279 346 437
#     4  11  20  39  69 104 131 175 221 292 351 411
#     4  11  20  36  70 104 131 174 226 291 350 409
#
# _framework density 26.529295999999999
#
# number of rings (size 3 to 8) (size 9 to 14) (size 15 to 20)
#    0.000    0.571    7.143    3.000    2.000    1.143 
#    0.000    2.857    0.000    0.000    0.000    0.000 
#    0.000    0.000    0.000    0.000    0.000    0.000 
#
# Total GULP energy -156238.357420 kJ/mol
# GULP energy per Si atom -5579.941336 kJ/mol
# Density = 2.646891 g / cm^3
# Si number density = 26.529296 Si / 1000 Ang^3
#
#
#
# Elastic Constant Matrix: (Units=GPa)
#
#
# Indices 1 2 3 4 5 6 
#
# 1 48.4083 -3.4658 30.8335 0.0000 6.5309 0.0000
# 2 -3.4658 194.2476 57.7528 0.0000 21.6856 0.0000
# 3 30.8335 57.7528 199.8814 0.0000 30.0108 0.0000
# 4 0.0000 0.0000 0.0000 47.2868 0.0000 6.8232
# 5 6.5309 21.6856 30.0108 0.0000 33.7669 0.0000
# 6 0.0000 0.0000 0.0000 6.8232 0.0000 26.7951
#
#
#
# Elastic Compliance Matrix: (Units=1/GPa)
#
#
# Indices 1 2 3 4 5 6 
#
# 1 0.023523 0.001810 -0.003801 0.000000 -0.002334 0.000000
# 2 0.001810 0.005961 -0.001586 0.000000 -0.002769 0.000000
# 3 -0.003801 -0.001586 0.006675 0.000000 -0.004179 0.000000
# 4 0.000000 0.000000 0.000000 0.021954 0.000000 -0.005591
# 5 -0.002334 -0.002769 -0.004179 0.000000 0.035558 0.000000
# 6 0.000000 0.000000 0.000000 -0.005591 0.000000 0.038744
#
#
# Mechanical properties :
#
#
# Convention : Reuss Voigt Hill
#
# Bulk Modulus (GPa) = 34.47592 68.08648 51.28120
# Shear Modulus (GPa) = 33.50354 45.39755 39.45054
#
# Velocity S-wave (km/s) = 3.55757 4.14118 3.86042
# Velocity P-wave (km/s) = 5.46797 6.97038 6.26438
#
# Compressibility (1/GPa) = 0.02900575
#
# Stress axis : x y z
#
# Youngs Moduli (GPa) = 42.51091 167.75700 149.81280
#
# Poissons Ratio (x) = -0.30372 0.56950
# Poissons Ratio (y) = -0.07696 0.23759
# Poissons Ratio (z) = 0.16160 0.26604
#
# Static dielectric constant tensor:
#      x y z
#    x 2.417540 0.000000 -0.195820 
#    y 0.000000 1.986220 0.000000 
#    z -0.195820 0.000000 2.086150 
# 
# From -- ./inp_files/43593.got.cif
#   From: 2010.05.17/outbox.cif.g08.bks.cpg/sg14_22_cif.got.tgz:43593.got - 2010.06.03 17:49:19.
