data_PCOD9251596
_publ_section_title
;
Structure prediction by ZEFSAII (Michael W. Deem and Ramdas Pophale) SiO2 
 PCOD9251596
Probable space group: P 21/C
;
_chemical_formula_sum "Si O2"
_cell_formula_units_Z 24
_cell_length_a 13.690375
_cell_length_b 8.555653
_cell_length_c 13.927520
_cell_angle_alpha 90.000000
_cell_angle_beta 41.899554
_cell_angle_gamma 90.000000
_cell_volume 1089.447021
_symmetry_space_group_name_H-M "P 21/C"
_symmetry_group_IT_number 14
_symmetry_cell_setting 'monoclinic'
loop_
_space_group_symop_operation_xyz
x,y,z
-x,1/2+y,1/2-z
-x,-y,-z
x,1/2-y,1/2+z
loop_
_atom_site_type_symbol
_atom_site_label
_atom_site_fract_x
_atom_site_fract_y
_atom_site_fract_z
Si Si1 0.779581 0.048008 0.289245
Si Si2 0.318650 0.301643 0.847855
Si Si3 0.417864 0.586534 0.887479
Si Si4 0.100175 0.408134 0.623435
Si Si5 0.866051 0.815142 0.689476
Si Si6 0.187460 0.789609 0.936319
O O1 0.646201 0.073558 0.458929
O O2 0.763431 0.138601 0.201037
O O3 0.927362 0.110531 0.232944
O O4 0.812229 0.864237 0.247006
O O5 0.414373 0.418051 0.840821
O O6 0.425506 0.166318 0.732857
O O7 0.239975 0.380636 0.814567
O O8 0.190300 0.230060 0.006902
O O9 0.305452 0.686588 0.904868
O O10 0.136508 0.406499 0.708906
O O11 0.147514 0.565581 0.535269
O O12 0.034051 0.801015 0.533393
#
# Coordination Sequence:
#
# PCOD9251596 Si02
#       6
#     4   4   4   4   4   4
#     4  11  22  43  74 102 138 185 224 281 351 403
#     4  12  26  46  66 104 139 183 230 287 342 411
#     4  12  28  45  70 100 142 182 230 289 348 410
#     4  11  21  43  72 104 138 172 232 281 339 406
#     4  11  22  42  76 104 136 183 228 284 343 411
#     4  11  23  44  72 107 138 179 230 288 341 414
#
# _framework density 22.029522
#
# number of rings (size 3 to 8) (size 9 to 14) (size 15 to 20)
#    0.000    0.667    6.667    2.000    0.000    4.000 
#    0.000    2.500    0.000    0.000    0.000    0.000 
#    0.000    0.000    0.000    0.000    0.000    0.000 
#
# Total GULP energy -134448.022375 kJ/mol
# GULP energy per Si atom -5602.000932 kJ/mol
# Density = 2.197938 g / cm^3
# Si number density = 22.029522 Si / 1000 Ang^3
#
#
#
# Elastic Constant Matrix: (Units=GPa)
#
#
# Indices 1 2 3 4 5 6 
#
# 1 102.5629 9.3881 50.3520 0.0000 -1.5554 0.0000
# 2 9.3881 34.1726 23.8212 0.0000 -3.6296 0.0000
# 3 50.3520 23.8212 117.9292 0.0000 24.2085 0.0000
# 4 0.0000 0.0000 0.0000 14.9576 0.0000 2.1078
# 5 -1.5554 -3.6296 24.2085 0.0000 17.8817 0.0000
# 6 0.0000 0.0000 0.0000 2.1078 0.0000 30.9771
#
#
#
# Elastic Compliance Matrix: (Units=1/GPa)
#
#
# Indices 1 2 3 4 5 6 
#
# 1 0.014931 0.005427 -0.011029 0.000000 0.017332 0.000000
# 2 0.005427 0.044097 -0.018223 0.000000 0.034094 0.000000
# 3 -0.011029 -0.018223 0.024687 0.000000 -0.038080 0.000000
# 4 0.000000 0.000000 0.000000 0.067503 0.000000 -0.004593
# 5 0.017332 0.034094 -0.038080 0.000000 0.115904 0.000000
# 6 0.000000 0.000000 0.000000 -0.004593 0.000000 0.032594
#
#
# Mechanical properties :
#
#
# Convention : Reuss Voigt Hill
#
# Bulk Modulus (GPa) = 27.72871 46.86527 37.29699
# Shear Modulus (GPa) = 13.91255 24.17017 19.04136
#
# Velocity S-wave (km/s) = 2.51577 3.31595 2.94318
# Velocity P-wave (km/s) = 4.58838 5.99840 5.34013
#
# Compressibility (1/GPa) = 0.03606370
#
# Stress axis : x y z
#
# Youngs Moduli (GPa) = 66.97579 22.67743 40.50752
#
# Poissons Ratio (x) = -0.12308 0.44676
# Poissons Ratio (y) = -0.36349 0.73818
# Poissons Ratio (z) = 0.73868 0.41326
#
# Static dielectric constant tensor:
#      x y z
#    x 1.800390 0.000000 -0.006850 
#    y 0.000000 1.820330 0.000000 
#    z -0.006850 0.000000 1.761930 
# 
# From -- ./inp_files/46335.got.cif
#   From: 2010.05.17/outbox.cif.g08.bks.cpg/sg14_24_cif.got.tgz:46335.got - 2010.06.03 17:49:19.
