data_PCOD9251489
_publ_section_title
;
Structure prediction by ZEFSAII (Michael W. Deem and Ramdas Pophale) SiO2 
 PCOD9251489
Probable space group: P 21/C
;
_chemical_formula_sum "Si O2"
_cell_formula_units_Z 20
_cell_length_a 7.739520
_cell_length_b 19.935457
_cell_length_c 5.135884
_cell_angle_alpha 90.000000
_cell_angle_beta 83.899979
_cell_angle_gamma 90.000000
_cell_volume 787.933244
_symmetry_space_group_name_H-M "P 21/C"
_symmetry_group_IT_number 14
_symmetry_cell_setting 'monoclinic'
loop_
_space_group_symop_operation_xyz
x,y,z
-x,1/2+y,1/2-z
-x,-y,-z
x,1/2-y,1/2+z
loop_
_atom_site_type_symbol
_atom_site_label
_atom_site_fract_x
_atom_site_fract_y
_atom_site_fract_z
Si Si1 0.364512 0.075436 0.713362
Si Si2 0.169370 0.032633 0.224895
Si Si3 0.907326 0.153160 0.156581
Si Si4 0.262217 0.285451 0.498497
Si Si5 0.755231 0.392064 0.180943
O O1 0.270565 0.065019 0.453509
O O2 0.570515 0.075503 0.644249
O O3 0.292119 0.025648 0.947888
O O4 0.324892 0.147051 0.852505
O O5 0.018631 0.083738 0.166307
O O6 0.119989 0.957304 0.314444
O O7 0.816816 0.158226 0.448658
O O8 0.053279 0.206577 0.054530
O O9 0.766429 0.144621 0.954128
O O10 0.317195 0.228130 0.285559
#
# Coordination Sequence:
#
# PCOD9251489 Si02
#       5
#     4   4   4   4   4
#     4  11  23  39  62  91 120 160 207 240 292 363
#     4  11  21  39  61  90 129 170 192 224 296 378
#     4  11  23  38  61  91 120 158 204 242 296 361
#     4  11  23  44  64  80 111 162 208 251 299 358
#     4  12  22  38  61  96 131 152 189 255 299 348
#
# _framework density 25.382859
#
# number of rings (size 3 to 8) (size 9 to 14) (size 15 to 20)
#    0.000    0.800    0.000   10.800    0.000    0.000 
#    0.000    6.000    0.000    0.000    0.000    0.000 
#    0.000    0.000    0.000    0.000    0.000    0.000 
#
# Total GULP energy -111992.743263 kJ/mol
# GULP energy per Si atom -5599.637163 kJ/mol
# Density = 2.532509 g / cm^3
# Si number density = 25.382859 Si / 1000 Ang^3
#
#
#
# Elastic Constant Matrix: (Units=GPa)
#
#
# Indices 1 2 3 4 5 6 
#
# 1 85.5672 -23.0748 42.5848 0.0000 15.2768 0.0000
# 2 -23.0748 42.3704 29.8177 0.0000 -3.0605 0.0000
# 3 42.5848 29.8177 174.4615 0.0000 27.2218 0.0000
# 4 0.0000 0.0000 0.0000 46.4938 0.0000 -7.6140
# 5 15.2768 -3.0605 27.2218 0.0000 33.8703 0.0000
# 6 0.0000 0.0000 0.0000 -7.6140 0.0000 23.6258
#
#
#
# Elastic Compliance Matrix: (Units=1/GPa)
#
#
# Indices 1 2 3 4 5 6 
#
# 1 0.019897 0.015857 -0.007307 0.000000 -0.001669 0.000000
# 2 0.015857 0.040994 -0.011821 0.000000 0.006053 0.000000
# 3 -0.007307 -0.011821 0.010506 0.000000 -0.006216 0.000000
# 4 0.000000 0.000000 0.000000 0.022707 0.000000 0.007318
# 5 -0.001669 0.006053 -0.006216 0.000000 0.035820 0.000000
# 6 0.000000 0.000000 0.000000 0.007318 0.000000 0.044685
#
#
# Mechanical properties :
#
#
# Convention : Reuss Voigt Hill
#
# Bulk Modulus (GPa) = 15.41895 44.56162 29.99029
# Shear Modulus (GPa) = 24.65870 37.66941 31.16405
#
# Velocity S-wave (km/s) = 3.12022 3.85651 3.50774
# Velocity P-wave (km/s) = 4.36678 6.11753 5.31474
#
# Compressibility (1/GPa) = 0.06485526
#
# Stress axis : x y z
#
# Youngs Moduli (GPa) = 50.25823 24.39404 95.18585
#
# Poissons Ratio (x) = -0.38682 0.69548
# Poissons Ratio (y) = -0.79696 1.12523
# Poissons Ratio (z) = 0.36721 0.28837
#
# Static dielectric constant tensor:
#      x y z
#    x 1.972660 0.000000 -0.044210 
#    y 0.000000 2.051570 0.000000 
#    z -0.044210 0.000000 2.008270 
# 
# From -- ./inp_files/1413.got.cif
#   From: 2010.05.17/outbox.cif.g08.bks.cpg/sg14_1_cif.got.tgz:1413.got - 2010.06.03 17:49:19.
