data_PCOD9251380
_publ_section_title
;
Structure prediction by ZEFSAII (Michael W. Deem and Ramdas Pophale) SiO2 
 PCOD9251380
Probable space group: P 21/C
;
_chemical_formula_sum "Si O2"
_cell_formula_units_Z 28
_cell_length_a 7.065375
_cell_length_b 11.808250
_cell_length_c 13.492378
_cell_angle_alpha 90.000000
_cell_angle_beta 93.466593
_cell_angle_gamma 90.000000
_cell_volume 1123.605527
_symmetry_space_group_name_H-M "P 21/C"
_symmetry_group_IT_number 14
_symmetry_cell_setting 'monoclinic'
loop_
_space_group_symop_operation_xyz
x,y,z
-x,1/2+y,1/2-z
-x,-y,-z
x,1/2-y,1/2+z
loop_
_atom_site_type_symbol
_atom_site_label
_atom_site_fract_x
_atom_site_fract_y
_atom_site_fract_z
Si Si1 0.846715 0.033662 0.355627
Si Si2 0.151078 0.062532 0.846408
Si Si3 0.295367 0.275152 0.506992
Si Si4 0.764161 0.297076 0.356041
Si Si5 0.731827 0.540773 0.072849
Si Si6 0.879807 0.313748 0.571885
Si Si7 0.424258 0.829387 0.336271
O O1 0.780566 0.162462 0.343476
O O2 0.791743 0.993679 0.463468
O O3 0.776106 0.955271 0.263411
O O4 0.075645 0.035622 0.357842
O O5 0.284660 0.115038 0.936468
O O6 0.963848 0.141197 0.837412
O O7 0.093864 0.936790 0.880782
O O8 0.425191 0.254307 0.607579
O O9 0.079163 0.265340 0.540389
O O10 0.338441 0.168854 0.436820
O O11 0.743649 0.321516 0.471813
O O12 0.595211 0.338717 0.281487
O O13 0.584914 0.451663 0.112439
O O14 0.778276 0.227640 0.641424
#
# Coordination Sequence:
#
# PCOD9251380 Si02
#       7
#     4   4   4   4   4   4   4
#     4  11  20  38  71  98 126 185 227 267 345 405
#     4  11  23  42  71 102 138 180 225 285 346 406
#     4  11  25  44  65 102 135 174 231 278 343 404
#     4  11  21  40  64 102 130 177 227 268 338 408
#     4  11  21  41  64  96 141 173 227 288 323 408
#     4  11  23  46  69  94 142 176 222 285 337 403
#     4  12  24  42  70  96 138 177 225 281 337 401
#
# _framework density 24.919779999999999
#
# number of rings (size 3 to 8) (size 9 to 14) (size 15 to 20)
#    0.000    0.857    7.143    3.000    0.000    0.571 
#    2.571    1.429    0.000    0.000    0.000    0.000 
#    0.000    0.000    0.000    0.000    0.000    0.000 
#
# Total GULP energy -156841.733944 kJ/mol
# GULP energy per Si atom -5601.490498 kJ/mol
# Density = 2.486306 g / cm^3
# Si number density = 24.919780 Si / 1000 Ang^3
#
#
#
# Elastic Constant Matrix: (Units=GPa)
#
#
# Indices 1 2 3 4 5 6 
#
# 1 69.5194 1.1709 19.8572 0.0000 24.8198 0.0000
# 2 1.1709 110.7098 1.7577 0.0000 4.4141 0.0000
# 3 19.8572 1.7577 126.8038 0.0000 25.4135 0.0000
# 4 0.0000 0.0000 0.0000 46.5078 0.0000 4.9234
# 5 24.8198 4.4141 25.4135 0.0000 33.8420 0.0000
# 6 0.0000 0.0000 0.0000 4.9234 0.0000 21.1582
#
#
#
# Elastic Compliance Matrix: (Units=1/GPa)
#
#
# Indices 1 2 3 4 5 6 
#
# 1 0.019507 0.000363 -0.000215 0.000000 -0.014192 0.000000
# 2 0.000363 0.009088 0.000127 0.000000 -0.001547 0.000000
# 3 -0.000215 0.000127 0.009288 0.000000 -0.006833 0.000000
# 4 0.000000 0.000000 0.000000 0.022045 0.000000 -0.005130
# 5 -0.014192 -0.001547 -0.006833 0.000000 0.045290 0.000000
# 6 0.000000 0.000000 0.000000 -0.005130 0.000000 0.048457
#
#
# Mechanical properties :
#
#
# Convention : Reuss Voigt Hill
#
# Bulk Modulus (GPa) = 26.01986 39.17829 32.59908
# Shear Modulus (GPa) = 30.13211 39.25140 34.69176
#
# Velocity S-wave (km/s) = 3.48108 3.97307 3.73518
# Velocity P-wave (km/s) = 5.15958 6.06654 5.63135
#
# Compressibility (1/GPa) = 0.03843218
#
# Stress axis : x y z
#
# Youngs Moduli (GPa) = 51.26463 110.02974 107.67003
#
# Poissons Ratio (x) = -0.03994 0.02320
# Poissons Ratio (y) = -0.01861 -0.01370
# Poissons Ratio (z) = 0.01105 -0.01400
#
# Static dielectric constant tensor:
#      x y z
#    x 2.003040 0.000000 0.017200 
#    y 0.000000 1.911450 0.000000 
#    z 0.017200 0.000000 2.004200 
# 
# From -- ./inp_files/40108.got.cif
#   From: 2010.05.17/outbox.cif.g08.bks.cpg/sg14_21_cif.got.tgz:40108.got - 2010.06.03 17:49:19.
