data_PCOD9251263
_publ_section_title
;
Structure prediction by ZEFSAII (Michael W. Deem and Ramdas Pophale) SiO2 
 PCOD9251263
Probable space group: P 21/C
;
_chemical_formula_sum "Si O2"
_cell_formula_units_Z 28
_cell_length_a 9.195596
_cell_length_b 8.823219
_cell_length_c 19.261033
_cell_angle_alpha 90.000000
_cell_angle_beta 84.424240
_cell_angle_gamma 90.000000
_cell_volume 1555.345287
_symmetry_space_group_name_H-M "P 21/C"
_symmetry_group_IT_number 14
_symmetry_cell_setting 'monoclinic'
loop_
_space_group_symop_operation_xyz
x,y,z
-x,1/2+y,1/2-z
-x,-y,-z
x,1/2-y,1/2+z
loop_
_atom_site_type_symbol
_atom_site_label
_atom_site_fract_x
_atom_site_fract_y
_atom_site_fract_z
Si Si1 0.370812 0.748197 0.094008
Si Si2 0.436290 0.229428 0.683960
Si Si3 0.774775 0.577034 0.399736
Si Si4 0.333257 0.410519 0.443120
Si Si5 0.347713 0.759017 0.441141
Si Si6 0.669416 0.418534 0.762101
Si Si7 0.880343 0.405264 0.631558
O O1 0.328519 0.645652 0.160519
O O2 0.276830 0.902753 0.102305
O O3 0.540939 0.799515 0.088513
O O4 0.343451 0.678597 0.018761
O O5 0.310417 0.326827 0.653726
O O6 0.540204 0.165317 0.617071
O O7 0.542725 0.333960 0.724622
O O8 0.370651 0.094326 0.731476
O O9 0.728751 0.632053 0.478902
O O10 0.947829 0.588842 0.382512
O O11 0.401809 0.581799 0.446087
O O12 0.198749 0.445682 0.397798
O O13 0.192005 0.730365 0.411297
O O14 0.816870 0.391464 0.711830
#
# Coordination Sequence:
#
# PCOD9251263 Si02
#       7
#     4   4   4   4   4   4   4
#     4  11  18  34  59  84 106 141 186 222 271 308
#     4  11  20  38  54  79 108 142 183 224 273 315
#     4  11  18  33  62  79 108 145 180 228 263 319
#     4   9  16  33  55  87 102 136 183 229 249 320
#     4   8  17  33  55  81 109 134 183 228 254 318
#     4  11  24  36  55  80 113 144 177 229 271 333
#     4   9  20  33  52  85 111 144 183 215 270 323
#
# _framework density 18.002431999999999
#
# number of rings (size 3 to 8) (size 9 to 14) (size 15 to 20)
#    0.857    1.143    2.857    3.000    0.000    1.714 
#    0.000    0.000    0.000    0.857    0.000    0.000 
#    0.000    0.000    0.000    0.000    0.000    0.000 
#
# Total GULP energy -156044.132562 kJ/mol
# GULP energy per Si atom -5573.004734 kJ/mol
# Density = 1.796146 g / cm^3
# Si number density = 18.002432 Si / 1000 Ang^3
#
#
#
# Elastic Constant Matrix: (Units=GPa)
#
#
# Indices 1 2 3 4 5 6 
#
# 1 119.5935 4.2431 30.4436 0.0000 -18.1097 0.0000
# 2 4.2431 9.7739 11.7785 0.0000 -3.0864 0.0000
# 3 30.4436 11.7785 107.5622 0.0000 -5.7711 0.0000
# 4 0.0000 0.0000 0.0000 29.3934 0.0000 2.4772
# 5 -18.1097 -3.0864 -5.7711 0.0000 20.4725 0.0000
# 6 0.0000 0.0000 0.0000 2.4772 0.0000 6.3595
#
#
#
# Elastic Compliance Matrix: (Units=1/GPa)
#
#
# Indices 1 2 3 4 5 6 
#
# 1 0.010271 0.001376 -0.002598 0.000000 0.008560 0.000000
# 2 0.001376 0.122354 -0.012928 0.000000 0.016018 0.000000
# 3 -0.002598 -0.012928 0.011392 0.000000 -0.001036 0.000000
# 4 0.000000 0.000000 0.000000 0.035176 0.000000 -0.013702
# 5 0.008560 0.016018 -0.001036 0.000000 0.058541 0.000000
# 6 0.000000 0.000000 0.000000 -0.013702 0.000000 0.162583
#
#
# Mechanical properties :
#
#
# Convention : Reuss Voigt Hill
#
# Bulk Modulus (GPa) = 8.64192 36.65111 22.64652
# Shear Modulus (GPa) = 10.70228 23.94270 17.32249
#
# Velocity S-wave (km/s) = 2.44086 3.65083 3.10535
# Velocity P-wave (km/s) = 3.57136 6.17856 5.04625
#
# Compressibility (1/GPa) = 0.11571508
#
# Stress axis : x y z
#
# Youngs Moduli (GPa) = 97.36623 8.17302 87.77762
#
# Poissons Ratio (x) = -0.01124 0.22807
# Poissons Ratio (y) = -0.13393 1.13480
# Poissons Ratio (z) = 0.25298 0.10566
#
# Static dielectric constant tensor:
#      x y z
#    x 1.600280 0.000000 0.015920 
#    y 0.000000 1.611930 0.000000 
#    z 0.015920 0.000000 1.663490 
# 
# From -- ./inp_files/54807.got.cif
#   From: 2010.05.17/outbox.cif.g08.bks.cpg/sg14_28_cif.got.tgz:54807.got - 2010.06.03 17:49:19.
