data_PCOD9251778
_publ_section_title
;
Structure prediction by ZEFSAII (Michael W. Deem and Ramdas Pophale) SiO2 
 PCOD9251778
Probable space group: P 21/C
;
_chemical_formula_sum "Si O2"
_cell_formula_units_Z 24
_cell_length_a 12.858279
_cell_length_b 9.097702
_cell_length_c 9.273889
_cell_angle_alpha 90.000000
_cell_angle_beta 87.947200
_cell_angle_gamma 90.000000
_cell_volume 1084.170645
_symmetry_space_group_name_H-M "P 21/C"
_symmetry_group_IT_number 14
_symmetry_cell_setting 'monoclinic'
loop_
_space_group_symop_operation_xyz
x,y,z
-x,1/2+y,1/2-z
-x,-y,-z
x,1/2-y,1/2+z
loop_
_atom_site_type_symbol
_atom_site_label
_atom_site_fract_x
_atom_site_fract_y
_atom_site_fract_z
Si Si1 0.243624 0.387069 0.689178
Si Si2 0.893423 0.088929 0.006501
Si Si3 0.485130 0.169542 0.548157
Si Si4 0.197943 0.823667 0.683167
Si Si5 0.747202 0.614945 0.980674
Si Si6 0.600917 0.129740 0.827146
O O1 0.187670 0.487815 0.574620
O O2 0.207006 0.226205 0.638989
O O3 0.361247 0.459611 0.677486
O O4 0.212108 0.396399 0.858773
O O5 0.884712 0.239108 0.914347
O O6 0.856146 0.120765 0.169643
O O7 0.000000 0.000000 0.000000
O O8 0.366622 0.189846 0.506809
O O9 0.511801 0.161667 0.715226
O O10 0.558772 0.293352 0.473852
O O11 0.500000 0.000000 0.500000
O O12 0.293815 0.717179 0.720800
O O13 0.248910 0.955270 0.589571
#
# Coordination Sequence:
#
# PCOD9251778 Si02
#       6
#     4   4   4   4   4   4
#     4  11  24  42  64  97 139 174 228 279 344 391
#     4  11  26  47  73 103 126 175 221 274 348 413
#     4  12  23  39  63  97 134 179 240 261 322 394
#     4  11  23  46  73  95 139 173 219 281 344 399
#     4  12  24  42  65 102 138 184 224 279 327 396
#     4  11  22  42  63  95 134 184 221 281 326 388
#
# _framework density 22.136735999999999
#
# number of rings (size 3 to 8) (size 9 to 14) (size 15 to 20)
#    0.000    0.667    3.333    6.000    0.000    3.333 
#    0.000    2.500    0.000    0.000    0.000    0.000 
#    0.000    0.000    0.000    0.000    0.000    0.000 
#
# Total GULP energy -133874.598322 kJ/mol
# GULP energy per Si atom -5578.108263 kJ/mol
# Density = 2.208635 g / cm^3
# Si number density = 22.136736 Si / 1000 Ang^3
#
#
#
# Elastic Constant Matrix: (Units=GPa)
#
#
# Indices 1 2 3 4 5 6 
#
# 1 60.8857 -5.7327 17.8460 0.0000 -3.5720 0.0000
# 2 -5.7327 89.7252 22.1265 0.0000 3.5707 0.0000
# 3 17.8460 22.1265 125.6128 0.0000 5.9432 0.0000
# 4 0.0000 0.0000 0.0000 38.1138 0.0000 10.1073
# 5 -3.5720 3.5707 5.9432 0.0000 18.7534 0.0000
# 6 0.0000 0.0000 0.0000 10.1073 0.0000 20.1225
#
#
#
# Elastic Compliance Matrix: (Units=1/GPa)
#
#
# Indices 1 2 3 4 5 6 
#
# 1 0.017701 0.001713 -0.003006 0.000000 0.003998 0.000000
# 2 0.001713 0.011864 -0.002276 0.000000 -0.001211 0.000000
# 3 -0.003006 -0.002276 0.008929 0.000000 -0.002969 0.000000
# 4 0.000000 0.000000 0.000000 0.030269 0.000000 -0.015204
# 5 0.003998 -0.001211 -0.002969 0.000000 0.055257 0.000000
# 6 0.000000 0.000000 0.000000 -0.015204 0.000000 0.057332
#
#
# Mechanical properties :
#
#
# Convention : Reuss Voigt Hill
#
# Bulk Modulus (GPa) = 31.89045 38.30039 35.09542
# Shear Modulus (GPa) = 25.13295 31.53019 28.33157
#
# Velocity S-wave (km/s) = 3.37315 3.77813 3.58137
# Velocity P-wave (km/s) = 5.44135 6.03089 5.74369
#
# Compressibility (1/GPa) = 0.03135735
#
# Stress axis : x y z
#
# Youngs Moduli (GPa) = 56.49379 84.28833 111.98990
#
# Poissons Ratio (x) = -0.14439 0.33661
# Poissons Ratio (y) = -0.09678 0.25488
# Poissons Ratio (z) = 0.16981 0.19183
#
# Static dielectric constant tensor:
#      x y z
#    x 1.855980 0.000000 0.055650 
#    y 0.000000 1.921270 0.000000 
#    z 0.055650 0.000000 1.380930 
# 
# From -- ./inp_files/15101.got.cif
#   From: 2010.05.17/outbox.cif.g08.bks.cpg/sg14_8_cif.got.tgz:15101.got - 2010.06.03 17:49:19.
