data_PCOD9251241
_publ_section_title
;
Structure prediction by ZEFSAII (Michael W. Deem and Ramdas Pophale) SiO2 
 PCOD9251241
Probable space group: P 21/C
;
_chemical_formula_sum "Si O2"
_cell_formula_units_Z 24
_cell_length_a 17.822841
_cell_length_b 10.041301
_cell_length_c 7.831832
_cell_angle_alpha 90.000000
_cell_angle_beta 143.156066
_cell_angle_gamma 90.000000
_cell_volume 840.463788
_symmetry_space_group_name_H-M "P 21/C"
_symmetry_group_IT_number 14
_symmetry_cell_setting 'monoclinic'
loop_
_space_group_symop_operation_xyz
x,y,z
-x,1/2+y,1/2-z
-x,-y,-z
x,1/2-y,1/2+z
loop_
_atom_site_type_symbol
_atom_site_label
_atom_site_fract_x
_atom_site_fract_y
_atom_site_fract_z
Si Si1 0.377797 0.843998 0.629624
Si Si2 0.208457 0.553090 0.104173
Si Si3 0.883054 0.430224 0.434347
Si Si4 0.974135 0.821979 0.300597
Si Si5 0.275406 0.321738 0.460777
Si Si6 0.562748 0.892950 0.424846
O O1 0.325739 0.874736 0.724799
O O2 0.644286 0.896671 0.747181
O O3 0.460561 0.964150 0.703211
O O4 0.252970 0.863237 0.288233
O O5 0.118192 0.550821 0.772829
O O6 0.113792 0.610815 0.078813
O O7 0.258626 0.414944 0.265991
O O8 0.901249 0.567923 0.559944
O O9 0.133986 0.291174 0.260686
O O10 0.019438 0.678043 0.320954
O O11 0.649296 0.810890 0.449591
O O12 0.553455 0.203785 0.747262
#
# Coordination Sequence:
#
# PCOD9251241 Si02
#       6
#     4   4   4   4   4   4
#     4  10  27  57  81 125 169 228 283 357 416 504
#     4  10  26  52  82 119 181 217 282 350 424 510
#     4  10  27  52  85 127 177 217 285 344 437 495
#     4  12  26  49  86 129 172 224 273 358 425 523
#     4  12  28  48  84 123 166 229 280 344 433 501
#     4  12  28  53  87 118 174 223 292 347 421 508
#
# _framework density 28.555662999999999
#
# number of rings (size 3 to 8) (size 9 to 14) (size 15 to 20)
#    1.000    0.000    1.667    2.000    7.000    7.333 
#    3.000    1.667    0.000    0.000    0.000    0.000 
#    0.000    0.000    0.000    0.000    0.000    0.000 
#
# Total GULP energy -134438.034365 kJ/mol
# GULP energy per Si atom -5601.584765 kJ/mol
# Density = 2.849067 g / cm^3
# Si number density = 28.555663 Si / 1000 Ang^3
#
#
#
# Elastic Constant Matrix: (Units=GPa)
#
#
# Indices 1 2 3 4 5 6 
#
# 1 120.8608 45.1040 55.6366 0.0000 37.3114 0.0000
# 2 45.1040 139.0441 51.6922 0.0000 2.2751 0.0000
# 3 55.6366 51.6922 163.0185 0.0000 10.2363 0.0000
# 4 0.0000 0.0000 0.0000 53.4993 0.0000 12.3971
# 5 37.3114 2.2751 10.2363 0.0000 60.2718 0.0000
# 6 0.0000 0.0000 0.0000 12.3971 0.0000 56.6895
#
#
#
# Elastic Compliance Matrix: (Units=1/GPa)
#
#
# Indices 1 2 3 4 5 6 
#
# 1 0.013107 -0.002994 -0.003054 0.000000 -0.007482 0.000000
# 2 -0.002994 0.008838 -0.001896 0.000000 0.001842 0.000000
# 3 -0.003054 -0.001896 0.007737 0.000000 0.000648 0.000000
# 4 0.000000 0.000000 0.000000 0.019690 0.000000 -0.004306
# 5 -0.007482 0.001842 0.000648 0.000000 0.021044 0.000000
# 6 0.000000 0.000000 0.000000 -0.004306 0.000000 0.018582
#
#
# Mechanical properties :
#
#
# Convention : Reuss Voigt Hill
#
# Bulk Modulus (GPa) = 72.49763 80.86546 76.68154
# Shear Modulus (GPa) = 45.66884 52.12484 48.89684
#
# Velocity S-wave (km/s) = 4.00345 4.27708 4.14253
# Velocity P-wave (km/s) = 6.84204 7.26438 7.05637
#
# Compressibility (1/GPa) = 0.01379356
#
# Stress axis : x y z
#
# Youngs Moduli (GPa) = 76.29473 113.14769 129.24510
#
# Poissons Ratio (x) = 0.33875 0.39473
# Poissons Ratio (y) = 0.22842 0.24509
# Poissons Ratio (z) = 0.23301 0.21457
#
# Static dielectric constant tensor:
#      x y z
#    x 2.278000 0.000000 0.023450 
#    y 0.000000 2.177310 0.000000 
#    z 0.023450 0.000000 2.282080 
# 
# From -- ./inp_files/35065.got.cif
#   From: 2010.05.17/outbox.cif.g08.bks.cpg/sg14_18_cif.got.tgz:35065.got - 2010.06.03 17:49:19.
