data_PCOD9251438
_publ_section_title
;
Structure prediction by ZEFSAII (Michael W. Deem and Ramdas Pophale) SiO2 
 PCOD9251438
Probable space group: P 21/C
;
_chemical_formula_sum "Si O2"
_cell_formula_units_Z 24
_cell_length_a 16.634984
_cell_length_b 6.987644
_cell_length_c 18.403628
_cell_angle_alpha 90.000000
_cell_angle_beta 156.727540
_cell_angle_gamma 90.000000
_cell_volume 845.216610
_symmetry_space_group_name_H-M "P 21/C"
_symmetry_group_IT_number 14
_symmetry_cell_setting 'monoclinic'
loop_
_space_group_symop_operation_xyz
x,y,z
-x,1/2+y,1/2-z
-x,-y,-z
x,1/2-y,1/2+z
loop_
_atom_site_type_symbol
_atom_site_label
_atom_site_fract_x
_atom_site_fract_y
_atom_site_fract_z
Si Si1 0.975997 0.476313 0.218812
Si Si2 0.112012 0.297433 0.180522
Si Si3 0.662778 0.685961 0.426106
Si Si4 0.151249 0.646281 0.747663
Si Si5 0.704992 0.705311 0.306540
Si Si6 0.325324 0.761161 0.255196
O O1 0.176784 0.489393 0.437401
O O2 0.070777 0.414652 0.219965
O O3 0.805730 0.634396 0.065316
O O4 0.852845 0.325809 0.169675
O O5 0.267555 0.336161 0.242350
O O6 0.890500 0.291072 0.959503
O O7 0.171465 0.082263 0.253940
O O8 0.580657 0.733829 0.277787
O O9 0.496061 0.662786 0.349188
O O10 0.313403 0.754700 0.832416
O O11 0.935863 0.699740 0.531258
O O12 0.651013 0.490499 0.237445
#
# Coordination Sequence:
#
# PCOD9251438 Si02
#       6
#     4   4   4   4   4   4
#     4  11  21  36  55  85 117 152 182 230 294 335
#     4   9  17  36  59  80 112 152 187 232 279 340
#     4  11  23  36  58  87 115 152 187 238 283 339
#     4   8  16  36  58  80 111 151 189 229 277 345
#     4   8  18  36  58  82 114 148 189 232 285 333
#     4   9  19  36  61  84 107 148 203 232 265 338
#
# _framework density 28.395087
#
# number of rings (size 3 to 8) (size 9 to 14) (size 15 to 20)
#    0.000    2.667    1.667    2.000    2.333    1.333 
#    0.000    0.000    0.000    9.000    0.000    0.000 
#    0.000    0.000    0.000    0.000    0.000    0.000 
#
# Total GULP energy -134081.841930 kJ/mol
# GULP energy per Si atom -5586.743414 kJ/mol
# Density = 2.833046 g / cm^3
# Si number density = 28.395087 Si / 1000 Ang^3
#
#
#
# Elastic Constant Matrix: (Units=GPa)
#
#
# Indices 1 2 3 4 5 6 
#
# 1 266.6707 10.4262 42.2409 0.0000 9.2317 0.0000
# 2 10.4262 52.8221 11.1077 0.0000 -4.7869 0.0000
# 3 42.2409 11.1077 92.7021 0.0000 0.6026 0.0000
# 4 0.0000 0.0000 0.0000 28.5736 0.0000 -2.0380
# 5 9.2317 -4.7869 0.6026 0.0000 29.5693 0.0000
# 6 0.0000 0.0000 0.0000 -2.0380 0.0000 44.8063
#
#
#
# Elastic Compliance Matrix: (Units=1/GPa)
#
#
# Indices 1 2 3 4 5 6 
#
# 1 0.004102 -0.000553 -0.001794 0.000000 -0.001334 0.000000
# 2 -0.000553 0.019801 -0.002143 0.000000 0.003422 0.000000
# 3 -0.001794 -0.002143 0.011862 0.000000 -0.000028 0.000000
# 4 0.000000 0.000000 0.000000 0.035111 0.000000 0.001597
# 5 -0.001334 0.003422 -0.000028 0.000000 0.034790 0.000000
# 6 0.000000 0.000000 0.000000 0.001597 0.000000 0.022391
#
#
# Mechanical properties :
#
#
# Convention : Reuss Voigt Hill
#
# Bulk Modulus (GPa) = 37.33476 59.97162 48.65319
# Shear Modulus (GPa) = 34.25466 43.81785 39.03626
#
# Velocity S-wave (km/s) = 3.47704 3.93256 3.71179
# Velocity P-wave (km/s) = 5.41263 6.46423 5.96166
#
# Compressibility (1/GPa) = 0.02678469
#
# Stress axis : x y z
#
# Youngs Moduli (GPa) = 243.78729 50.50158 84.30493
#
# Poissons Ratio (x) = 0.02794 0.15126
# Poissons Ratio (y) = 0.13487 0.18065
# Poissons Ratio (z) = 0.43739 0.10821
#
# Static dielectric constant tensor:
#      x y z
#    x 2.332290 0.000000 0.047310 
#    y 0.000000 2.504450 0.000000 
#    z 0.047310 0.000000 2.160330 
# 
# From -- ./inp_files/55089.got.cif
#   From: 2010.05.17/outbox.cif.g08.bks.cpg/sg14_28_cif.got.tgz:55089.got - 2010.06.03 17:49:19.
