data_PCOD9251064
_publ_section_title
;
Structure prediction by ZEFSAII (Michael W. Deem and Ramdas Pophale) SiO2 
 PCOD9251064
Probable space group: P 21/C
;
_chemical_formula_sum "Si O2"
_cell_formula_units_Z 28
_cell_length_a 8.868965
_cell_length_b 19.703582
_cell_length_c 9.796040
_cell_angle_alpha 90.000000
_cell_angle_beta 45.091498
_cell_angle_gamma 90.000000
_cell_volume 1212.400523
_symmetry_space_group_name_H-M "P 21/C"
_symmetry_group_IT_number 14
_symmetry_cell_setting 'monoclinic'
loop_
_space_group_symop_operation_xyz
x,y,z
-x,1/2+y,1/2-z
-x,-y,-z
x,1/2-y,1/2+z
loop_
_atom_site_type_symbol
_atom_site_label
_atom_site_fract_x
_atom_site_fract_y
_atom_site_fract_z
Si Si1 0.162943 0.745656 0.058988
Si Si2 0.500167 0.849343 0.715228
Si Si3 0.117184 0.261321 0.012535
Si Si4 0.638597 0.874652 0.080191
Si Si5 0.640112 0.393892 0.991776
Si Si6 0.365162 0.935602 0.037059
Si Si7 0.002033 0.014472 0.162246
O O1 0.221872 0.666474 0.027675
O O2 0.082792 0.766373 0.259299
O O3 0.966273 0.756439 0.083209
O O4 0.354009 0.790778 0.877698
O O5 0.742890 0.828311 0.577071
O O6 0.442435 0.861548 0.596069
O O7 0.445377 0.915351 0.836723
O O8 0.270723 0.200785 0.964542
O O9 0.548117 0.903603 0.280435
O O10 0.449145 0.879974 0.090727
O O11 0.839688 0.921636 0.916251
O O12 0.777697 0.460006 0.865392
O O13 0.117989 0.954247 0.172632
O O14 0.500000 0.000000 0.000000
O O15 0.000000 0.000000 0.000000
#
# Coordination Sequence:
#
# PCOD9251064 Si02
#       7
#     4   4   4   4   4   4   4
#     4  12  25  42  66 104 136 180 222 281 353 411
#     4  12  25  45  69 101 140 179 227 286 348 409
#     4  12  25  41  69  99 139 177 226 284 349 410
#     4  11  24  45  69 100 134 178 229 284 346 402
#     4  12  25  44  70 100 138 179 230 283 345 415
#     4  10  25  46  70  96 140 185 226 281 336 408
#     4  11  23  48  71  97 139 181 230 285 336 412
#
# _framework density 23.094678999999999
#
# number of rings (size 3 to 8) (size 9 to 14) (size 15 to 20)
#    0.000    0.571    5.714    1.714    6.000    1.143 
#    0.000    0.000    0.000    0.000    0.000    0.000 
#    0.000    0.000    0.000    0.000    0.000    0.000 
#
# Total GULP energy -156672.748319 kJ/mol
# GULP energy per Si atom -5595.455297 kJ/mol
# Density = 2.304211 g / cm^3
# Si number density = 23.094679 Si / 1000 Ang^3
#
#
#
# Elastic Constant Matrix: (Units=GPa)
#
#
# Indices 1 2 3 4 5 6 
#
# 1 61.7397 12.2663 5.7857 0.0000 11.0371 0.0000
# 2 12.2663 27.1038 -10.1021 0.0000 -3.3061 0.0000
# 3 5.7857 -10.1021 73.3419 0.0000 8.0172 0.0000
# 4 0.0000 0.0000 0.0000 16.8455 0.0000 1.4386
# 5 11.0371 -3.3061 8.0172 0.0000 29.9682 0.0000
# 6 0.0000 0.0000 0.0000 1.4386 0.0000 33.0474
#
#
#
# Elastic Compliance Matrix: (Units=1/GPa)
#
#
# Indices 1 2 3 4 5 6 
#
# 1 0.019979 -0.010833 -0.002197 0.000000 -0.007965 0.000000
# 2 -0.010833 0.045019 0.006259 0.000000 0.007282 0.000000
# 3 -0.002197 0.006259 0.014943 0.000000 -0.002498 0.000000
# 4 0.000000 0.000000 0.000000 0.059585 0.000000 -0.002594
# 5 -0.007965 0.007282 -0.002498 0.000000 0.037774 0.000000
# 6 0.000000 0.000000 0.000000 -0.002594 0.000000 0.030373
#
#
# Mechanical properties :
#
#
# Convention : Reuss Voigt Hill
#
# Bulk Modulus (GPa) = 15.06015 19.78723 17.42369
# Shear Modulus (GPa) = 20.54681 26.25457 23.40069
#
# Velocity S-wave (km/s) = 2.98598 3.37534 3.18661
# Velocity P-wave (km/s) = 4.29224 4.87617 4.59349
#
# Compressibility (1/GPa) = 0.06640039
#
# Stress axis : x y z
#
# Youngs Moduli (GPa) = 50.05232 22.21287 66.91942
#
# Poissons Ratio (x) = 0.24062 0.14705
# Poissons Ratio (y) = 0.54219 -0.41888
# Poissons Ratio (z) = 0.10999 -0.13904
#
# Static dielectric constant tensor:
#      x y z
#    x 1.854890 0.000000 -0.011060 
#    y 0.000000 1.904580 0.000000 
#    z -0.011060 0.000000 1.821390 
# 
# From -- ./inp_files/10379.got.cif
#   From: 2010.05.17/outbox.cif.g08.bks.cpg/sg14_6_cif.got.tgz:10379.got - 2010.06.03 17:49:19.
