data_PCOD9251288
_publ_section_title
;
Structure prediction by ZEFSAII (Michael W. Deem and Ramdas Pophale) SiO2 
 PCOD9251288
Probable space group: P 21/C
;
_chemical_formula_sum "Si O2"
_cell_formula_units_Z 16
_cell_length_a 21.123653
_cell_length_b 7.949151
_cell_length_c 12.158550
_cell_angle_alpha 90.000000
_cell_angle_beta 22.541900
_cell_angle_gamma 90.000000
_cell_volume 782.667267
_symmetry_space_group_name_H-M "P 21/C"
_symmetry_group_IT_number 14
_symmetry_cell_setting 'monoclinic'
loop_
_space_group_symop_operation_xyz
x,y,z
-x,1/2+y,1/2-z
-x,-y,-z
x,1/2-y,1/2+z
loop_
_atom_site_type_symbol
_atom_site_label
_atom_site_fract_x
_atom_site_fract_y
_atom_site_fract_z
Si Si1 0.753193 0.500002 0.174301
Si Si2 0.384799 0.500002 0.849974
Si Si3 0.131780 0.810446 0.883110
Si Si4 0.131781 0.310451 0.383110
O O1 0.578101 0.500002 0.520536
O O2 0.703123 0.499999 0.127733
O O3 0.847959 0.332648 0.059927
O O4 0.847956 0.667358 0.059928
O O5 0.307700 0.656962 0.040321
O O6 0.307701 0.343043 0.040321
O O7 0.088362 0.999997 0.993822
O O8 0.999999 0.765762 1.000000
#
# Coordination Sequence:
#
# PCOD9251288 Si02
#       4
#     4   4   4   4
#     4  11  19  36  57  73 107 139 164 217 260 292
#     4   9  21  36  51  83 101 131 184 203 248 324
#     4   9  20  38  51  78 107 132 174 213 250 308
#     4   9  20  38  51  78 107 132 174 213 250 308
#
# _framework density 20.442913000000001
#
# number of rings (size 3 to 8) (size 9 to 14) (size 15 to 20)
#    1.500    1.000    0.000    2.250    0.000    2.000 
#    4.500    2.500    0.000    0.000    0.000    0.000 
#    0.000    0.000    0.000    0.000    0.000    0.000 
#
# Total GULP energy -89195.428000 kJ/mol
# GULP energy per Si atom -5574.714250 kJ/mol
# Density = 2.039638 g / cm^3
# Si number density = 20.442913 Si / 1000 Ang^3
#
#
#
# Elastic Constant Matrix: (Units=GPa)
#
#
# Indices 1 2 3 4 5 6 
#
# 1 76.4769 77.2868 -5.4151 0.0000 -11.9673 0.0000
# 2 77.2868 118.9351 10.5032 0.0000 -13.7226 0.0000
# 3 -5.4151 10.5032 82.9894 0.0000 -2.0689 0.0000
# 4 0.0000 0.0000 0.0000 15.9220 0.0000 17.7584
# 5 -11.9673 -13.7226 -2.0689 0.0000 33.1477 0.0000
# 6 0.0000 0.0000 0.0000 17.7584 0.0000 5.1649
#
#
#
# Elastic Compliance Matrix: (Units=1/GPa)
#
#
# Indices 1 2 3 4 5 6 
#
# 1 0.041480 -0.027023 0.006231 0.000000 0.004177 0.000000
# 2 -0.027023 0.026523 -0.005097 0.000000 0.000906 0.000000
# 3 0.006231 -0.005097 0.013125 0.000000 0.000958 0.000000
# 4 0.000000 0.000000 0.000000 -0.022155 0.000000 0.076176
# 5 0.004177 0.000906 0.000958 0.000000 0.032111 0.000000
# 6 0.000000 0.000000 0.000000 0.076176 0.000000 -0.068298
#
#
# Mechanical properties :
#
#
# Convention : Reuss Voigt Hill
#
# Bulk Modulus (GPa) = 34.07297 49.23901 41.65599
# Shear Modulus (GPa) = 59.27927 23.91536 41.59731
#
# Velocity S-wave (km/s) = 5.39077 3.42403 4.51577
# Velocity P-wave (km/s) = 7.44653 6.30638 6.90004
#
# Compressibility (1/GPa) = 0.02934878
#
# Stress axis : x y z
#
# Youngs Moduli (GPa) = 24.10827 37.70376 76.18867
#
# Poissons Ratio (x) = 1.01886 -0.47471
# Poissons Ratio (y) = 0.65147 0.38836
# Poissons Ratio (z) = -0.15021 0.19219
#
# Static dielectric constant tensor:
#      x y z
#    x 1.646400 0.000000 0.030740 
#    y 0.000000 1.703060 0.000000 
#    z 0.030740 0.000000 1.789400 
# 
# From -- ./inp_files/11946.got.cif
#   From: 2010.05.17/outbox.cif.g08.bks.cpg/sg14_6_cif.got.tgz:11946.got - 2010.06.03 17:49:19.
