data_PCOD9251492
_publ_section_title
;
Structure prediction by ZEFSAII (Michael W. Deem and Ramdas Pophale) SiO2 
 PCOD9251492
Probable space group: P 21/C
;
_chemical_formula_sum "Si O2"
_cell_formula_units_Z 24
_cell_length_a 9.287899
_cell_length_b 12.789751
_cell_length_c 17.374771
_cell_angle_alpha 90.000000
_cell_angle_beta 29.865784
_cell_angle_gamma 90.000000
_cell_volume 1027.783885
_symmetry_space_group_name_H-M "P 21/C"
_symmetry_group_IT_number 14
_symmetry_cell_setting 'monoclinic'
loop_
_space_group_symop_operation_xyz
x,y,z
-x,1/2+y,1/2-z
-x,-y,-z
x,1/2-y,1/2+z
loop_
_atom_site_type_symbol
_atom_site_label
_atom_site_fract_x
_atom_site_fract_y
_atom_site_fract_z
Si Si1 0.789607 0.635382 0.571786
Si Si2 0.927884 0.439422 0.258502
Si Si3 0.384018 0.562003 0.435473
Si Si4 0.305181 0.634842 0.067551
Si Si5 0.240429 0.262339 0.250989
Si Si6 0.754928 0.244131 0.247552
O O1 0.733541 0.514298 0.576486
O O2 0.829708 0.671346 0.640660
O O3 0.053037 0.677339 0.398902
O O4 0.506784 0.698307 0.673252
O O5 0.650335 0.499306 0.350970
O O6 0.837477 0.424643 0.390002
O O7 0.193003 0.516707 0.121067
O O8 0.942951 0.333479 0.203084
O O9 0.525846 0.669401 0.340573
O O10 0.036288 0.701733 0.155604
O O11 0.347904 0.672850 0.134548
O O12 0.586847 0.664332 0.888595
#
# Coordination Sequence:
#
# PCOD9251492 Si02
#       6
#     4   4   4   4   4   4
#     4  11  23  39  60  89 121 154 192 243 297 348
#     4   9  18  35  62  86 111 156 204 234 275 358
#     4   9  18  37  60  82 117 162 192 226 297 362
#     4  11  21  39  63  87 114 156 202 238 285 347
#     4  11  23  39  60  89 121 154 192 243 297 348
#     4  11  21  39  63  87 114 156 202 238 285 347
#
# _framework density 23.351213000000001
#
# number of rings (size 3 to 8) (size 9 to 14) (size 15 to 20)
#    0.000    1.667    3.333    2.000    0.000    1.333 
#    0.000   15.000    0.000    0.000    0.000    0.000 
#    0.000    0.000    0.000    0.000    0.000    0.000 
#
# Total GULP energy -134463.988795 kJ/mol
# GULP energy per Si atom -5602.666200 kJ/mol
# Density = 2.329806 g / cm^3
# Si number density = 23.351213 Si / 1000 Ang^3
#
#
#
# Elastic Constant Matrix: (Units=GPa)
#
#
# Indices 1 2 3 4 5 6 
#
# 1 122.0286 20.5876 41.6326 0.0000 8.5829 0.0000
# 2 20.5876 108.8744 46.1369 0.0000 21.6740 0.0000
# 3 41.6326 46.1369 164.3632 0.0000 13.2674 0.0000
# 4 0.0000 0.0000 0.0000 40.0673 0.0000 -4.8835
# 5 8.5829 21.6740 13.2674 0.0000 51.4370 0.0000
# 6 0.0000 0.0000 0.0000 -4.8835 0.0000 39.6899
#
#
#
# Elastic Compliance Matrix: (Units=1/GPa)
#
#
# Indices 1 2 3 4 5 6 
#
# 1 0.009059 -0.000712 -0.002039 0.000000 -0.000685 0.000000
# 2 -0.000712 0.011226 -0.002654 0.000000 -0.003927 0.000000
# 3 -0.002039 -0.002654 0.007381 0.000000 -0.000445 0.000000
# 4 0.000000 0.000000 0.000000 0.025338 0.000000 0.003118
# 5 -0.000685 -0.003927 -0.000445 0.000000 0.021325 0.000000
# 6 0.000000 0.000000 0.000000 0.003118 0.000000 0.025579
#
#
# Mechanical properties :
#
#
# Convention : Reuss Voigt Hill
#
# Bulk Modulus (GPa) = 59.32758 67.99782 63.66270
# Shear Modulus (GPa) = 42.97836 45.36613 44.17224
#
# Velocity S-wave (km/s) = 4.29478 4.41247 4.35402
# Velocity P-wave (km/s) = 7.07498 7.42581 7.25252
#
# Compressibility (1/GPa) = 0.01685557
#
# Stress axis : x y z
#
# Youngs Moduli (GPa) = 110.38814 89.07995 135.47404
#
# Poissons Ratio (x) = 0.06346 0.27627
# Poissons Ratio (y) = 0.07864 0.35951
# Poissons Ratio (z) = 0.22512 0.23639
#
# Static dielectric constant tensor:
#      x y z
#    x 1.925320 0.000000 -0.056220 
#    y 0.000000 1.878820 0.000000 
#    z -0.056220 0.000000 1.801330 
# 
# From -- ./inp_files/18050.got.cif
#   From: 2010.05.17/outbox.cif.g08.bks.cpg/sg14_10_cif.got.tgz:18050.got - 2010.06.03 17:49:19.
