data_PCOD9251374
_publ_section_title
;
Structure prediction by ZEFSAII (Michael W. Deem and Ramdas Pophale) SiO2 
 PCOD9251374
Probable space group: P 21/C
;
_chemical_formula_sum "Si O2"
_cell_formula_units_Z 32
_cell_length_a 11.337367
_cell_length_b 8.077781
_cell_length_c 21.311948
_cell_angle_alpha 90.000000
_cell_angle_beta 132.643320
_cell_angle_gamma 90.000000
_cell_volume 1435.688942
_symmetry_space_group_name_H-M "P 21/C"
_symmetry_group_IT_number 14
_symmetry_cell_setting 'monoclinic'
loop_
_space_group_symop_operation_xyz
x,y,z
-x,1/2+y,1/2-z
-x,-y,-z
x,1/2-y,1/2+z
loop_
_atom_site_type_symbol
_atom_site_label
_atom_site_fract_x
_atom_site_fract_y
_atom_site_fract_z
Si Si1 0.132540 0.568219 0.716393
Si Si2 0.766116 0.573545 0.598787
Si Si3 0.717591 0.130036 0.473027
Si Si4 0.611478 0.781267 0.439470
Si Si5 0.346878 0.258512 0.823844
Si Si6 0.258466 0.712508 0.638076
Si Si7 0.302098 0.716177 0.895523
Si Si8 0.459287 0.540062 0.285189
O O1 0.249828 0.409666 0.758762
O O2 0.146981 0.667849 0.656430
O O3 0.188684 0.678124 0.795958
O O4 0.949940 0.520356 0.661965
O O5 0.710680 0.644545 0.512562
O O6 0.734636 0.712782 0.639569
O O7 0.669859 0.411082 0.584259
O O8 0.533057 0.195154 0.401913
O O9 0.810386 0.240903 0.455116
O O10 0.764128 0.150134 0.562487
O O11 0.717318 0.936028 0.457257
O O12 0.475694 0.852282 0.437943
O O13 0.515795 0.690774 0.349824
O O14 0.351068 0.093486 0.782912
O O15 0.383223 0.560977 0.677484
O O16 0.362547 0.873709 0.694897
#
# Coordination Sequence:
#
# PCOD9251374 Si02
#       8
#     4   4   4   4   4   4   4   4
#     4  12  25  41  62  94 138 169 207 260 329 389
#     4  12  24  38  63  97 133 169 210 267 322 382
#     4  11  23  38  69  96 122 162 217 275 309 372
#     4  12  21  41  67  99 123 163 222 267 317 363
#     4  11  20  38  62  94 123 164 214 266 319 364
#     4  11  22  40  61  98 130 165 211 263 326 379
#     4  12  22  43  64  97 125 168 221 266 312 372
#     4  11  21  37  67  94 124 161 219 272 307 375
#
# _framework density 22.288951999999998
#
# number of rings (size 3 to 8) (size 9 to 14) (size 15 to 20)
#    0.000    0.500    5.000    6.000    0.000    0.000 
#    0.000    4.375    0.000    0.000    0.000    0.000 
#    0.000    0.000    0.000    0.000    0.000    0.000 
#
# Total GULP energy -179029.873611 kJ/mol
# GULP energy per Si atom -5594.683550 kJ/mol
# Density = 2.223822 g / cm^3
# Si number density = 22.288952 Si / 1000 Ang^3
#
#
#
# Elastic Constant Matrix: (Units=GPa)
#
#
# Indices 1 2 3 4 5 6 
#
# 1 59.5728 5.8486 26.6965 0.0000 -23.5093 0.0000
# 2 5.8486 81.9413 4.9456 0.0000 -21.5785 0.0000
# 3 26.6965 4.9456 45.5264 0.0000 -21.9155 0.0000
# 4 0.0000 0.0000 0.0000 27.5906 0.0000 -13.1612
# 5 -23.5093 -21.5785 -21.9155 0.0000 33.3958 0.0000
# 6 0.0000 0.0000 0.0000 -13.1612 0.0000 22.0498
#
#
#
# Elastic Compliance Matrix: (Units=1/GPa)
#
#
# Indices 1 2 3 4 5 6 
#
# 1 0.026046 0.002397 -0.008715 0.000000 0.014166 0.000000
# 2 0.002397 0.015541 0.003731 0.000000 0.014178 0.000000
# 3 -0.008715 0.003731 0.036365 0.000000 0.020140 0.000000
# 4 0.000000 0.000000 0.000000 0.050672 0.000000 0.030245
# 5 0.014166 0.014178 0.020140 0.000000 0.062293 0.000000
# 6 0.000000 0.000000 0.000000 0.030245 0.000000 0.063405
#
#
# Mechanical properties :
#
#
# Convention : Reuss Voigt Hill
#
# Bulk Modulus (GPa) = 13.74015 29.11354 21.42685
# Shear Modulus (GPa) = 17.62074 26.57722 22.09898
#
# Velocity S-wave (km/s) = 2.81474 3.45685 3.15219
# Velocity P-wave (km/s) = 4.09165 5.38733 4.78356
#
# Compressibility (1/GPa) = 0.07277939
#
# Stress axis : x y z
#
# Youngs Moduli (GPa) = 38.39287 64.34531 27.49874
#
# Poissons Ratio (x) = -0.15426 0.23965
# Poissons Ratio (y) = -0.09204 -0.10259
# Poissons Ratio (z) = 0.33459 -0.24006
#
# Static dielectric constant tensor:
#      x y z
#    x 1.817730 0.000000 -0.055170 
#    y 0.000000 1.822660 0.000000 
#    z -0.055170 0.000000 1.857330 
# 
# From -- ./inp_files/67066.got.cif
#   From: 2010.05.17/outbox.cif.g08.bks.cpg/sg14_34_cif.got.tgz:67066.got - 2010.06.03 17:49:19.
