data_PCOD9251481
_publ_section_title
;
Structure prediction by ZEFSAII (Michael W. Deem and Ramdas Pophale) SiO2 
 PCOD9251481
Probable space group: P 21/C
;
_chemical_formula_sum "Si O2"
_cell_formula_units_Z 32
_cell_length_a 11.858745
_cell_length_b 12.268435
_cell_length_c 17.150236
_cell_angle_alpha 90.000000
_cell_angle_beta 147.904273
_cell_angle_gamma 90.000000
_cell_volume 1325.765612
_symmetry_space_group_name_H-M "P 21/C"
_symmetry_group_IT_number 14
_symmetry_cell_setting 'monoclinic'
loop_
_space_group_symop_operation_xyz
x,y,z
-x,1/2+y,1/2-z
-x,-y,-z
x,1/2-y,1/2+z
loop_
_atom_site_type_symbol
_atom_site_label
_atom_site_fract_x
_atom_site_fract_y
_atom_site_fract_z
Si Si1 0.775590 0.427557 0.814265
Si Si2 0.872232 0.917795 0.092817
Si Si3 0.056154 0.065372 0.320975
Si Si4 0.296300 0.233192 0.885528
Si Si5 0.814138 0.595250 0.394235
Si Si6 0.310947 0.790991 0.308881
Si Si7 0.513346 0.492559 0.913689
Si Si8 0.138947 0.338498 0.127893
O O1 0.662274 0.312520 0.731049
O O2 0.706157 0.553806 0.787365
O O3 0.901974 0.428454 0.804079
O O4 0.922416 0.395543 0.973839
O O5 0.730389 0.873492 0.078862
O O6 0.079335 0.840473 0.195111
O O7 0.735877 0.928396 0.935418
O O8 0.962713 0.026967 0.183696
O O9 0.176429 0.175398 0.366719
O O10 0.238719 0.980600 0.454376
O O11 0.178381 0.206965 0.737045
O O12 0.545407 0.264344 0.030161
O O13 0.646431 0.583713 0.225990
O O14 0.861670 0.725433 0.421749
O O15 0.000000 0.500000 0.500000
O O16 0.429091 0.890405 0.335826
O O17 0.500000 0.500000 0.000000
#
# Coordination Sequence:
#
# PCOD9251481 Si02
#       8
#     4   4   4   4   4   4   4   4
#     4  11  23  44  64  87 138 175 216 264 341 404
#     4  12  22  42  65  99 127 171 224 270 333 392
#     4  11  22  41  65  96 129 173 213 281 331 401
#     4  11  24  40  68  95 128 172 230 265 332 405
#     4  12  21  40  68  97 131 165 223 282 328 387
#     4  11  22  42  66  92 131 172 212 279 327 388
#     4  11  21  38  67  98 127 168 223 271 340 390
#     4  11  23  40  65  93 123 184 215 264 335 405
#
# _framework density 24.136997000000001
#
# number of rings (size 3 to 8) (size 9 to 14) (size 15 to 20)
#    0.000    0.750    6.250    2.250    0.000    0.500 
#    4.500    0.000    8.250    0.000    0.000    0.000 
#    0.000    0.000    0.000    0.000    0.000    0.000 
#
# Total GULP energy -178142.767034 kJ/mol
# GULP energy per Si atom -5566.961470 kJ/mol
# Density = 2.408206 g / cm^3
# Si number density = 24.136997 Si / 1000 Ang^3
#
#
#
# Elastic Constant Matrix: (Units=GPa)
#
#
# Indices 1 2 3 4 5 6 
#
# 1 30.5287 -1.3640 12.1450 0.0000 -22.4423 0.0000
# 2 -1.3640 125.3683 -0.4869 0.0000 -1.3052 0.0000
# 3 12.1450 -0.4869 99.8455 0.0000 -37.7286 0.0000
# 4 0.0000 0.0000 0.0000 43.2157 0.0000 -15.1106
# 5 -22.4423 -1.3052 -37.7286 0.0000 30.1402 0.0000
# 6 0.0000 0.0000 0.0000 -15.1106 0.0000 16.5262
#
#
#
# Elastic Compliance Matrix: (Units=1/GPa)
#
#
# Indices 1 2 3 4 5 6 
#
# 1 0.112183 0.002668 0.034109 0.000000 0.126343 0.000000
# 2 0.002668 0.008049 0.001133 0.000000 0.003754 0.000000
# 3 0.034109 0.001133 0.029388 0.000000 0.062234 0.000000
# 4 0.000000 0.000000 0.000000 0.034014 0.000000 0.031101
# 5 0.126343 0.003754 0.062234 0.000000 0.205318 0.000000
# 6 0.000000 0.000000 0.000000 0.031101 0.000000 0.088947
#
#
# Mechanical properties :
#
#
# Convention : Reuss Voigt Hill
#
# Bulk Modulus (GPa) = 4.43575 30.70339 17.56957
# Shear Modulus (GPa) = 10.47720 34.33964 22.40842
#
# Velocity S-wave (km/s) = 2.08570 3.77596 3.05025
# Velocity P-wave (km/s) = 2.76440 5.63547 4.43850
#
# Compressibility (1/GPa) = 0.22544114
#
# Stress axis : x y z
#
# Youngs Moduli (GPa) = 8.91397 124.23875 34.02708
#
# Poissons Ratio (x) = -0.33152 -1.16061
# Poissons Ratio (y) = -0.02379 -0.03856
# Poissons Ratio (z) = -0.30404 -0.14078
#
# Static dielectric constant tensor:
#      x y z
#    x 1.979480 0.000000 0.097100 
#    y 0.000000 2.023010 0.000000 
#    z 0.097100 0.000000 2.052830 
# 
# From -- ./inp_files/59505.got.cif
#   From: 2010.05.17/outbox.cif.g08.bks.cpg/sg14_30_cif.got.tgz:59505.got - 2010.06.03 17:49:19.
