data_PCOD9251707
_publ_section_title
;
Structure prediction by ZEFSAII (Michael W. Deem and Ramdas Pophale) SiO2 
 PCOD9251707
Probable space group: P 21/C
;
_chemical_formula_sum "Si O2"
_cell_formula_units_Z 24
_cell_length_a 9.117689
_cell_length_b 13.916804
_cell_length_c 16.756100
_cell_angle_alpha 90.000000
_cell_angle_beta 29.381663
_cell_angle_gamma 90.000000
_cell_volume 1043.150134
_symmetry_space_group_name_H-M "P 21/C"
_symmetry_group_IT_number 14
_symmetry_cell_setting 'monoclinic'
loop_
_space_group_symop_operation_xyz
x,y,z
-x,1/2+y,1/2-z
-x,-y,-z
x,1/2-y,1/2+z
loop_
_atom_site_type_symbol
_atom_site_label
_atom_site_fract_x
_atom_site_fract_y
_atom_site_fract_z
Si Si1 0.708187 0.933246 0.847895
Si Si2 0.749495 0.884660 0.197895
Si Si3 0.698277 0.870878 0.597773
Si Si4 0.699793 0.438639 0.196020
Si Si5 0.297703 0.555557 0.160252
Si Si6 0.374905 0.717759 0.404611
O O1 0.534997 0.840411 0.899170
O O2 0.762548 0.999990 0.744727
O O3 0.008932 0.906354 0.751356
O O4 0.500000 0.000000 0.000000
O O5 0.640175 0.904030 0.158644
O O6 0.814231 0.978277 0.219964
O O7 0.463019 0.828644 0.370384
O O8 0.033517 0.815104 0.065954
O O9 0.531434 0.817331 0.748067
O O10 0.053873 0.853968 0.422318
O O11 0.712672 0.983385 0.618030
O O12 0.505758 0.868951 0.608828
O O13 0.500000 0.500000 0.000000
#
# Coordination Sequence:
#
# PCOD9251707 Si02
#       6
#     4   4   4   4   4   4
#     4  11  22  39  64  93 123 159 204 251 304 366
#     4  11  24  40  61  88 122 163 206 253 306 358
#     4   9  19  36  60  85 113 155 198 239 289 358
#     4   9  19  36  60  84 115 154 199 237 289 360
#     4  11  22  39  66  93 122 160 203 249 308 369
#     4  11  24  40  61  87 123 162 206 256 304 359
#
# _framework density 23.007235999999999
#
# number of rings (size 3 to 8) (size 9 to 14) (size 15 to 20)
#    0.000    1.667    3.333    1.000    7.000    2.000 
#    0.000    3.333    0.000    0.000    0.000    0.000 
#    0.000    0.000    0.000    0.000    0.000    0.000 
#
# Total GULP energy -134036.057273 kJ/mol
# GULP energy per Si atom -5584.835720 kJ/mol
# Density = 2.295487 g / cm^3
# Si number density = 23.007236 Si / 1000 Ang^3
#
#
#
# Elastic Constant Matrix: (Units=GPa)
#
#
# Indices 1 2 3 4 5 6 
#
# 1 166.8929 12.1596 39.1777 0.0000 -41.8258 0.0000
# 2 12.1596 43.7390 -3.3856 0.0000 -7.0500 0.0000
# 3 39.1777 -3.3856 61.4970 0.0000 -21.3035 0.0000
# 4 0.0000 0.0000 0.0000 26.3501 0.0000 -7.3381
# 5 -41.8258 -7.0500 -21.3035 0.0000 52.3985 0.0000
# 6 0.0000 0.0000 0.0000 -7.3381 0.0000 22.3152
#
#
#
# Elastic Compliance Matrix: (Units=1/GPa)
#
#
# Indices 1 2 3 4 5 6 
#
# 1 0.008183 -0.001782 -0.003645 0.000000 0.004810 0.000000
# 2 -0.001782 0.024169 0.003607 0.000000 0.003296 0.000000
# 3 -0.003645 0.003607 0.020883 0.000000 0.006066 0.000000
# 4 0.000000 0.000000 0.000000 0.041776 0.000000 0.013738
# 5 0.004810 0.003296 0.006066 0.000000 0.025834 0.000000
# 6 0.000000 0.000000 0.000000 0.013738 0.000000 0.049330
#
#
# Mechanical properties :
#
#
# Convention : Reuss Voigt Hill
#
# Bulk Modulus (GPa) = 20.16264 40.89247 30.52756
# Shear Modulus (GPa) = 26.26812 35.15790 30.71301
#
# Velocity S-wave (km/s) = 3.38262 3.91336 3.65763
# Velocity P-wave (km/s) = 4.90294 6.18317 5.57989
#
# Compressibility (1/GPa) = 0.04959668
#
# Stress axis : x y z
#
# Youngs Moduli (GPa) = 122.20802 41.37574 47.88591
#
# Poissons Ratio (x) = 0.07372 0.17453
# Poissons Ratio (y) = 0.21773 -0.17275
# Poissons Ratio (z) = 0.44542 -0.14926
#
# Static dielectric constant tensor:
#      x y z
#    x 1.915130 0.000000 -0.046660 
#    y 0.000000 1.909070 0.000000 
#    z -0.046660 0.000000 1.960750 
# 
# From -- ./inp_files/8579.got.cif
#   From: 2010.05.17/outbox.cif.g08.bks.cpg/sg14_5_cif.got.tgz:8579.got - 2010.06.03 17:49:19.
