data_PCOD9251006
_publ_section_title
;
Structure prediction by ZEFSAII (Michael W. Deem and Ramdas Pophale) SiO2 
 PCOD9251006
Probable space group: P 21/C
;
_chemical_formula_sum "Si O2"
_cell_formula_units_Z 16
_cell_length_a 8.443537
_cell_length_b 16.138145
_cell_length_c 4.992612
_cell_angle_alpha 90.000000
_cell_angle_beta 63.606273
_cell_angle_gamma 90.000000
_cell_volume 609.393358
_symmetry_space_group_name_H-M "P 21/C"
_symmetry_group_IT_number 14
_symmetry_cell_setting 'monoclinic'
loop_
_space_group_symop_operation_xyz
x,y,z
-x,1/2+y,1/2-z
-x,-y,-z
x,1/2-y,1/2+z
loop_
_atom_site_type_symbol
_atom_site_label
_atom_site_fract_x
_atom_site_fract_y
_atom_site_fract_z
Si Si1 0.733603 0.631479 0.230490
Si Si2 0.352548 0.700523 0.551186
Si Si3 0.093248 0.916471 0.546642
Si Si4 0.692786 0.974471 0.260077
O O1 0.564881 0.689057 0.400153
O O2 0.687941 0.554448 0.460833
O O3 0.933457 0.650314 0.173565
O O4 0.740367 0.603345 0.916519
O O5 0.306445 0.723837 0.283640
O O6 0.249140 0.622983 0.753197
O O7 0.174358 0.951973 0.760158
O O8 0.000000 0.000000 0.500000
O O9 0.500000 0.000000 0.500000
#
# Coordination Sequence:
#
# PCOD9251006 Si02
#       4
#     4   4   4   4
#     4  11  24  43  67 100 138 177 228 283 357 414
#     4  12  28  46  69  98 145 194 236 289 363 436
#     4  10  25  44  75 108 138 181 242 303 351 415
#     4  11  21  39  72 102 136 170 224 291 352 405
#
# _framework density 26.25562
#
# number of rings (size 3 to 8) (size 9 to 14) (size 15 to 20)
#    0.000    1.000    2.500    3.000    3.500    6.000 
#    0.000    0.000    0.000    0.000    0.000    0.000 
#    0.000    0.000    0.000    0.000    0.000    0.000 
#
# Total GULP energy -89521.878249 kJ/mol
# GULP energy per Si atom -5595.117391 kJ/mol
# Density = 2.619586 g / cm^3
# Si number density = 26.255620 Si / 1000 Ang^3
#
#
#
# Elastic Constant Matrix: (Units=GPa)
#
#
# Indices 1 2 3 4 5 6 
#
# 1 87.9913 7.5679 15.0134 0.0000 -20.6613 0.0000
# 2 7.5679 76.5633 23.3445 0.0000 8.3262 0.0000
# 3 15.0134 23.3445 99.1217 0.0000 -8.5617 0.0000
# 4 0.0000 0.0000 0.0000 41.0439 0.0000 -1.6860
# 5 -20.6613 8.3262 -8.5617 0.0000 49.0956 0.0000
# 6 0.0000 0.0000 0.0000 -1.6860 0.0000 42.0547
#
#
#
# Elastic Compliance Matrix: (Units=1/GPa)
#
#
# Indices 1 2 3 4 5 6 
#
# 1 0.012988 -0.001542 -0.001126 0.000000 0.005531 0.000000
# 2 -0.001542 0.014707 -0.003555 0.000000 -0.003763 0.000000
# 3 -0.001126 -0.003555 0.011278 0.000000 0.002096 0.000000
# 4 0.000000 0.000000 0.000000 0.024404 0.000000 0.000978
# 5 0.005531 -0.003763 0.002096 0.000000 0.023700 0.000000
# 6 0.000000 0.000000 0.000000 0.000978 0.000000 0.023818
#
#
# Mechanical properties :
#
#
# Convention : Reuss Voigt Hill
#
# Bulk Modulus (GPa) = 37.69926 39.50311 38.60119
# Shear Modulus (GPa) = 37.82634 40.95553 39.39093
#
# Velocity S-wave (km/s) = 3.79977 3.95381 3.87755
# Velocity P-wave (km/s) = 5.80006 5.99348 5.89756
#
# Compressibility (1/GPa) = 0.02652572
#
# Stress axis : x y z
#
# Youngs Moduli (GPa) = 76.99234 67.99634 88.67213
#
# Poissons Ratio (x) = 0.10484 0.09988
# Poissons Ratio (y) = 0.11871 0.31524
# Poissons Ratio (z) = 0.08672 0.24173
#
# Static dielectric constant tensor:
#      x y z
#    x 2.085270 0.000000 -0.058950 
#    y 0.000000 2.135140 0.000000 
#    z -0.058950 0.000000 2.025080 
# 
# From -- ./inp_files/1109.got.cif
#   From: 2010.05.17/outbox.cif.g08.bks.cpg/sg14_1_cif.got.tgz:1109.got - 2010.06.03 17:49:19.
