data_PCOD9251630
_publ_section_title
;
Structure prediction by ZEFSAII (Michael W. Deem and Ramdas Pophale) SiO2 
 PCOD9251630
Probable space group: P 21/C
;
_chemical_formula_sum "Si O2"
_cell_formula_units_Z 24
_cell_length_a 11.729408
_cell_length_b 8.720038
_cell_length_c 14.896163
_cell_angle_alpha 90.000000
_cell_angle_beta 142.142771
_cell_angle_gamma 90.000000
_cell_volume 935.022725
_symmetry_space_group_name_H-M "P 21/C"
_symmetry_group_IT_number 14
_symmetry_cell_setting 'monoclinic'
loop_
_space_group_symop_operation_xyz
x,y,z
-x,1/2+y,1/2-z
-x,-y,-z
x,1/2-y,1/2+z
loop_
_atom_site_type_symbol
_atom_site_label
_atom_site_fract_x
_atom_site_fract_y
_atom_site_fract_z
Si Si1 0.663237 0.897303 0.824689
Si Si2 0.959367 0.570727 0.821643
Si Si3 0.678756 0.430898 0.165531
Si Si4 0.354430 0.877315 0.879734
Si Si5 0.078964 0.238567 0.874716
Si Si6 0.705616 0.221240 0.949451
O O1 0.731219 0.937683 0.767565
O O2 0.677638 0.057846 0.886329
O O3 0.458916 0.832643 0.682349
O O4 0.792162 0.784003 0.959889
O O5 0.798840 0.475292 0.771042
O O6 0.857165 0.657613 0.676695
O O7 0.068590 0.421090 0.851477
O O8 0.101164 0.691432 0.950620
O O9 0.586413 0.269415 0.140790
O O10 0.884527 0.354559 0.272497
O O11 0.500000 0.500000 0.000000
O O12 0.301355 0.808705 0.946908
O O13 0.500000 0.000000 0.000000
#
# Coordination Sequence:
#
# PCOD9251630 Si02
#       6
#     4   4   4   4   4   4
#     4  12  25  42  67 101 139 177 231 291 349 410
#     4  11  21  46  70  96 139 179 232 279 349 413
#     4  11  23  44  66  95 139 183 229 276 349 413
#     4  11  25  44  69 102 133 183 232 281 342 412
#     4  11  22  41  68 101 133 181 232 285 341 417
#     4  12  25  46  68 104 137 184 231 286 350 410
#
# _framework density 25.667825000000001
#
# number of rings (size 3 to 8) (size 9 to 14) (size 15 to 20)
#    0.000    0.667    6.667    1.500    2.333    4.000 
#    3.000    1.667    0.000    0.000    0.000    0.000 
#    0.000    0.000    0.000    0.000    0.000    0.000 
#
# Total GULP energy -133824.027917 kJ/mol
# GULP energy per Si atom -5576.001163 kJ/mol
# Density = 2.560940 g / cm^3
# Si number density = 25.667825 Si / 1000 Ang^3
#
#
#
# Elastic Constant Matrix: (Units=GPa)
#
#
# Indices 1 2 3 4 5 6 
#
# 1 17.6165 -11.8976 16.3798 0.0000 -0.3528 0.0000
# 2 -11.8976 102.2211 29.0723 0.0000 15.1387 0.0000
# 3 16.3798 29.0723 149.6904 0.0000 11.8382 0.0000
# 4 0.0000 0.0000 0.0000 49.3533 0.0000 7.8505
# 5 -0.3528 15.1387 11.8382 0.0000 31.2744 0.0000
# 6 0.0000 0.0000 0.0000 7.8505 0.0000 30.4413
#
#
#
# Elastic Compliance Matrix: (Units=1/GPa)
#
#
# Indices 1 2 3 4 5 6 
#
# 1 0.074265 0.011718 -0.010329 0.000000 -0.000925 0.000000
# 2 0.011718 0.012821 -0.003394 0.000000 -0.004789 0.000000
# 3 -0.010329 -0.003394 0.008607 0.000000 -0.001732 0.000000
# 4 0.000000 0.000000 0.000000 0.021129 0.000000 -0.005449
# 5 -0.000925 -0.004789 -0.001732 0.000000 0.034938 0.000000
# 6 0.000000 0.000000 0.000000 -0.005449 0.000000 0.034255
#
#
# Mechanical properties :
#
#
# Convention : Reuss Voigt Hill
#
# Bulk Modulus (GPa) = 10.90701 37.40409 24.15555
# Shear Modulus (GPa) = 22.66696 37.94537 30.30616
#
# Velocity S-wave (km/s) = 2.97490 3.84907 3.43987
# Velocity P-wave (km/s) = 4.00732 5.86155 5.02078
#
# Compressibility (1/GPa) = 0.09168412
#
# Stress axis : x y z
#
# Youngs Moduli (GPa) = 13.46531 77.99642 116.18769
#
# Poissons Ratio (x) = -0.91400 1.20012
# Poissons Ratio (y) = -0.15779 0.39429
# Poissons Ratio (z) = 0.13909 0.26469
#
# Static dielectric constant tensor:
#      x y z
#    x 2.256170 0.000000 0.067440 
#    y 0.000000 1.866480 0.000000 
#    z 0.067440 0.000000 2.080470 
# 
# From -- ./inp_files/59134.got.cif
#   From: 2010.05.17/outbox.cif.g08.bks.cpg/sg14_30_cif.got.tgz:59134.got - 2010.06.03 17:49:19.
