data_PCOD9251750
_publ_section_title
;
Structure prediction by ZEFSAII (Michael W. Deem and Ramdas Pophale) SiO2 
 PCOD9251750
Probable space group: P 21/C
;
_chemical_formula_sum "Si O2"
_cell_formula_units_Z 30
_cell_length_a 9.290882
_cell_length_b 11.667587
_cell_length_c 13.801537
_cell_angle_alpha 90.000000
_cell_angle_beta 69.853511
_cell_angle_gamma 90.000000
_cell_volume 1404.576874
_symmetry_space_group_name_H-M "P 21/C"
_symmetry_group_IT_number 14
_symmetry_cell_setting 'monoclinic'
loop_
_space_group_symop_operation_xyz
x,y,z
-x,1/2+y,1/2-z
-x,-y,-z
x,1/2-y,1/2+z
loop_
_atom_site_type_symbol
_atom_site_label
_atom_site_fract_x
_atom_site_fract_y
_atom_site_fract_z
Si Si1 0.000000 0.000000 0.500000
Si Si2 0.514869 0.629568 0.881445
Si Si3 0.192421 0.733637 0.929447
Si Si4 0.423328 0.126810 0.413647
Si Si5 0.072706 0.891566 0.097092
Si Si6 0.228324 0.238359 0.810556
Si Si7 0.029866 0.064108 0.271056
Si Si8 0.241238 0.785518 0.698068
O O1 0.031898 0.998646 0.373630
O O2 0.918720 0.130461 0.509556
O O3 0.363408 0.706370 0.927424
O O4 0.450969 0.503022 0.871699
O O5 0.627688 0.682247 0.776486
O O6 0.599757 0.621204 0.965577
O O7 0.206185 0.736523 0.811272
O O8 0.137362 0.860061 0.976648
O O9 0.285858 0.186862 0.388688
O O10 0.579581 0.194254 0.356916
O O11 0.168289 0.798466 0.136870
O O12 0.894625 0.857360 0.133787
O O13 0.087439 0.002129 0.160357
O O14 0.137159 0.325075 0.761622
O O15 0.853278 0.097595 0.293388
#
# Coordination Sequence:
#
# PCOD9251750 Si02
#       8
#     2   4   4   4   4   4   4   4
#     4  12  20  38  72  98 122 172 234 266 326 386
#     4  11  24  42  68  96 135 169 225 273 332 396
#     4  12  23  41  69  98 128 180 218 275 329 402
#     4  11  23  42  67  99 129 171 223 273 329 391
#     4  11  24  42  66  97 134 172 222 275 329 391
#     4  11  24  41  66 102 132 171 221 273 337 388
#     4  11  24  42  65 100 132 174 222 275 329 400
#     4  11  22  41  66  94 136 168 216 275 330 388
#
# _framework density 21.358744000000002
#
# number of rings (size 3 to 8) (size 9 to 14) (size 15 to 20)
#    0.000    0.800    6.667    1.600    0.000    5.867 
#    0.000    2.000    0.000    0.000    0.000    0.000 
#    0.000    0.000    0.000    0.000    0.000    0.000 
#
# Total GULP energy -167090.691282 kJ/mol
# GULP energy per Si atom -5569.689709 kJ/mol
# Density = 2.131013 g / cm^3
# Si number density = 21.358744 Si / 1000 Ang^3
#
#
#
# Elastic Constant Matrix: (Units=GPa)
#
#
# Indices 1 2 3 4 5 6 
#
# 1 69.4099 4.1002 15.2271 0.0000 0.9260 0.0000
# 2 4.1002 25.3202 1.7044 0.0000 11.8890 0.0000
# 3 15.2271 1.7044 55.6951 0.0000 4.8902 0.0000
# 4 0.0000 0.0000 0.0000 33.2361 0.0000 3.2790
# 5 0.9260 11.8890 4.8902 0.0000 22.1873 0.0000
# 6 0.0000 0.0000 0.0000 3.2790 0.0000 19.8902
#
#
#
# Elastic Compliance Matrix: (Units=1/GPa)
#
#
# Indices 1 2 3 4 5 6 
#
# 1 0.015515 -0.003160 -0.004321 0.000000 0.001998 0.000000
# 2 -0.003160 0.053458 0.001766 0.000000 -0.028903 0.000000
# 3 -0.004321 0.001766 0.019527 0.000000 -0.005070 0.000000
# 4 0.000000 0.000000 0.000000 0.030585 0.000000 -0.005042
# 5 0.001998 -0.028903 -0.005070 0.000000 0.061592 0.000000
# 6 0.000000 0.000000 0.000000 -0.005042 0.000000 0.051107
#
#
# Mechanical properties :
#
#
# Convention : Reuss Voigt Hill
#
# Bulk Modulus (GPa) = 12.97502 21.38761 17.18131
# Shear Modulus (GPa) = 18.59399 23.68897 21.14148
#
# Velocity S-wave (km/s) = 2.95372 3.33393 3.14957
# Velocity P-wave (km/s) = 4.20958 4.98551 4.61389
#
# Compressibility (1/GPa) = 0.07707120
#
# Stress axis : x y z
#
# Youngs Moduli (GPa) = 64.45377 18.70630 51.21056
#
# Poissons Ratio (x) = 0.05910 0.22126
# Poissons Ratio (y) = 0.20365 -0.09042
# Poissons Ratio (z) = 0.27847 -0.03303
#
# Static dielectric constant tensor:
#      x y z
#    x 1.766040 0.000000 0.011390 
#    y 0.000000 1.820400 0.000000 
#    z 0.011390 0.000000 1.798130 
# 
# From -- ./inp_files/40292.got.cif
#   From: 2010.05.17/outbox.cif.g08.bks.cpg/sg14_21_cif.got.tgz:40292.got - 2010.06.03 17:49:19.
