data_PCOD9251398
_publ_section_title
;
Structure prediction by ZEFSAII (Michael W. Deem and Ramdas Pophale) SiO2 
 PCOD9251398
Probable space group: P 21/C
;
_chemical_formula_sum "Si O2"
_cell_formula_units_Z 32
_cell_length_a 30.414859
_cell_length_b 8.987153
_cell_length_c 12.173468
_cell_angle_alpha 90.000000
_cell_angle_beta 24.563263
_cell_angle_gamma 90.000000
_cell_volume 1383.247535
_symmetry_space_group_name_H-M "P 21/C"
_symmetry_group_IT_number 14
_symmetry_cell_setting 'monoclinic'
loop_
_space_group_symop_operation_xyz
x,y,z
-x,1/2+y,1/2-z
-x,-y,-z
x,1/2-y,1/2+z
loop_
_atom_site_type_symbol
_atom_site_label
_atom_site_fract_x
_atom_site_fract_y
_atom_site_fract_z
Si Si1 0.376849 0.748525 0.843067
Si Si2 0.801229 0.333102 0.609922
Si Si3 0.454333 0.176735 0.209606
Si Si4 0.910328 0.510963 0.543108
Si Si5 0.259402 0.526087 0.465995
Si Si6 0.846711 0.499374 0.934483
Si Si7 0.781481 0.718087 0.262164
Si Si8 0.485244 0.493988 0.853196
O O1 0.469122 0.666322 0.568552
O O2 0.290895 0.819828 0.955033
O O3 0.430139 0.892219 0.776834
O O4 0.314478 0.652114 0.073016
O O5 0.880828 0.383223 0.523542
O O6 0.810485 0.434053 0.480792
O O7 0.806992 0.161517 0.562997
O O8 0.329501 0.194441 0.471985
O O9 0.486399 0.335728 0.191131
O O10 0.484682 0.055557 0.229822
O O11 0.846043 0.507654 0.804259
O O12 0.875724 0.664812 0.564015
O O13 0.031873 0.496318 0.300431
O O14 0.212520 0.410033 0.658629
O O15 0.370850 0.463876 0.167132
O O16 0.786901 0.632532 0.133202
#
# Coordination Sequence:
#
# PCOD9251398 Si02
#       8
#     4   4   4   4   4   4   4   4
#     4  11  20  41  62  95 137 177 229 267 329 408
#     4  12  24  45  73 100 135 186 230 283 351 420
#     4  11  23  39  65  97 137 182 225 276 332 402
#     4  11  28  47  72 107 134 173 241 290 352 421
#     4  11  22  41  65  99 135 180 228 277 340 410
#     4  11  26  50  73 100 139 179 227 298 352 414
#     4  12  24  46  72 100 144 183 227 293 350 407
#     4  11  21  38  59  94 135 177 223 270 322 397
#
# _framework density 23.133966000000001
#
# number of rings (size 3 to 8) (size 9 to 14) (size 15 to 20)
#    0.000    0.750    3.750    4.500    3.500    1.000 
#    0.000    3.125    0.000    0.000    0.000    0.000 
#    0.000    0.000    0.000    0.000    0.000    0.000 
#
# Total GULP energy -179289.603869 kJ/mol
# GULP energy per Si atom -5602.800121 kJ/mol
# Density = 2.308131 g / cm^3
# Si number density = 23.133966 Si / 1000 Ang^3
#
#
#
# Elastic Constant Matrix: (Units=GPa)
#
#
# Indices 1 2 3 4 5 6 
#
# 1 107.4444 16.7953 4.6373 0.0000 15.6137 0.0000
# 2 16.7953 60.5904 1.4482 0.0000 10.2135 0.0000
# 3 4.6373 1.4482 53.5724 0.0000 14.6825 0.0000
# 4 0.0000 0.0000 0.0000 7.9173 0.0000 -0.1560
# 5 15.6137 10.2135 14.6825 0.0000 34.0416 0.0000
# 6 0.0000 0.0000 0.0000 -0.1560 0.0000 40.4686
#
#
#
# Elastic Compliance Matrix: (Units=1/GPa)
#
#
# Indices 1 2 3 4 5 6 
#
# 1 0.010237 -0.002139 0.000321 0.000000 -0.004192 0.000000
# 2 -0.002139 0.017886 0.001025 0.000000 -0.004827 0.000000
# 3 0.000321 0.001025 0.021247 0.000000 -0.009618 0.000000
# 4 0.000000 0.000000 0.000000 0.126316 0.000000 0.000487
# 5 -0.004192 -0.004827 -0.009618 0.000000 0.036895 0.000000
# 6 0.000000 0.000000 0.000000 0.000487 0.000000 0.024712
#
#
# Mechanical properties :
#
#
# Convention : Reuss Voigt Hill
#
# Bulk Modulus (GPa) = 20.92781 29.70762 25.31772
# Shear Modulus (GPa) = 19.62258 29.73392 24.67825
#
# Velocity S-wave (km/s) = 2.91557 3.58899 3.26966
# Velocity P-wave (km/s) = 4.51665 5.48123 5.02215
#
# Compressibility (1/GPa) = 0.04778330
#
# Stress axis : x y z
#
# Youngs Moduli (GPa) = 97.68718 55.90856 47.06547
#
# Poissons Ratio (x) = 0.11957 -0.01509
# Poissons Ratio (y) = 0.20892 -0.04823
# Poissons Ratio (z) = -0.03131 -0.05729
#
# Static dielectric constant tensor:
#      x y z
#    x 1.877470 0.000000 0.006130 
#    y 0.000000 1.855640 0.000000 
#    z 0.006130 0.000000 1.868230 
# 
# From -- ./inp_files/36468.got.cif
#   From: 2010.05.17/outbox.cif.g08.bks.cpg/sg14_19_cif.got.tgz:36468.got - 2010.06.03 17:49:19.
