data_PCOD9251010
_publ_section_title
;
Structure prediction by ZEFSAII (Michael W. Deem and Ramdas Pophale) SiO2 
 PCOD9251010
Probable space group: P 21/C
;
_chemical_formula_sum "Si O2"
_cell_formula_units_Z 20
_cell_length_a 21.997426
_cell_length_b 7.573403
_cell_length_c 12.669977
_cell_angle_alpha 90.000000
_cell_angle_beta 24.330056
_cell_angle_gamma 90.000000
_cell_volume 869.616891
_symmetry_space_group_name_H-M "P 21/C"
_symmetry_group_IT_number 14
_symmetry_cell_setting 'monoclinic'
loop_
_space_group_symop_operation_xyz
x,y,z
-x,1/2+y,1/2-z
-x,-y,-z
x,1/2-y,1/2+z
loop_
_atom_site_type_symbol
_atom_site_label
_atom_site_fract_x
_atom_site_fract_y
_atom_site_fract_z
Si Si1 0.676671 0.807916 0.679133
Si Si2 0.991983 0.415442 0.397371
Si Si3 0.247136 0.578608 0.384041
Si Si4 0.400275 0.909447 0.024106
Si Si5 0.152335 0.607838 0.761514
O O1 0.845273 0.863144 0.394005
O O2 0.668639 0.599415 0.714453
O O3 0.622621 0.922307 0.864059
O O4 0.574808 0.870268 0.742079
O O5 0.000000 0.500000 0.500000
O O6 0.891838 0.498494 0.464283
O O7 0.894225 0.246936 0.577856
O O8 0.341597 0.730651 0.176780
O O9 0.183107 0.664591 0.593041
O O10 0.308193 0.954187 0.064393
O O11 0.000000 0.500000 0.000000
#
# Coordination Sequence:
#
# PCOD9251010 Si02
#       5
#     4   4   4   4   4
#     4  11  23  45  70  94 136 176 217 283 334 391
#     4  11  25  41  68 100 128 175 230 271 330 402
#     4  11  24  44  70  96 133 177 225 274 337 400
#     4  10  25  45  64 101 134 172 225 275 334 400
#     4  11  22  42  66  96 133 173 220 273 328 393
#
# _framework density 22.998635
#
# number of rings (size 3 to 8) (size 9 to 14) (size 15 to 20)
#    0.000    1.200    2.000    3.000    8.400    0.000 
#   18.000    0.000    0.000    0.000    0.000    0.000 
#    0.000    0.000    0.000    0.000    0.000    0.000 
#
# Total GULP energy -111483.988231 kJ/mol
# GULP energy per Si atom -5574.199412 kJ/mol
# Density = 2.294629 g / cm^3
# Si number density = 22.998635 Si / 1000 Ang^3
#
#
#
# Elastic Constant Matrix: (Units=GPa)
#
#
# Indices 1 2 3 4 5 6 
#
# 1 112.4170 -15.8747 33.7045 0.0000 -36.1975 0.0000
# 2 -15.8747 61.5695 14.9513 0.0000 -5.2278 0.0000
# 3 33.7045 14.9513 69.6621 0.0000 -20.7857 0.0000
# 4 0.0000 0.0000 0.0000 32.6037 0.0000 7.1601
# 5 -36.1975 -5.2278 -20.7857 0.0000 34.8586 0.0000
# 6 0.0000 0.0000 0.0000 7.1601 0.0000 2.4755
#
#
#
# Elastic Compliance Matrix: (Units=1/GPa)
#
#
# Indices 1 2 3 4 5 6 
#
# 1 0.015988 0.006524 -0.004732 0.000000 0.014759 0.000000
# 2 0.006524 0.019803 -0.005473 0.000000 0.006481 0.000000
# 3 -0.004732 -0.005473 0.019594 0.000000 0.005949 0.000000
# 4 0.000000 0.000000 0.000000 0.084078 0.000000 -0.243191
# 5 0.014759 0.006481 0.005949 0.000000 0.048532 0.000000
# 6 0.000000 0.000000 0.000000 -0.243191 0.000000 1.107378
#
#
# Mechanical properties :
#
#
# Convention : Reuss Voigt Hill
#
# Bulk Modulus (GPa) = 20.82294 34.35677 27.58986
# Shear Modulus (GPa) = 3.79149 28.04538 15.91843
#
# Velocity S-wave (km/s) = 1.28536 3.49583 2.63372
# Velocity P-wave (km/s) = 3.35805 5.59156 4.61205
#
# Compressibility (1/GPa) = 0.04802396
#
# Stress axis : x y z
#
# Youngs Moduli (GPa) = 62.54825 50.49635 51.03535
#
# Poissons Ratio (x) = -0.32946 0.24150
# Poissons Ratio (y) = -0.40809 0.27932
# Poissons Ratio (z) = 0.29597 0.27637
#
# Static dielectric constant tensor:
#      x y z
#    x 2.093990 0.000000 -0.204860 
#    y 0.000000 1.905300 0.000000 
#    z -0.204860 0.000000 1.959240 
# 
# From -- ./inp_files/27944.got.cif
#   From: 2010.05.17/outbox.cif.g08.bks.cpg/sg14_14_cif.got.tgz:27944.got - 2010.06.03 17:49:19.
