data_PCOD9251675
_publ_section_title
;
Structure prediction by ZEFSAII (Michael W. Deem and Ramdas Pophale) SiO2 
 PCOD9251675
Probable space group: P 21/C
;
_chemical_formula_sum "Si O2"
_cell_formula_units_Z 28
_cell_length_a 19.547613
_cell_length_b 6.714672
_cell_length_c 10.047023
_cell_angle_alpha 90.000000
_cell_angle_beta 74.274656
_cell_angle_gamma 90.000000
_cell_volume 1269.372649
_symmetry_space_group_name_H-M "P 21/C"
_symmetry_group_IT_number 14
_symmetry_cell_setting 'monoclinic'
loop_
_space_group_symop_operation_xyz
x,y,z
-x,1/2+y,1/2-z
-x,-y,-z
x,1/2-y,1/2+z
loop_
_atom_site_type_symbol
_atom_site_label
_atom_site_fract_x
_atom_site_fract_y
_atom_site_fract_z
Si Si1 0.959511 0.894650 0.403377
Si Si2 0.641426 0.511229 0.889591
Si Si3 0.832272 0.634285 0.423835
Si Si4 0.207629 0.458917 0.278707
Si Si5 0.542367 0.345088 0.383131
Si Si6 0.595799 0.684705 0.183515
Si Si7 0.104874 0.740466 0.217123
O O1 0.907228 0.709590 0.448461
O O2 0.025238 0.822713 0.279373
O O3 0.906728 0.064357 0.380397
O O4 0.000000 0.000000 0.500000
O O5 0.721413 0.443331 0.817681
O O6 0.587004 0.327229 0.932306
O O7 0.619790 0.644344 0.772920
O O8 0.637438 0.646023 0.024225
O O9 0.811150 0.779732 0.313740
O O10 0.781469 0.622526 0.578145
O O11 0.846227 0.418958 0.355256
O O12 0.144077 0.621660 0.315122
O O13 0.500000 0.500000 0.500000
O O14 0.593818 0.479488 0.266488
O O15 0.483879 0.238387 0.322061
#
# Coordination Sequence:
#
# PCOD9251675 Si02
#       7
#     4   4   4   4   4   4   4
#     4  11  22  37  66  99 126 176 226 285 347 397
#     4  12  27  44  72 104 142 189 232 283 360 420
#     4  11  24  45  70  96 144 180 235 291 342 419
#     4  11  27  46  66 101 139 188 228 280 353 428
#     4  12  24  44  73 107 139 175 231 292 345 410
#     4  12  24  44  72 104 139 177 233 291 341 415
#     4  11  23  40  65  98 133 173 231 287 344 408
#
# _framework density 22.058140000000002
#
# number of rings (size 3 to 8) (size 9 to 14) (size 15 to 20)
#    0.000    0.571    4.286    3.857    2.000    4.571 
#    0.000    0.000    0.000    0.000    0.000    0.000 
#    0.000    0.000    0.000    0.000    0.000    0.000 
#
# Total GULP energy -156386.719234 kJ/mol
# GULP energy per Si atom -5585.239973 kJ/mol
# Density = 2.200794 g / cm^3
# Si number density = 22.058140 Si / 1000 Ang^3
#
#
#
# Elastic Constant Matrix: (Units=GPa)
#
#
# Indices 1 2 3 4 5 6 
#
# 1 39.1050 27.7253 6.7337 0.0000 -7.0484 0.0000
# 2 27.7253 117.6720 42.1320 0.0000 8.3595 0.0000
# 3 6.7337 42.1320 94.6902 0.0000 -5.0702 0.0000
# 4 0.0000 0.0000 0.0000 36.2021 0.0000 0.6855
# 5 -7.0484 8.3595 -5.0702 0.0000 28.0572 0.0000
# 6 0.0000 0.0000 0.0000 0.6855 0.0000 28.4464
#
#
#
# Elastic Compliance Matrix: (Units=1/GPa)
#
#
# Indices 1 2 3 4 5 6 
#
# 1 0.034282 -0.009859 0.002593 0.000000 0.012018 0.000000
# 2 -0.009859 0.013376 -0.005651 0.000000 -0.007483 0.000000
# 3 0.002593 -0.005651 0.013143 0.000000 0.004710 0.000000
# 4 0.000000 0.000000 0.000000 0.027635 0.000000 -0.000666
# 5 0.012018 -0.007483 0.004710 0.000000 0.041741 0.000000
# 6 0.000000 0.000000 0.000000 -0.000666 0.000000 0.035170
#
#
# Mechanical properties :
#
#
# Convention : Reuss Voigt Hill
#
# Bulk Modulus (GPa) = 28.59985 44.96105 36.78045
# Shear Modulus (GPa) = 24.64999 30.19956 27.42478
#
# Velocity S-wave (km/s) = 3.34653 3.70413 3.52986
# Velocity P-wave (km/s) = 5.28452 6.22265 5.77267
#
# Compressibility (1/GPa) = 0.03496522
#
# Stress axis : x y z
#
# Youngs Moduli (GPa) = 29.16960 74.75906 76.08541
#
# Poissons Ratio (x) = 0.73708 -0.19725
# Poissons Ratio (y) = 0.28760 0.42998
# Poissons Ratio (z) = -0.07562 0.42249
#
# Static dielectric constant tensor:
#      x y z
#    x 1.852450 0.000000 -0.004060 
#    y 0.000000 1.768820 0.000000 
#    z -0.004060 0.000000 1.825410 
# 
# From -- ./inp_files/34570.got.cif
#   From: 2010.05.17/outbox.cif.g08.bks.cpg/sg14_18_cif.got.tgz:34570.got - 2010.06.03 17:49:19.
