data_PCOD9251915
_publ_section_title
;
Structure prediction by ZEFSAII (Michael W. Deem and Ramdas Pophale) SiO2 
 PCOD9251915
Probable space group: P 21/C
;
_chemical_formula_sum "Si O2"
_cell_formula_units_Z 24
_cell_length_a 7.538777
_cell_length_b 8.655238
_cell_length_c 14.002438
_cell_angle_alpha 90.000000
_cell_angle_beta 93.140928
_cell_angle_gamma 90.000000
_cell_volume 912.285298
_symmetry_space_group_name_H-M "P 21/C"
_symmetry_group_IT_number 14
_symmetry_cell_setting 'monoclinic'
loop_
_space_group_symop_operation_xyz
x,y,z
-x,1/2+y,1/2-z
-x,-y,-z
x,1/2-y,1/2+z
loop_
_atom_site_type_symbol
_atom_site_label
_atom_site_fract_x
_atom_site_fract_y
_atom_site_fract_z
Si Si1 0.117389 0.031573 0.117638
Si Si2 0.227993 0.634731 0.324543
Si Si3 0.401015 0.684998 0.523310
Si Si4 0.208225 0.224614 0.484167
Si Si5 0.782145 0.493449 0.174476
Si Si6 0.635333 0.015033 0.372839
O O1 0.083395 0.150576 0.029502
O O2 0.916769 0.007200 0.148258
O O3 0.269949 0.918334 0.082978
O O4 0.197131 0.077817 0.223359
O O5 0.373540 0.641968 0.412463
O O6 0.156059 0.813690 0.317393
O O7 0.295342 0.584018 0.223709
O O8 0.611400 0.695088 0.550773
O O9 0.338826 0.857441 0.544372
O O10 0.134492 0.103915 0.404640
O O11 0.272673 0.132969 0.580430
O O12 0.572836 0.485577 0.146844
#
# Coordination Sequence:
#
# PCOD9251915 Si02
#       6
#     4   4   4   4   4   4
#     4  12  28  40  69 108 146 185 230 298 354 426
#     4  12  25  44  71 102 149 185 235 293 356 426
#     4  11  22  48  68 102 136 187 241 291 349 417
#     4  11  24  45  75 103 136 191 243 292 356 418
#     4  11  24  47  69 104 141 188 240 292 355 421
#     4  11  23  43  77  97 135 190 242 296 345 422
#
# _framework density 26.307559999999999
#
# number of rings (size 3 to 8) (size 9 to 14) (size 15 to 20)
#    0.000    0.667    5.000    3.000    2.333    3.333 
#    0.000    0.000    0.000    0.000    0.000    0.000 
#    0.000    0.000    0.000    0.000    0.000    0.000 
#
# Total GULP energy -134289.096863 kJ/mol
# GULP energy per Si atom -5595.379036 kJ/mol
# Density = 2.624768 g / cm^3
# Si number density = 26.307560 Si / 1000 Ang^3
#
#
#
# Elastic Constant Matrix: (Units=GPa)
#
#
# Indices 1 2 3 4 5 6 
#
# 1 61.9501 28.7049 34.2214 0.0000 -16.7771 0.0000
# 2 28.7049 87.1831 45.1752 0.0000 -6.8475 0.0000
# 3 34.2214 45.1752 182.7884 0.0000 -2.0964 0.0000
# 4 0.0000 0.0000 0.0000 44.3688 0.0000 -0.2732
# 5 -16.7771 -6.8475 -2.0964 0.0000 33.6033 0.0000
# 6 0.0000 0.0000 0.0000 -0.2732 0.0000 26.3980
#
#
#
# Elastic Compliance Matrix: (Units=1/GPa)
#
#
# Indices 1 2 3 4 5 6 
#
# 1 0.022929 -0.005258 -0.002876 0.000000 0.010197 0.000000
# 2 -0.005258 0.014570 -0.002614 0.000000 0.000181 0.000000
# 3 -0.002876 -0.002614 0.006638 0.000000 -0.001555 0.000000
# 4 0.000000 0.000000 0.000000 0.022540 0.000000 0.000233
# 5 0.010197 0.000181 -0.001555 0.000000 0.034790 0.000000
# 6 0.000000 0.000000 0.000000 0.000233 0.000000 0.037884
#
#
# Mechanical properties :
#
#
# Convention : Reuss Voigt Hill
#
# Bulk Modulus (GPa) = 44.17150 60.90273 52.53712
# Shear Modulus (GPa) = 29.69231 35.79534 32.74383
#
# Velocity S-wave (km/s) = 3.36320 3.69270 3.53179
# Velocity P-wave (km/s) = 5.64875 6.43288 6.05352
#
# Compressibility (1/GPa) = 0.02263903
#
# Stress axis : x y z
#
# Youngs Moduli (GPa) = 43.61371 68.63311 150.65644
#
# Poissons Ratio (x) = 0.36087 0.43332
# Poissons Ratio (y) = 0.22932 0.39389
# Poissons Ratio (z) = 0.12544 0.17944
#
# Static dielectric constant tensor:
#      x y z
#    x 2.039570 0.000000 0.045840 
#    y 0.000000 2.164310 0.000000 
#    z 0.045840 0.000000 2.013780 
# 
# From -- ./inp_files/38894.got.cif
#   From: 2010.05.17/outbox.cif.g08.bks.cpg/sg14_20_cif.got.tgz:38894.got - 2010.06.03 17:49:19.
