data_PCOD9251403
_publ_section_title
;
Structure prediction by ZEFSAII (Michael W. Deem and Ramdas Pophale) SiO2 
 PCOD9251403
Probable space group: P 21/C
;
_chemical_formula_sum "Si O2"
_cell_formula_units_Z 24
_cell_length_a 8.712659
_cell_length_b 5.559737
_cell_length_c 24.185780
_cell_angle_alpha 90.000000
_cell_angle_beta 111.345968
_cell_angle_gamma 90.000000
_cell_volume 1091.191716
_symmetry_space_group_name_H-M "P 21/C"
_symmetry_group_IT_number 14
_symmetry_cell_setting 'monoclinic'
loop_
_space_group_symop_operation_xyz
x,y,z
-x,1/2+y,1/2-z
-x,-y,-z
x,1/2-y,1/2+z
loop_
_atom_site_type_symbol
_atom_site_label
_atom_site_fract_x
_atom_site_fract_y
_atom_site_fract_z
Si Si1 0.044551 0.558169 0.724341
Si Si2 0.665813 0.120239 0.543903
Si Si3 0.772892 0.691398 0.607429
Si Si4 0.812385 0.021906 0.990861
Si Si5 0.498330 0.576075 0.385296
Si Si6 0.431875 0.643616 0.766069
O O1 0.237162 0.590882 0.736451
O O2 0.010478 0.300748 0.749293
O O3 0.929398 0.567127 0.654969
O O4 0.767882 0.211361 0.505548
O O5 0.589798 0.329949 0.570876
O O6 0.500000 0.000000 0.500000
O O7 0.779251 0.977546 0.601391
O O8 0.772090 0.631848 0.540942
O O9 0.619127 0.658231 0.630880
O O10 0.687108 0.963757 0.925086
O O11 0.000000 0.000000 0.000000
O O12 0.474487 0.759058 0.332801
O O13 0.520703 0.388603 0.762680
#
# Coordination Sequence:
#
# PCOD9251403 Si02
#       6
#     4   4   4   4   4   4
#     4  12  26  48  75 105 137 190 251 292 343 432
#     4  11  20  41  71  95 129 181 233 273 349 434
#     4  11  23  43  71  96 131 184 233 286 340 433
#     4  11  25  40  63 106 138 170 222 292 359 414
#     4  11  23  45  68  95 140 185 230 286 359 431
#     4  12  29  48  72 106 147 191 237 305 371 419
#
# _framework density 21.994302000000001
#
# number of rings (size 3 to 8) (size 9 to 14) (size 15 to 20)
#    0.000    0.667    5.000    3.000    7.000    2.000 
#    0.000    0.000    0.000    0.000    0.000    0.000 
#    0.000    0.000    0.000    0.000    0.000    0.000 
#
# Total GULP energy -133706.435739 kJ/mol
# GULP energy per Si atom -5571.101489 kJ/mol
# Density = 2.194424 g / cm^3
# Si number density = 21.994302 Si / 1000 Ang^3
#
#
#
# Elastic Constant Matrix: (Units=GPa)
#
#
# Indices 1 2 3 4 5 6 
#
# 1 152.5937 25.0361 18.3685 0.0000 4.4688 0.0000
# 2 25.0361 68.6408 -14.5315 0.0000 -16.0304 0.0000
# 3 18.3685 -14.5315 46.8383 0.0000 5.5680 0.0000
# 4 0.0000 0.0000 0.0000 20.0798 0.0000 0.2052
# 5 4.4688 -16.0304 5.5680 0.0000 28.1201 0.0000
# 6 0.0000 0.0000 0.0000 0.2052 0.0000 29.7554
#
#
#
# Elastic Compliance Matrix: (Units=1/GPa)
#
#
# Indices 1 2 3 4 5 6 
#
# 1 0.007860 -0.004427 -0.004104 0.000000 -0.002960 0.000000
# 2 -0.004427 0.020136 0.006693 0.000000 0.010857 0.000000
# 3 -0.004104 0.006693 0.025096 0.000000 -0.000502 0.000000
# 4 0.000000 0.000000 0.000000 0.049805 0.000000 -0.000344
# 5 -0.002960 0.010857 -0.000502 0.000000 0.042321 0.000000
# 6 0.000000 0.000000 0.000000 -0.000344 0.000000 0.033610
#
#
# Mechanical properties :
#
#
# Convention : Reuss Voigt Hill
#
# Bulk Modulus (GPa) = 20.23707 36.20210 28.21958
# Shear Modulus (GPa) = 25.12857 31.53770 28.33313
#
# Velocity S-wave (km/s) = 3.38376 3.79080 3.59305
# Velocity P-wave (km/s) = 4.94848 5.97124 5.48376
#
# Compressibility (1/GPa) = 0.04941426
#
# Stress axis : x y z
#
# Youngs Moduli (GPa) = 127.21857 49.66256 39.84755
#
# Poissons Ratio (x) = 0.21987 0.16355
# Poissons Ratio (y) = 0.56323 -0.26669
# Poissons Ratio (z) = 0.52214 -0.33238
#
# Static dielectric constant tensor:
#      x y z
#    x 1.541860 0.000000 -0.129520 
#    y 0.000000 1.867850 0.000000 
#    z -0.129520 0.000000 1.711920 
# 
# From -- ./inp_files/71597.got.cif
#   From: 2010.05.17/outbox.cif.g08.bks.cpg/sg14_36_cif.got.tgz:71597.got - 2010.06.03 17:49:19.
