data_PCOD9251518
_publ_section_title
;
Structure prediction by ZEFSAII (Michael W. Deem and Ramdas Pophale) SiO2 
 PCOD9251518
Probable space group: P 21/C
;
_chemical_formula_sum "Si O2"
_cell_formula_units_Z 32
_cell_length_a 11.240399
_cell_length_b 14.646656
_cell_length_c 9.738747
_cell_angle_alpha 90.000000
_cell_angle_beta 64.718909
_cell_angle_gamma 90.000000
_cell_volume 1449.769975
_symmetry_space_group_name_H-M "P 21/C"
_symmetry_group_IT_number 14
_symmetry_cell_setting 'monoclinic'
loop_
_space_group_symop_operation_xyz
x,y,z
-x,1/2+y,1/2-z
-x,-y,-z
x,1/2-y,1/2+z
loop_
_atom_site_type_symbol
_atom_site_label
_atom_site_fract_x
_atom_site_fract_y
_atom_site_fract_z
Si Si1 0.761630 0.791216 0.541110
Si Si2 0.999905 0.166047 0.010576
Si Si3 0.355990 0.406206 0.411116
Si Si4 0.781853 0.584363 0.788410
Si Si5 0.208262 0.048999 0.266045
Si Si6 0.349909 0.635220 0.713465
Si Si7 0.249646 0.748573 0.502925
Si Si8 0.922757 0.080627 0.321063
O O1 0.676699 0.700418 0.599007
O O2 0.730243 0.834558 0.409075
O O3 0.737540 0.868900 0.666123
O O4 0.912706 0.752350 0.477815
O O5 0.855839 0.189429 0.029133
O O6 0.087211 0.123699 0.847389
O O7 0.982819 0.094238 0.139875
O O8 0.310849 0.449948 0.289036
O O9 0.269726 0.437993 0.583080
O O10 0.509159 0.413240 0.365585
O O11 0.824529 0.503594 0.866984
O O12 0.051599 0.063236 0.346574
O O13 0.245058 0.945941 0.288200
O O14 0.316078 0.691029 0.591705
O O15 0.344934 0.703513 0.845726
O O16 0.157494 0.828146 0.609945
#
# Coordination Sequence:
#
# PCOD9251518 Si02
#       8
#     4   4   4   4   4   4   4   4
#     4  11  23  42  72 103 135 180 230 291 342 413
#     4  11  21  40  66 102 137 175 221 280 355 416
#     4  11  26  48  69  96 137 190 237 274 343 421
#     4  11  24  39  70 101 136 176 229 289 341 410
#     4  12  25  46  73 105 139 182 232 292 351 413
#     4  12  30  47  69  99 143 189 237 284 343 418
#     4  12  26  45  69 102 139 183 224 291 356 407
#     4  12  23  41  71 107 137 171 229 294 358 412
#
# _framework density 22.072467
#
# number of rings (size 3 to 8) (size 9 to 14) (size 15 to 20)
#    0.000    0.500    5.000    4.500    7.000    1.000 
#    2.250    1.250    0.000    0.000    0.000    0.000 
#    0.000    0.000    0.000    0.000    0.000    0.000 
#
# Total GULP energy -179003.185175 kJ/mol
# GULP energy per Si atom -5593.849537 kJ/mol
# Density = 2.202223 g / cm^3
# Si number density = 22.072467 Si / 1000 Ang^3
#
#
#
# Elastic Constant Matrix: (Units=GPa)
#
#
# Indices 1 2 3 4 5 6 
#
# 1 63.3320 -2.4333 11.2493 0.0000 -7.6777 0.0000
# 2 -2.4333 64.8047 1.3459 0.0000 11.7462 0.0000
# 3 11.2493 1.3459 60.6839 0.0000 18.7257 0.0000
# 4 0.0000 0.0000 0.0000 33.8502 0.0000 9.9690
# 5 -7.6777 11.7462 18.7257 0.0000 20.6854 0.0000
# 6 0.0000 0.0000 0.0000 9.9690 0.0000 21.6355
#
#
#
# Elastic Compliance Matrix: (Units=1/GPa)
#
#
# Indices 1 2 3 4 5 6 
#
# 1 0.019116 -0.001971 -0.008374 0.000000 0.015796 0.000000
# 2 -0.001971 0.018009 0.004645 0.000000 -0.015163 0.000000
# 3 -0.008374 0.004645 0.027338 0.000000 -0.030494 0.000000
# 4 0.000000 0.000000 0.000000 0.034180 0.000000 -0.015749
# 5 0.015796 -0.015163 -0.030494 0.000000 0.090421 0.000000
# 6 0.000000 0.000000 0.000000 -0.015749 0.000000 0.053477
#
#
# Mechanical properties :
#
#
# Convention : Reuss Voigt Hill
#
# Bulk Modulus (GPa) = 18.84582 23.23825 21.04204
# Shear Modulus (GPa) = 18.40738 27.14481 22.77610
#
# Velocity S-wave (km/s) = 2.89096 3.51066 3.21577
# Velocity P-wave (km/s) = 4.43849 5.19461 4.83137
#
# Compressibility (1/GPa) = 0.05306217
#
# Stress axis : x y z
#
# Youngs Moduli (GPa) = 52.31100 55.52815 36.57920
#
# Poissons Ratio (x) = 0.10947 0.30632
# Poissons Ratio (y) = 0.10312 -0.16991
# Poissons Ratio (z) = 0.43806 -0.25793
#
# Static dielectric constant tensor:
#      x y z
#    x 1.808000 0.000000 0.020590 
#    y 0.000000 1.944710 0.000000 
#    z 0.020590 0.000000 1.811020 
# 
# From -- ./inp_files/13294.got.cif
#   From: 2010.05.17/outbox.cif.g08.bks.cpg/sg14_7_cif.got.tgz:13294.got - 2010.06.03 17:49:19.
