data_PCOD9251679
_publ_section_title
;
Structure prediction by ZEFSAII (Michael W. Deem and Ramdas Pophale) SiO2 
 PCOD9251679
Probable space group: P 21/C
;
_chemical_formula_sum "Si O2"
_cell_formula_units_Z 28
_cell_length_a 24.012324
_cell_length_b 5.029776
_cell_length_c 28.748526
_cell_angle_alpha 90.000000
_cell_angle_beta 154.923194
_cell_angle_gamma 90.000000
_cell_volume 1471.610873
_symmetry_space_group_name_H-M "P 21/C"
_symmetry_group_IT_number 14
_symmetry_cell_setting 'monoclinic'
loop_
_space_group_symop_operation_xyz
x,y,z
-x,1/2+y,1/2-z
-x,-y,-z
x,1/2-y,1/2+z
loop_
_atom_site_type_symbol
_atom_site_label
_atom_site_fract_x
_atom_site_fract_y
_atom_site_fract_z
Si Si1 0.714963 0.592277 0.152814
Si Si2 0.129771 0.917960 0.757693
Si Si3 0.841738 0.047906 0.556313
Si Si4 0.543701 0.388679 0.107162
Si Si5 0.519826 0.895613 0.149563
Si Si6 0.417334 0.542881 0.201575
Si Si7 0.787758 0.539319 0.574725
O O1 0.784154 0.876852 0.207333
O O2 0.653021 0.489461 0.153935
O O3 0.818012 0.376388 0.212058
O O4 0.593907 0.611330 0.024962
O O5 0.157686 0.995606 0.832501
O O6 0.975846 0.957430 0.633655
O O7 0.720060 0.053790 0.429029
O O8 0.808652 0.835397 0.571785
O O9 0.856547 0.334557 0.591473
O O10 0.531828 0.597254 0.140238
O O11 0.566973 0.097238 0.145206
O O12 0.593181 0.950709 0.253149
O O13 0.366397 0.964931 0.041863
O O14 0.489292 0.826197 0.252706
#
# Coordination Sequence:
#
# PCOD9251679 Si02
#       7
#     4   4   4   4   4   4   4
#     4  11  22  38  60  86 115 147 191 238 289 339
#     4  12  23  37  59  85 120 154 184 231 288 343
#     4  12  24  39  55  85 122 156 188 225 280 347
#     4  11  22  38  60  88 113 147 190 243 290 328
#     4  12  21  37  62  84 119 147 188 239 286 326
#     4  12  23  38  59  83 115 155 192 233 271 328
#     4  12  21  37  58  87 119 154 182 227 287 346
#
# _framework density 19.026769999999999
#
# number of rings (size 3 to 8) (size 9 to 14) (size 15 to 20)
#    0.000    0.286    5.714    5.143    0.000    2.286 
#    0.000    0.000    0.000    5.143    0.000    0.000 
#    0.000    0.000    0.000    0.000    0.000    0.000 
#
# Total GULP energy -156745.526497 kJ/mol
# GULP energy per Si atom -5598.054518 kJ/mol
# Density = 1.898346 g / cm^3
# Si number density = 19.026770 Si / 1000 Ang^3
#
#
#
# Elastic Constant Matrix: (Units=GPa)
#
#
# Indices 1 2 3 4 5 6 
#
# 1 48.1397 -13.6102 17.7994 0.0000 0.9211 0.0000
# 2 -13.6102 53.1795 -1.0190 0.0000 -0.0740 0.0000
# 3 17.7994 -1.0190 64.9844 0.0000 11.8065 0.0000
# 4 0.0000 0.0000 0.0000 14.5126 0.0000 2.5221
# 5 0.9211 -0.0740 11.8065 0.0000 17.6743 0.0000
# 6 0.0000 0.0000 0.0000 2.5221 0.0000 30.1887
#
#
#
# Elastic Compliance Matrix: (Units=1/GPa)
#
#
# Indices 1 2 3 4 5 6 
#
# 1 0.025262 0.006327 -0.007495 0.000000 0.003717 0.000000
# 2 0.006327 0.020395 -0.001558 0.000000 0.000796 0.000000
# 3 -0.007495 -0.001558 0.019743 0.000000 -0.012804 0.000000
# 4 0.000000 0.000000 0.000000 0.069921 0.000000 -0.005841
# 5 0.003717 0.000796 -0.012804 0.000000 0.064942 0.000000
# 6 0.000000 0.000000 0.000000 -0.005841 0.000000 0.033613
#
#
# Mechanical properties :
#
#
# Convention : Reuss Voigt Hill
#
# Bulk Modulus (GPa) = 16.68138 19.18267 17.93203
# Shear Modulus (GPa) = 19.28184 23.35067 21.31626
#
# Velocity S-wave (km/s) = 3.18686 3.50702 3.35076
# Velocity P-wave (km/s) = 4.72523 5.14808 4.94118
#
# Compressibility (1/GPa) = 0.05994707
#
# Stress axis : x y z
#
# Youngs Moduli (GPa) = 39.58539 49.03229 50.65026
#
# Poissons Ratio (x) = -0.31022 0.37964
# Poissons Ratio (y) = -0.25045 0.07890
# Poissons Ratio (z) = 0.29671 0.07638
#
# Static dielectric constant tensor:
#      x y z
#    x 1.666870 0.000000 0.007740 
#    y 0.000000 1.652270 0.000000 
#    z 0.007740 0.000000 1.632020 
# 
# From -- ./inp_files/66446.got.cif
#   From: 2010.05.17/outbox.cif.g08.bks.cpg/sg14_34_cif.got.tgz:66446.got - 2010.06.03 17:49:19.
