data_PCOD9251328
_publ_section_title
;
Structure prediction by ZEFSAII (Michael W. Deem and Ramdas Pophale) SiO2 
 PCOD9251328
Probable space group: P 21/C
;
_chemical_formula_sum "Si O2"
_cell_formula_units_Z 28
_cell_length_a 11.276770
_cell_length_b 7.792770
_cell_length_c 23.491256
_cell_angle_alpha 90.000000
_cell_angle_beta 34.286187
_cell_angle_gamma 90.000000
_cell_volume 1162.902461
_symmetry_space_group_name_H-M "P 21/C"
_symmetry_group_IT_number 14
_symmetry_cell_setting 'monoclinic'
loop_
_space_group_symop_operation_xyz
x,y,z
-x,1/2+y,1/2-z
-x,-y,-z
x,1/2-y,1/2+z
loop_
_atom_site_type_symbol
_atom_site_label
_atom_site_fract_x
_atom_site_fract_y
_atom_site_fract_z
Si Si1 0.481680 0.371009 0.627593
Si Si2 0.241222 0.490550 0.221374
Si Si3 0.945689 0.008314 0.731329
Si Si4 0.698245 0.544939 0.184629
Si Si5 0.108535 0.799865 0.566727
Si Si6 0.354230 0.131040 0.421494
Si Si7 0.038347 0.730223 0.379286
O O1 0.464173 0.443841 0.698780
O O2 0.715825 0.345144 0.511096
O O3 0.303546 0.474823 0.663197
O O4 0.375323 0.182056 0.673061
O O5 0.075439 0.476513 0.236868
O O6 0.419911 0.635323 0.138742
O O7 0.130039 0.548929 0.323711
O O8 0.044510 0.847781 0.656489
O O9 0.979769 0.167218 0.674249
O O10 0.609356 0.592770 0.159075
O O11 0.807858 0.355858 0.145057
O O12 0.887190 0.681490 0.121404
O O13 0.228601 0.968079 0.495462
O O14 0.187471 0.278716 0.500910
#
# Coordination Sequence:
#
# PCOD9251328 Si02
#       7
#     4   4   4   4   4   4   4
#     4   9  19  33  52  75  98 128 164 206 249 287
#     4  11  20  31  50  78 103 127 163 205 247 289
#     4   9  19  34  52  73  99 131 167 201 241 295
#     4   9  18  35  53  73  99 130 168 201 242 294
#     4   8  16  32  54  73  92 129 169 200 235 289
#     4   9  19  32  52  75  98 132 169 200 237 294
#     4   9  19  35  53  72  98 131 166 205 242 288
#
# _framework density 24.077687000000001
#
# number of rings (size 3 to 8) (size 9 to 14) (size 15 to 20)
#    0.000    3.429    0.000    2.571    0.000    9.714 
#    0.000    6.429    0.000    8.571    0.000    0.000 
#    0.000    0.000    0.000    0.000    0.000    0.000 
#
# Total GULP energy -156276.301096 kJ/mol
# GULP energy per Si atom -5581.296468 kJ/mol
# Density = 2.402288 g / cm^3
# Si number density = 24.077687 Si / 1000 Ang^3
#
#
#
# Elastic Constant Matrix: (Units=GPa)
#
#
# Indices 1 2 3 4 5 6 
#
# 1 74.6209 32.2298 15.9968 0.0000 -3.8138 0.0000
# 2 32.2298 68.9202 9.4427 0.0000 0.9636 0.0000
# 3 15.9968 9.4427 78.8074 0.0000 -18.9883 0.0000
# 4 0.0000 0.0000 0.0000 41.3454 0.0000 -5.5043
# 5 -3.8138 0.9636 -18.9883 0.0000 17.3257 0.0000
# 6 0.0000 0.0000 0.0000 -5.5043 0.0000 2.7399
#
#
#
# Elastic Compliance Matrix: (Units=1/GPa)
#
#
# Indices 1 2 3 4 5 6 
#
# 1 0.017343 -0.007848 -0.002113 0.000000 0.001938 0.000000
# 2 -0.007848 0.018484 -0.001747 0.000000 -0.004670 0.000000
# 3 -0.002113 -0.001747 0.017989 0.000000 0.019347 0.000000
# 4 0.000000 0.000000 0.000000 0.033017 0.000000 0.066330
# 5 0.001938 -0.004670 0.019347 0.000000 0.079608 0.000000
# 6 0.000000 0.000000 0.000000 0.066330 0.000000 0.498234
#
#
# Mechanical properties :
#
#
# Convention : Reuss Voigt Hill
#
# Bulk Modulus (GPa) = 32.89441 37.52078 35.20760
# Shear Modulus (GPa) = 7.16102 23.26081 15.21092
#
# Velocity S-wave (km/s) = 1.72644 3.11154 2.51618
# Velocity P-wave (km/s) = 4.20304 5.34097 4.80581
#
# Compressibility (1/GPa) = 0.03040030
#
# Stress axis : x y z
#
# Youngs Moduli (GPa) = 57.66145 54.10060 55.58932
#
# Poissons Ratio (x) = 0.42456 0.11746
# Poissons Ratio (y) = 0.45251 0.09712
# Poissons Ratio (z) = 0.12184 0.09452
#
# Static dielectric constant tensor:
#      x y z
#    x 1.899700 0.000000 -0.040870 
#    y 0.000000 2.077770 0.000000 
#    z -0.040870 0.000000 1.961540 
# 
# From -- ./inp_files/72959.got.cif
#   From: 2010.05.17/outbox.cif.g08.bks.cpg/sg14_37_cif.got.tgz:72959.got - 2010.06.03 17:49:19.
