data_PCOD9251840
_publ_section_title
;
Structure prediction by ZEFSAII (Michael W. Deem and Ramdas Pophale) SiO2 
 PCOD9251840
Probable space group: P 21/C
;
_chemical_formula_sum "Si O2"
_cell_formula_units_Z 32
_cell_length_a 16.232139
_cell_length_b 14.614462
_cell_length_c 21.978934
_cell_angle_alpha 90.000000
_cell_angle_beta 16.677601
_cell_angle_gamma 90.000000
_cell_volume 1496.325226
_symmetry_space_group_name_H-M "P 21/C"
_symmetry_group_IT_number 14
_symmetry_cell_setting 'monoclinic'
loop_
_space_group_symop_operation_xyz
x,y,z
-x,1/2+y,1/2-z
-x,-y,-z
x,1/2-y,1/2+z
loop_
_atom_site_type_symbol
_atom_site_label
_atom_site_fract_x
_atom_site_fract_y
_atom_site_fract_z
Si Si1 0.775456 0.767516 0.741265
Si Si2 0.329891 0.126092 0.839353
Si Si3 0.258736 0.858440 0.036664
Si Si4 0.714756 0.733180 0.421112
Si Si5 0.375453 0.797110 0.820204
Si Si6 0.547360 0.414353 0.058451
Si Si7 0.317515 0.613154 0.238895
Si Si8 0.809208 0.935530 0.933854
O O1 0.767622 0.801614 0.815794
O O2 0.659662 0.663102 0.821839
O O3 0.106159 0.764324 0.487594
O O4 0.552941 0.822503 0.857594
O O5 0.379501 0.227315 0.831650
O O6 0.558612 0.106966 0.623700
O O7 0.311242 0.063309 0.912305
O O8 0.024568 0.115931 0.022256
O O9 0.992353 0.793861 0.244897
O O10 0.218148 0.965401 0.077507
O O11 0.273628 0.845994 0.953490
O O12 0.451151 0.803262 0.607151
O O13 0.662993 0.647789 0.501375
O O14 0.431441 0.867770 0.726687
O O15 0.422881 0.515810 0.140662
O O16 0.853059 0.411211 0.809275
#
# Coordination Sequence:
#
# PCOD9251840 Si02
#       8
#     4   4   4   4   4   4   4   4
#     4  11  23  42  70  91 136 182 218 277 339 395
#     4  12  25  43  70  98 139 174 221 283 335 399
#     4  11  23  44  68  97 133 180 220 277 340 396
#     4  11  24  41  64  99 133 176 225 273 334 401
#     4  11  22  44  67  96 135 178 222 274 342 397
#     4  12  23  42  67 104 132 171 226 279 342 389
#     4  12  24  39  68  99 134 174 219 284 338 397
#     4  12  25  43  70  99 138 178 225 278 332 403
#
# _framework density 21.385725000000001
#
# number of rings (size 3 to 8) (size 9 to 14) (size 15 to 20)
#    0.000    0.500    6.250    2.625    3.500    1.500 
#    0.000    0.625    0.000    0.000    0.000    0.000 
#    0.000    0.000    0.000    0.000    0.000    0.000 
#
# Total GULP energy -178908.674044 kJ/mol
# GULP energy per Si atom -5590.896064 kJ/mol
# Density = 2.133705 g / cm^3
# Si number density = 21.385725 Si / 1000 Ang^3
#
#
#
# Elastic Constant Matrix: (Units=GPa)
#
#
# Indices 1 2 3 4 5 6 
#
# 1 74.4773 12.8050 4.9501 0.0000 2.7018 0.0000
# 2 12.8050 98.6255 -1.4418 0.0000 -15.6595 0.0000
# 3 4.9501 -1.4418 38.7902 0.0000 1.2442 0.0000
# 4 0.0000 0.0000 0.0000 14.0563 0.0000 9.7299
# 5 2.7018 -15.6595 1.2442 0.0000 26.4439 0.0000
# 6 0.0000 0.0000 0.0000 9.7299 0.0000 20.4004
#
#
#
# Elastic Compliance Matrix: (Units=1/GPa)
#
#
# Indices 1 2 3 4 5 6 
#
# 1 0.014035 -0.002277 -0.001789 0.000000 -0.002698 0.000000
# 2 -0.002277 0.011563 0.000494 0.000000 0.007057 0.000000
# 3 -0.001789 0.000494 0.026050 0.000000 -0.000750 0.000000
# 4 0.000000 0.000000 0.000000 0.106206 0.000000 -0.050655
# 5 -0.002698 0.007057 -0.000750 0.000000 0.042306 0.000000
# 6 0.000000 0.000000 0.000000 -0.050655 0.000000 0.073178
#
#
# Mechanical properties :
#
#
# Convention : Reuss Voigt Hill
#
# Bulk Modulus (GPa) = 22.46975 27.16884 24.81929
# Shear Modulus (GPa) = 16.93095 25.21876 21.07486
#
# Velocity S-wave (km/s) = 2.81676 3.43772 3.14262
# Velocity P-wave (km/s) = 4.59440 5.33751 4.97984
#
# Compressibility (1/GPa) = 0.04450428
#
# Stress axis : x y z
#
# Youngs Moduli (GPa) = 71.24961 86.48559 38.38709
#
# Poissons Ratio (x) = 0.19691 0.06868
# Poissons Ratio (y) = 0.16222 -0.01896
# Poissons Ratio (z) = 0.12748 -0.04272
#
# Static dielectric constant tensor:
#      x y z
#    x 1.789730 0.000000 0.030970 
#    y 0.000000 1.766090 0.000000 
#    z 0.030970 0.000000 1.801160 
# 
# From -- ./inp_files/68635.got.cif
#   From: 2010.05.17/outbox.cif.g08.bks.cpg/sg14_35_cif.got.tgz:68635.got - 2010.06.03 17:49:19.
