data_PCOD9251199
_publ_section_title
;
Structure prediction by ZEFSAII (Michael W. Deem and Ramdas Pophale) SiO2 
 PCOD9251199
Probable space group: P 21/C
;
_chemical_formula_sum "Si O2"
_cell_formula_units_Z 18
_cell_length_a 4.945192
_cell_length_b 13.141466
_cell_length_c 11.768111
_cell_angle_alpha 90.000000
_cell_angle_beta 72.949894
_cell_angle_gamma 90.000000
_cell_volume 731.162229
_symmetry_space_group_name_H-M "P 21/C"
_symmetry_group_IT_number 14
_symmetry_cell_setting 'monoclinic'
loop_
_space_group_symop_operation_xyz
x,y,z
-x,1/2+y,1/2-z
-x,-y,-z
x,1/2-y,1/2+z
loop_
_atom_site_type_symbol
_atom_site_label
_atom_site_fract_x
_atom_site_fract_y
_atom_site_fract_z
Si Si1 0.527057 0.341422 0.089759
Si Si2 0.273143 0.429706 0.346466
Si Si3 0.942515 0.717075 0.433056
Si Si4 0.000000 0.500000 0.000000
Si Si5 0.196638 0.053714 0.219034
O O1 0.430826 0.367066 0.228812
O O2 0.241933 0.321260 0.053022
O O3 0.742119 0.246435 0.071037
O O4 0.716619 0.429503 0.015780
O O5 0.201651 0.358514 0.460440
O O6 0.478348 0.524885 0.345613
O O7 0.985631 0.472518 0.329911
O O8 0.901780 0.662925 0.316418
O O9 0.124209 0.464103 0.858288
#
# Coordination Sequence:
#
# PCOD9251199 Si02
#       5
#     4   4   4   2   4
#     4  11  26  42  68 105 135 187 229 290 344 420
#     4  11  24  45  67  99 141 176 237 283 352 420
#     4  12  25  42  73 101 139 178 239 291 345 411
#     4  10  26  46  70  98 148 184 230 278 364 422
#     4  11  24  44  71 100 138 188 224 287 355 422
#
# _framework density 24.618341999999998
#
# number of rings (size 3 to 8) (size 9 to 14) (size 15 to 20)
#    0.000    0.889    0.000    6.667    6.222    8.000 
#    0.000    0.000    0.000    0.000    0.000    0.000 
#    0.000    0.000    0.000    0.000    0.000    0.000 
#
# Total GULP energy -100451.259529 kJ/mol
# GULP energy per Si atom -5580.625529 kJ/mol
# Density = 2.456231 g / cm^3
# Si number density = 24.618342 Si / 1000 Ang^3
#
#
#
# Elastic Constant Matrix: (Units=GPa)
#
#
# Indices 1 2 3 4 5 6 
#
# 1 98.7014 8.4026 18.2767 0.0000 5.8523 0.0000
# 2 8.4026 46.9883 12.2125 0.0000 -10.7186 0.0000
# 3 18.2767 12.2125 51.5296 0.0000 -11.3019 0.0000
# 4 0.0000 0.0000 0.0000 25.2416 0.0000 -1.1692
# 5 5.8523 -10.7186 -11.3019 0.0000 28.3085 0.0000
# 6 0.0000 0.0000 0.0000 -1.1692 0.0000 63.0956
#
#
#
# Elastic Compliance Matrix: (Units=1/GPa)
#
#
# Indices 1 2 3 4 5 6 
#
# 1 0.011464 -0.001968 -0.004694 0.000000 -0.004989 0.000000
# 2 -0.001968 0.024381 -0.003251 0.000000 0.008341 0.000000
# 3 -0.004694 -0.003251 0.023875 0.000000 0.009271 0.000000
# 4 0.000000 0.000000 0.000000 0.039651 0.000000 0.000735
# 5 -0.004989 0.008341 0.009271 0.000000 0.043216 0.000000
# 6 0.000000 0.000000 0.000000 0.000735 0.000000 0.015863
#
#
# Mechanical properties :
#
#
# Convention : Reuss Voigt Hill
#
# Bulk Modulus (GPa) = 25.06613 30.55587 27.81100
# Shear Modulus (GPa) = 26.09946 33.88431 29.99188
#
# Velocity S-wave (km/s) = 3.25955 3.71399 3.49416
# Velocity P-wave (km/s) = 4.93662 5.55251 5.25360
#
# Compressibility (1/GPa) = 0.03989448
#
# Stress axis : x y z
#
# Youngs Moduli (GPa) = 87.22846 41.01488 41.88450
#
# Poissons Ratio (x) = 0.08072 0.19660
# Poissons Ratio (y) = 0.17168 0.13616
# Poissons Ratio (z) = 0.40945 0.13334
#
# Static dielectric constant tensor:
#      x y z
#    x 1.878860 0.000000 -0.003180 
#    y 0.000000 2.327110 0.000000 
#    z -0.003180 0.000000 1.888430 
# 
# From -- ./inp_files/20407.got.cif
#   From: 2010.05.17/outbox.cif.g08.bks.cpg/sg14_11_cif.got.tgz:20407.got - 2010.06.03 17:49:19.
