data_PCOD9251047
_publ_section_title
;
Structure prediction by ZEFSAII (Michael W. Deem and Ramdas Pophale) SiO2 
 PCOD9251047
Probable space group: P 21/C
;
_chemical_formula_sum "Si O2"
_cell_formula_units_Z 16
_cell_length_a 17.266654
_cell_length_b 5.076785
_cell_length_c 9.455112
_cell_angle_alpha 90.000000
_cell_angle_beta 41.799370
_cell_angle_gamma 90.000000
_cell_volume 552.432990
_symmetry_space_group_name_H-M "P 21/C"
_symmetry_group_IT_number 14
_symmetry_cell_setting 'monoclinic'
loop_
_space_group_symop_operation_xyz
x,y,z
-x,1/2+y,1/2-z
-x,-y,-z
x,1/2-y,1/2+z
loop_
_atom_site_type_symbol
_atom_site_label
_atom_site_fract_x
_atom_site_fract_y
_atom_site_fract_z
Si Si1 0.734097 0.771611 0.186488
Si Si2 0.571410 0.453748 0.113002
Si Si3 0.987953 0.793849 0.859987
Si Si4 0.774127 0.107286 0.859770
O O1 0.731349 0.483672 0.263186
O O2 0.621790 0.921077 0.400885
O O3 0.858702 0.855197 0.089272
O O4 0.752856 0.875914 0.002824
O O5 0.509829 0.694939 0.277944
O O6 0.688534 0.339609 0.024089
O O7 0.091170 0.685600 0.816783
O O8 0.969619 0.557744 0.773385
#
# Coordination Sequence:
#
# PCOD9251047 Si02
#       4
#     4   4   4   4
#     4  11  27  51  81 115 156 200 254 320 386 460
#     4  12  28  51  74 115 152 208 262 318 374 448
#     4  10  25  45  80 120 155 196 248 315 393 464
#     4  11  27  49  83 113 160 198 256 316 390 456
#
# _framework density 28.962786000000001
#
# number of rings (size 3 to 8) (size 9 to 14) (size 15 to 20)
#    0.000    1.000    2.500    0.750   14.000    3.000 
#    0.000    0.000    0.000    0.000    0.000    0.000 
#    0.000    0.000    0.000    0.000    0.000    0.000 
#
# Total GULP energy -89618.357737 kJ/mol
# GULP energy per Si atom -5601.147359 kJ/mol
# Density = 2.889687 g / cm^3
# Si number density = 28.962786 Si / 1000 Ang^3
#
#
#
# Elastic Constant Matrix: (Units=GPa)
#
#
# Indices 1 2 3 4 5 6 
#
# 1 101.2301 48.7042 46.4717 0.0000 5.6744 0.0000
# 2 48.7042 175.4344 43.3506 0.0000 -10.5412 0.0000
# 3 46.4717 43.3506 188.3003 0.0000 -28.1320 0.0000
# 4 0.0000 0.0000 0.0000 40.2475 0.0000 -26.4026
# 5 5.6744 -10.5412 -28.1320 0.0000 63.6629 0.0000
# 6 0.0000 0.0000 0.0000 -26.4026 0.0000 53.7913
#
#
#
# Elastic Compliance Matrix: (Units=1/GPa)
#
#
# Indices 1 2 3 4 5 6 
#
# 1 0.012831 -0.003019 -0.002909 0.000000 -0.002929 0.000000
# 2 -0.003019 0.006765 -0.000647 0.000000 0.001103 0.000000
# 3 -0.002909 -0.000647 0.006639 0.000000 0.003086 0.000000
# 4 0.000000 0.000000 0.000000 0.036646 0.000000 0.017987
# 5 -0.002929 0.001103 0.003086 0.000000 0.017515 0.000000
# 6 0.000000 0.000000 0.000000 0.017987 0.000000 0.027419
#
#
# Mechanical properties :
#
#
# Convention : Reuss Voigt Hill
#
# Bulk Modulus (GPa) = 76.43763 82.44641 79.44202
# Shear Modulus (GPa) = 39.89590 53.30289 46.59939
#
# Velocity S-wave (km/s) = 3.71548 4.29463 4.01551
# Velocity P-wave (km/s) = 6.69741 7.28834 6.99912
#
# Compressibility (1/GPa) = 0.01308256
#
# Stress axis : x y z
#
# Youngs Moduli (GPa) = 77.93764 147.82848 150.63281
#
# Poissons Ratio (x) = 0.44633 0.43820
# Poissons Ratio (y) = 0.23531 0.09752
# Poissons Ratio (z) = 0.22673 0.09571
#
# Static dielectric constant tensor:
#      x y z
#    x 2.244300 0.000000 0.004340 
#    y 0.000000 2.286310 0.000000 
#    z 0.004340 0.000000 2.261060 
# 
# From -- ./inp_files/34511.got.cif
#   From: 2010.05.17/outbox.cif.g08.bks.cpg/sg14_18_cif.got.tgz:34511.got - 2010.06.03 17:49:19.
