data_PCOD9251855
_publ_section_title
;
Structure prediction by ZEFSAII (Michael W. Deem and Ramdas Pophale) SiO2 
 PCOD9251855
Probable space group: P 21/C
;
_chemical_formula_sum "Si O2"
_cell_formula_units_Z 32
_cell_length_a 10.398610
_cell_length_b 9.509338
_cell_length_c 25.344074
_cell_angle_alpha 90.000000
_cell_angle_beta 31.343978
_cell_angle_gamma 90.000000
_cell_volume 1303.620910
_symmetry_space_group_name_H-M "P 21/C"
_symmetry_group_IT_number 14
_symmetry_cell_setting 'monoclinic'
loop_
_space_group_symop_operation_xyz
x,y,z
-x,1/2+y,1/2-z
-x,-y,-z
x,1/2-y,1/2+z
loop_
_atom_site_type_symbol
_atom_site_label
_atom_site_fract_x
_atom_site_fract_y
_atom_site_fract_z
Si Si1 0.826149 0.071660 0.455253
Si Si2 0.757471 0.660856 0.112606
Si Si3 0.453404 0.434467 0.266135
Si Si4 0.730984 0.923962 0.766053
Si Si5 0.811856 0.290268 0.285628
Si Si6 0.074264 0.566723 0.333028
Si Si7 0.709038 0.761746 0.508169
Si Si8 0.703840 0.656220 0.826743
O O1 0.535505 0.099213 0.559455
O O2 0.977909 0.128600 0.453085
O O3 0.996489 0.126090 0.348130
O O4 0.844843 0.903200 0.442555
O O5 0.619128 0.507908 0.161533
O O6 0.607791 0.771340 0.202557
O O7 0.760352 0.730546 0.053660
O O8 0.587998 0.498154 0.269489
O O9 0.192198 0.505537 0.344748
O O10 0.596114 0.784207 0.830485
O O11 0.761602 0.044507 0.798312
O O12 0.798783 0.206848 0.234969
O O13 0.584052 0.228103 0.397947
O O14 0.088835 0.274533 0.208895
O O15 0.144538 0.452984 0.263332
O O16 0.808801 0.624196 0.443682
#
# Coordination Sequence:
#
# PCOD9251855 Si02
#       8
#     4   4   4   4   4   4   4   4
#     4  11  25  45  74 105 142 195 240 300 365 445
#     4  11  24  43  75 113 147 192 237 299 372 436
#     4  11  22  44  75 106 153 179 240 301 366 429
#     4  11  25  45  74 111 143 190 247 303 372 424
#     4  12  25  49  72 105 143 201 240 301 360 437
#     4  12  25  45  73 106 143 193 237 307 365 435
#     4  12  25  44  76 107 145 191 247 290 378 438
#     4  12  28  47  74 104 152 188 252 301 362 435
#
# _framework density 24.547014000000001
#
# number of rings (size 3 to 8) (size 9 to 14) (size 15 to 20)
#    0.000    0.500    5.000    2.625    3.500    5.500 
#    0.000    0.000    0.000    0.000    0.000    0.000 
#    0.000    0.000    0.000    0.000    0.000    0.000 
#
# Total GULP energy -178684.369399 kJ/mol
# GULP energy per Si atom -5583.886544 kJ/mol
# Density = 2.449114 g / cm^3
# Si number density = 24.547014 Si / 1000 Ang^3
#
#
#
# Elastic Constant Matrix: (Units=GPa)
#
#
# Indices 1 2 3 4 5 6 
#
# 1 64.8617 11.7308 9.5193 0.0000 -24.1262 0.0000
# 2 11.7308 124.3809 31.6803 0.0000 3.9370 0.0000
# 3 9.5193 31.6803 73.8123 0.0000 -15.1175 0.0000
# 4 0.0000 0.0000 0.0000 44.8309 0.0000 2.1503
# 5 -24.1262 3.9370 -15.1175 0.0000 33.7848 0.0000
# 6 0.0000 0.0000 0.0000 2.1503 0.0000 23.8901
#
#
#
# Elastic Compliance Matrix: (Units=1/GPa)
#
#
# Indices 1 2 3 4 5 6 
#
# 1 0.021997 -0.003113 0.001972 0.000000 0.016954 0.000000
# 2 -0.003113 0.009765 -0.004930 0.000000 -0.005567 0.000000
# 3 0.001972 -0.004930 0.017411 0.000000 0.009773 0.000000
# 4 0.000000 0.000000 0.000000 0.022403 0.000000 -0.002016
# 5 0.016954 -0.005567 0.009773 0.000000 0.046728 0.000000
# 6 0.000000 0.000000 0.000000 -0.002016 0.000000 0.042040
#
#
# Mechanical properties :
#
#
# Convention : Reuss Voigt Hill
#
# Bulk Modulus (GPa) = 27.00493 40.99064 33.99778
# Shear Modulus (GPa) = 27.05165 34.50945 30.78055
#
# Velocity S-wave (km/s) = 3.32329 3.75354 3.54495
# Velocity P-wave (km/s) = 5.07453 5.95990 5.53495
#
# Compressibility (1/GPa) = 0.03703028
#
# Stress axis : x y z
#
# Youngs Moduli (GPa) = 45.46014 102.40254 57.43407
#
# Poissons Ratio (x) = 0.31883 -0.11324
# Poissons Ratio (y) = 0.14154 0.28315
# Poissons Ratio (z) = -0.08963 0.50485
#
# Static dielectric constant tensor:
#      x y z
#    x 2.002940 0.000000 0.034890 
#    y 0.000000 1.905150 0.000000 
#    z 0.034890 0.000000 1.973550 
# 
# From -- ./inp_files/79941.got.cif
#   From: 2010.05.17/outbox.cif.g08.bks.cpg/sg14_40_cif.got.tgz:79941.got - 2010.06.03 17:49:19.
