data_PCOD9251619
_publ_section_title
;
Structure prediction by ZEFSAII (Michael W. Deem and Ramdas Pophale) SiO2 
 PCOD9251619
Probable space group: P 21/C
;
_chemical_formula_sum "Si O2"
_cell_formula_units_Z 24
_cell_length_a 7.518892
_cell_length_b 9.542186
_cell_length_c 16.873168
_cell_angle_alpha 90.000000
_cell_angle_beta 116.071943
_cell_angle_gamma 90.000000
_cell_volume 1087.407060
_symmetry_space_group_name_H-M "P 21/C"
_symmetry_group_IT_number 14
_symmetry_cell_setting 'monoclinic'
loop_
_space_group_symop_operation_xyz
x,y,z
-x,1/2+y,1/2-z
-x,-y,-z
x,1/2-y,1/2+z
loop_
_atom_site_type_symbol
_atom_site_label
_atom_site_fract_x
_atom_site_fract_y
_atom_site_fract_z
Si Si1 0.387485 0.436436 0.177761
Si Si2 0.199942 0.723091 0.097326
Si Si3 0.896004 0.056746 0.154816
Si Si4 0.188347 0.657132 0.773844
Si Si5 0.842981 0.678722 0.425398
Si Si6 0.485593 0.537186 0.614819
O O1 0.270972 0.564082 0.115846
O O2 0.593278 0.406083 0.172817
O O3 0.258369 0.295852 0.149507
O O4 0.443978 0.473675 0.279156
O O5 0.187859 0.779134 0.184866
O O6 0.364985 0.818380 0.085352
O O7 0.990569 0.746754 0.014686
O O8 0.856696 0.214106 0.177524
O O9 0.684955 0.982226 0.104632
O O10 0.026646 0.072436 0.101786
O O11 0.025796 0.965664 0.241838
O O12 0.666166 0.589343 0.427510
#
# Coordination Sequence:
#
# PCOD9251619 Si02
#       6
#     4   4   4   4   4   4
#     4  11  21  45  67  92 131 179 214 258 322 396
#     4  11  24  43  66  99 133 174 206 276 332 374
#     4  12  24  42  69 100 124 174 224 267 315 390
#     4  11  25  42  71  96 129 175 224 262 319 392
#     4  12  24  43  67  98 136 165 217 272 330 375
#     4  11  22  43  68  91 132 170 224 258 318 392
#
# _framework density 22.070851000000001
#
# number of rings (size 3 to 8) (size 9 to 14) (size 15 to 20)
#    0.000    0.667    6.667    3.000    2.333    0.667 
#    0.000    0.833    0.000    0.000    0.000    0.000 
#    0.000    0.000    0.000    0.000    0.000    0.000 
#
# Total GULP energy -134405.817957 kJ/mol
# GULP energy per Si atom -5600.242415 kJ/mol
# Density = 2.202062 g / cm^3
# Si number density = 22.070851 Si / 1000 Ang^3
#
#
#
# Elastic Constant Matrix: (Units=GPa)
#
#
# Indices 1 2 3 4 5 6 
#
# 1 95.4902 20.8439 17.6821 0.0000 29.7437 0.0000
# 2 20.8439 85.1652 10.9158 0.0000 8.0765 0.0000
# 3 17.6821 10.9158 69.8691 0.0000 18.8942 0.0000
# 4 0.0000 0.0000 0.0000 19.3689 0.0000 7.0785
# 5 29.7437 8.0765 18.8942 0.0000 30.4136 0.0000
# 6 0.0000 0.0000 0.0000 7.0785 0.0000 35.3121
#
#
#
# Elastic Compliance Matrix: (Units=1/GPa)
#
#
# Indices 1 2 3 4 5 6 
#
# 1 0.015544 -0.002457 0.000462 0.000000 -0.014837 0.000000
# 2 -0.002457 0.012521 -0.001304 0.000000 -0.000112 0.000000
# 3 0.000462 -0.001304 0.017341 0.000000 -0.010879 0.000000
# 4 0.000000 0.000000 0.000000 0.055710 0.000000 -0.011168
# 5 -0.014837 -0.000112 -0.010879 0.000000 0.054178 0.000000
# 6 0.000000 0.000000 0.000000 -0.011168 0.000000 0.030558
#
#
# Mechanical properties :
#
#
# Convention : Reuss Voigt Hill
#
# Bulk Modulus (GPa) = 25.76712 38.82311 32.29511
# Shear Modulus (GPa) = 24.34440 30.42441 27.38441
#
# Velocity S-wave (km/s) = 3.32476 3.71683 3.52625
# Velocity P-wave (km/s) = 5.14187 6.00401 5.58959
#
# Compressibility (1/GPa) = 0.03880915
#
# Stress axis : x y z
#
# Youngs Moduli (GPa) = 64.33202 79.86620 57.66650
#
# Poissons Ratio (x) = 0.19620 -0.02665
# Poissons Ratio (y) = 0.15804 0.07520
# Poissons Ratio (z) = -0.02973 0.10415
#
# Static dielectric constant tensor:
#      x y z
#    x 1.814060 0.000000 -0.015070 
#    y 0.000000 1.768820 0.000000 
#    z -0.015070 0.000000 1.825380 
# 
# From -- ./inp_files/64878.got.cif
#   From: 2010.05.17/outbox.cif.g08.bks.cpg/sg14_33_cif.got.tgz:64878.got - 2010.06.03 17:49:19.
