data_PCOD9251775
_publ_section_title
;
Structure prediction by ZEFSAII (Michael W. Deem and Ramdas Pophale) SiO2 
 PCOD9251775
Probable space group: P 21/C
;
_chemical_formula_sum "Si O2"
_cell_formula_units_Z 30
_cell_length_a 10.100510
_cell_length_b 7.784064
_cell_length_c 27.616102
_cell_angle_alpha 90.000000
_cell_angle_beta 36.090327
_cell_angle_gamma 90.000000
_cell_volume 1279.003013
_symmetry_space_group_name_H-M "P 21/C"
_symmetry_group_IT_number 14
_symmetry_cell_setting 'monoclinic'
loop_
_space_group_symop_operation_xyz
x,y,z
-x,1/2+y,1/2-z
-x,-y,-z
x,1/2-y,1/2+z
loop_
_atom_site_type_symbol
_atom_site_label
_atom_site_fract_x
_atom_site_fract_y
_atom_site_fract_z
Si Si1 0.626479 0.406463 0.254125
Si Si2 0.801246 0.799292 0.638331
Si Si3 0.628877 0.616387 0.061744
Si Si4 0.441175 0.298883 0.060002
Si Si5 0.868970 0.140697 0.885641
Si Si6 0.000000 0.000000 0.500000
Si Si7 0.059464 0.266335 0.602142
Si Si8 0.677605 0.044000 0.846996
O O1 0.371932 0.341097 0.330911
O O2 0.663173 0.541583 0.200931
O O3 0.714128 0.479195 0.279467
O O4 0.800280 0.252854 0.190504
O O5 0.924922 0.731854 0.650285
O O6 0.000901 0.848122 0.542107
O O7 0.505681 0.473033 0.067414
O O8 0.721476 0.524764 0.081979
O O9 0.489381 0.790757 0.104024
O O10 0.876613 0.675924 0.967559
O O11 0.214615 0.327122 0.096138
O O12 0.409239 0.134313 0.104454
O O13 0.640432 0.242453 0.964886
O O14 0.873710 0.100043 0.826848
O O15 0.856682 0.959500 0.917762
#
# Coordination Sequence:
#
# PCOD9251775 Si02
#       8
#     4   4   4   4   4   2   4   4
#     4  12  27  47  65 101 146 191 229 298 374 428
#     4  12  27  47  71 101 145 193 244 295 362 439
#     4  12  22  43  74 100 136 184 241 293 343 427
#     4  11  22  41  72 109 130 178 240 302 349 415
#     4  11  22  44  72 104 135 179 244 298 349 429
#     4  12  24  44  72 102 134 196 258 280 346 448
#     4  11  22  43  70  98 141 178 229 299 361 421
#     4  11  25  44  70 105 142 178 237 297 362 420
#
# _framework density 23.455772
#
# number of rings (size 3 to 8) (size 9 to 14) (size 15 to 20)
#    0.000    0.533    6.667    2.000    1.867    3.200 
#    4.800    2.000    0.000    0.000    0.000    0.000 
#    0.000    0.000    0.000    0.000    0.000    0.000 
#
# Total GULP energy -167127.730407 kJ/mol
# GULP energy per Si atom -5570.924347 kJ/mol
# Density = 2.340239 g / cm^3
# Si number density = 23.455772 Si / 1000 Ang^3
#
#
#
# Elastic Constant Matrix: (Units=GPa)
#
#
# Indices 1 2 3 4 5 6 
#
# 1 89.0007 23.6696 29.2452 0.0000 4.1279 0.0000
# 2 23.6696 87.2749 18.7998 0.0000 5.6940 0.0000
# 3 29.2452 18.7998 43.1116 0.0000 7.2155 0.0000
# 4 0.0000 0.0000 0.0000 27.0751 0.0000 -4.2997
# 5 4.1279 5.6940 7.2155 0.0000 42.6216 0.0000
# 6 0.0000 0.0000 0.0000 -4.2997 0.0000 19.0865
#
#
#
# Elastic Compliance Matrix: (Units=1/GPa)
#
#
# Indices 1 2 3 4 5 6 
#
# 1 0.014787 -0.002054 -0.009202 0.000000 0.000400 0.000000
# 2 -0.002054 0.012956 -0.004117 0.000000 -0.000835 0.000000
# 3 -0.009202 -0.004117 0.031896 0.000000 -0.003958 0.000000
# 4 0.000000 0.000000 0.000000 0.038305 0.000000 0.008629
# 5 0.000400 -0.000835 -0.003958 0.000000 0.024205 0.000000
# 6 0.000000 0.000000 0.000000 0.008629 0.000000 0.054337
#
#
# Mechanical properties :
#
#
# Convention : Reuss Voigt Hill
#
# Bulk Modulus (GPa) = 34.61038 40.31295 37.46167
# Shear Modulus (GPa) = 23.05589 27.60147 25.32868
#
# Velocity S-wave (km/s) = 3.13861 3.43409 3.28967
# Velocity P-wave (km/s) = 5.28414 5.74004 5.51680
#
# Compressibility (1/GPa) = 0.02889307
#
# Stress axis : x y z
#
# Youngs Moduli (GPa) = 67.62468 77.18169 31.35209
#
# Poissons Ratio (x) = 0.15856 0.28851
# Poissons Ratio (y) = 0.13892 0.12907
# Poissons Ratio (z) = 0.62231 0.31773
#
# Static dielectric constant tensor:
#      x y z
#    x 1.355130 0.000000 -0.146940 
#    y 0.000000 1.684510 0.000000 
#    z -0.146940 0.000000 1.855450 
# 
# From -- ./inp_files/76487.got.cif
#   From: 2010.05.17/outbox.cif.g08.bks.cpg/sg14_39_cif.got.tgz:76487.got - 2010.06.03 17:49:19.
