data_PCOD9251916
_publ_section_title
;
Structure prediction by ZEFSAII (Michael W. Deem and Ramdas Pophale) SiO2 
 PCOD9251916
Probable space group: P 21/C
;
_chemical_formula_sum "Si O2"
_cell_formula_units_Z 20
_cell_length_a 7.369453
_cell_length_b 10.942716
_cell_length_c 10.533813
_cell_angle_alpha 90.000000
_cell_angle_beta 65.737591
_cell_angle_gamma 90.000000
_cell_volume 774.435249
_symmetry_space_group_name_H-M "P 21/C"
_symmetry_group_IT_number 14
_symmetry_cell_setting 'monoclinic'
loop_
_space_group_symop_operation_xyz
x,y,z
-x,1/2+y,1/2-z
-x,-y,-z
x,1/2-y,1/2+z
loop_
_atom_site_type_symbol
_atom_site_label
_atom_site_fract_x
_atom_site_fract_y
_atom_site_fract_z
Si Si1 0.438042 0.861773 0.546492
Si Si2 0.499650 0.110111 0.901315
Si Si3 0.028324 0.629885 0.781517
Si Si4 0.206011 0.540124 0.326236
Si Si5 0.945695 0.261051 0.969415
O O1 0.563788 0.737197 0.514613
O O2 0.361029 0.870585 0.713210
O O3 0.263176 0.825706 0.500847
O O4 0.500000 0.000000 0.500000
O O5 0.731097 0.119312 0.791889
O O6 0.338232 0.069167 0.844717
O O7 0.500000 0.000000 0.000000
O O8 0.970171 0.735334 0.695416
O O9 0.962494 0.659822 0.943351
O O10 0.931382 0.510676 0.747253
O O11 0.094261 0.625013 0.460403
#
# Coordination Sequence:
#
# PCOD9251916 Si02
#       5
#     4   4   4   4   4
#     4  11  25  45  73 110 150 186 248 309 363 436
#     4  11  23  45  75 102 143 197 242 297 365 445
#     4  11  25  45  74 103 147 187 245 299 365 432
#     4  12  24  46  74 105 142 196 242 303 365 432
#     4  11  22  48  68 105 145 185 244 307 345 443
#
# _framework density 25.82527
#
# number of rings (size 3 to 8) (size 9 to 14) (size 15 to 20)
#    0.000    0.800    8.000    1.800    0.000    2.400 
#    7.200    0.000    0.000    0.000    0.000    0.000 
#    0.000    0.000    0.000    0.000    0.000    0.000 
#
# Total GULP energy -111808.371332 kJ/mol
# GULP energy per Si atom -5590.418567 kJ/mol
# Density = 2.576649 g / cm^3
# Si number density = 25.825270 Si / 1000 Ang^3
#
#
#
# Elastic Constant Matrix: (Units=GPa)
#
#
# Indices 1 2 3 4 5 6 
#
# 1 115.0884 45.7961 7.8248 0.0000 18.7988 0.0000
# 2 45.7961 196.7050 6.4628 0.0000 24.1451 0.0000
# 3 7.8248 6.4628 81.8943 0.0000 23.4933 0.0000
# 4 0.0000 0.0000 0.0000 42.7590 0.0000 22.4407
# 5 18.7988 24.1451 23.4933 0.0000 41.0213 0.0000
# 6 0.0000 0.0000 0.0000 22.4407 0.0000 47.2161
#
#
#
# Elastic Compliance Matrix: (Units=1/GPa)
#
#
# Indices 1 2 3 4 5 6 
#
# 1 0.010017 -0.001897 0.000226 0.000000 -0.003603 0.000000
# 2 -0.001897 0.005863 0.000549 0.000000 -0.002896 0.000000
# 3 0.000226 0.000549 0.014680 0.000000 -0.008835 0.000000
# 4 0.000000 0.000000 0.000000 0.031159 0.000000 -0.014809
# 5 -0.003603 -0.002896 -0.008835 0.000000 0.032793 0.000000
# 6 0.000000 0.000000 0.000000 -0.014809 0.000000 0.028218
#
#
# Mechanical properties :
#
#
# Convention : Reuss Voigt Hill
#
# Bulk Modulus (GPa) = 35.31404 57.09501 46.20452
# Shear Modulus (GPa) = 37.19893 48.43955 42.81924
#
# Velocity S-wave (km/s) = 3.79939 4.33559 4.07632
# Velocity P-wave (km/s) = 5.74030 6.87163 6.33129
#
# Compressibility (1/GPa) = 0.02831735
#
# Stress axis : x y z
#
# Youngs Moduli (GPa) = 99.82880 170.56377 68.11843
#
# Poissons Ratio (x) = 0.32361 -0.01542
# Poissons Ratio (y) = 0.18940 -0.03742
# Poissons Ratio (z) = -0.02260 -0.09371
#
# Static dielectric constant tensor:
#      x y z
#    x 2.122480 0.000000 -0.067180 
#    y 0.000000 2.190530 0.000000 
#    z -0.067180 0.000000 2.095040 
# 
# From -- ./inp_files/23462.got.cif
#   From: 2010.05.17/outbox.cif.g08.bks.cpg/sg14_12_cif.got.tgz:23462.got - 2010.06.03 17:49:19.
