data_PCOD9251572
_publ_section_title
;
Structure prediction by ZEFSAII (Michael W. Deem and Ramdas Pophale) SiO2 
 PCOD9251572
Probable space group: P 21/C
;
_chemical_formula_sum "Si O2"
_cell_formula_units_Z 22
_cell_length_a 27.036608
_cell_length_b 5.080047
_cell_length_c 16.201061
_cell_angle_alpha 90.000000
_cell_angle_beta 159.347012
_cell_angle_gamma 90.000000
_cell_volume 784.833789
_symmetry_space_group_name_H-M "P 21/C"
_symmetry_group_IT_number 14
_symmetry_cell_setting 'monoclinic'
loop_
_space_group_symop_operation_xyz
x,y,z
-x,1/2+y,1/2-z
-x,-y,-z
x,1/2-y,1/2+z
loop_
_atom_site_type_symbol
_atom_site_label
_atom_site_fract_x
_atom_site_fract_y
_atom_site_fract_z
Si Si1 0.337938 0.354400 0.511279
Si Si2 0.229446 0.166213 0.124348
Si Si3 0.204175 0.027128 0.423272
Si Si4 0.526148 0.165733 0.654785
Si Si5 0.000000 0.500000 0.500000
Si Si6 0.160912 0.666146 0.124891
O O1 0.210654 0.157966 0.338359
O O2 0.443855 0.239396 0.610875
O O3 0.406456 0.394770 0.707910
O O4 0.285904 0.619793 0.387286
O O5 0.400304 0.167470 0.393795
O O6 0.169818 0.387814 0.092845
O O7 0.189204 0.883987 0.098401
O O8 0.182395 0.267550 0.962374
O O9 0.344019 0.857098 0.660052
O O10 0.078023 0.836743 0.201966
O O11 0.041186 0.729208 0.496173
#
# Coordination Sequence:
#
# PCOD9251572 Si02
#       6
#     4   4   4   4   2   4
#     4  11  22  42  76 104 150 187 255 303 377 447
#     4  11  28  46  74 109 151 184 240 314 391 427
#     4  12  27  44  70 110 144 199 242 309 366 446
#     4  11  21  42  69 107 144 187 240 308 369 443
#     4  12  26  50  74  98 144 194 262 284 354 448
#     4  11  26  49  73 106 144 196 242 307 367 444
#
# _framework density 28.031414999999999
#
# number of rings (size 3 to 8) (size 9 to 14) (size 15 to 20)
#    0.000    0.727    3.636    3.818    5.091    5.091 
#    0.000    0.000    0.000    0.000    0.000    0.000 
#    0.000    0.000    0.000    0.000    0.000    0.000 
#
# Total GULP energy -122709.792721 kJ/mol
# GULP energy per Si atom -5577.717851 kJ/mol
# Density = 2.796761 g / cm^3
# Si number density = 28.031415 Si / 1000 Ang^3
#
#
#
# Elastic Constant Matrix: (Units=GPa)
#
#
# Indices 1 2 3 4 5 6 
#
# 1 112.7422 27.5508 56.5515 0.0000 -0.4805 0.0000
# 2 27.5508 105.1830 2.7679 0.0000 15.4517 0.0000
# 3 56.5515 2.7679 107.9921 0.0000 -26.9054 0.0000
# 4 0.0000 0.0000 0.0000 20.8202 0.0000 7.6800
# 5 -0.4805 15.4517 -26.9054 0.0000 61.7676 0.0000
# 6 0.0000 0.0000 0.0000 7.6800 0.0000 58.7021
#
#
#
# Elastic Compliance Matrix: (Units=1/GPa)
#
#
# Indices 1 2 3 4 5 6 
#
# 1 0.013352 -0.002941 -0.007524 0.000000 -0.002438 0.000000
# 2 -0.002941 0.010610 0.000675 0.000000 -0.002383 0.000000
# 3 -0.007524 0.000675 0.014724 0.000000 0.006186 0.000000
# 4 0.000000 0.000000 0.000000 0.050466 0.000000 -0.006602
# 5 -0.002438 -0.002383 0.006186 0.000000 0.019462 0.000000
# 6 0.000000 0.000000 0.000000 -0.006602 0.000000 0.017899
#
#
# Mechanical properties :
#
#
# Convention : Reuss Voigt Hill
#
# Bulk Modulus (GPa) = 52.34318 55.51752 53.93035
# Shear Modulus (GPa) = 32.79500 44.19446 38.49473
#
# Velocity S-wave (km/s) = 3.42415 3.97496 3.70979
# Velocity P-wave (km/s) = 5.86060 6.39652 6.13442
#
# Compressibility (1/GPa) = 0.01910469
#
# Stress axis : x y z
#
# Youngs Moduli (GPa) = 74.89391 94.25063 67.91631
#
# Poissons Ratio (x) = 0.27722 0.51100
# Poissons Ratio (y) = 0.22028 -0.04581
# Poissons Ratio (z) = 0.56350 -0.06357
#
# Static dielectric constant tensor:
#      x y z
#    x 2.003120 0.000000 -0.407310 
#    y 0.000000 2.082600 0.000000 
#    z -0.407310 0.000000 0.856820 
# 
# From -- ./inp_files/62472.got.cif
#   From: 2010.05.17/outbox.cif.g08.bks.cpg/sg14_32_cif.got.tgz:62472.got - 2010.06.03 17:49:19.
