data_PCOD9251923
_publ_section_title
;
Structure prediction by ZEFSAII (Michael W. Deem and Ramdas Pophale) SiO2 
 PCOD9251923
Probable space group: P 21/C
;
_chemical_formula_sum "Si O2"
_cell_formula_units_Z 26
_cell_length_a 14.234971
_cell_length_b 13.474283
_cell_length_c 11.002968
_cell_angle_alpha 90.000000
_cell_angle_beta 31.130510
_cell_angle_gamma 90.000000
_cell_volume 1091.072443
_symmetry_space_group_name_H-M "P 21/C"
_symmetry_group_IT_number 14
_symmetry_cell_setting 'monoclinic'
loop_
_space_group_symop_operation_xyz
x,y,z
-x,1/2+y,1/2-z
-x,-y,-z
x,1/2-y,1/2+z
loop_
_atom_site_type_symbol
_atom_site_label
_atom_site_fract_x
_atom_site_fract_y
_atom_site_fract_z
Si Si1 0.914556 0.099181 0.545512
Si Si2 0.098438 0.298290 0.252448
Si Si3 0.799278 0.205206 0.898178
Si Si4 0.483177 0.196833 0.425383
Si Si5 0.379210 0.591737 0.998772
Si Si6 0.000000 0.000000 0.000000
Si Si7 0.559056 0.074433 0.829433
O O1 0.790715 0.135868 0.792691
O O2 0.779734 0.075026 0.585367
O O3 0.044563 0.190651 0.368191
O O4 0.000000 0.000000 0.500000
O O5 0.003273 0.295695 0.225865
O O6 0.013368 0.387860 0.424307
O O7 0.313162 0.312739 0.023669
O O8 0.722365 0.309469 0.937868
O O9 0.669186 0.172126 0.150462
O O10 0.487843 0.130602 0.541577
O O11 0.493482 0.315209 0.437965
O O12 0.217469 0.521239 0.222710
O O13 0.488750 0.552766 0.758473
O O14 0.500000 0.000000 0.000000
#
# Coordination Sequence:
#
# PCOD9251923 Si02
#       7
#     4   4   4   4   4   2   4
#     4  12  25  45  74 105 148 190 241 305 375 436
#     4  12  26  46  74 107 144 194 248 292 381 431
#     4  11  22  49  73 103 152 188 244 312 359 452
#     4  11  24  48  73 107 144 197 246 307 366 437
#     4  11  23  48  74 103 153 191 243 309 365 444
#     4  12  24  48  72 106 146 196 240 302 364 446
#     4  11  24  46  71 109 147 191 249 302 366 439
#
# _framework density 23.829764999999998
#
# number of rings (size 3 to 8) (size 9 to 14) (size 15 to 20)
#    0.000    0.615    7.692    0.923    2.154    4.308 
#    2.769    0.000    0.000    0.000    0.000    0.000 
#    0.000    0.000    0.000    0.000    0.000    0.000 
#
# Total GULP energy -144859.803128 kJ/mol
# GULP energy per Si atom -5571.530890 kJ/mol
# Density = 2.377553 g / cm^3
# Si number density = 23.829765 Si / 1000 Ang^3
#
#
#
# Elastic Constant Matrix: (Units=GPa)
#
#
# Indices 1 2 3 4 5 6 
#
# 1 124.4472 -3.4751 27.3816 0.0000 -19.7359 0.0000
# 2 -3.4751 69.3636 1.4958 0.0000 -5.9367 0.0000
# 3 27.3816 1.4958 51.5296 0.0000 -3.9300 0.0000
# 4 0.0000 0.0000 0.0000 36.5244 0.0000 -2.4131
# 5 -19.7359 -5.9367 -3.9300 0.0000 42.7558 0.0000
# 6 0.0000 0.0000 0.0000 -2.4131 0.0000 23.4377
#
#
#
# Elastic Compliance Matrix: (Units=1/GPa)
#
#
# Indices 1 2 3 4 5 6 
#
# 1 0.009813 0.000958 -0.004921 0.000000 0.004210 0.000000
# 2 0.000958 0.014687 -0.000751 0.000000 0.002413 0.000000
# 3 -0.004921 -0.000751 0.022016 0.000000 -0.000352 0.000000
# 4 0.000000 0.000000 0.000000 0.027566 0.000000 0.002838
# 5 0.004210 0.002413 -0.000352 0.000000 0.025635 0.000000
# 6 0.000000 0.000000 0.000000 0.002838 0.000000 0.042958
#
#
# Mechanical properties :
#
#
# Convention : Reuss Voigt Hill
#
# Bulk Modulus (GPa) = 26.96310 32.90498 29.93404
# Shear Modulus (GPa) = 30.40119 35.20611 32.80365
#
# Velocity S-wave (km/s) = 3.57566 3.84787 3.71426
# Velocity P-wave (km/s) = 5.32791 5.79481 5.56625
#
# Compressibility (1/GPa) = 0.03708772
#
# Stress axis : x y z
#
# Youngs Moduli (GPa) = 101.90853 68.08527 45.42118
#
# Poissons Ratio (x) = -0.06523 0.22352
# Poissons Ratio (y) = -0.09764 0.03413
# Poissons Ratio (z) = 0.50149 0.05116
#
# Static dielectric constant tensor:
#      x y z
#    x 1.916490 0.000000 0.017420 
#    y 0.000000 1.958190 0.000000 
#    z 0.017420 0.000000 1.962960 
# 
# From -- ./inp_files/32714.got.cif
#   From: 2010.05.17/outbox.cif.g08.bks.cpg/sg14_17_cif.got.tgz:32714.got - 2010.06.03 17:49:19.
