data_PCOD9251488
_publ_section_title
;
Structure prediction by ZEFSAII (Michael W. Deem and Ramdas Pophale) SiO2 
 PCOD9251488
Probable space group: P 21/C
;
_chemical_formula_sum "Si O2"
_cell_formula_units_Z 20
_cell_length_a 4.945050
_cell_length_b 8.206779
_cell_length_c 24.573517
_cell_angle_alpha 90.000000
_cell_angle_beta 104.479086
_cell_angle_gamma 90.000000
_cell_volume 965.591205
_symmetry_space_group_name_H-M "P 21/C"
_symmetry_group_IT_number 14
_symmetry_cell_setting 'monoclinic'
loop_
_space_group_symop_operation_xyz
x,y,z
-x,1/2+y,1/2-z
-x,-y,-z
x,1/2-y,1/2+z
loop_
_atom_site_type_symbol
_atom_site_label
_atom_site_fract_x
_atom_site_fract_y
_atom_site_fract_z
Si Si1 0.801134 0.013885 0.541165
Si Si2 0.553049 0.033479 0.166125
Si Si3 0.816249 0.693023 0.148934
Si Si4 0.027521 0.265881 0.635555
Si Si5 0.633639 0.035366 0.296909
O O1 0.877195 0.178926 0.577333
O O2 0.500000 0.000000 0.500000
O O3 0.830647 0.874209 0.588429
O O4 0.000000 0.000000 0.500000
O O5 0.251079 0.095085 0.131061
O O6 0.537062 0.017227 0.230398
O O7 0.788499 0.165187 0.162447
O O8 0.671013 0.867156 0.146807
O O9 0.620252 0.575827 0.175702
O O10 0.131368 0.677612 0.187254
O O11 0.209312 0.127039 0.674985
#
# Coordination Sequence:
#
# PCOD9251488 Si02
#       5
#     4   4   4   4   4
#     4  11  23  45  66  82 114 166 213 257 304 361
#     4  12  22  38  60  95 131 153 190 257 304 355
#     4  11  24  39  62  93 121 160 209 245 299 370
#     4  11  24  39  62  93 122 161 208 244 299 369
#     4  11  21  39  61  89 128 170 193 227 300 385
#
# _framework density 20.712700999999999
#
# number of rings (size 3 to 8) (size 9 to 14) (size 15 to 20)
#    0.000    0.800    0.000   10.800    0.000    0.000 
#    0.000    6.000    0.000    0.000    0.000    0.000 
#    0.000    0.000    0.000    0.000    0.000    0.000 
#
# Total GULP energy -111926.139822 kJ/mol
# GULP energy per Si atom -5596.306991 kJ/mol
# Density = 2.066556 g / cm^3
# Si number density = 20.712701 Si / 1000 Ang^3
#
#
#
# Elastic Constant Matrix: (Units=GPa)
#
#
# Indices 1 2 3 4 5 6 
#
# 1 135.9813 23.3917 51.9100 0.0000 -13.8890 0.0000
# 2 23.3917 83.3589 49.5736 0.0000 -5.9841 0.0000
# 3 51.9100 49.5736 142.8340 0.0000 -14.3712 0.0000
# 4 0.0000 0.0000 0.0000 7.7910 0.0000 5.0151
# 5 -13.8890 -5.9841 -14.3712 0.0000 46.0507 0.0000
# 6 0.0000 0.0000 0.0000 5.0151 0.0000 45.4746
#
#
#
# Elastic Compliance Matrix: (Units=1/GPa)
#
#
# Indices 1 2 3 4 5 6 
#
# 1 0.008694 -0.000681 -0.002755 0.000000 0.001674 0.000000
# 2 -0.000681 0.015175 -0.004998 0.000000 0.000207 0.000000
# 3 -0.002755 -0.004998 0.009899 0.000000 0.001609 0.000000
# 4 0.000000 0.000000 0.000000 0.138161 0.000000 -0.015237
# 5 0.001674 0.000207 0.001609 0.000000 0.022749 0.000000
# 6 0.000000 0.000000 0.000000 -0.015237 0.000000 0.023671
#
#
# Mechanical properties :
#
#
# Convention : Reuss Voigt Hill
#
# Bulk Modulus (GPa) = 59.17546 67.99165 63.58355
# Shear Modulus (GPa) = 20.75979 35.68319 28.22149
#
# Velocity S-wave (km/s) = 3.16930 4.15513 3.69524
# Velocity P-wave (km/s) = 6.48262 7.47780 6.99792
#
# Compressibility (1/GPa) = 0.01689890
#
# Stress axis : x y z
#
# Youngs Moduli (GPa) = 115.02595 65.89841 101.02072
#
# Poissons Ratio (x) = 0.04489 0.27828
# Poissons Ratio (y) = 0.07835 0.50494
# Poissons Ratio (z) = 0.31686 0.32939
#
# Static dielectric constant tensor:
#      x y z
#    x 1.717900 0.000000 0.016890 
#    y 0.000000 1.814100 0.000000 
#    z 0.016890 0.000000 1.735340 
# 
# From -- ./inp_files/63101.got.cif
#   From: 2010.05.17/outbox.cif.g08.bks.cpg/sg14_32_cif.got.tgz:63101.got - 2010.06.03 17:49:19.
