data_PCOD9251408
_publ_section_title
;
Structure prediction by ZEFSAII (Michael W. Deem and Ramdas Pophale) SiO2 
 PCOD9251408
Probable space group: P 21/C
;
_chemical_formula_sum "Si O2"
_cell_formula_units_Z 32
_cell_length_a 16.128494
_cell_length_b 10.392250
_cell_length_c 13.787114
_cell_angle_alpha 90.000000
_cell_angle_beta 144.214944
_cell_angle_gamma 90.000000
_cell_volume 1351.276152
_symmetry_space_group_name_H-M "P 21/C"
_symmetry_group_IT_number 14
_symmetry_cell_setting 'monoclinic'
loop_
_space_group_symop_operation_xyz
x,y,z
-x,1/2+y,1/2-z
-x,-y,-z
x,1/2-y,1/2+z
loop_
_atom_site_type_symbol
_atom_site_label
_atom_site_fract_x
_atom_site_fract_y
_atom_site_fract_z
Si Si1 0.578070 0.112699 0.869096
Si Si2 0.759714 0.605312 0.623629
Si Si3 0.959137 0.960139 0.610137
Si Si4 0.370184 0.770113 0.401385
Si Si5 0.404856 0.136067 0.515452
Si Si6 0.330171 0.991792 0.758783
Si Si7 0.957244 0.199825 0.923196
Si Si8 0.893679 0.947587 0.763928
O O1 0.527825 0.128626 0.712280
O O2 0.439480 0.062974 0.794131
O O3 0.631147 0.231982 0.985616
O O4 0.692144 0.000183 0.987978
O O5 0.923982 0.571341 0.778165
O O6 0.691352 0.742709 0.541521
O O7 0.709775 0.572533 0.684831
O O8 0.004017 0.839247 0.584477
O O9 0.814637 0.023546 0.436530
O O10 0.935218 0.908002 0.695386
O O11 0.508442 0.850888 0.502421
O O12 0.394351 0.638215 0.362579
O O13 0.211416 0.803676 0.215987
O O14 0.277664 0.032685 0.390693
O O15 0.971661 0.082721 0.860395
O O16 0.052241 0.154176 0.104169
#
# Coordination Sequence:
#
# PCOD9251408 Si02
#       8
#     4   4   4   4   4   4   4   4
#     4  11  22  42  62 104 138 174 227 292 338 408
#     4  11  23  42  67 105 134 171 244 288 343 409
#     4  12  25  44  76 103 137 188 234 293 353 409
#     4  11  24  43  73  97 137 182 231 291 341 416
#     4  12  25  43  71 101 139 186 229 288 355 416
#     4  11  20  42  68 104 132 175 232 297 336 401
#     4  11  27  50  67 101 148 184 231 291 353 423
#     4  11  29  47  67 105 145 185 233 285 357 430
#
# _framework density 23.681318999999998
#
# number of rings (size 3 to 8) (size 9 to 14) (size 15 to 20)
#    0.000    0.750    6.250    1.875    5.250    2.500 
#    2.250    0.000    0.000    0.000    0.000    0.000 
#    0.000    0.000    0.000    0.000    0.000    0.000 
#
# Total GULP energy -178978.886011 kJ/mol
# GULP energy per Si atom -5593.090188 kJ/mol
# Density = 2.362742 g / cm^3
# Si number density = 23.681319 Si / 1000 Ang^3
#
#
#
# Elastic Constant Matrix: (Units=GPa)
#
#
# Indices 1 2 3 4 5 6 
#
# 1 51.3910 -1.3611 6.3397 0.0000 4.0268 0.0000
# 2 -1.3611 42.6242 8.0697 0.0000 -1.3539 0.0000
# 3 6.3397 8.0697 148.2543 0.0000 8.0396 0.0000
# 4 0.0000 0.0000 0.0000 29.4001 0.0000 8.3987
# 5 4.0268 -1.3539 8.0396 0.0000 43.0920 0.0000
# 6 0.0000 0.0000 0.0000 8.3987 0.0000 20.5629
#
#
#
# Elastic Compliance Matrix: (Units=1/GPa)
#
#
# Indices 1 2 3 4 5 6 
#
# 1 0.019706 0.000726 -0.000792 0.000000 -0.001671 0.000000
# 2 0.000726 0.023774 -0.001376 0.000000 0.000936 0.000000
# 3 -0.000792 -0.001376 0.006922 0.000000 -0.001261 0.000000
# 4 0.000000 0.000000 0.000000 0.038506 0.000000 -0.015727
# 5 -0.001671 0.000936 -0.001261 0.000000 0.023627 0.000000
# 6 0.000000 0.000000 0.000000 -0.015727 0.000000 0.055055
#
#
# Mechanical properties :
#
#
# Convention : Reuss Voigt Hill
#
# Bulk Modulus (GPa) = 21.04370 29.81848 25.43109
# Shear Modulus (GPa) = 26.83640 33.89241 30.36440
#
# Velocity S-wave (km/s) = 3.37000 3.78721 3.58468
# Velocity P-wave (km/s) = 4.90388 5.63408 5.28161
#
# Compressibility (1/GPa) = 0.04752015
#
# Stress axis : x y z
#
# Youngs Moduli (GPa) = 50.74474 42.06237 144.46114
#
# Poissons Ratio (x) = -0.03054 0.11436
# Poissons Ratio (y) = -0.03684 0.19876
# Poissons Ratio (z) = 0.04017 0.05787
#
# Static dielectric constant tensor:
#      x y z
#    x 1.890520 0.000000 -0.004760 
#    y 0.000000 2.576130 0.000000 
#    z -0.004760 0.000000 1.903250 
# 
# From -- ./inp_files/48929.got.cif
#   From: 2010.05.17/outbox.cif.g08.bks.cpg/sg14_25_cif.got.tgz:48929.got - 2010.06.03 17:49:19.
