data_PCOD9251528
_publ_section_title
;
Structure prediction by ZEFSAII (Michael W. Deem and Ramdas Pophale) SiO2 
 PCOD9251528
Probable space group: P 21/C
;
_chemical_formula_sum "Si O2"
_cell_formula_units_Z 32
_cell_length_a 10.863218
_cell_length_b 11.828986
_cell_length_c 9.807181
_cell_angle_alpha 90.000000
_cell_angle_beta 88.880156
_cell_angle_gamma 90.000000
_cell_volume 1259.990430
_symmetry_space_group_name_H-M "P 21/C"
_symmetry_group_IT_number 14
_symmetry_cell_setting 'monoclinic'
loop_
_space_group_symop_operation_xyz
x,y,z
-x,1/2+y,1/2-z
-x,-y,-z
x,1/2-y,1/2+z
loop_
_atom_site_type_symbol
_atom_site_label
_atom_site_fract_x
_atom_site_fract_y
_atom_site_fract_z
Si Si1 0.825029 0.556864 0.709642
Si Si2 0.888518 0.723791 0.352072
Si Si3 0.672812 0.488870 0.945066
Si Si4 0.652545 0.636717 0.502217
Si Si5 0.144640 0.840385 0.939898
Si Si6 0.706705 0.585686 0.234609
Si Si7 0.541470 0.707606 0.829238
Si Si8 0.694497 0.252949 0.821221
O O1 0.890934 0.671696 0.748699
O O2 0.799732 0.505090 0.858402
O O3 0.691120 0.582624 0.641932
O O4 0.879506 0.471662 0.598870
O O5 0.769685 0.719839 0.457997
O O6 0.849486 0.616812 0.259118
O O7 0.011793 0.716694 0.433290
O O8 0.586133 0.589264 0.891202
O O9 0.640089 0.363532 0.900194
O O10 0.688926 0.512876 0.103148
O O11 0.632621 0.791957 0.735068
O O12 0.534143 0.707271 0.460528
O O13 0.225037 0.795413 0.810271
O O14 0.217222 0.812124 0.075619
O O15 0.658994 0.542153 0.382275
O O16 0.419885 0.691895 0.746558
#
# Coordination Sequence:
#
# PCOD9251528 Si02
#       8
#     4   4   4   4   4   4   4   4
#     4  11  21  40  68  95 123 166 212 260 316 362
#     4   9  21  40  66  93 123 164 214 262 298 376
#     4  11  21  40  68  95 123 166 212 260 316 362
#     4   8  20  36  69  93 119 157 222 260 295 361
#     4  11  28  44  60  93 137 166 203 259 322 380
#     4   8  20  36  69  93 119 157 222 260 295 361
#     4   9  21  40  66  93 123 164 214 262 298 376
#     4  11  28  44  60  93 137 166 203 259 322 380
#
# _framework density 25.397020000000001
#
# number of rings (size 3 to 8) (size 9 to 14) (size 15 to 20)
#    1.500    0.500    2.500    0.750    3.500    4.000 
#    0.000    5.000    0.000    0.000    0.000    0.000 
#    0.000    0.000    0.000    0.000    0.000    0.000 
#
# Total GULP energy -178379.888147 kJ/mol
# GULP energy per Si atom -5574.371505 kJ/mol
# Density = 2.533922 g / cm^3
# Si number density = 25.397020 Si / 1000 Ang^3
#
#
#
# Elastic Constant Matrix: (Units=GPa)
#
#
# Indices 1 2 3 4 5 6 
#
# 1 67.8139 6.2657 33.1525 0.0000 25.4686 0.0000
# 2 6.2657 65.5620 19.5709 0.0000 8.6263 0.0000
# 3 33.1525 19.5709 134.8720 0.0000 18.1039 0.0000
# 4 0.0000 0.0000 0.0000 32.5833 0.0000 0.1377
# 5 25.4686 8.6263 18.1039 0.0000 46.8007 0.0000
# 6 0.0000 0.0000 0.0000 0.1377 0.0000 12.0944
#
#
#
# Elastic Compliance Matrix: (Units=1/GPa)
#
#
# Indices 1 2 3 4 5 6 
#
# 1 0.020130 0.000451 -0.003725 0.000000 -0.009597 0.000000
# 2 0.000451 0.016162 -0.002134 0.000000 -0.002399 0.000000
# 3 -0.003725 -0.002134 0.008770 0.000000 -0.000972 0.000000
# 4 0.000000 0.000000 0.000000 0.030692 0.000000 -0.000349
# 5 -0.009597 -0.002399 -0.000972 0.000000 0.027408 0.000000
# 6 0.000000 0.000000 0.000000 -0.000349 0.000000 0.082687
#
#
# Mechanical properties :
#
#
# Convention : Reuss Voigt Hill
#
# Bulk Modulus (GPa) = 29.20092 42.91401 36.05746
# Shear Modulus (GPa) = 24.02905 32.24627 28.13766
#
# Velocity S-wave (km/s) = 3.07927 3.56713 3.33214
# Velocity P-wave (km/s) = 4.91582 5.82236 5.38819
#
# Compressibility (1/GPa) = 0.03424550
#
# Stress axis : x y z
#
# Youngs Moduli (GPa) = 49.67720 61.87226 114.02118
#
# Poissons Ratio (x) = -0.02790 0.42477
# Poissons Ratio (y) = -0.02240 0.24333
# Poissons Ratio (z) = 0.18507 0.13204
#
# Static dielectric constant tensor:
#      x y z
#    x 2.118900 0.000000 -0.117180 
#    y 0.000000 2.062370 0.000000 
#    z -0.117180 0.000000 2.095220 
# 
# From -- ./inp_files/29824.got.cif
#   From: 2010.05.17/outbox.cif.g08.bks.cpg/sg14_15_cif.got.tgz:29824.got - 2010.06.03 17:49:19.
