data_PCOD9251497
_publ_section_title
;
Structure prediction by ZEFSAII (Michael W. Deem and Ramdas Pophale) SiO2 
 PCOD9251497
Probable space group: P 21/C
;
_chemical_formula_sum "Si O2"
_cell_formula_units_Z 32
_cell_length_a 8.561638
_cell_length_b 19.792099
_cell_length_c 9.745672
_cell_angle_alpha 90.000000
_cell_angle_beta 61.673750
_cell_angle_gamma 90.000000
_cell_volume 1453.688995
_symmetry_space_group_name_H-M "P 21/C"
_symmetry_group_IT_number 14
_symmetry_cell_setting 'monoclinic'
loop_
_space_group_symop_operation_xyz
x,y,z
-x,1/2+y,1/2-z
-x,-y,-z
x,1/2-y,1/2+z
loop_
_atom_site_type_symbol
_atom_site_label
_atom_site_fract_x
_atom_site_fract_y
_atom_site_fract_z
Si Si1 0.268694 0.128087 0.357938
Si Si2 0.219925 0.677479 0.587428
Si Si3 0.348789 0.880143 0.747113
Si Si4 0.694285 0.967529 0.180253
Si Si5 0.609983 0.117812 0.754943
Si Si6 0.118995 0.831666 0.585561
Si Si7 0.946453 0.932041 0.308656
Si Si8 0.259279 0.016106 0.159898
O O1 0.456781 0.156590 0.336951
O O2 0.192323 0.084794 0.516274
O O3 0.328035 0.081837 0.205647
O O4 0.089957 0.163102 0.369508
O O5 0.268744 0.639714 0.427653
O O6 0.378267 0.675400 0.634350
O O7 0.163080 0.752480 0.575461
O O8 0.067743 0.633577 0.726810
O O9 0.202285 0.861433 0.692598
O O10 0.380362 0.961289 0.731296
O O11 0.568390 0.901883 0.248366
O O12 0.862676 0.951270 0.200043
O O13 0.742761 0.976951 0.001129
O O14 0.763089 0.132260 0.581100
O O15 0.633282 0.048817 0.833587
O O16 0.065201 0.996800 0.297301
#
# Coordination Sequence:
#
# PCOD9251497 Si02
#       8
#     4   4   4   4   4   4   4   4
#     4  12  25  44  69 105 139 179 229 289 351 413
#     4  11  25  51  66  93 141 191 237 279 344 422
#     4  12  26  44  74 108 136 182 236 291 351 419
#     4  12  23  41  71 111 140 172 236 295 357 421
#     4  11  22  44  70  95 143 181 220 295 356 402
#     4  12  27  47  70  96 141 194 234 284 345 416
#     4  11  24  41  70 100 141 181 227 286 349 418
#     4  11  21  39  67 101 141 177 215 282 360 412
#
# _framework density 22.012961000000001
#
# number of rings (size 3 to 8) (size 9 to 14) (size 15 to 20)
#    0.000    0.500    6.250    4.125    3.500    1.000 
#    6.750    0.000    0.000    0.000    0.000    0.000 
#    0.000    0.000    0.000    0.000    0.000    0.000 
#
# Total GULP energy -178531.944176 kJ/mol
# GULP energy per Si atom -5579.123256 kJ/mol
# Density = 2.196286 g / cm^3
# Si number density = 22.012961 Si / 1000 Ang^3
#
#
#
# Elastic Constant Matrix: (Units=GPa)
#
#
# Indices 1 2 3 4 5 6 
#
# 1 67.1365 23.1524 22.3714 0.0000 5.5387 0.0000
# 2 23.1524 74.3616 5.4638 0.0000 0.6866 0.0000
# 3 22.3714 5.4638 93.0911 0.0000 12.3584 0.0000
# 4 0.0000 0.0000 0.0000 5.7013 0.0000 6.4915
# 5 5.5387 0.6866 12.3584 0.0000 30.8240 0.0000
# 6 0.0000 0.0000 0.0000 6.4915 0.0000 29.2977
#
#
#
# Elastic Compliance Matrix: (Units=1/GPa)
#
#
# Indices 1 2 3 4 5 6 
#
# 1 0.018152 -0.005355 -0.003835 0.000000 -0.001605 0.000000
# 2 -0.005355 0.015086 0.000336 0.000000 0.000491 0.000000
# 3 -0.003835 0.000336 0.012203 0.000000 -0.004211 0.000000
# 4 0.000000 0.000000 0.000000 0.234578 0.000000 -0.051976
# 5 -0.001605 0.000491 -0.004211 0.000000 0.034408 0.000000
# 6 0.000000 0.000000 0.000000 -0.051976 0.000000 0.045649
#
#
# Mechanical properties :
#
#
# Convention : Reuss Voigt Hill
#
# Bulk Modulus (GPa) = 36.05740 37.39606 36.72673
# Shear Modulus (GPa) = 12.91897 25.40472 19.16184
#
# Velocity S-wave (km/s) = 2.42519 3.40086 2.95359
# Velocity P-wave (km/s) = 4.92521 5.69616 5.32466
#
# Compressibility (1/GPa) = 0.02773356
#
# Stress axis : x y z
#
# Youngs Moduli (GPa) = 55.09031 66.28732 81.94670
#
# Poissons Ratio (x) = 0.35497 0.31426
# Poissons Ratio (y) = 0.29501 -0.02755
# Poissons Ratio (z) = 0.21126 -0.02229
#
# Static dielectric constant tensor:
#      x y z
#    x 1.948860 0.000000 -0.032680 
#    y 0.000000 1.811990 0.000000 
#    z -0.032680 0.000000 1.767980 
# 
# From -- ./inp_files/10812.got.cif
#   From: 2010.05.17/outbox.cif.g08.bks.cpg/sg14_6_cif.got.tgz:10812.got - 2010.06.03 17:49:19.
