data_PCOD9251862
_publ_section_title
;
Structure prediction by ZEFSAII (Michael W. Deem and Ramdas Pophale) SiO2 
 PCOD9251862
Probable space group: P 21/C
;
_chemical_formula_sum "Si O2"
_cell_formula_units_Z 28
_cell_length_a 9.070547
_cell_length_b 11.615357
_cell_length_c 13.090100
_cell_angle_alpha 90.000000
_cell_angle_beta 111.475296
_cell_angle_gamma 90.000000
_cell_volume 1283.395822
_symmetry_space_group_name_H-M "P 21/C"
_symmetry_group_IT_number 14
_symmetry_cell_setting 'monoclinic'
loop_
_space_group_symop_operation_xyz
x,y,z
-x,1/2+y,1/2-z
-x,-y,-z
x,1/2-y,1/2+z
loop_
_atom_site_type_symbol
_atom_site_label
_atom_site_fract_x
_atom_site_fract_y
_atom_site_fract_z
Si Si1 0.322679 0.048226 0.449203
Si Si2 0.509061 0.038884 0.837552
Si Si3 0.897901 0.337402 0.177034
Si Si4 0.679999 0.116829 0.071016
Si Si5 0.976415 0.523735 0.614662
Si Si6 0.229583 0.153247 0.640047
Si Si7 0.733651 0.611618 0.270191
O O1 0.251484 0.098328 0.534835
O O2 0.321088 0.141229 0.357302
O O3 0.500000 0.000000 0.500000
O O4 0.213337 0.943099 0.384701
O O5 0.355952 0.090083 0.744299
O O6 0.450897 0.924561 0.882262
O O7 0.635816 0.997233 0.786213
O O8 0.594633 0.124133 0.939307
O O9 0.787640 0.224859 0.131903
O O10 0.961680 0.362809 0.309605
O O11 0.053918 0.345747 0.144489
O O12 0.796110 0.006136 0.091009
O O13 0.000000 0.500000 0.500000
O O14 0.083697 0.423393 0.690533
O O15 0.280218 0.285936 0.654328
#
# Coordination Sequence:
#
# PCOD9251862 Si02
#       7
#     4   4   4   4   4   4   4
#     4  11  26  46  69 105 147 174 238 300 355 424
#     4  11  25  42  71 104 147 179 245 297 351 439
#     4  11  26  47  71 103 145 192 237 293 367 428
#     4  11  24  45  71 106 139 189 236 297 358 428
#     4  11  22  45  69 102 145 182 237 292 353 431
#     4  12  25  46  72 102 139 196 234 293 364 435
#     4  11  25  43  69 102 137 188 228 293 357 420
#
# _framework density 21.817121
#
# number of rings (size 3 to 8) (size 9 to 14) (size 15 to 20)
#    0.000    0.857    5.714    0.429    4.000    2.286 
#    2.571    0.000    0.000    0.000    0.000    0.000 
#    0.000    0.000    0.000    0.000    0.000    0.000 
#
# Total GULP energy -156269.242579 kJ/mol
# GULP energy per Si atom -5581.044378 kJ/mol
# Density = 2.176746 g / cm^3
# Si number density = 21.817121 Si / 1000 Ang^3
#
#
#
# Elastic Constant Matrix: (Units=GPa)
#
#
# Indices 1 2 3 4 5 6 
#
# 1 118.7817 18.2489 34.4690 0.0000 4.9353 0.0000
# 2 18.2489 64.9479 29.0467 0.0000 7.5393 0.0000
# 3 34.4690 29.0467 127.8926 0.0000 4.4814 0.0000
# 4 0.0000 0.0000 0.0000 29.8558 0.0000 12.9193
# 5 4.9353 7.5393 4.4814 0.0000 30.1442 0.0000
# 6 0.0000 0.0000 0.0000 12.9193 0.0000 37.0898
#
#
#
# Elastic Compliance Matrix: (Units=1/GPa)
#
#
# Indices 1 2 3 4 5 6 
#
# 1 0.009310 -0.001572 -0.002124 0.000000 -0.000816 0.000000
# 2 -0.001572 0.017830 -0.003497 0.000000 -0.003682 0.000000
# 3 -0.002124 -0.003497 0.009191 0.000000 -0.000144 0.000000
# 4 0.000000 0.000000 0.000000 0.039439 0.000000 -0.013738
# 5 -0.000816 -0.003682 -0.000144 0.000000 0.034250 0.000000
# 6 0.000000 0.000000 0.000000 -0.013738 0.000000 0.031747
#
#
# Mechanical properties :
#
#
# Convention : Reuss Voigt Hill
#
# Bulk Modulus (GPa) = 45.56523 52.79461 49.17992
# Shear Modulus (GPa) = 30.58732 34.74180 32.66456
#
# Velocity S-wave (km/s) = 3.74837 3.99483 3.87356
# Velocity P-wave (km/s) = 6.29795 6.74755 6.52662
#
# Compressibility (1/GPa) = 0.02194656
#
# Stress axis : x y z
#
# Youngs Moduli (GPa) = 107.40640 56.08562 108.80548
#
# Poissons Ratio (x) = 0.08814 0.23108
# Poissons Ratio (y) = 0.16879 0.38048
# Poissons Ratio (z) = 0.22811 0.19613
#
# Static dielectric constant tensor:
#      x y z
#    x 1.795970 0.000000 0.006760 
#    y 0.000000 1.825710 0.000000 
#    z 0.006760 0.000000 1.909730 
# 
# From -- ./inp_files/40188.got.cif
#   From: 2010.05.17/outbox.cif.g08.bks.cpg/sg14_21_cif.got.tgz:40188.got - 2010.06.03 17:49:19.
