data_PCOD9251201
_publ_section_title
;
Structure prediction by ZEFSAII (Michael W. Deem and Ramdas Pophale) SiO2 
 PCOD9251201
Probable space group: P 21/C
;
_chemical_formula_sum "Si O2"
_cell_formula_units_Z 14
_cell_length_a 9.038850
_cell_length_b 8.026405
_cell_length_c 13.999853
_cell_angle_alpha 90.000000
_cell_angle_beta 151.096249
_cell_angle_gamma 90.000000
_cell_volume 490.919394
_symmetry_space_group_name_H-M "P 21/C"
_symmetry_group_IT_number 14
_symmetry_cell_setting 'monoclinic'
loop_
_space_group_symop_operation_xyz
x,y,z
-x,1/2+y,1/2-z
-x,-y,-z
x,1/2-y,1/2+z
loop_
_atom_site_type_symbol
_atom_site_label
_atom_site_fract_x
_atom_site_fract_y
_atom_site_fract_z
Si Si1 0.000000 0.000000 0.000000
Si Si2 0.322758 0.057672 0.729179
Si Si3 0.321002 0.241512 0.564521
Si Si4 0.246777 0.137911 0.327247
O O1 0.862440 0.815105 0.951015
O O2 0.977668 0.954347 0.870669
O O3 0.512576 0.098980 0.733984
O O4 0.347612 0.194488 0.827232
O O5 0.452554 0.883728 0.841059
O O6 0.000000 0.000000 0.500000
O O7 0.130470 0.183694 0.366768
O O8 0.500000 0.000000 0.500000
#
# Coordination Sequence:
#
# PCOD9251201 Si02
#       4
#     2   4   4   4
#     4  10  26  46  72 112 148 200 252 312 388 460
#     4  11  27  46  77 115 148 202 262 320 390 469
#     4  11  25  47  76 106 160 193 261 318 391 472
#     4  11  26  47  79 108 153 203 259 319 399 459
#
# _framework density 28.517921000000001
#
# number of rings (size 3 to 8) (size 9 to 14) (size 15 to 20)
#    0.000    1.143    0.000    4.286   20.000    2.286 
#    0.000    0.000    0.000    0.000    0.000    0.000 
#    0.000    0.000    0.000    0.000    0.000    0.000 
#
# Total GULP energy -77966.147067 kJ/mol
# GULP energy per Si atom -5569.010505 kJ/mol
# Density = 2.845301 g / cm^3
# Si number density = 28.517921 Si / 1000 Ang^3
#
#
#
# Elastic Constant Matrix: (Units=GPa)
#
#
# Indices 1 2 3 4 5 6 
#
# 1 122.9862 30.9484 57.2259 0.0000 -43.4560 0.0000
# 2 30.9484 156.6003 55.2394 0.0000 -18.2655 0.0000
# 3 57.2259 55.2394 223.4155 0.0000 -62.4710 0.0000
# 4 0.0000 0.0000 0.0000 60.4590 0.0000 -25.8803
# 5 -43.4560 -18.2655 -62.4710 0.0000 65.6457 0.0000
# 6 0.0000 0.0000 0.0000 -25.8803 0.0000 59.0954
#
#
#
# Elastic Compliance Matrix: (Units=1/GPa)
#
#
# Indices 1 2 3 4 5 6 
#
# 1 0.010981 -0.001168 -0.000793 0.000000 0.006189 0.000000
# 2 -0.001168 0.007128 -0.001533 0.000000 -0.000249 0.000000
# 3 -0.000793 -0.001533 0.006529 0.000000 0.005262 0.000000
# 4 0.000000 0.000000 0.000000 0.020356 0.000000 0.008915
# 5 0.006189 -0.000249 0.005262 0.000000 0.024269 0.000000
# 6 0.000000 0.000000 0.000000 0.008915 0.000000 0.020826
#
#
# Mechanical properties :
#
#
# Convention : Reuss Voigt Hill
#
# Bulk Modulus (GPa) = 56.65688 87.75882 72.20785
# Shear Modulus (GPa) = 48.56162 61.01256 54.78709
#
# Velocity S-wave (km/s) = 4.13103 4.63043 4.38784
# Velocity P-wave (km/s) = 6.53178 7.70895 7.14465
#
# Compressibility (1/GPa) = 0.01765011
#
# Stress axis : x y z
#
# Youngs Moduli (GPa) = 91.06644 140.28699 153.15121
#
# Poissons Ratio (x) = 0.16392 0.12147
# Poissons Ratio (y) = 0.10641 0.23474
# Poissons Ratio (z) = 0.07223 0.21502
#
# Static dielectric constant tensor:
#      x y z
#    x 2.114610 0.000000 -0.021760 
#    y 0.000000 2.977720 0.000000 
#    z -0.021760 0.000000 2.031320 
# 
# From -- ./inp_files/22657.got.cif
#   From: 2010.05.17/outbox.cif.g08.bks.cpg/sg14_12_cif.got.tgz:22657.got - 2010.06.03 17:49:19.
