data_PCOD9251039
_publ_section_title
;
Structure prediction by ZEFSAII (Michael W. Deem and Ramdas Pophale) SiO2 
 PCOD9251039
Probable space group: P 21/C
;
_chemical_formula_sum "Si O2"
_cell_formula_units_Z 20
_cell_length_a 4.904615
_cell_length_b 16.101860
_cell_length_c 10.463666
_cell_angle_alpha 90.000000
_cell_angle_beta 83.049785
_cell_angle_gamma 90.000000
_cell_volume 820.279229
_symmetry_space_group_name_H-M "P 21/C"
_symmetry_group_IT_number 14
_symmetry_cell_setting 'monoclinic'
loop_
_space_group_symop_operation_xyz
x,y,z
-x,1/2+y,1/2-z
-x,-y,-z
x,1/2-y,1/2+z
loop_
_atom_site_type_symbol
_atom_site_label
_atom_site_fract_x
_atom_site_fract_y
_atom_site_fract_z
Si Si1 0.467882 0.332649 0.394063
Si Si2 0.364975 0.438787 0.615553
Si Si3 0.008634 0.911954 0.211027
Si Si4 0.582688 0.354224 0.851512
Si Si5 0.048265 0.402498 0.002682
O O1 0.319385 0.354383 0.536642
O O2 0.785156 0.358994 0.388266
O O3 0.478086 0.239845 0.342596
O O4 0.303559 0.392751 0.306872
O O5 0.500000 0.500000 0.500000
O O6 0.110325 0.493671 0.681958
O O7 0.540365 0.408804 0.726986
O O8 0.053348 0.879052 0.351241
O O9 0.370684 0.389604 0.967975
O O10 0.881395 0.358844 0.898314
O O11 0.000000 0.500000 0.000000
#
# Coordination Sequence:
#
# PCOD9251039 Si02
#       5
#     4   4   4   4   4
#     4  11  26  46  71 104 141 184 235 304 358 416
#     4  10  25  45  74 101 143 188 245 288 356 435
#     4  11  24  46  72 100 140 188 240 285 358 435
#     4  12  27  46  70 108 143 188 237 304 359 418
#     4  12  26  44  73 100 144 186 241 289 356 430
#
# _framework density 24.381941000000001
#
# number of rings (size 3 to 8) (size 9 to 14) (size 15 to 20)
#    0.000    0.800    2.000    3.600   11.200    3.200 
#    0.000    0.000    0.000    0.000    0.000    0.000 
#    0.000    0.000    0.000    0.000    0.000    0.000 
#
# Total GULP energy -111737.014270 kJ/mol
# GULP energy per Si atom -5586.850713 kJ/mol
# Density = 2.432645 g / cm^3
# Si number density = 24.381941 Si / 1000 Ang^3
#
#
#
# Elastic Constant Matrix: (Units=GPa)
#
#
# Indices 1 2 3 4 5 6 
#
# 1 82.0315 11.5924 18.1588 0.0000 11.5523 0.0000
# 2 11.5924 100.8244 22.5510 0.0000 2.3046 0.0000
# 3 18.1588 22.5510 127.3733 0.0000 13.6954 0.0000
# 4 0.0000 0.0000 0.0000 31.1514 0.0000 3.0308
# 5 11.5523 2.3046 13.6954 0.0000 32.9355 0.0000
# 6 0.0000 0.0000 0.0000 3.0308 0.0000 31.2715
#
#
#
# Elastic Compliance Matrix: (Units=1/GPa)
#
#
# Indices 1 2 3 4 5 6 
#
# 1 0.013196 -0.001147 -0.001245 0.000000 -0.004031 0.000000
# 2 -0.001147 0.010427 -0.001724 0.000000 0.000390 0.000000
# 3 -0.001245 -0.001724 0.008661 0.000000 -0.003044 0.000000
# 4 0.000000 0.000000 0.000000 0.032407 0.000000 -0.003141
# 5 -0.004031 0.000390 -0.003044 0.000000 0.033015 0.000000
# 6 0.000000 0.000000 0.000000 -0.003141 0.000000 0.032282
#
#
# Mechanical properties :
#
#
# Convention : Reuss Voigt Hill
#
# Bulk Modulus (GPa) = 41.57715 46.09262 43.83488
# Shear Modulus (GPa) = 34.19118 36.26682 35.22900
#
# Velocity S-wave (km/s) = 3.74881 3.86093 3.80528
# Velocity P-wave (km/s) = 5.98562 6.23066 6.10937
#
# Compressibility (1/GPa) = 0.02405167
#
# Stress axis : x y z
#
# Youngs Moduli (GPa) = 75.78254 95.90604 115.45957
#
# Poissons Ratio (x) = 0.10997 0.14373
# Poissons Ratio (y) = 0.08689 0.19911
# Poissons Ratio (z) = 0.09434 0.16539
#
# Static dielectric constant tensor:
#      x y z
#    x 1.894620 0.000000 -0.010820 
#    y 0.000000 1.999480 0.000000 
#    z -0.010820 0.000000 1.999390 
# 
# From -- ./inp_files/5496.got.cif
#   From: 2010.05.17/outbox.cif.g08.bks.cpg/sg14_3_cif.got.tgz:5496.got - 2010.06.03 17:49:19.
