data_PCOD9251869
_publ_section_title
;
Structure prediction by ZEFSAII (Michael W. Deem and Ramdas Pophale) SiO2 
 PCOD9251869
Probable space group: P 21/C
;
_chemical_formula_sum "Si O2"
_cell_formula_units_Z 24
_cell_length_a 25.583766
_cell_length_b 9.194055
_cell_length_c 8.660886
_cell_angle_alpha 90.000000
_cell_angle_beta 31.743215
_cell_angle_gamma 90.000000
_cell_volume 1071.798412
_symmetry_space_group_name_H-M "P 21/C"
_symmetry_group_IT_number 14
_symmetry_cell_setting 'monoclinic'
loop_
_space_group_symop_operation_xyz
x,y,z
-x,1/2+y,1/2-z
-x,-y,-z
x,1/2-y,1/2+z
loop_
_atom_site_type_symbol
_atom_site_label
_atom_site_fract_x
_atom_site_fract_y
_atom_site_fract_z
Si Si1 0.594229 0.412785 0.827492
Si Si2 0.889478 0.214055 0.324869
Si Si3 0.881854 0.783286 0.246256
Si Si4 0.811176 0.453062 0.736552
Si Si5 0.406728 0.913874 0.300832
Si Si6 0.192942 0.045660 0.283858
O O1 0.593814 0.250069 0.761854
O O2 0.696352 0.489578 0.520109
O O3 0.500000 0.500000 0.000000
O O4 0.589933 0.409650 0.023076
O O5 0.855069 0.365815 0.481911
O O6 0.822089 0.158036 0.353782
O O7 0.874407 0.090397 0.493995
O O8 0.003944 0.218445 0.988608
O O9 0.847974 0.631557 0.260519
O O10 0.814257 0.842658 0.554348
O O11 0.870517 0.905089 0.140427
O O12 0.696561 0.486166 0.993675
O O13 0.500000 0.000000 0.000000
#
# Coordination Sequence:
#
# PCOD9251869 Si02
#       6
#     4   4   4   4   4   4
#     4  12  29  49  78 109 143 192 246 311 377 445
#     4  11  22  45  71 104 147 193 243 300 366 436
#     4  11  25  42  71 105 148 196 239 301 362 441
#     4  11  24  42  72 102 144 188 243 297 365 433
#     4  12  28  50  77 107 144 194 247 307 375 440
#     4  11  26  44  69 105 149 187 250 301 365 438
#
# _framework density 22.392272999999999
#
# number of rings (size 3 to 8) (size 9 to 14) (size 15 to 20)
#    0.000    0.667    1.667    6.000   11.667    0.000 
#    0.000    3.333    0.000    0.000    0.000    0.000 
#    0.000    0.000    0.000    0.000    0.000    0.000 
#
# Total GULP energy -134554.745354 kJ/mol
# GULP energy per Si atom -5606.447723 kJ/mol
# Density = 2.234131 g / cm^3
# Si number density = 22.392273 Si / 1000 Ang^3
#
#
#
# Elastic Constant Matrix: (Units=GPa)
#
#
# Indices 1 2 3 4 5 6 
#
# 1 125.9976 43.2118 71.3725 0.0000 -5.2812 0.0000
# 2 43.2118 69.6264 44.6150 0.0000 15.6142 0.0000
# 3 71.3725 44.6150 166.3142 0.0000 -0.9802 0.0000
# 4 0.0000 0.0000 0.0000 41.7147 0.0000 3.9488
# 5 -5.2812 15.6142 -0.9802 0.0000 38.3914 0.0000
# 6 0.0000 0.0000 0.0000 3.9488 0.0000 51.1118
#
#
#
# Elastic Compliance Matrix: (Units=1/GPa)
#
#
# Indices 1 2 3 4 5 6 
#
# 1 0.012278 -0.006267 -0.003564 0.000000 0.004147 0.000000
# 2 -0.006267 0.022771 -0.003479 0.000000 -0.010212 0.000000
# 3 -0.003564 -0.003479 0.008482 0.000000 0.001141 0.000000
# 4 0.000000 0.000000 0.000000 0.024149 0.000000 -0.001866
# 5 0.004147 -0.010212 0.001141 0.000000 0.030800 0.000000
# 6 0.000000 0.000000 0.000000 -0.001866 0.000000 0.019709
#
#
# Mechanical properties :
#
#
# Convention : Reuss Voigt Hill
#
# Bulk Modulus (GPa) = 59.12870 75.59297 67.36083
# Shear Modulus (GPa) = 33.23424 39.75951 36.49688
#
# Velocity S-wave (km/s) = 3.85669 4.21835 4.04157
# Velocity P-wave (km/s) = 6.80406 7.58668 7.20600
#
# Compressibility (1/GPa) = 0.01691226
#
# Stress axis : x y z
#
# Youngs Moduli (GPa) = 81.44439 43.91490 117.89476
#
# Poissons Ratio (x) = 0.27520 0.42013
# Poissons Ratio (y) = 0.51038 0.41021
# Poissons Ratio (z) = 0.29024 0.15280
#
# Static dielectric constant tensor:
#      x y z
#    x 1.839640 0.000000 0.039490 
#    y 0.000000 1.826170 0.000000 
#    z 0.039490 0.000000 1.779560 
# 
# From -- ./inp_files/19459.got.cif
#   From: 2010.05.17/outbox.cif.g08.bks.cpg/sg14_10_cif.got.tgz:19459.got - 2010.06.03 17:49:19.
