data_PCOD9251346
_publ_section_title
;
Structure prediction by ZEFSAII (Michael W. Deem and Ramdas Pophale) SiO2 
 PCOD9251346
Probable space group: P 21/C
;
_chemical_formula_sum "Si O2"
_cell_formula_units_Z 28
_cell_length_a 18.665792
_cell_length_b 9.301633
_cell_length_c 22.040402
_cell_angle_alpha 90.000000
_cell_angle_beta 159.886481
_cell_angle_gamma 90.000000
_cell_volume 1315.932611
_symmetry_space_group_name_H-M "P 21/C"
_symmetry_group_IT_number 14
_symmetry_cell_setting 'monoclinic'
loop_
_space_group_symop_operation_xyz
x,y,z
-x,1/2+y,1/2-z
-x,-y,-z
x,1/2-y,1/2+z
loop_
_atom_site_type_symbol
_atom_site_label
_atom_site_fract_x
_atom_site_fract_y
_atom_site_fract_z
Si Si1 0.274503 0.683223 0.471515
Si Si2 0.818986 0.160079 0.875543
Si Si3 0.858733 0.610706 0.084019
Si Si4 0.244009 0.863892 0.565854
Si Si5 0.088846 0.546019 0.668558
Si Si6 0.590538 0.039349 0.470920
Si Si7 0.311035 0.407897 0.566226
O O1 0.223417 0.740112 0.498860
O O2 0.437433 0.792946 0.570627
O O3 0.314435 0.513597 0.511228
O O4 0.067172 0.693334 0.267424
O O5 0.763771 0.295715 0.873864
O O6 0.885666 0.177554 0.858546
O O7 0.616893 0.053772 0.706986
O O8 0.013214 0.085773 0.065546
O O9 0.774560 0.517202 0.073059
O O10 0.903431 0.498238 0.065865
O O11 0.691973 0.736900 0.943837
O O12 0.466614 0.937101 0.727521
O O13 0.297417 0.526353 0.874204
O O14 0.889651 0.563324 0.553047
#
# Coordination Sequence:
#
# PCOD9251346 Si02
#       7
#     4   4   4   4   4   4   4
#     4  11  21  35  61  92 119 156 210 263 317 372
#     4  11  23  40  60  94 127 166 213 257 315 387
#     4  11  20  35  61  88 123 158 204 269 314 367
#     4  11  22  37  59  92 124 160 207 261 319 374
#     4  11  22  38  64  90 126 167 208 262 315 380
#     4  11  21  40  63  92 122 165 210 261 318 366
#     4  12  20  37  60  93 122 157 209 262 315 369
#
# _framework density 21.277685000000002
#
# number of rings (size 3 to 8) (size 9 to 14) (size 15 to 20)
#    0.000    0.857    5.714    3.857    0.000    0.000 
#    0.000    0.714    0.000    0.857    0.000    0.000 
#    0.000    0.000    0.000    0.000    0.000    0.000 
#
# Total GULP energy -155994.684791 kJ/mol
# GULP energy per Si atom -5571.238743 kJ/mol
# Density = 2.122926 g / cm^3
# Si number density = 21.277685 Si / 1000 Ang^3
#
#
#
# Elastic Constant Matrix: (Units=GPa)
#
#
# Indices 1 2 3 4 5 6 
#
# 1 50.3314 22.8576 33.3033 0.0000 -8.1816 0.0000
# 2 22.8576 90.4324 15.1928 0.0000 -7.1119 0.0000
# 3 33.3033 15.1928 57.0128 0.0000 -11.1087 0.0000
# 4 0.0000 0.0000 0.0000 38.0462 0.0000 -9.4006
# 5 -8.1816 -7.1119 -11.1087 0.0000 32.2331 0.0000
# 6 0.0000 0.0000 0.0000 -9.4006 0.0000 19.4331
#
#
#
# Elastic Compliance Matrix: (Units=1/GPa)
#
#
# Indices 1 2 3 4 5 6 
#
# 1 0.034990 -0.005606 -0.018712 0.000000 0.001196 0.000000
# 2 -0.005606 0.012552 0.000206 0.000000 0.001417 0.000000
# 3 -0.018712 0.000206 0.029478 0.000000 0.005455 0.000000
# 4 0.000000 0.000000 0.000000 0.029852 0.000000 0.014441
# 5 0.001196 0.001417 0.005455 0.000000 0.033520 0.000000
# 6 0.000000 0.000000 0.000000 0.014441 0.000000 0.058444
#
#
# Mechanical properties :
#
#
# Convention : Reuss Voigt Hill
#
# Bulk Modulus (GPa) = 34.72720 37.83156 36.27938
# Shear Modulus (GPa) = 19.48102 26.37066 22.92584
#
# Velocity S-wave (km/s) = 3.02911 3.52427 3.28603
# Velocity P-wave (km/s) = 5.34700 5.86337 5.61113
#
# Compressibility (1/GPa) = 0.02879587
#
# Stress axis : x y z
#
# Youngs Moduli (GPa) = 28.57936 79.66937 33.92320
#
# Poissons Ratio (x) = 0.44666 0.63478
# Poissons Ratio (y) = 0.16023 -0.00700
# Poissons Ratio (z) = 0.53478 -0.01643
#
# Static dielectric constant tensor:
#      x y z
#    x 1.831170 0.000000 -0.039950 
#    y 0.000000 1.851790 0.000000 
#    z -0.039950 0.000000 1.824750 
# 
# From -- ./inp_files/74657.got.cif
#   From: 2010.05.17/outbox.cif.g08.bks.cpg/sg14_38_cif.got.tgz:74657.got - 2010.06.03 17:49:19.
