data_PCOD9251345
_publ_section_title
;
Structure prediction by ZEFSAII (Michael W. Deem and Ramdas Pophale) SiO2 
 PCOD9251345
Probable space group: P 21/C
;
_chemical_formula_sum "Si O2"
_cell_formula_units_Z 28
_cell_length_a 17.830670
_cell_length_b 11.088627
_cell_length_c 21.730510
_cell_angle_alpha 90.000000
_cell_angle_beta 162.497257
_cell_angle_gamma 90.000000
_cell_volume 1292.180246
_symmetry_space_group_name_H-M "P 21/C"
_symmetry_group_IT_number 14
_symmetry_cell_setting 'monoclinic'
loop_
_space_group_symop_operation_xyz
x,y,z
-x,1/2+y,1/2-z
-x,-y,-z
x,1/2-y,1/2+z
loop_
_atom_site_type_symbol
_atom_site_label
_atom_site_fract_x
_atom_site_fract_y
_atom_site_fract_z
Si Si1 0.640541 0.058547 0.528633
Si Si2 0.162852 0.724164 0.921711
Si Si3 0.859539 0.818908 0.869116
Si Si4 0.540971 0.580754 0.754558
Si Si5 0.197429 0.864954 0.588684
Si Si6 0.631863 0.685603 0.958158
Si Si7 0.907663 0.530434 0.525572
O O1 0.768661 0.114866 0.568884
O O2 0.413207 0.145436 0.368360
O O3 0.847729 0.050206 0.742726
O O4 0.545362 0.927336 0.432662
O O5 0.900024 0.777508 0.694392
O O6 0.156099 0.681358 0.986526
O O7 0.381460 0.823763 0.090868
O O8 0.044728 0.907513 0.975653
O O9 0.956666 0.684713 0.935758
O O10 0.867371 0.863397 0.945495
O O11 0.734157 0.503996 0.866239
O O12 0.653025 0.643349 0.903359
O O13 0.331958 0.488939 0.619041
O O14 0.433863 0.794147 0.802880
#
# Coordination Sequence:
#
# PCOD9251345 Si02
#       7
#     4   4   4   4   4   4   4
#     4  12  22  38  60  89 126 156 194 253 303 357
#     4  11  23  38  60  92 120 158 203 248 302 355
#     4  11  21  37  59  90 125 155 199 245 313 356
#     4  11  21  40  61  90 119 156 207 248 293 358
#     4  11  22  38  60  90 122 157 201 247 301 361
#     4  11  20  35  61  86 117 152 197 255 294 343
#     4  11  20  37  59  91 121 156 201 255 301 347
#
# _framework density 21.668804000000002
#
# number of rings (size 3 to 8) (size 9 to 14) (size 15 to 20)
#    0.000    0.857    7.143    2.143    0.000    2.286 
#    0.000    0.714    0.000    1.714    0.000    0.000 
#    0.000    0.000    0.000    0.000    0.000    0.000 
#
# Total GULP energy -156704.176855 kJ/mol
# GULP energy per Si atom -5596.577745 kJ/mol
# Density = 2.161949 g / cm^3
# Si number density = 21.668804 Si / 1000 Ang^3
#
#
#
# Elastic Constant Matrix: (Units=GPa)
#
#
# Indices 1 2 3 4 5 6 
#
# 1 52.4015 20.8133 11.4135 0.0000 -4.7142 0.0000
# 2 20.8133 35.1339 23.0318 0.0000 -7.8692 0.0000
# 3 11.4135 23.0318 145.6392 0.0000 -25.2600 0.0000
# 4 0.0000 0.0000 0.0000 22.0369 0.0000 6.8581
# 5 -4.7142 -7.8692 -25.2600 0.0000 30.2604 0.0000
# 6 0.0000 0.0000 0.0000 6.8581 0.0000 33.8026
#
#
#
# Elastic Compliance Matrix: (Units=1/GPa)
#
#
# Indices 1 2 3 4 5 6 
#
# 1 0.024983 -0.015032 0.000487 0.000000 0.000389 0.000000
# 2 -0.015032 0.041395 -0.004569 0.000000 0.004609 0.000000
# 3 0.000487 -0.004569 0.008603 0.000000 0.006069 0.000000
# 4 0.000000 0.000000 0.000000 0.048437 0.000000 -0.009827
# 5 0.000389 0.004609 0.006069 0.000000 0.039372 0.000000
# 6 0.000000 0.000000 0.000000 -0.009827 0.000000 0.031577
#
#
# Mechanical properties :
#
#
# Convention : Reuss Voigt Hill
#
# Bulk Modulus (GPa) = 27.20838 38.18799 32.69819
# Shear Modulus (GPa) = 20.42098 29.08104 24.75101
#
# Velocity S-wave (km/s) = 3.07321 3.66740 3.38337
# Velocity P-wave (km/s) = 5.01762 5.96614 5.51232
#
# Compressibility (1/GPa) = 0.03675338
#
# Stress axis : x y z
#
# Youngs Moduli (GPa) = 40.02738 24.15761 116.23373
#
# Poissons Ratio (x) = 0.36313 -0.05659
# Poissons Ratio (y) = 0.60168 0.53106
# Poissons Ratio (z) = -0.01949 0.11037
#
# Static dielectric constant tensor:
#      x y z
#    x 1.799720 0.000000 0.027130 
#    y 0.000000 1.831600 0.000000 
#    z 0.027130 0.000000 1.768930 
# 
# From -- ./inp_files/69330.got.cif
#   From: 2010.05.17/outbox.cif.g08.bks.cpg/sg14_35_cif.got.tgz:69330.got - 2010.06.03 17:49:19.
