data_PCOD9251373
_publ_section_title
;
Structure prediction by ZEFSAII (Michael W. Deem and Ramdas Pophale) SiO2 
 PCOD9251373
Probable space group: P 21/C
;
_chemical_formula_sum "Si O2"
_cell_formula_units_Z 20
_cell_length_a 6.929730
_cell_length_b 14.215912
_cell_length_c 10.173569
_cell_angle_alpha 90.000000
_cell_angle_beta 136.662262
_cell_angle_gamma 90.000000
_cell_volume 687.823209
_symmetry_space_group_name_H-M "P 21/C"
_symmetry_group_IT_number 14
_symmetry_cell_setting 'monoclinic'
loop_
_space_group_symop_operation_xyz
x,y,z
-x,1/2+y,1/2-z
-x,-y,-z
x,1/2-y,1/2+z
loop_
_atom_site_type_symbol
_atom_site_label
_atom_site_fract_x
_atom_site_fract_y
_atom_site_fract_z
Si Si1 0.907945 0.577922 0.238578
Si Si2 0.006502 0.123218 0.749283
Si Si3 0.184729 0.775921 0.014860
Si Si4 0.368443 0.070499 0.678349
Si Si5 0.574207 0.373537 0.675117
O O1 0.883106 0.467823 0.262423
O O2 0.902652 0.662581 0.341856
O O3 0.229815 0.588219 0.345632
O O4 0.725088 0.589034 0.016965
O O5 0.119848 0.085485 0.663636
O O6 0.801009 0.207078 0.605088
O O7 0.277676 0.156845 0.965479
O O8 0.410712 0.852667 0.167455
O O9 0.238152 0.703307 0.158804
O O10 0.466777 0.963538 0.750132
#
# Coordination Sequence:
#
# PCOD9251373 Si02
#       5
#     4   4   4   4   4
#     4  11  20  38  62  88 116 145 197 250 283 330
#     4  11  20  38  62  88 116 145 197 250 283 330
#     4  12  22  34  64  88 112 162 182 242 296 332
#     4  11  20  38  62  88 116 145 197 250 283 330
#     4  11  20  38  62  88 116 145 197 250 283 330
#
# _framework density 29.07724
#
# number of rings (size 3 to 8) (size 9 to 14) (size 15 to 20)
#    0.000    0.800    8.000    3.600    0.000    0.000 
#    0.000    0.000    0.000    7.200    0.000    0.000 
#    0.000    0.000    0.000    0.000    0.000    0.000 
#
# Total GULP energy -112059.238707 kJ/mol
# GULP energy per Si atom -5602.961935 kJ/mol
# Density = 2.901106 g / cm^3
# Si number density = 29.077240 Si / 1000 Ang^3
#
#
#
# Elastic Constant Matrix: (Units=GPa)
#
#
# Indices 1 2 3 4 5 6 
#
# 1 68.8654 35.5488 30.0889 0.0000 -8.2675 0.0000
# 2 35.5488 182.7051 48.4974 0.0000 3.4526 0.0000
# 3 30.0889 48.4974 191.4561 0.0000 0.9547 0.0000
# 4 0.0000 0.0000 0.0000 74.5116 0.0000 6.8862
# 5 -8.2675 3.4526 0.9547 0.0000 20.6902 0.0000
# 6 0.0000 0.0000 0.0000 6.8862 0.0000 15.6888
#
#
#
# Elastic Compliance Matrix: (Units=1/GPa)
#
#
# Indices 1 2 3 4 5 6 
#
# 1 0.017959 -0.003090 -0.002079 0.000000 0.007788 0.000000
# 2 -0.003090 0.006417 -0.001129 0.000000 -0.002253 0.000000
# 3 -0.002079 -0.001129 0.005840 0.000000 -0.000912 0.000000
# 4 0.000000 0.000000 0.000000 0.013988 0.000000 -0.006140
# 5 0.007788 -0.002253 -0.000912 0.000000 0.051862 0.000000
# 6 0.000000 0.000000 0.000000 -0.006140 0.000000 0.066435
#
#
# Mechanical properties :
#
#
# Convention : Reuss Voigt Hill
#
# Bulk Modulus (GPa) = 56.74662 74.58853 65.66758
# Shear Modulus (GPa) = 27.62912 44.10422 35.86667
#
# Velocity S-wave (km/s) = 3.08587 3.89883 3.51593
# Velocity P-wave (km/s) = 5.67935 6.78052 6.25421
#
# Compressibility (1/GPa) = 0.01762219
#
# Stress axis : x y z
#
# Youngs Moduli (GPa) = 55.68191 155.84553 171.22628
#
# Poissons Ratio (x) = 0.48152 0.35591
# Poissons Ratio (y) = 0.17204 0.19324
# Poissons Ratio (z) = 0.11574 0.17588
#
# Static dielectric constant tensor:
#      x y z
#    x 2.381710 0.000000 0.004370 
#    y 0.000000 2.380860 0.000000 
#    z 0.004370 0.000000 2.174000 
# 
# From -- ./inp_files/34139.got.cif
#   From: 2010.05.17/outbox.cif.g08.bks.cpg/sg14_18_cif.got.tgz:34139.got - 2010.06.03 17:49:19.
