data_PCOD9251376
_publ_section_title
;
Structure prediction by ZEFSAII (Michael W. Deem and Ramdas Pophale) SiO2 
 PCOD9251376
Probable space group: P 21/C
;
_chemical_formula_sum "Si O2"
_cell_formula_units_Z 24
_cell_length_a 5.666081
_cell_length_b 9.098968
_cell_length_c 21.154912
_cell_angle_alpha 90.000000
_cell_angle_beta 71.755953
_cell_angle_gamma 90.000000
_cell_volume 1035.826588
_symmetry_space_group_name_H-M "P 21/C"
_symmetry_group_IT_number 14
_symmetry_cell_setting 'monoclinic'
loop_
_space_group_symop_operation_xyz
x,y,z
-x,1/2+y,1/2-z
-x,-y,-z
x,1/2-y,1/2+z
loop_
_atom_site_type_symbol
_atom_site_label
_atom_site_fract_x
_atom_site_fract_y
_atom_site_fract_z
Si Si1 0.987492 0.051967 0.658247
Si Si2 0.704721 0.504679 0.539295
Si Si3 0.658411 0.790382 0.872212
Si Si4 0.581311 0.209226 0.228599
Si Si5 0.757697 0.736267 0.132747
Si Si6 0.950766 0.521953 0.698245
O O1 0.788376 0.179768 0.687921
O O2 0.227718 0.139398 0.610833
O O3 0.016264 0.000646 0.729291
O O4 0.877700 0.926354 0.621890
O O5 0.500000 0.500000 0.500000
O O6 0.604698 0.358196 0.584409
O O7 0.695661 0.658373 0.579121
O O8 0.000000 0.500000 0.500000
O O9 0.643974 0.758344 0.798737
O O10 0.853680 0.923573 0.857211
O O11 0.497855 0.222661 0.306928
O O12 0.677063 0.045118 0.209622
O O13 0.946846 0.823995 0.163263
#
# Coordination Sequence:
#
# PCOD9251376 Si02
#       6
#     4   4   4   4   4   4
#     4  11  23  36  65 110 145 178 230 315 403 452
#     4  12  29  52  76  98 143 215 269 298 350 454
#     4  11  23  44  68  99 147 186 237 308 379 454
#     4  11  21  38  66 105 148 179 220 307 407 443
#     4  12  22  42  70 110 141 188 253 309 371 466
#     4  11  20  38  65 105 151 184 222 288 395 470
#
# _framework density 23.169903999999999
#
# number of rings (size 3 to 8) (size 9 to 14) (size 15 to 20)
#    0.000    0.667    5.000    4.000    2.333    1.333 
#    0.000    1.667    0.000    0.000    0.000    0.000 
#    0.000    0.000    0.000    0.000    0.000    0.000 
#
# Total GULP energy -133740.904091 kJ/mol
# GULP energy per Si atom -5572.537670 kJ/mol
# Density = 2.311717 g / cm^3
# Si number density = 23.169904 Si / 1000 Ang^3
#
#
#
# Elastic Constant Matrix: (Units=GPa)
#
#
# Indices 1 2 3 4 5 6 
#
# 1 98.8662 44.6240 44.8585 0.0000 -7.5098 0.0000
# 2 44.6240 126.6910 33.8435 0.0000 -15.3917 0.0000
# 3 44.8585 33.8435 73.2200 0.0000 -6.0166 0.0000
# 4 0.0000 0.0000 0.0000 33.3835 0.0000 3.5483
# 5 -7.5098 -15.3917 -6.0166 0.0000 44.9502 0.0000
# 6 0.0000 0.0000 0.0000 3.5483 0.0000 40.5864
#
#
#
# Elastic Compliance Matrix: (Units=1/GPa)
#
#
# Indices 1 2 3 4 5 6 
#
# 1 0.015102 -0.003205 -0.007739 0.000000 0.000390 0.000000
# 2 -0.003205 0.009985 -0.002442 0.000000 0.002557 0.000000
# 3 -0.007739 -0.002442 0.019568 0.000000 0.000490 0.000000
# 4 0.000000 0.000000 0.000000 0.030236 0.000000 -0.002643
# 5 0.000390 0.002557 0.000490 0.000000 0.023253 0.000000
# 6 0.000000 0.000000 0.000000 -0.002643 0.000000 0.024870
#
#
# Mechanical properties :
#
#
# Convention : Reuss Voigt Hill
#
# Bulk Modulus (GPa) = 55.91654 60.60323 58.25988
# Shear Modulus (GPa) = 32.10356 35.48078 33.79217
#
# Velocity S-wave (km/s) = 3.72637 3.91747 3.82311
# Velocity P-wave (km/s) = 6.53453 6.83190 6.68487
#
# Compressibility (1/GPa) = 0.01788380
#
# Stress axis : x y z
#
# Youngs Moduli (GPa) = 66.21547 100.15146 51.10450
#
# Poissons Ratio (x) = 0.32095 0.39550
# Poissons Ratio (y) = 0.21220 0.12478
# Poissons Ratio (z) = 0.51245 0.24454
#
# Static dielectric constant tensor:
#      x y z
#    x 1.996430 0.000000 0.030610 
#    y 0.000000 1.961630 0.000000 
#    z 0.030610 0.000000 1.955060 
# 
# From -- ./inp_files/70982.got.cif
#   From: 2010.05.17/outbox.cif.g08.bks.cpg/sg14_36_cif.got.tgz:70982.got - 2010.06.03 17:49:19.
