data_PCOD9251545
_publ_section_title
;
Structure prediction by ZEFSAII (Michael W. Deem and Ramdas Pophale) SiO2 
 PCOD9251545
Probable space group: P 21/C
;
_chemical_formula_sum "Si O2"
_cell_formula_units_Z 28
_cell_length_a 14.670311
_cell_length_b 9.103713
_cell_length_c 13.056330
_cell_angle_alpha 90.000000
_cell_angle_beta 135.736032
_cell_angle_gamma 90.000000
_cell_volume 1217.061943
_symmetry_space_group_name_H-M "P 21/C"
_symmetry_group_IT_number 14
_symmetry_cell_setting 'monoclinic'
loop_
_space_group_symop_operation_xyz
x,y,z
-x,1/2+y,1/2-z
-x,-y,-z
x,1/2-y,1/2+z
loop_
_atom_site_type_symbol
_atom_site_label
_atom_site_fract_x
_atom_site_fract_y
_atom_site_fract_z
Si Si1 0.539305 0.938538 0.205465
Si Si2 0.878310 0.404541 0.158555
Si Si3 0.256820 0.838035 0.048891
Si Si4 0.146491 0.042798 0.790228
Si Si5 0.295292 0.166645 0.474504
Si Si6 0.186304 0.761298 0.709342
Si Si7 0.481236 0.722395 0.449690
O O1 0.401895 0.903348 0.153055
O O2 0.652769 0.871326 0.369112
O O3 0.537227 0.108315 0.162411
O O4 0.538663 0.855460 0.096007
O O5 0.909270 0.316472 0.287336
O O6 0.999062 0.402683 0.178854
O O7 0.755376 0.325133 0.006404
O O8 0.827546 0.564271 0.144882
O O9 0.189941 0.819043 0.104396
O O10 0.166716 0.933676 0.902150
O O11 0.169565 0.938013 0.709982
O O12 0.246977 0.172259 0.898682
O O13 0.424363 0.147978 0.509502
O O14 0.335975 0.734426 0.863463
#
# Coordination Sequence:
#
# PCOD9251545 Si02
#       7
#     4   4   4   4   4   4   4
#     4  11  22  40  67 101 132 171 222 280 347 409
#     4  11  26  44  64  99 137 182 234 277 340 412
#     4  11  22  45  70  94 138 179 226 287 343 406
#     4  11  24  47  68  93 143 184 223 281 334 413
#     4  12  24  39  72 103 133 180 227 283 347 411
#     4  11  23  45  69  97 134 183 223 287 348 398
#     4  11  21  41  67 100 137 167 221 283 349 403
#
# _framework density 23.006225000000001
#
# number of rings (size 3 to 8) (size 9 to 14) (size 15 to 20)
#    0.000    0.857    5.714    3.429    0.000    2.857 
#    0.000    4.286    0.000    0.000    0.000    0.000 
#    0.000    0.000    0.000    0.000    0.000    0.000 
#
# Total GULP energy -156128.252951 kJ/mol
# GULP energy per Si atom -5576.009034 kJ/mol
# Density = 2.295386 g / cm^3
# Si number density = 23.006225 Si / 1000 Ang^3
#
#
#
# Elastic Constant Matrix: (Units=GPa)
#
#
# Indices 1 2 3 4 5 6 
#
# 1 81.5591 -9.3782 0.5683 0.0000 12.4512 0.0000
# 2 -9.3782 22.8080 9.3533 0.0000 3.7776 0.0000
# 3 0.5683 9.3533 35.8545 0.0000 5.7536 0.0000
# 4 0.0000 0.0000 0.0000 23.0964 0.0000 4.8449
# 5 12.4512 3.7776 5.7536 0.0000 30.7892 0.0000
# 6 0.0000 0.0000 0.0000 4.8449 0.0000 38.0299
#
#
#
# Elastic Compliance Matrix: (Units=1/GPa)
#
#
# Indices 1 2 3 4 5 6 
#
# 1 0.014083 0.007300 -0.001103 0.000000 -0.006385 0.000000
# 2 0.007300 0.053303 -0.012884 0.000000 -0.007085 0.000000
# 3 -0.001103 -0.012884 0.031900 0.000000 -0.003934 0.000000
# 4 0.000000 0.000000 0.000000 0.044486 0.000000 -0.005667
# 5 -0.006385 -0.007085 -0.003934 0.000000 0.036665 0.000000
# 6 0.000000 0.000000 0.000000 -0.005667 0.000000 0.027017
#
#
# Mechanical properties :
#
#
# Convention : Reuss Voigt Hill
#
# Bulk Modulus (GPa) = 11.63966 15.70094 13.67030
# Shear Modulus (GPa) = 20.04287 27.69498 23.86893
#
# Velocity S-wave (km/s) = 2.95480 3.47335 3.22452
# Velocity P-wave (km/s) = 4.08797 4.78801 4.45177
#
# Compressibility (1/GPa) = 0.08591315
#
# Stress axis : x y z
#
# Youngs Moduli (GPa) = 71.00809 18.76066 31.34761
#
# Poissons Ratio (x) = -0.13696 0.03458
# Poissons Ratio (y) = -0.51839 0.40388
# Poissons Ratio (z) = 0.07833 0.24171
#
# Static dielectric constant tensor:
#      x y z
#    x 1.869470 0.000000 -0.026070 
#    y 0.000000 1.923570 0.000000 
#    z -0.026070 0.000000 1.932330 
# 
# From -- ./inp_files/46566.got.cif
#   From: 2010.05.17/outbox.cif.g08.bks.cpg/sg14_24_cif.got.tgz:46566.got - 2010.06.03 17:49:19.
