data_PCOD9251087
_publ_section_title
;
Structure prediction by ZEFSAII (Michael W. Deem and Ramdas Pophale) SiO2 
 PCOD9251087
Probable space group: P 21/C
;
_chemical_formula_sum "Si O2"
_cell_formula_units_Z 26
_cell_length_a 22.944550
_cell_length_b 11.293040
_cell_length_c 8.342789
_cell_angle_alpha 90.000000
_cell_angle_beta 33.776357
_cell_angle_gamma 90.000000
_cell_volume 1201.820164
_symmetry_space_group_name_H-M "P 21/C"
_symmetry_group_IT_number 14
_symmetry_cell_setting 'monoclinic'
loop_
_space_group_symop_operation_xyz
x,y,z
-x,1/2+y,1/2-z
-x,-y,-z
x,1/2-y,1/2+z
loop_
_atom_site_type_symbol
_atom_site_label
_atom_site_fract_x
_atom_site_fract_y
_atom_site_fract_z
Si Si1 0.722439 0.856371 0.716327
Si Si2 0.625353 0.276563 0.083453
Si Si3 0.848136 0.809113 0.735335
Si Si4 0.247706 0.617361 0.932128
Si Si5 0.000000 0.000000 0.500000
Si Si6 0.978270 0.101341 0.181787
Si Si7 0.498411 0.121187 0.603847
O O1 0.813608 0.851516 0.640362
O O2 0.745056 0.745217 0.552889
O O3 0.739048 0.977391 0.582100
O O4 0.612191 0.858789 0.057824
O O5 0.667182 0.164679 0.888788
O O6 0.720765 0.322760 0.973469
O O7 0.532756 0.228729 0.408737
O O8 0.584013 0.372907 0.051732
O O9 0.897636 0.914746 0.722032
O O10 0.936582 0.706724 0.522053
O O11 0.134990 0.650052 0.117257
O O12 0.021464 0.953104 0.640648
O O13 0.000000 0.000000 0.000000
O O14 0.500000 0.000000 0.500000
#
# Coordination Sequence:
#
# PCOD9251087 Si02
#       7
#     4   4   4   4   2   4   4
#     4  12  24  45  70 104 142 186 240 305 366 441
#     4  10  25  47  71 102 139 191 243 305 372 442
#     4  12  25  46  71 107 145 189 246 295 367 442
#     4  11  24  45  71 102 142 189 245 295 370 444
#     4  12  26  46  74 100 150 196 238 300 370 426
#     4  12  26  48  72 107 149 194 247 303 365 447
#     4  11  23  48  74 103 141 187 243 307 376 441
#
# _framework density 21.633851
#
# number of rings (size 3 to 8) (size 9 to 14) (size 15 to 20)
#    0.000    0.615    6.154    0.923    2.154    0.615 
#   11.077    0.000    0.000    0.000    0.000    0.000 
#    0.000    0.000    0.000    0.000    0.000    0.000 
#
# Total GULP energy -144831.117576 kJ/mol
# GULP energy per Si atom -5570.427599 kJ/mol
# Density = 2.158461 g / cm^3
# Si number density = 21.633851 Si / 1000 Ang^3
#
#
#
# Elastic Constant Matrix: (Units=GPa)
#
#
# Indices 1 2 3 4 5 6 
#
# 1 137.6431 23.5410 6.9048 0.0000 5.1950 0.0000
# 2 23.5410 51.9396 17.8355 0.0000 1.5800 0.0000
# 3 6.9048 17.8355 92.1097 0.0000 -7.2742 0.0000
# 4 0.0000 0.0000 0.0000 24.5341 0.0000 -5.0637
# 5 5.1950 1.5800 -7.2742 0.0000 26.2545 0.0000
# 6 0.0000 0.0000 0.0000 -5.0637 0.0000 34.2247
#
#
#
# Elastic Compliance Matrix: (Units=1/GPa)
#
#
# Indices 1 2 3 4 5 6 
#
# 1 0.007923 -0.003545 -0.000015 0.000000 -0.001359 0.000000
# 2 -0.003545 0.022359 -0.004207 0.000000 -0.001810 0.000000
# 3 -0.000015 -0.004207 0.011954 0.000000 0.003568 0.000000
# 4 0.000000 0.000000 0.000000 0.042043 0.000000 0.006220
# 5 -0.001359 -0.001810 0.003568 0.000000 0.039455 0.000000
# 6 0.000000 0.000000 0.000000 0.006220 0.000000 0.030139
#
#
# Mechanical properties :
#
#
# Convention : Reuss Voigt Hill
#
# Bulk Modulus (GPa) = 37.44734 42.02833 39.73783
# Shear Modulus (GPa) = 28.04132 32.56342 30.30237
#
# Velocity S-wave (km/s) = 3.60415 3.88391 3.74664
# Velocity P-wave (km/s) = 5.88787 6.29145 6.09300
#
# Compressibility (1/GPa) = 0.02670417
#
# Stress axis : x y z
#
# Youngs Moduli (GPa) = 126.20764 44.72408 83.65348
#
# Poissons Ratio (x) = 0.15854 0.00124
# Poissons Ratio (y) = 0.44738 0.35191
# Poissons Ratio (z) = 0.00188 0.18814
#
# Static dielectric constant tensor:
#      x y z
#    x 1.788120 0.000000 0.005040 
#    y 0.000000 1.789630 0.000000 
#    z 0.005040 0.000000 1.816400 
# 
# From -- ./inp_files/19468.got.cif
#   From: 2010.05.17/outbox.cif.g08.bks.cpg/sg14_10_cif.got.tgz:19468.got - 2010.06.03 17:49:19.
