data_PCOD9251677
_publ_section_title
;
Structure prediction by ZEFSAII (Michael W. Deem and Ramdas Pophale) SiO2 
 PCOD9251677
Probable space group: P 21/C
;
_chemical_formula_sum "Si O2"
_cell_formula_units_Z 32
_cell_length_a 27.519077
_cell_length_b 8.922773
_cell_length_c 10.099374
_cell_angle_alpha 90.000000
_cell_angle_beta 42.936353
_cell_angle_gamma 90.000000
_cell_volume 1689.248600
_symmetry_space_group_name_H-M "P 21/C"
_symmetry_group_IT_number 14
_symmetry_cell_setting 'monoclinic'
loop_
_space_group_symop_operation_xyz
x,y,z
-x,1/2+y,1/2-z
-x,-y,-z
x,1/2-y,1/2+z
loop_
_atom_site_type_symbol
_atom_site_label
_atom_site_fract_x
_atom_site_fract_y
_atom_site_fract_z
Si Si1 0.085118 0.392959 0.748513
Si Si2 0.431143 0.417406 0.467418
Si Si3 0.076749 0.595391 0.004253
Si Si4 0.554747 0.851374 0.758484
Si Si5 0.272711 0.122173 0.315774
Si Si6 0.713378 0.596245 0.904690
Si Si7 0.851933 0.413700 0.613995
Si Si8 0.876216 0.552266 0.846735
O O1 0.104419 0.466035 0.850743
O O2 0.110666 0.509391 0.586260
O O3 0.118476 0.230680 0.663736
O O4 0.000393 0.366157 0.902230
O O5 0.443639 0.337252 0.585359
O O6 0.444386 0.304319 0.320895
O O7 0.485701 0.553962 0.356612
O O8 0.347404 0.457946 0.633870
O O9 0.126406 0.740690 0.916898
O O10 0.068305 0.524910 0.166338
O O11 0.628661 0.935086 0.569922
O O12 0.273331 0.155852 0.472174
O O13 0.270736 0.272427 0.232040
O O14 0.202739 0.021736 0.436430
O O15 0.768155 0.459300 0.774363
O O16 0.880487 0.491314 0.690823
#
# Coordination Sequence:
#
# PCOD9251677 Si02
#       8
#     4   4   4   4   4   4   4   4
#     4  11  23  40  61  81 110 149 188 226 281 345
#     4   9  18  34  55  80 113 144 185 229 271 323
#     4  11  25  39  56  86 114 143 183 237 288 330
#     4   9  18  34  56  81 113 147 183 228 274 324
#     4   9  18  33  57  82 104 145 194 226 266 333
#     4   9  18  34  57  80 110 148 186 230 276 328
#     4  11  22  38  58  83 116 143 185 238 284 327
#     4  11  22  38  60  81 109 150 193 226 277 342
#
# _framework density 18.943332999999999
#
# number of rings (size 3 to 8) (size 9 to 14) (size 15 to 20)
#    0.000    2.000    1.250    2.250    1.750    4.500 
#    2.250    0.000    2.750    0.000    0.000    0.000 
#    0.000    0.000    0.000    0.000    0.000    0.000 
#
# Total GULP energy -178483.385291 kJ/mol
# GULP energy per Si atom -5577.605790 kJ/mol
# Density = 1.890022 g / cm^3
# Si number density = 18.943333 Si / 1000 Ang^3
#
#
#
# Elastic Constant Matrix: (Units=GPa)
#
#
# Indices 1 2 3 4 5 6 
#
# 1 39.6116 6.5690 -3.2740 0.0000 -4.8769 0.0000
# 2 6.5690 38.8711 -2.7294 0.0000 -5.0297 0.0000
# 3 -3.2740 -2.7294 41.1489 0.0000 0.9551 0.0000
# 4 0.0000 0.0000 0.0000 20.6402 0.0000 -1.5143
# 5 -4.8769 -5.0297 0.9551 0.0000 23.7778 0.0000
# 6 0.0000 0.0000 0.0000 -1.5143 0.0000 29.6522
#
#
#
# Elastic Compliance Matrix: (Units=1/GPa)
#
#
# Indices 1 2 3 4 5 6 
#
# 1 0.026581 -0.003776 0.001758 0.000000 0.004583 0.000000
# 2 -0.003776 0.027095 0.001383 0.000000 0.004902 0.000000
# 3 0.001758 0.001383 0.024541 0.000000 -0.000333 0.000000
# 4 0.000000 0.000000 0.000000 0.048631 0.000000 0.002483
# 5 0.004583 0.004902 -0.000333 0.000000 0.044046 0.000000
# 6 0.000000 0.000000 0.000000 0.002483 0.000000 0.033851
#
#
# Mechanical properties :
#
#
# Convention : Reuss Voigt Hill
#
# Bulk Modulus (GPa) = 12.99568 13.41809 13.20688
# Shear Modulus (GPa) = 21.58293 22.75178 22.16736
#
# Velocity S-wave (km/s) = 3.37908 3.46937 3.42452
# Velocity P-wave (km/s) = 4.70100 4.81117 4.75640
#
# Compressibility (1/GPa) = 0.07694866
#
# Stress axis : x y z
#
# Youngs Moduli (GPa) = 37.62117 36.90659 40.74763
#
# Poissons Ratio (x) = 0.13935 -0.07164
# Poissons Ratio (y) = 0.14204 -0.05636
# Poissons Ratio (z) = -0.06614 -0.05104
#
# Static dielectric constant tensor:
#      x y z
#    x 1.675020 0.000000 -0.027680 
#    y 0.000000 1.606390 0.000000 
#    z -0.027680 0.000000 1.689000 
# 
# From -- ./inp_files/36365.got.cif
#   From: 2010.05.17/outbox.cif.g08.bks.cpg/sg14_19_cif.got.tgz:36365.got - 2010.06.03 17:49:19.
