data_PCOD9251250
_publ_section_title
;
Structure prediction by ZEFSAII (Michael W. Deem and Ramdas Pophale) SiO2 
 PCOD9251250
Probable space group: P 21/C
;
_chemical_formula_sum "Si O2"
_cell_formula_units_Z 32
_cell_length_a 18.822412
_cell_length_b 6.091241
_cell_length_c 24.160119
_cell_angle_alpha 90.000000
_cell_angle_beta 150.810720
_cell_angle_gamma 90.000000
_cell_volume 1350.919941
_symmetry_space_group_name_H-M "P 21/C"
_symmetry_group_IT_number 14
_symmetry_cell_setting 'monoclinic'
loop_
_space_group_symop_operation_xyz
x,y,z
-x,1/2+y,1/2-z
-x,-y,-z
x,1/2-y,1/2+z
loop_
_atom_site_type_symbol
_atom_site_label
_atom_site_fract_x
_atom_site_fract_y
_atom_site_fract_z
Si Si1 0.167754 0.786192 0.869784
Si Si2 0.846996 0.345899 0.020063
Si Si3 0.384187 0.425618 0.967690
Si Si4 0.546498 0.540410 0.422904
Si Si5 0.464473 0.633436 0.703894
Si Si6 0.057054 0.100653 0.095128
Si Si7 0.975042 0.287708 0.840914
Si Si8 0.722884 0.864972 0.199292
O O1 0.101089 0.735860 0.884200
O O2 0.283598 0.605235 0.927305
O O3 0.048076 0.782818 0.740598
O O4 0.281872 0.985177 0.955134
O O5 0.947883 0.293658 0.037120
O O6 0.866310 0.606564 0.039187
O O7 0.700275 0.219031 0.909669
O O8 0.283903 0.267253 0.862357
O O9 0.500000 0.500000 0.000000
O O10 0.463233 0.298426 0.071509
O O11 0.492030 0.441901 0.328285
O O12 0.439233 0.441045 0.396133
O O13 0.467076 0.382871 0.734673
O O14 0.215382 0.207584 0.210250
O O15 0.039648 0.929287 0.133447
O O16 0.000000 0.000000 0.000000
O O17 0.837093 0.437487 0.767423
#
# Coordination Sequence:
#
# PCOD9251250 Si02
#       8
#     4   4   4   4   4   4   4   4
#     4  11  23  42  69 106 146 188 239 309 388 461
#     4  10  28  45  71 106 142 194 251 312 380 459
#     4  12  22  38  70 105 149 182 240 307 386 458
#     4  11  25  41  72 104 149 187 246 319 378 459
#     4  11  29  51  77 109 148 201 259 319 389 462
#     4  11  27  46  69  96 139 192 249 300 374 457
#     4  11  24  43  69 101 145 188 234 306 378 459
#     4  11  23  41  65 107 131 189 236 300 382 442
#
# _framework density 23.687560000000001
#
# number of rings (size 3 to 8) (size 9 to 14) (size 15 to 20)
#    0.000    1.000    3.750    1.125    8.750    4.000 
#    0.000    0.000    0.000    0.000    0.000    0.000 
#    0.000    0.000    0.000    0.000    0.000    0.000 
#
# Total GULP energy -178308.795885 kJ/mol
# GULP energy per Si atom -5572.149871 kJ/mol
# Density = 2.363365 g / cm^3
# Si number density = 23.687560 Si / 1000 Ang^3
#
#
#
# Elastic Constant Matrix: (Units=GPa)
#
#
# Indices 1 2 3 4 5 6 
#
# 1 59.6084 8.7297 6.5255 0.0000 -2.1043 0.0000
# 2 8.7297 81.9106 30.4641 0.0000 -3.2683 0.0000
# 3 6.5255 30.4641 68.0342 0.0000 -12.7803 0.0000
# 4 0.0000 0.0000 0.0000 41.1019 0.0000 -4.6696
# 5 -2.1043 -3.2683 -12.7803 0.0000 21.4698 0.0000
# 6 0.0000 0.0000 0.0000 -4.6696 0.0000 25.3721
#
#
#
# Elastic Compliance Matrix: (Units=1/GPa)
#
#
# Indices 1 2 3 4 5 6 
#
# 1 0.017116 -0.001491 -0.000790 0.000000 0.000980 0.000000
# 2 -0.001491 0.014846 -0.006876 0.000000 -0.001980 0.000000
# 3 -0.000790 -0.006876 0.019863 0.000000 0.010700 0.000000
# 4 0.000000 0.000000 0.000000 0.024849 0.000000 0.004573
# 5 0.000980 -0.001980 0.010700 0.000000 0.052741 0.000000
# 6 0.000000 0.000000 0.000000 0.004573 0.000000 0.040255
#
#
# Mechanical properties :
#
#
# Convention : Reuss Voigt Hill
#
# Bulk Modulus (GPa) = 29.84190 33.44353 31.64271
# Shear Modulus (GPa) = 25.10604 28.51102 26.80853
#
# Velocity S-wave (km/s) = 3.25912 3.47310 3.36781
# Velocity P-wave (km/s) = 5.17571 5.49841 5.33949
#
# Compressibility (1/GPa) = 0.03350993
#
# Stress axis : x y z
#
# Youngs Moduli (GPa) = 58.42618 67.35879 50.34408
#
# Poissons Ratio (x) = 0.10045 0.03976
# Poissons Ratio (y) = 0.08713 0.34619
# Poissons Ratio (z) = 0.04614 0.46319
#
# Static dielectric constant tensor:
#      x y z
#    x 1.848090 0.000000 0.017340 
#    y 0.000000 2.086070 0.000000 
#    z 0.017340 0.000000 1.992080 
# 
# From -- ./inp_files/74555.got.cif
#   From: 2010.05.17/outbox.cif.g08.bks.cpg/sg14_38_cif.got.tgz:74555.got - 2010.06.03 17:49:19.
