data_PCOD9251318
_publ_section_title
;
Structure prediction by ZEFSAII (Michael W. Deem and Ramdas Pophale) SiO2 
 PCOD9251318
Probable space group: P 21/C
;
_chemical_formula_sum "Si O2"
_cell_formula_units_Z 28
_cell_length_a 25.502119
_cell_length_b 9.764378
_cell_length_c 14.404342
_cell_angle_alpha 90.000000
_cell_angle_beta 18.478497
_cell_angle_gamma 90.000000
_cell_volume 1136.850328
_symmetry_space_group_name_H-M "P 21/C"
_symmetry_group_IT_number 14
_symmetry_cell_setting 'monoclinic'
loop_
_space_group_symop_operation_xyz
x,y,z
-x,1/2+y,1/2-z
-x,-y,-z
x,1/2-y,1/2+z
loop_
_atom_site_type_symbol
_atom_site_label
_atom_site_fract_x
_atom_site_fract_y
_atom_site_fract_z
Si Si1 0.352067 0.253788 0.526881
Si Si2 0.869607 0.214667 0.611030
Si Si3 0.800465 0.340721 0.443694
Si Si4 0.130660 0.440057 0.997743
Si Si5 0.338169 0.553294 0.020120
Si Si6 0.678369 0.443569 0.168090
Si Si7 0.152684 0.100924 0.203245
O O1 0.267064 0.322620 0.757512
O O2 0.517388 0.334650 0.225699
O O3 0.376338 0.093640 0.497963
O O4 0.228193 0.301242 0.652650
O O5 0.840332 0.218597 0.772314
O O6 0.064795 0.192011 0.273479
O O7 0.805653 0.073544 0.671600
O O8 0.803399 0.360142 0.690550
O O9 0.687377 0.220409 0.672100
O O10 0.726124 0.489520 0.544207
O O11 0.960570 0.378800 0.239554
O O12 0.159641 0.499583 0.050719
O O13 0.303517 0.521543 0.970409
O O14 0.500000 0.500000 0.500000
O O15 0.000000 0.000000 0.500000
#
# Coordination Sequence:
#
# PCOD9251318 Si02
#       7
#     4   4   4   4   4   4   4
#     4  12  21  38  64  94 122 165 220 261 326 373
#     4   9  17  39  65  90 116 157 217 266 312 377
#     4   9  18  38  63  93 115 167 219 256 319 391
#     4  11  19  41  66  92 126 170 207 269 331 376
#     4  11  26  37  64  97 128 166 217 266 320 390
#     4  11  24  40  63  90 137 172 206 265 335 386
#     4   9  16  34  67  89 113 156 209 272 310 364
#
# _framework density 24.629452000000001
#
# number of rings (size 3 to 8) (size 9 to 14) (size 15 to 20)
#    0.000    1.714    7.143    1.286    2.000    0.571 
#    5.143    0.000    0.000    2.571    0.000    0.000 
#    0.000    0.000    0.000    0.000    0.000    0.000 
#
# Total GULP energy -155940.418636 kJ/mol
# GULP energy per Si atom -5569.300666 kJ/mol
# Density = 2.457339 g / cm^3
# Si number density = 24.629452 Si / 1000 Ang^3
#
#
#
# Elastic Constant Matrix: (Units=GPa)
#
#
# Indices 1 2 3 4 5 6 
#
# 1 57.6763 21.0652 28.2073 0.0000 -3.4727 0.0000
# 2 21.0652 195.1741 51.4224 0.0000 -5.2735 0.0000
# 3 28.2073 51.4224 51.6809 0.0000 -5.6294 0.0000
# 4 0.0000 0.0000 0.0000 47.2137 0.0000 -4.5401
# 5 -3.4727 -5.2735 -5.6294 0.0000 25.1649 0.0000
# 6 0.0000 0.0000 0.0000 -4.5401 0.0000 22.4872
#
#
#
# Elastic Compliance Matrix: (Units=1/GPa)
#
#
# Indices 1 2 3 4 5 6 
#
# 1 0.023847 0.001158 -0.014127 0.000000 0.000373 0.000000
# 2 0.001158 0.007001 -0.007606 0.000000 -0.000075 0.000000
# 3 -0.014127 -0.007606 0.035097 0.000000 0.004308 0.000000
# 4 0.000000 0.000000 0.000000 0.021600 0.000000 0.004361
# 5 0.000373 -0.000075 0.004308 0.000000 0.040738 0.000000
# 6 0.000000 0.000000 0.000000 0.004361 0.000000 0.045350
#
#
# Mechanical properties :
#
#
# Convention : Reuss Voigt Hill
#
# Bulk Modulus (GPa) = 40.33115 56.21345 48.27230
# Shear Modulus (GPa) = 22.41684 32.56225 27.48955
#
# Velocity S-wave (km/s) = 3.02017 3.63999 3.34447
# Velocity P-wave (km/s) = 5.34533 6.36705 5.87843
#
# Compressibility (1/GPa) = 0.02479473
#
# Stress axis : x y z
#
# Youngs Moduli (GPa) = 41.93449 142.84688 28.49219
#
# Poissons Ratio (x) = -0.16548 0.40252
# Poissons Ratio (y) = -0.04858 0.21671
# Poissons Ratio (z) = 0.59243 1.08648
#
# Static dielectric constant tensor:
#      x y z
#    x 2.132930 0.000000 -0.012740 
#    y 0.000000 2.070110 0.000000 
#    z -0.012740 0.000000 2.104240 
# 
# From -- ./inp_files/62582.got.cif
#   From: 2010.05.17/outbox.cif.g08.bks.cpg/sg14_32_cif.got.tgz:62582.got - 2010.06.03 17:49:19.
