data_PCOD9251196
_publ_section_title
;
Structure prediction by ZEFSAII (Michael W. Deem and Ramdas Pophale) SiO2 
 PCOD9251196
Probable space group: P 21/C
;
_chemical_formula_sum "Si O2"
_cell_formula_units_Z 20
_cell_length_a 18.404825
_cell_length_b 5.249115
_cell_length_c 9.851148
_cell_angle_alpha 90.000000
_cell_angle_beta 55.752645
_cell_angle_gamma 90.000000
_cell_volume 786.698440
_symmetry_space_group_name_H-M "P 21/C"
_symmetry_group_IT_number 14
_symmetry_cell_setting 'monoclinic'
loop_
_space_group_symop_operation_xyz
x,y,z
-x,1/2+y,1/2-z
-x,-y,-z
x,1/2-y,1/2+z
loop_
_atom_site_type_symbol
_atom_site_label
_atom_site_fract_x
_atom_site_fract_y
_atom_site_fract_z
Si Si1 0.063176 0.204198 0.360559
Si Si2 0.275570 0.687403 0.938781
Si Si3 0.335093 0.322414 0.513401
Si Si4 0.412246 0.038707 0.676431
Si Si5 0.111169 0.537884 0.540232
O O1 0.125547 0.345964 0.401129
O O2 0.114775 0.086164 0.182958
O O3 0.991256 0.392838 0.370813
O O4 0.000000 0.000000 0.500000
O O5 0.288128 0.906807 0.041825
O O6 0.354281 0.783152 0.757464
O O7 0.285483 0.412654 0.993098
O O8 0.181510 0.736348 0.967618
O O9 0.580083 0.644052 0.677745
O O10 0.357257 0.233699 0.640247
O O11 0.500000 0.000000 0.500000
#
# Coordination Sequence:
#
# PCOD9251196 Si02
#       5
#     4   4   4   4   4
#     4  11  24  43  67  98 138 179 239 285 362 412
#     4  10  27  43  75 100 147 179 242 288 357 416
#     4  10  26  46  69 108 136 191 229 292 349 419
#     4  10  26  46  75 102 146 183 238 290 354 422
#     4  11  25  43  70 100 134 189 228 301 345 431
#
# _framework density 25.422701
#
# number of rings (size 3 to 8) (size 9 to 14) (size 15 to 20)
#    1.200    0.400    2.000    0.000   11.200    2.400 
#    0.000    0.000    0.000    0.000    0.000    0.000 
#    0.000    0.000    0.000    0.000    0.000    0.000 
#
# Total GULP energy -111824.667399 kJ/mol
# GULP energy per Si atom -5591.233370 kJ/mol
# Density = 2.536484 g / cm^3
# Si number density = 25.422701 Si / 1000 Ang^3
#
#
#
# Elastic Constant Matrix: (Units=GPa)
#
#
# Indices 1 2 3 4 5 6 
#
# 1 39.9355 7.3680 22.0348 0.0000 5.0445 0.0000
# 2 7.3680 96.5148 11.4976 0.0000 7.9838 0.0000
# 3 22.0348 11.4976 86.1954 0.0000 9.0858 0.0000
# 4 0.0000 0.0000 0.0000 38.1241 0.0000 6.1335
# 5 5.0445 7.9838 9.0858 0.0000 43.1902 0.0000
# 6 0.0000 0.0000 0.0000 6.1335 0.0000 35.5394
#
#
#
# Elastic Compliance Matrix: (Units=1/GPa)
#
#
# Indices 1 2 3 4 5 6 
#
# 1 0.029449 -0.001252 -0.007182 0.000000 -0.001697 0.000000
# 2 -0.001252 0.010703 -0.000935 0.000000 -0.001636 0.000000
# 3 -0.007182 -0.000935 0.013761 0.000000 -0.001883 0.000000
# 4 0.000000 0.000000 0.000000 0.026979 0.000000 -0.004656
# 5 -0.001697 -0.001636 -0.001883 0.000000 0.024050 0.000000
# 6 0.000000 0.000000 0.000000 -0.004656 0.000000 0.028941
#
#
# Mechanical properties :
#
#
# Convention : Reuss Voigt Hill
#
# Bulk Modulus (GPa) = 28.43036 33.82738 31.12887
# Shear Modulus (GPa) = 30.42335 35.48710 32.95523
#
# Velocity S-wave (km/s) = 3.46309 3.74020 3.60431
# Velocity P-wave (km/s) = 5.21517 5.65571 5.43990
#
# Compressibility (1/GPa) = 0.03517367
#
# Stress axis : x y z
#
# Youngs Moduli (GPa) = 33.95738 93.42826 72.66986
#
# Poissons Ratio (x) = 0.11698 0.52194
# Poissons Ratio (y) = 0.04252 0.06796
# Poissons Ratio (z) = 0.24389 0.08738
#
# Static dielectric constant tensor:
#      x y z
#    x 2.386420 0.000000 0.073440 
#    y 0.000000 2.042970 0.000000 
#    z 0.073440 0.000000 2.028770 
# 
# From -- ./inp_files/33324.got.cif
#   From: 2010.05.17/outbox.cif.g08.bks.cpg/sg14_17_cif.got.tgz:33324.got - 2010.06.03 17:49:19.
