data_PCOD9251155
_publ_section_title
;
Structure prediction by ZEFSAII (Michael W. Deem and Ramdas Pophale) SiO2 
 PCOD9251155
Probable space group: P 21/C
;
_chemical_formula_sum "Si O2"
_cell_formula_units_Z 28
_cell_length_a 12.169001
_cell_length_b 8.629805
_cell_length_c 14.125399
_cell_angle_alpha 90.000000
_cell_angle_beta 64.288474
_cell_angle_gamma 90.000000
_cell_volume 1336.523167
_symmetry_space_group_name_H-M "P 21/C"
_symmetry_group_IT_number 14
_symmetry_cell_setting 'monoclinic'
loop_
_space_group_symop_operation_xyz
x,y,z
-x,1/2+y,1/2-z
-x,-y,-z
x,1/2-y,1/2+z
loop_
_atom_site_type_symbol
_atom_site_label
_atom_site_fract_x
_atom_site_fract_y
_atom_site_fract_z
Si Si1 0.778926 0.048657 0.757562
Si Si2 0.036689 0.353347 0.921495
Si Si3 0.671138 0.341829 0.754242
Si Si4 0.436726 0.324595 0.714727
Si Si5 0.792398 0.170984 0.965265
Si Si6 0.756542 0.893262 0.128211
Si Si7 0.439399 0.664897 0.003345
O O1 0.770345 0.207640 0.700634
O O2 0.789400 0.094455 0.862629
O O3 0.888776 0.935163 0.690825
O O4 0.654393 0.963823 0.773267
O O5 0.132999 0.226706 0.925475
O O6 0.919045 0.256105 0.936172
O O7 0.000000 0.500000 0.000000
O O8 0.562905 0.363792 0.719252
O O9 0.746503 0.502326 0.728296
O O10 0.600254 0.290560 0.875597
O O11 0.364259 0.210996 0.813571
O O12 0.467367 0.253953 0.600039
O O13 0.687603 0.304525 0.004692
O O14 0.766655 0.027835 0.045848
O O15 0.500000 0.500000 0.000000
#
# Coordination Sequence:
#
# PCOD9251155 Si02
#       7
#     4   4   4   4   4   4   4
#     4  10  26  43  65 100 133 178 231 283 344 417
#     4  11  26  47  70  97 132 180 235 287 349 418
#     4  11  22  40  68  99 142 176 223 284 345 418
#     4  11  23  42  66 100 143 178 227 282 353 415
#     4  11  25  45  68  99 138 179 231 288 342 415
#     4  11  23  42  70  98 133 184 224 284 350 409
#     4  11  24  39  67 105 139 180 229 277 350 413
#
# _framework density 20.94988
#
# number of rings (size 3 to 8) (size 9 to 14) (size 15 to 20)
#    0.000    1.143    2.857    2.143    2.000    5.714 
#    0.000    0.000    0.000    0.000    0.000    0.000 
#    0.000    0.000    0.000    0.000    0.000    0.000 
#
# Total GULP energy -155963.589906 kJ/mol
# GULP energy per Si atom -5570.128211 kJ/mol
# Density = 2.090220 g / cm^3
# Si number density = 20.949880 Si / 1000 Ang^3
#
#
#
# Elastic Constant Matrix: (Units=GPa)
#
#
# Indices 1 2 3 4 5 6 
#
# 1 93.0333 63.9337 52.5558 0.0000 -14.3106 0.0000
# 2 63.9337 129.1472 44.1169 0.0000 -14.8244 0.0000
# 3 52.5558 44.1169 88.9653 0.0000 -1.9685 0.0000
# 4 0.0000 0.0000 0.0000 39.9434 0.0000 -2.5577
# 5 -14.3106 -14.8244 -1.9685 0.0000 26.2452 0.0000
# 6 0.0000 0.0000 0.0000 -2.5577 0.0000 33.8433
#
#
#
# Elastic Compliance Matrix: (Units=1/GPa)
#
#
# Indices 1 2 3 4 5 6 
#
# 1 0.021824 -0.006752 -0.009381 0.000000 0.007382 0.000000
# 2 -0.006752 0.012094 -0.001942 0.000000 0.003004 0.000000
# 3 -0.009381 -0.001942 0.017637 0.000000 -0.004889 0.000000
# 4 0.000000 0.000000 0.000000 0.025157 0.000000 0.001901
# 5 0.007382 0.003004 -0.004889 0.000000 0.043458 0.000000
# 6 0.000000 0.000000 0.000000 0.001901 0.000000 0.029692
#
#
# Mechanical properties :
#
#
# Convention : Reuss Voigt Hill
#
# Bulk Modulus (GPa) = 64.91401 70.26207 67.58804
# Shear Modulus (GPa) = 26.15815 30.04233 28.10024
#
# Velocity S-wave (km/s) = 3.53740 3.79094 3.66636
# Velocity P-wave (km/s) = 6.90919 7.26448 7.08906
#
# Compressibility (1/GPa) = 0.01540499
#
# Stress axis : x y z
#
# Youngs Moduli (GPa) = 45.82184 82.68692 56.69954
#
# Poissons Ratio (x) = 0.55829 0.53188
# Poissons Ratio (y) = 0.30938 0.11012
# Poissons Ratio (z) = 0.42984 0.16059
#
# Static dielectric constant tensor:
#      x y z
#    x 1.807140 0.000000 -0.108510 
#    y 0.000000 1.811070 0.000000 
#    z -0.108510 0.000000 1.972730 
# 
# From -- ./inp_files/43630.got.cif
#   From: 2010.05.17/outbox.cif.g08.bks.cpg/sg14_22_cif.got.tgz:43630.got - 2010.06.03 17:49:19.
