data_PCOD9251311
_publ_section_title
;
Structure prediction by ZEFSAII (Michael W. Deem and Ramdas Pophale) SiO2 
 PCOD9251311
Probable space group: P 21/C
;
_chemical_formula_sum "Si O2"
_cell_formula_units_Z 28
_cell_length_a 6.715081
_cell_length_b 7.539849
_cell_length_c 31.524063
_cell_angle_alpha 90.000000
_cell_angle_beta 55.898870
_cell_angle_gamma 90.000000
_cell_volume 1321.637258
_symmetry_space_group_name_H-M "P 21/C"
_symmetry_group_IT_number 14
_symmetry_cell_setting 'monoclinic'
loop_
_space_group_symop_operation_xyz
x,y,z
-x,1/2+y,1/2-z
-x,-y,-z
x,1/2-y,1/2+z
loop_
_atom_site_type_symbol
_atom_site_label
_atom_site_fract_x
_atom_site_fract_y
_atom_site_fract_z
Si Si1 0.254278 0.881118 0.238066
Si Si2 0.021641 0.648785 0.105573
Si Si3 0.543773 0.971980 0.700976
Si Si4 0.476383 0.686843 0.523439
Si Si5 0.800408 0.875168 0.544032
Si Si6 0.274494 0.233203 0.179297
Si Si7 0.395084 0.139537 0.577319
O O1 0.428109 0.952359 0.254926
O O2 0.256203 0.038392 0.202844
O O3 0.358003 0.687122 0.213961
O O4 0.981154 0.836934 0.285558
O O5 0.244733 0.783839 0.080860
O O6 0.154153 0.457928 0.090500
O O7 0.803230 0.622153 0.163235
O O8 0.897452 0.695449 0.076189
O O9 0.468272 0.140875 0.680855
O O10 0.500000 0.500000 0.500000
O O11 0.713758 0.729294 0.521525
O O12 0.468812 0.809281 0.482222
O O13 0.564603 0.994329 0.579213
O O14 0.000000 0.000000 0.500000
O O15 0.339113 0.222941 0.121412
#
# Coordination Sequence:
#
# PCOD9251311 Si02
#       7
#     4   4   4   4   4   4   4
#     4  12  26  46  70 100 141 180 231 289 349 414
#     4  11  22  42  69  94 129 177 224 270 333 416
#     4  12  25  45  71 102 134 181 232 283 349 417
#     4  11  25  42  60 100 142 167 219 290 331 400
#     4  11  19  39  69  86 122 180 214 252 330 399
#     4  12  25  44  73  99 136 179 227 292 349 410
#     4  11  22  41  68  95 128 175 221 271 340 404
#
# _framework density 21.185843999999999
#
# number of rings (size 3 to 8) (size 9 to 14) (size 15 to 20)
#    0.000    0.571    8.571    0.857    0.000    1.714 
#   10.286    0.000    0.000    0.000    0.000    0.000 
#    0.000    0.000    0.000    0.000    0.000    0.000 
#
# Total GULP energy -156107.494212 kJ/mol
# GULP energy per Si atom -5575.267650 kJ/mol
# Density = 2.113762 g / cm^3
# Si number density = 21.185844 Si / 1000 Ang^3
#
#
#
# Elastic Constant Matrix: (Units=GPa)
#
#
# Indices 1 2 3 4 5 6 
#
# 1 84.6029 14.3005 -5.5311 0.0000 2.1167 0.0000
# 2 14.3005 56.5161 -10.8140 0.0000 2.1663 0.0000
# 3 -5.5311 -10.8140 28.5374 0.0000 -10.4260 0.0000
# 4 0.0000 0.0000 0.0000 15.5901 0.0000 4.7366
# 5 2.1167 2.1663 -10.4260 0.0000 36.8347 0.0000
# 6 0.0000 0.0000 0.0000 4.7366 0.0000 26.1938
#
#
#
# Elastic Compliance Matrix: (Units=1/GPa)
#
#
# Indices 1 2 3 4 5 6 
#
# 1 0.012394 -0.002892 0.001236 0.000000 -0.000192 0.000000
# 2 -0.002892 0.019787 0.007331 0.000000 0.001078 0.000000
# 3 0.001236 0.007331 0.042245 0.000000 0.011455 0.000000
# 4 0.000000 0.000000 0.000000 0.067872 0.000000 -0.012273
# 5 -0.000192 0.001078 0.011455 0.000000 0.030338 0.000000
# 6 0.000000 0.000000 0.000000 -0.012273 0.000000 0.040396
#
#
# Mechanical properties :
#
#
# Convention : Reuss Voigt Hill
#
# Bulk Modulus (GPa) = 11.65819 18.39635 15.02727
# Shear Modulus (GPa) = 21.71313 27.17045 24.44179
#
# Velocity S-wave (km/s) = 3.20486 3.58506 3.40028
# Velocity P-wave (km/s) = 4.38288 5.08321 4.74598
#
# Compressibility (1/GPa) = 0.08577662
#
# Stress axis : x y z
#
# Youngs Moduli (GPa) = 80.68130 50.53711 23.67167
#
# Poissons Ratio (x) = 0.14617 -0.02926
# Poissons Ratio (y) = 0.23336 -0.17355
# Poissons Ratio (z) = -0.09972 -0.37051
#
# Static dielectric constant tensor:
#      x y z
#    x 1.823240 0.000000 -0.003260 
#    y 0.000000 1.800630 0.000000 
#    z -0.003260 0.000000 1.698940 
# 
# From -- ./inp_files/78762.got.cif
#   From: 2010.05.17/outbox.cif.g08.bks.cpg/sg14_40_cif.got.tgz:78762.got - 2010.06.03 17:49:19.
