data_PCOD9251024
_publ_section_title
;
Structure prediction by ZEFSAII (Michael W. Deem and Ramdas Pophale) SiO2 
 PCOD9251024
Probable space group: P 21/C
;
_chemical_formula_sum "Si O2"
_cell_formula_units_Z 20
_cell_length_a 5.284087
_cell_length_b 14.672469
_cell_length_c 10.445118
_cell_angle_alpha 90.000000
_cell_angle_beta 90.471917
_cell_angle_gamma 90.000000
_cell_volume 809.788825
_symmetry_space_group_name_H-M "P 21/C"
_symmetry_group_IT_number 14
_symmetry_cell_setting 'monoclinic'
loop_
_space_group_symop_operation_xyz
x,y,z
-x,1/2+y,1/2-z
-x,-y,-z
x,1/2-y,1/2+z
loop_
_atom_site_type_symbol
_atom_site_label
_atom_site_fract_x
_atom_site_fract_y
_atom_site_fract_z
Si Si1 0.310831 0.415780 0.491445
Si Si2 0.900535 0.431143 0.661121
Si Si3 0.248068 0.741616 0.856561
Si Si4 0.944427 0.401595 0.941570
Si Si5 0.260275 0.246674 0.317671
O O1 0.500000 0.500000 0.500000
O O2 0.120257 0.467158 0.390430
O O3 0.332025 0.318990 0.427661
O O4 0.192161 0.407789 0.631852
O O5 0.770173 0.345529 0.588504
O O6 0.811158 0.422128 0.805218
O O7 0.508141 0.740875 0.779625
O O8 0.005879 0.733097 0.758463
O O9 0.207467 0.664691 0.963471
O O10 0.193000 0.345215 0.896839
O O11 0.000000 0.500000 0.000000
#
# Coordination Sequence:
#
# PCOD9251024 Si02
#       5
#     4   4   4   4   4
#     4  11  25  44  75 104 152 198 254 312 379 470
#     4  10  25  45  69 108 144 198 252 306 389 449
#     4  11  26  48  75 108 152 195 250 326 381 460
#     4  11  25  48  77 109 153 199 260 319 387 466
#     4  11  27  47  75 110 149 197 251 315 397 450
#
# _framework density 24.697799
#
# number of rings (size 3 to 8) (size 9 to 14) (size 15 to 20)
#    0.000    1.200    2.000    1.200   14.000    3.200 
#    0.000    6.000    0.000    0.000    0.000    0.000 
#    0.000    0.000    0.000    0.000    0.000    0.000 
#
# Total GULP energy -111595.880151 kJ/mol
# GULP energy per Si atom -5579.794008 kJ/mol
# Density = 2.464159 g / cm^3
# Si number density = 24.697799 Si / 1000 Ang^3
#
#
#
# Elastic Constant Matrix: (Units=GPa)
#
#
# Indices 1 2 3 4 5 6 
#
# 1 108.4839 15.4997 46.2515 0.0000 -25.3639 0.0000
# 2 15.4997 184.4950 82.3700 0.0000 -21.0606 0.0000
# 3 46.2515 82.3700 136.6028 0.0000 -28.8557 0.0000
# 4 0.0000 0.0000 0.0000 53.3652 0.0000 -0.1079
# 5 -25.3639 -21.0606 -28.8557 0.0000 48.4544 0.0000
# 6 0.0000 0.0000 0.0000 -0.1079 0.0000 28.1320
#
#
#
# Elastic Compliance Matrix: (Units=1/GPa)
#
#
# Indices 1 2 3 4 5 6 
#
# 1 0.011671 0.001192 -0.003741 0.000000 0.004400 0.000000
# 2 0.001192 0.007556 -0.004729 0.000000 0.001092 0.000000
# 3 -0.003741 -0.004729 0.012115 0.000000 0.003201 0.000000
# 4 0.000000 0.000000 0.000000 0.018739 0.000000 0.000072
# 5 0.004400 0.001092 0.003201 0.000000 0.025322 0.000000
# 6 0.000000 0.000000 0.000000 0.000072 0.000000 0.035547
#
#
# Mechanical properties :
#
#
# Convention : Reuss Voigt Hill
#
# Bulk Modulus (GPa) = 59.57437 79.75823 69.66630
# Shear Modulus (GPa) = 38.13830 45.02103 41.57966
#
# Velocity S-wave (km/s) = 3.93389 4.27415 4.10754
# Velocity P-wave (km/s) = 6.69386 7.53137 7.12493
#
# Compressibility (1/GPa) = 0.01678574
#
# Stress axis : x y z
#
# Youngs Moduli (GPa) = 85.68035 132.34343 82.54260
#
# Poissons Ratio (x) = -0.15775 0.30880
# Poissons Ratio (y) = -0.10213 0.39036
# Poissons Ratio (z) = 0.32054 0.62588
#
# Static dielectric constant tensor:
#      x y z
#    x 2.291010 0.000000 0.156850 
#    y 0.000000 2.166260 0.000000 
#    z 0.156850 0.000000 2.133690 
# 
# From -- ./inp_files/20701.got.cif
#   From: 2010.05.17/outbox.cif.g08.bks.cpg/sg14_11_cif.got.tgz:20701.got - 2010.06.03 17:49:19.
