data_PCOD9251038
_publ_section_title
;
Structure prediction by ZEFSAII (Michael W. Deem and Ramdas Pophale) SiO2 
 PCOD9251038
Probable space group: P 21/C
;
_chemical_formula_sum "Si O2"
_cell_formula_units_Z 20
_cell_length_a 4.950928
_cell_length_b 10.321586
_cell_length_c 15.612727
_cell_angle_alpha 90.000000
_cell_angle_beta 80.676356
_cell_angle_gamma 90.000000
_cell_volume 787.292450
_symmetry_space_group_name_H-M "P 21/C"
_symmetry_group_IT_number 14
_symmetry_cell_setting 'monoclinic'
loop_
_space_group_symop_operation_xyz
x,y,z
-x,1/2+y,1/2-z
-x,-y,-z
x,1/2-y,1/2+z
loop_
_atom_site_type_symbol
_atom_site_label
_atom_site_fract_x
_atom_site_fract_y
_atom_site_fract_z
Si Si1 0.587313 0.293450 0.583761
Si Si2 0.329211 0.021145 0.595336
Si Si3 0.789865 0.873539 0.643048
Si Si4 0.980948 0.120717 0.932569
Si Si5 0.932145 0.898624 0.828724
O O1 0.711185 0.307361 0.482602
O O2 0.364994 0.403527 0.610474
O O3 0.843226 0.311306 0.634414
O O4 0.406374 0.167729 0.612592
O O5 0.485173 0.929415 0.654732
O O6 0.014890 0.980862 0.601312
O O7 0.500000 0.000000 0.500000
O O8 0.878603 0.853248 0.736064
O O9 0.819853 0.744392 0.584978
O O10 0.015915 0.048114 0.840092
O O11 0.000000 0.000000 0.000000
#
# Coordination Sequence:
#
# PCOD9251038 Si02
#       5
#     4   4   4   4   4
#     4  11  24  46  72 100 139 187 237 283 354 430
#     4  12  26  44  73 100 144 186 240 287 354 429
#     4  12  27  46  70 108 142 187 234 302 357 414
#     4  10  25  45  74 101 141 189 241 284 354 430
#     4  11  26  46  71 104 141 181 234 301 354 416
#
# _framework density 25.40352
#
# number of rings (size 3 to 8) (size 9 to 14) (size 15 to 20)
#    0.000    0.800    2.000    3.600   11.200    3.200 
#    0.000    0.000    0.000    0.000    0.000    0.000 
#    0.000    0.000    0.000    0.000    0.000    0.000 
#
# Total GULP energy -111724.802106 kJ/mol
# GULP energy per Si atom -5586.240105 kJ/mol
# Density = 2.534570 g / cm^3
# Si number density = 25.403520 Si / 1000 Ang^3
#
#
#
# Elastic Constant Matrix: (Units=GPa)
#
#
# Indices 1 2 3 4 5 6 
#
# 1 127.5963 12.9699 18.0423 0.0000 20.0818 0.0000
# 2 12.9699 118.1131 6.9926 0.0000 8.5861 0.0000
# 3 18.0423 6.9926 71.8106 0.0000 16.8213 0.0000
# 4 0.0000 0.0000 0.0000 33.2511 0.0000 2.6733
# 5 20.0818 8.5861 16.8213 0.0000 35.8680 0.0000
# 6 0.0000 0.0000 0.0000 2.6733 0.0000 19.7221
#
#
#
# Elastic Compliance Matrix: (Units=1/GPa)
#
#
# Indices 1 2 3 4 5 6 
#
# 1 0.008721 -0.000584 -0.001150 0.000000 -0.004204 0.000000
# 2 -0.000584 0.008666 -0.000323 0.000000 -0.001596 0.000000
# 3 -0.001150 -0.000323 0.015814 0.000000 -0.006696 0.000000
# 4 0.000000 0.000000 0.000000 0.030406 0.000000 -0.004121
# 5 -0.004204 -0.001596 -0.006696 0.000000 0.033756 0.000000
# 6 0.000000 0.000000 0.000000 -0.004121 0.000000 0.051263
#
#
# Mechanical properties :
#
#
# Convention : Reuss Voigt Hill
#
# Bulk Modulus (GPa) = 34.37951 43.72551 39.05251
# Shear Modulus (GPa) = 30.78166 36.40257 33.59211
#
# Velocity S-wave (km/s) = 3.48474 3.78957 3.64035
# Velocity P-wave (km/s) = 5.45472 6.03304 5.75115
#
# Compressibility (1/GPa) = 0.02908710
#
# Stress axis : x y z
#
# Youngs Moduli (GPa) = 114.66945 115.39702 63.23420
#
# Poissons Ratio (x) = 0.06739 0.07269
# Poissons Ratio (y) = 0.06696 0.02044
# Poissons Ratio (z) = 0.13181 0.03731
#
# Static dielectric constant tensor:
#      x y z
#    x 1.980410 0.000000 0.067100 
#    y 0.000000 2.108350 0.000000 
#    z 0.067100 0.000000 2.113410 
# 
# From -- ./inp_files/52660.got.cif
#   From: 2010.05.17/outbox.cif.g08.bks.cpg/sg14_27_cif.got.tgz:52660.got - 2010.06.03 17:49:19.
