data_PCOD9251409
_publ_section_title
;
Structure prediction by ZEFSAII (Michael W. Deem and Ramdas Pophale) SiO2 
 PCOD9251409
Probable space group: P 21/C
;
_chemical_formula_sum "Si O2"
_cell_formula_units_Z 32
_cell_length_a 9.613157
_cell_length_b 9.421169
_cell_length_c 13.657654
_cell_angle_alpha 90.000000
_cell_angle_beta 90.219516
_cell_angle_gamma 90.000000
_cell_volume 1236.926085
_symmetry_space_group_name_H-M "P 21/C"
_symmetry_group_IT_number 14
_symmetry_cell_setting 'monoclinic'
loop_
_space_group_symop_operation_xyz
x,y,z
-x,1/2+y,1/2-z
-x,-y,-z
x,1/2-y,1/2+z
loop_
_atom_site_type_symbol
_atom_site_label
_atom_site_fract_x
_atom_site_fract_y
_atom_site_fract_z
Si Si1 0.528002 0.753687 0.564814
Si Si2 0.930352 0.076622 0.713257
Si Si3 0.073046 0.799318 0.960335
Si Si4 0.816878 0.477231 0.691410
Si Si5 0.168881 0.353307 0.940703
Si Si6 0.256378 0.604461 0.087441
Si Si7 0.537282 0.172012 0.151482
Si Si8 0.368797 0.932754 0.219903
O O1 0.685963 0.787589 0.593295
O O2 0.422423 0.886497 0.575731
O O3 0.528490 0.701520 0.453378
O O4 0.446758 0.638768 0.629218
O O5 0.913727 0.935576 0.645328
O O6 0.080170 0.096426 0.763291
O O7 0.908850 0.202986 0.637633
O O8 0.797576 0.066396 0.783276
O O9 0.092040 0.945717 0.906120
O O10 0.190212 0.741007 0.033711
O O11 0.928774 0.760349 0.008618
O O12 0.785942 0.402319 0.798930
O O13 0.666424 0.437868 0.646523
O O14 0.201942 0.470910 0.024731
O O15 0.587464 0.324815 0.192813
O O16 0.427898 0.092231 0.221376
#
# Coordination Sequence:
#
# PCOD9251409 Si02
#       8
#     4   4   4   4   4   4   4   4
#     4  12  25  45  68 103 148 186 231 301 369 423
#     4  11  22  44  70 100 135 190 241 301 358 423
#     4  11  21  42  64 102 139 180 240 302 352 420
#     4  12  23  42  71 100 139 187 238 297 364 418
#     4  11  23  40  72 106 135 184 252 301 344 438
#     4  11  20  42  68  99 143 186 239 298 356 427
#     4  12  27  47  72 106 146 196 239 294 366 435
#     4  12  27  49  72 104 149 189 241 302 358 439
#
# _framework density 25.870581999999999
#
# number of rings (size 3 to 8) (size 9 to 14) (size 15 to 20)
#    0.000    0.500    6.250    3.000    3.500    0.000 
#    2.250    0.625    0.000    0.000    0.000    0.000 
#    0.000    0.000    0.000    0.000    0.000    0.000 
#
# Total GULP energy -178823.931366 kJ/mol
# GULP energy per Si atom -5588.247855 kJ/mol
# Density = 2.581170 g / cm^3
# Si number density = 25.870582 Si / 1000 Ang^3
#
#
#
# Elastic Constant Matrix: (Units=GPa)
#
#
# Indices 1 2 3 4 5 6 
#
# 1 138.0674 12.3235 25.5574 0.0000 -17.5897 0.0000
# 2 12.3235 43.4436 25.1057 0.0000 -13.7971 0.0000
# 3 25.5574 25.1057 77.3570 0.0000 -34.6826 0.0000
# 4 0.0000 0.0000 0.0000 20.6309 0.0000 -0.2860
# 5 -17.5897 -13.7971 -34.6826 0.0000 35.2208 0.0000
# 6 0.0000 0.0000 0.0000 -0.2860 0.0000 27.7622
#
#
#
# Elastic Compliance Matrix: (Units=1/GPa)
#
#
# Indices 1 2 3 4 5 6 
#
# 1 0.007848 -0.000727 -0.001303 0.000000 0.002352 0.000000
# 2 -0.000727 0.028665 -0.007504 0.000000 0.003477 0.000000
# 3 -0.001303 -0.007504 0.025395 0.000000 0.021417 0.000000
# 4 0.000000 0.000000 0.000000 0.048478 0.000000 0.000499
# 5 0.002352 0.003477 0.021417 0.000000 0.052019 0.000000
# 6 0.000000 0.000000 0.000000 0.000499 0.000000 0.036025
#
#
# Mechanical properties :
#
#
# Convention : Reuss Voigt Hill
#
# Bulk Modulus (GPa) = 23.34167 42.76012 33.05089
# Shear Modulus (GPa) = 21.57236 29.78154 25.67695
#
# Velocity S-wave (km/s) = 2.89079 3.39658 3.15384
# Velocity P-wave (km/s) = 4.49269 5.65214 5.10544
#
# Compressibility (1/GPa) = 0.04284184
#
# Stress axis : x y z
#
# Youngs Moduli (GPa) = 127.41301 34.88544 39.37786
#
# Poissons Ratio (x) = 0.02535 0.05129
# Poissons Ratio (y) = 0.09257 0.29551
# Poissons Ratio (z) = 0.16596 0.26179
#
# Static dielectric constant tensor:
#      x y z
#    x 2.049100 0.000000 -0.003010 
#    y 0.000000 2.196710 0.000000 
#    z -0.003010 0.000000 1.987010 
# 
# From -- ./inp_files/40321.got.cif
#   From: 2010.05.17/outbox.cif.g08.bks.cpg/sg14_21_cif.got.tgz:40321.got - 2010.06.03 17:49:19.
