data_PCOD9251517
_publ_section_title
;
Structure prediction by ZEFSAII (Michael W. Deem and Ramdas Pophale) SiO2 
 PCOD9251517
Probable space group: P 21/C
;
_chemical_formula_sum "Si O2"
_cell_formula_units_Z 32
_cell_length_a 15.566879
_cell_length_b 19.928928
_cell_length_c 15.088994
_cell_angle_alpha 90.000000
_cell_angle_beta 18.858602
_cell_angle_gamma 90.000000
_cell_volume 1513.082068
_symmetry_space_group_name_H-M "P 21/C"
_symmetry_group_IT_number 14
_symmetry_cell_setting 'monoclinic'
loop_
_space_group_symop_operation_xyz
x,y,z
-x,1/2+y,1/2-z
-x,-y,-z
x,1/2-y,1/2+z
loop_
_atom_site_type_symbol
_atom_site_label
_atom_site_fract_x
_atom_site_fract_y
_atom_site_fract_z
Si Si1 0.518764 0.037208 0.821910
Si Si2 0.565167 0.388736 0.663630
Si Si3 0.048005 0.154767 0.575716
Si Si4 0.844170 0.731283 0.293287
Si Si5 0.101830 0.691332 0.302571
Si Si6 0.056198 0.414946 0.885030
Si Si7 0.348529 0.685539 0.246984
Si Si8 0.401970 0.339138 0.304277
O O1 0.802891 0.052267 0.586747
O O2 0.453623 0.095564 0.814047
O O3 0.496111 0.965976 0.796895
O O4 0.310114 0.043403 0.106050
O O5 0.848719 0.368861 0.346575
O O6 0.560331 0.370234 0.771861
O O7 0.344700 0.347410 0.824019
O O8 0.966875 0.229240 0.622420
O O9 0.027919 0.101031 0.515791
O O10 0.606661 0.769023 0.474511
O O11 0.719883 0.717076 0.510930
O O12 0.903536 0.659060 0.195016
O O13 0.117135 0.771878 0.022089
O O14 0.220132 0.665201 0.279437
O O15 0.834149 0.652909 0.536041
O O16 0.326210 0.682096 0.008268
#
# Coordination Sequence:
#
# PCOD9251517 Si02
#       8
#     4   4   4   4   4   4   4   4
#     4  11  25  44  64  89 132 173 224 244 308 382
#     4  12  27  43  62  93 129 178 209 262 308 382
#     4  12  25  40  66  99 131 155 215 262 330 379
#     4  11  21  40  64  95 125 164 205 259 335 374
#     4  12  24  40  65 102 126 158 211 273 323 377
#     4  11  23  40  67  97 124 171 201 269 310 381
#     4  12  24  41  64  93 134 163 206 267 330 373
#     4  11  23  40  66  92 124 171 214 259 309 383
#
# _framework density 21.148887999999999
#
# number of rings (size 3 to 8) (size 9 to 14) (size 15 to 20)
#    0.000    0.500    1.250    9.750    1.750    3.000 
#    0.000    1.250    0.000    0.000    0.000    0.000 
#    0.000    0.000    0.000    0.000    0.000    0.000 
#
# Total GULP energy -179205.531254 kJ/mol
# GULP energy per Si atom -5600.172852 kJ/mol
# Density = 2.110075 g / cm^3
# Si number density = 21.148888 Si / 1000 Ang^3
#
#
#
# Elastic Constant Matrix: (Units=GPa)
#
#
# Indices 1 2 3 4 5 6 
#
# 1 66.7685 9.6369 -14.2824 0.0000 7.3522 0.0000
# 2 9.6369 64.5095 12.7944 0.0000 12.5343 0.0000
# 3 -14.2824 12.7944 98.6070 0.0000 -1.6465 0.0000
# 4 0.0000 0.0000 0.0000 6.7310 0.0000 -4.0433
# 5 7.3522 12.5343 -1.6465 0.0000 30.3494 0.0000
# 6 0.0000 0.0000 0.0000 -4.0433 0.0000 20.7208
#
#
#
# Elastic Compliance Matrix: (Units=1/GPa)
#
#
# Indices 1 2 3 4 5 6 
#
# 1 0.016188 -0.002393 0.002609 0.000000 -0.002792 0.000000
# 2 -0.002393 0.017748 -0.002765 0.000000 -0.006900 0.000000
# 3 0.002609 -0.002765 0.010896 0.000000 0.001101 0.000000
# 4 0.000000 0.000000 0.000000 0.168292 0.000000 0.032839
# 5 -0.002792 -0.006900 0.001101 0.000000 0.036535 0.000000
# 6 0.000000 0.000000 0.000000 0.032839 0.000000 0.054669
#
#
# Mechanical properties :
#
#
# Convention : Reuss Voigt Hill
#
# Bulk Modulus (GPa) = 25.16761 27.35368 26.26064
# Shear Modulus (GPa) = 15.49563 26.34265 20.91914
#
# Velocity S-wave (km/s) = 2.70977 3.53311 3.14847
# Velocity P-wave (km/s) = 4.66009 5.44112 5.06568
#
# Compressibility (1/GPa) = 0.03973361
#
# Stress axis : x y z
#
# Youngs Moduli (GPa) = 61.77436 56.34387 91.77505
#
# Poissons Ratio (x) = 0.13484 -0.23940
# Poissons Ratio (y) = 0.14784 0.25373
# Poissons Ratio (z) = -0.16114 0.15577
#
# Static dielectric constant tensor:
#      x y z
#    x 1.796160 0.000000 0.003680 
#    y 0.000000 1.756430 0.000000 
#    z 0.003680 0.000000 1.748070 
# 
# From -- ./inp_files/47608.got.cif
#   From: 2010.05.17/outbox.cif.g08.bks.cpg/sg14_24_cif.got.tgz:47608.got - 2010.06.03 17:49:19.
