data_PCOD9251451
_publ_section_title
;
Structure prediction by ZEFSAII (Michael W. Deem and Ramdas Pophale) SiO2 
 PCOD9251451
Probable space group: P 21/C
;
_chemical_formula_sum "Si O2"
_cell_formula_units_Z 24
_cell_length_a 11.093952
_cell_length_b 4.922339
_cell_length_c 22.354380
_cell_angle_alpha 90.000000
_cell_angle_beta 60.049552
_cell_angle_gamma 90.000000
_cell_volume 1057.712650
_symmetry_space_group_name_H-M "P 21/C"
_symmetry_group_IT_number 14
_symmetry_cell_setting 'monoclinic'
loop_
_space_group_symop_operation_xyz
x,y,z
-x,1/2+y,1/2-z
-x,-y,-z
x,1/2-y,1/2+z
loop_
_atom_site_type_symbol
_atom_site_label
_atom_site_fract_x
_atom_site_fract_y
_atom_site_fract_z
Si Si1 0.923698 0.719014 0.845443
Si Si2 0.378636 0.905204 0.422017
Si Si3 0.200912 0.808400 0.061927
Si Si4 0.214135 0.972423 0.230976
Si Si5 0.591333 0.646003 0.216103
Si Si6 0.444479 0.883428 0.090681
O O1 0.864674 0.433536 0.882735
O O2 0.082663 0.694193 0.786449
O O3 0.897659 0.935123 0.904543
O O4 0.840211 0.832178 0.808596
O O5 0.238588 0.792537 0.486688
O O6 0.367586 0.020911 0.358070
O O7 0.491895 0.666092 0.402210
O O8 0.436589 0.160185 0.445174
O O9 0.349119 0.890046 0.055588
O O10 0.282006 0.128997 0.269287
O O11 0.336368 0.796249 0.169985
O O12 0.530906 0.948417 0.228956
#
# Coordination Sequence:
#
# PCOD9251451 Si02
#       6
#     4   4   4   4   4   4
#     4  11  25  41  67  95 129 176 213 278 303 389
#     4  12  22  41  61  96 130 172 207 267 326 394
#     4  11  24  40  62  96 132 170 220 254 331 380
#     4  11  23  44  66  98 131 164 230 261 333 366
#     4  12  25  42  66  97 133 170 214 269 331 392
#     4  11  21  36  65  92 129 164 215 270 323 369
#
# _framework density 22.690473000000001
#
# number of rings (size 3 to 8) (size 9 to 14) (size 15 to 20)
#    0.000    0.667    3.333    6.000    0.000    4.000 
#    0.000    1.667    0.000    0.000    0.000    0.000 
#    0.000    0.000    0.000    0.000    0.000    0.000 
#
# Total GULP energy -134385.078221 kJ/mol
# GULP energy per Si atom -5599.378259 kJ/mol
# Density = 2.263883 g / cm^3
# Si number density = 22.690473 Si / 1000 Ang^3
#
#
#
# Elastic Constant Matrix: (Units=GPa)
#
#
# Indices 1 2 3 4 5 6 
#
# 1 41.2954 -6.4672 12.8505 0.0000 -2.4880 0.0000
# 2 -6.4672 96.2039 1.3371 0.0000 -10.6803 0.0000
# 3 12.8505 1.3371 101.5300 0.0000 1.6434 0.0000
# 4 0.0000 0.0000 0.0000 37.2289 0.0000 -2.2273
# 5 -2.4880 -10.6803 1.6434 0.0000 25.1498 0.0000
# 6 0.0000 0.0000 0.0000 -2.2273 0.0000 19.6923
#
#
#
# Elastic Compliance Matrix: (Units=1/GPa)
#
#
# Indices 1 2 3 4 5 6 
#
# 1 0.025828 0.002194 -0.003358 0.000000 0.003706 0.000000
# 2 0.002194 0.011100 -0.000504 0.000000 0.004964 0.000000
# 3 -0.003358 -0.000504 0.010301 0.000000 -0.001219 0.000000
# 4 0.000000 0.000000 0.000000 0.027044 0.000000 0.003059
# 5 0.003706 0.004964 -0.001219 0.000000 0.042316 0.000000
# 6 0.000000 0.000000 0.000000 0.003059 0.000000 0.051127
#
#
# Mechanical properties :
#
#
# Convention : Reuss Voigt Hill
#
# Bulk Modulus (GPa) = 22.78265 28.27445 25.52855
# Shear Modulus (GPa) = 26.92774 31.83481 29.38127
#
# Velocity S-wave (km/s) = 3.44865 3.74973 3.60234
# Velocity P-wave (km/s) = 5.09117 5.58886 5.34581
#
# Compressibility (1/GPa) = 0.04389305
#
# Stress axis : x y z
#
# Youngs Moduli (GPa) = 38.71817 90.08851 97.08098
#
# Poissons Ratio (x) = -0.19769 0.32598
# Poissons Ratio (y) = -0.08496 0.04896
# Poissons Ratio (z) = 0.13001 0.04543
#
# Static dielectric constant tensor:
#      x y z
#    x 1.807310 0.000000 0.013550 
#    y 0.000000 1.846620 0.000000 
#    z 0.013550 0.000000 1.917040 
# 
# From -- ./inp_files/72728.got.cif
#   From: 2010.05.17/outbox.cif.g08.bks.cpg/sg14_37_cif.got.tgz:72728.got - 2010.06.03 17:49:19.
