data_PCOD9251522
_publ_section_title
;
Structure prediction by ZEFSAII (Michael W. Deem and Ramdas Pophale) SiO2 
 PCOD9251522
Probable space group: P 21/C
;
_chemical_formula_sum "Si O2"
_cell_formula_units_Z 30
_cell_length_a 14.766025
_cell_length_b 8.735472
_cell_length_c 22.485308
_cell_angle_alpha 90.000000
_cell_angle_beta 25.975265
_cell_angle_gamma 90.000000
_cell_volume 1270.299595
_symmetry_space_group_name_H-M "P 21/C"
_symmetry_group_IT_number 14
_symmetry_cell_setting 'monoclinic'
loop_
_space_group_symop_operation_xyz
x,y,z
-x,1/2+y,1/2-z
-x,-y,-z
x,1/2-y,1/2+z
loop_
_atom_site_type_symbol
_atom_site_label
_atom_site_fract_x
_atom_site_fract_y
_atom_site_fract_z
Si Si1 0.317844 0.839771 0.475963
Si Si2 0.247395 0.397155 0.568034
Si Si3 0.783445 0.847353 0.052169
Si Si4 0.161947 0.061067 0.667313
Si Si5 0.446569 0.459414 0.788673
Si Si6 0.000000 0.500000 0.500000
Si Si7 0.908736 0.805206 0.172845
Si Si8 0.373888 0.436312 0.696358
O O1 0.509642 0.727013 0.368126
O O2 0.131207 0.726163 0.571007
O O3 0.280717 0.936833 0.557355
O O4 0.351000 0.947772 0.399327
O O5 0.199981 0.382250 0.525844
O O6 0.212362 0.228371 0.612877
O O7 0.482472 0.458075 0.429667
O O8 0.078006 0.508222 0.697158
O O9 0.621598 0.714204 0.160335
O O10 0.693914 0.998628 0.141431
O O11 0.998808 0.839359 0.957577
O O12 0.206585 0.086792 0.710836
O O13 0.371691 0.497889 0.765621
O O14 0.922476 0.605321 0.603558
O O15 0.834811 0.628062 0.207700
#
# Coordination Sequence:
#
# PCOD9251522 Si02
#       8
#     4   4   4   4   4   2   4   4
#     4  12  24  43  70  98 134 176 225 275 333 404
#     4  11  22  43  67  95 130 177 226 271 329 401
#     4  11  22  39  68  92 129 173 221 274 333 396
#     4  12  23  42  72  96 129 183 220 271 340 392
#     4  11  21  40  66  95 128 174 220 271 337 393
#     4  12  22  42  64 100 132 170 218 278 332 398
#     4  12  25  42  70  98 136 179 221 281 338 396
#     4  11  24  44  65  97 135 173 225 279 332 399
#
# _framework density 23.616475999999999
#
# number of rings (size 3 to 8) (size 9 to 14) (size 15 to 20)
#    0.000    0.533    8.000    0.800    0.000    1.600 
#    0.000    0.000    0.000    0.000    0.000    0.000 
#    0.000    0.000    0.000    0.000    0.000    0.000 
#
# Total GULP energy -167167.031628 kJ/mol
# GULP energy per Si atom -5572.234388 kJ/mol
# Density = 2.356272 g / cm^3
# Si number density = 23.616476 Si / 1000 Ang^3
#
#
#
# Elastic Constant Matrix: (Units=GPa)
#
#
# Indices 1 2 3 4 5 6 
#
# 1 48.9187 5.6405 14.3234 0.0000 28.5927 0.0000
# 2 5.6405 102.4573 31.7839 0.0000 17.3326 0.0000
# 3 14.3234 31.7839 87.4500 0.0000 29.9946 0.0000
# 4 0.0000 0.0000 0.0000 44.0384 0.0000 22.1246
# 5 28.5927 17.3326 29.9946 0.0000 33.3377 0.0000
# 6 0.0000 0.0000 0.0000 22.1246 0.0000 18.1591
#
#
#
# Elastic Compliance Matrix: (Units=1/GPa)
#
#
# Indices 1 2 3 4 5 6 
#
# 1 0.045834 0.003175 0.007793 0.000000 -0.047972 0.000000
# 2 0.003175 0.011442 -0.002465 0.000000 -0.006454 0.000000
# 3 0.007793 -0.002465 0.018669 0.000000 -0.022199 0.000000
# 4 0.000000 0.000000 0.000000 0.058540 0.000000 -0.071324
# 5 -0.047972 -0.006454 -0.022199 0.000000 0.094469 0.000000
# 6 0.000000 0.000000 0.000000 -0.071324 0.000000 0.141968
#
#
# Mechanical properties :
#
#
# Convention : Reuss Voigt Hill
#
# Bulk Modulus (GPa) = 10.75846 38.03571 24.39709
# Shear Modulus (GPa) = 12.99043 31.57891 22.28467
#
# Velocity S-wave (km/s) = 2.34788 3.66068 3.07515
# Velocity P-wave (km/s) = 3.45187 5.83164 4.79184
#
# Compressibility (1/GPa) = 0.09295010
#
# Stress axis : x y z
#
# Youngs Moduli (GPa) = 21.81791 87.39862 53.56590
#
# Poissons Ratio (x) = -0.27746 -0.41745
# Poissons Ratio (y) = -0.06926 0.13204
# Poissons Ratio (z) = -0.17003 0.21543
#
# Static dielectric constant tensor:
#      x y z
#    x 1.430940 0.000000 0.187090 
#    y 0.000000 1.916240 0.000000 
#    z 0.187090 0.000000 1.821320 
# 
# From -- ./inp_files/68356.got.cif
#   From: 2010.05.17/outbox.cif.g08.bks.cpg/sg14_35_cif.got.tgz:68356.got - 2010.06.03 17:49:19.
