data_PCOD9251976
_publ_section_title
;
Structure prediction by ZEFSAII (Michael W. Deem and Ramdas Pophale) SiO2 
 PCOD9251976
Probable space group: P 21/C
;
_chemical_formula_sum "Si O2"
_cell_formula_units_Z 32
_cell_length_a 27.155569
_cell_length_b 5.387794
_cell_length_c 9.197327
_cell_angle_alpha 90.000000
_cell_angle_beta 107.233297
_cell_angle_gamma 90.000000
_cell_volume 1285.237091
_symmetry_space_group_name_H-M "P 21/C"
_symmetry_group_IT_number 14
_symmetry_cell_setting 'monoclinic'
loop_
_space_group_symop_operation_xyz
x,y,z
-x,1/2+y,1/2-z
-x,-y,-z
x,1/2-y,1/2+z
loop_
_atom_site_type_symbol
_atom_site_label
_atom_site_fract_x
_atom_site_fract_y
_atom_site_fract_z
Si Si1 0.285485 0.411407 0.542902
Si Si2 0.315696 0.905390 0.741589
Si Si3 0.859675 0.201644 0.419526
Si Si4 0.080190 0.069633 0.190372
Si Si5 0.174291 0.433246 0.356090
Si Si6 0.429201 0.950767 0.783633
Si Si7 0.958370 0.887690 0.570406
Si Si8 0.528684 0.703274 0.928141
O O1 0.308869 0.164928 0.642720
O O2 0.306401 0.515682 0.403588
O O3 0.227520 0.315718 0.452876
O O4 0.286483 0.658769 0.649850
O O5 0.375613 0.824908 0.772393
O O6 0.891236 0.315713 0.311122
O O7 0.839591 0.393354 0.518954
O O8 0.904115 0.035126 0.527575
O O9 0.815504 0.061109 0.292228
O O10 0.125035 0.263161 0.273614
O O11 0.058359 0.129750 0.011729
O O12 0.031113 0.103468 0.251226
O O13 0.479988 0.792634 0.790135
O O14 0.426014 0.120002 0.638656
O O15 0.446963 0.098781 0.941552
O O16 0.000000 0.000000 0.500000
O O17 0.500000 0.500000 0.000000
#
# Coordination Sequence:
#
# PCOD9251976 Si02
#       8
#     4   4   4   4   4   4   4   4
#     4  12  29  49  77 111 145 203 243 310 382 440
#     4  12  29  49  76 111 155 194 246 307 385 437
#     4  11  23  43  65  98 127 176 217 283 336 396
#     4  11  24  42  63  96 127 174 217 274 336 391
#     4  11  25  43  73  93 136 168 240 282 337 428
#     4  11  25  42  70  99 144 181 242 294 348 440
#     4  11  26  41  64  97 134 173 217 271 342 420
#     4  11  23  40  66 101 130 189 235 285 351 407
#
# _framework density 24.898129999999998
#
# number of rings (size 3 to 8) (size 9 to 14) (size 15 to 20)
#    0.000    0.750    3.750    2.250    8.750    0.500 
#    0.000    0.000    0.000    0.000    0.000    0.000 
#    0.000    0.000    0.000    0.000    0.000    0.000 
#
# Total GULP energy -178536.285164 kJ/mol
# GULP energy per Si atom -5579.258911 kJ/mol
# Density = 2.484146 g / cm^3
# Si number density = 24.898130 Si / 1000 Ang^3
#
#
#
# Elastic Constant Matrix: (Units=GPa)
#
#
# Indices 1 2 3 4 5 6 
#
# 1 49.2968 -5.6622 17.9747 0.0000 -3.2419 0.0000
# 2 -5.6622 71.1225 22.4036 0.0000 4.2391 0.0000
# 3 17.9747 22.4036 95.0780 0.0000 -18.1153 0.0000
# 4 0.0000 0.0000 0.0000 47.1614 0.0000 -4.1843
# 5 -3.2419 4.2391 -18.1153 0.0000 40.7448 0.0000
# 6 0.0000 0.0000 0.0000 -4.1843 0.0000 29.2129
#
#
#
# Elastic Compliance Matrix: (Units=1/GPa)
#
#
# Indices 1 2 3 4 5 6 
#
# 1 0.022547 0.003507 -0.005262 0.000000 -0.000911 0.000000
# 2 0.003507 0.016194 -0.005186 0.000000 -0.003712 0.000000
# 3 -0.005262 -0.005186 0.013938 0.000000 0.006318 0.000000
# 4 0.000000 0.000000 0.000000 0.021477 0.000000 0.003076
# 5 -0.000911 -0.003712 0.006318 0.000000 0.027666 0.000000
# 6 0.000000 0.000000 0.000000 0.003076 0.000000 0.034672
#
#
# Mechanical properties :
#
#
# Convention : Reuss Voigt Hill
#
# Bulk Modulus (GPa) = 25.77552 31.65882 28.71717
# Shear Modulus (GPa) = 30.61677 35.47592 33.04634
#
# Velocity S-wave (km/s) = 3.51049 3.77880 3.64711
# Velocity P-wave (km/s) = 5.17747 5.63756 5.41241
#
# Compressibility (1/GPa) = 0.03879651
#
# Stress axis : x y z
#
# Youngs Moduli (GPa) = 44.35182 61.75019 71.74468
#
# Poissons Ratio (x) = -0.21655 0.37755
# Poissons Ratio (y) = -0.15554 0.37207
# Poissons Ratio (z) = 0.23340 0.32024
#
# Static dielectric constant tensor:
#      x y z
#    x 2.028410 0.000000 -0.005850 
#    y 0.000000 2.160750 0.000000 
#    z -0.005850 0.000000 2.294280 
# 
# From -- ./inp_files/19894.got.cif
#   From: 2010.05.17/outbox.cif.g08.bks.cpg/sg14_10_cif.got.tgz:19894.got - 2010.06.03 17:49:19.
