data_PCOD9251293
_publ_section_title
;
Structure prediction by ZEFSAII (Michael W. Deem and Ramdas Pophale) SiO2 
 PCOD9251293
Probable space group: P 21/C
;
_chemical_formula_sum "Si O2"
_cell_formula_units_Z 32
_cell_length_a 13.599426
_cell_length_b 17.769250
_cell_length_c 10.251704
_cell_angle_alpha 90.000000
_cell_angle_beta 36.550016
_cell_angle_gamma 90.000000
_cell_volume 1475.316529
_symmetry_space_group_name_H-M "P 21/C"
_symmetry_group_IT_number 14
_symmetry_cell_setting 'monoclinic'
loop_
_space_group_symop_operation_xyz
x,y,z
-x,1/2+y,1/2-z
-x,-y,-z
x,1/2-y,1/2+z
loop_
_atom_site_type_symbol
_atom_site_label
_atom_site_fract_x
_atom_site_fract_y
_atom_site_fract_z
Si Si1 0.314829 0.988245 0.745894
Si Si2 0.163271 0.596146 0.160565
Si Si3 0.579871 0.759078 0.958179
Si Si4 0.131041 0.436211 0.100053
Si Si5 0.789663 0.382295 0.403141
Si Si6 0.145291 0.361314 0.370944
Si Si7 0.371994 0.767078 0.422418
Si Si8 0.467446 0.082216 0.090291
O O1 0.225245 0.948022 0.721706
O O2 0.278830 0.935211 0.906856
O O3 0.500000 0.000000 0.500000
O O4 0.242804 0.071511 0.839951
O O5 0.108762 0.526773 0.129269
O O6 0.018031 0.648292 0.370225
O O7 0.305872 0.650383 0.957561
O O8 0.744991 0.712601 0.756544
O O9 0.447208 0.733964 0.988189
O O10 0.595144 0.849073 0.932192
O O11 0.513653 0.741057 0.172167
O O12 0.110261 0.395807 0.263808
O O13 0.979110 0.404408 0.176981
O O14 0.319219 0.423185 0.854086
O O15 0.772164 0.293595 0.447623
O O16 0.648974 0.394254 0.445400
O O17 0.500000 0.000000 0.000000
#
# Coordination Sequence:
#
# PCOD9251293 Si02
#       8
#     4   4   4   4   4   4   4   4
#     4  11  19  36  66  95 126 168 217 278 344 403
#     4  11  21  38  63 101 134 166 220 280 338 415
#     4  11  25  45  66 100 132 176 229 279 341 410
#     4  11  22  43  67  96 135 171 226 284 348 410
#     4  11  22  41  65  94 131 178 221 280 342 402
#     4  11  21  38  64 101 130 162 219 291 337 402
#     4  11  24  43  67  94 135 176 225 279 347 402
#     4  11  26  45  66  90 135 186 230 277 338 416
#
# _framework density 21.690259999999999
#
# number of rings (size 3 to 8) (size 9 to 14) (size 15 to 20)
#    0.000    1.000    2.500    6.750    1.750    1.500 
#    0.000    0.000    0.000    0.000    0.000    0.000 
#    0.000    0.000    0.000    0.000    0.000    0.000 
#
# Total GULP energy -178663.768758 kJ/mol
# GULP energy per Si atom -5583.242774 kJ/mol
# Density = 2.164089 g / cm^3
# Si number density = 21.690260 Si / 1000 Ang^3
#
#
#
# Elastic Constant Matrix: (Units=GPa)
#
#
# Indices 1 2 3 4 5 6 
#
# 1 23.2084 7.9495 5.3139 0.0000 -10.4348 0.0000
# 2 7.9495 123.8731 13.6642 0.0000 -12.0467 0.0000
# 3 5.3139 13.6642 66.6617 0.0000 -12.5073 0.0000
# 4 0.0000 0.0000 0.0000 38.1112 0.0000 -7.5467
# 5 -10.4348 -12.0467 -12.5073 0.0000 26.7341 0.0000
# 6 0.0000 0.0000 0.0000 -7.5467 0.0000 22.6300
#
#
#
# Elastic Compliance Matrix: (Units=1/GPa)
#
#
# Indices 1 2 3 4 5 6 
#
# 1 0.052505 -0.001427 -0.000185 0.000000 0.019764 0.000000
# 2 -0.001427 0.008558 -0.001120 0.000000 0.002775 0.000000
# 3 -0.000185 -0.001120 0.016594 0.000000 0.007187 0.000000
# 4 0.000000 0.000000 0.000000 0.028094 0.000000 0.009369
# 5 0.019764 0.002775 0.007187 0.000000 0.049732 0.000000
# 6 0.000000 0.000000 0.000000 0.009369 0.000000 0.047314
#
#
# Mechanical properties :
#
#
# Convention : Reuss Voigt Hill
#
# Bulk Modulus (GPa) = 13.85159 29.73316 21.79237
# Shear Modulus (GPa) = 21.52162 29.94943 25.73553
#
# Velocity S-wave (km/s) = 3.15338 3.71991 3.44830
# Velocity P-wave (km/s) = 4.43377 5.67346 5.09149
#
# Compressibility (1/GPa) = 0.07219390
#
# Stress axis : x y z
#
# Youngs Moduli (GPa) = 19.04571 116.85277 60.26373
#
# Poissons Ratio (x) = 0.16675 0.01113
# Poissons Ratio (y) = 0.02718 0.06748
# Poissons Ratio (z) = 0.00352 0.13084
#
# Static dielectric constant tensor:
#      x y z
#    x 1.806510 0.000000 -0.003410 
#    y 0.000000 1.810090 0.000000 
#    z -0.003410 0.000000 1.836260 
# 
# From -- ./inp_files/33044.got.cif
#   From: 2010.05.17/outbox.cif.g08.bks.cpg/sg14_17_cif.got.tgz:33044.got - 2010.06.03 17:49:19.
