data_PCOD9251082
_publ_section_title
;
Structure prediction by ZEFSAII (Michael W. Deem and Ramdas Pophale) SiO2 
 PCOD9251082
Probable space group: P 21/C
;
_chemical_formula_sum "Si O2"
_cell_formula_units_Z 30
_cell_length_a 11.601952
_cell_length_b 10.955536
_cell_length_c 11.282231
_cell_angle_alpha 90.000000
_cell_angle_beta 101.107173
_cell_angle_gamma 90.000000
_cell_volume 1407.173227
_symmetry_space_group_name_H-M "P 21/C"
_symmetry_group_IT_number 14
_symmetry_cell_setting 'monoclinic'
loop_
_space_group_symop_operation_xyz
x,y,z
-x,1/2+y,1/2-z
-x,-y,-z
x,1/2-y,1/2+z
loop_
_atom_site_type_symbol
_atom_site_label
_atom_site_fract_x
_atom_site_fract_y
_atom_site_fract_z
Si Si1 0.100026 0.364100 0.806023
Si Si2 0.277714 0.526376 0.994798
Si Si3 0.242372 0.117369 0.855768
Si Si4 0.659186 0.329101 0.216796
Si Si5 0.755960 0.943331 0.872704
Si Si6 0.173618 0.879276 0.701645
Si Si7 0.564628 0.783126 0.703500
Si Si8 0.500000 0.500000 0.000000
O O1 0.179797 0.448661 0.908259
O O2 0.150643 0.228204 0.823591
O O3 0.126372 0.414858 0.679453
O O4 0.965382 0.367693 0.815314
O O5 0.360641 0.594371 0.909684
O O6 0.219167 0.616999 0.075112
O O7 0.385198 0.448516 0.064092
O O8 0.369413 0.174657 0.853128
O O9 0.211739 0.009125 0.760888
O O10 0.231886 0.066948 0.986010
O O11 0.707933 0.426501 0.320077
O O12 0.760148 0.229153 0.217244
O O13 0.546176 0.263527 0.244972
O O14 0.661883 0.844560 0.807607
O O15 0.526344 0.887728 0.604523
#
# Coordination Sequence:
#
# PCOD9251082 Si02
#       8
#     4   4   4   4   4   4   4   2
#     4  10  25  48  70  99 138 187 228 296 346 419
#     4  11  25  45  69  99 140 184 226 288 357 403
#     4  11  27  43  73 106 133 184 237 289 353 421
#     4  11  26  43  67 101 137 185 228 285 349 417
#     4  10  25  47  66 102 143 178 229 293 358 403
#     4  12  28  43  73 102 137 184 243 280 350 429
#     4  11  25  43  74 103 142 185 230 286 355 426
#     4  12  20  44  68 100 134 190 216 280 354 406
#
# _framework density 21.319336
#
# number of rings (size 3 to 8) (size 9 to 14) (size 15 to 20)
#    0.000    1.067    5.333    0.400   14.933    2.133 
#    0.000    0.000    0.000    0.000    0.000    0.000 
#    0.000    0.000    0.000    0.000    0.000    0.000 
#
# Total GULP energy -167426.087721 kJ/mol
# GULP energy per Si atom -5580.869591 kJ/mol
# Density = 2.127081 g / cm^3
# Si number density = 21.319336 Si / 1000 Ang^3
#
#
#
# Elastic Constant Matrix: (Units=GPa)
#
#
# Indices 1 2 3 4 5 6 
#
# 1 178.0147 32.5085 30.0084 0.0000 -15.7690 0.0000
# 2 32.5085 81.8445 24.1835 0.0000 -0.6912 0.0000
# 3 30.0084 24.1835 52.1726 0.0000 -8.1690 0.0000
# 4 0.0000 0.0000 0.0000 23.7366 0.0000 -2.1944
# 5 -15.7690 -0.6912 -8.1690 0.0000 22.7973 0.0000
# 6 0.0000 0.0000 0.0000 -2.1944 0.0000 10.6133
#
#
#
# Elastic Compliance Matrix: (Units=1/GPa)
#
#
# Indices 1 2 3 4 5 6 
#
# 1 0.006700 -0.001927 -0.002377 0.000000 0.003724 0.000000
# 2 -0.001927 0.014802 -0.006241 0.000000 -0.003121 0.000000
# 3 -0.002377 -0.006241 0.024516 0.000000 0.006951 0.000000
# 4 0.000000 0.000000 0.000000 0.042950 0.000000 0.008881
# 5 0.003724 -0.003121 0.006951 0.000000 0.048837 0.000000
# 6 0.000000 0.000000 0.000000 0.008881 0.000000 0.096058
#
#
# Mechanical properties :
#
#
# Convention : Reuss Voigt Hill
#
# Bulk Modulus (GPa) = 40.11839 53.93695 47.02767
# Shear Modulus (GPa) = 18.99244 26.45152 22.72198
#
# Velocity S-wave (km/s) = 2.98796 3.52622 3.26819
# Velocity P-wave (km/s) = 5.54640 6.47560 6.02893
#
# Compressibility (1/GPa) = 0.02492623
#
# Stress axis : x y z
#
# Youngs Moduli (GPa) = 149.25098 67.56023 40.79005
#
# Poissons Ratio (x) = 0.13022 0.09697
# Poissons Ratio (y) = 0.28767 0.25457
# Poissons Ratio (z) = 0.35480 0.42165
#
# Static dielectric constant tensor:
#      x y z
#    x 2.037130 0.000000 0.167040 
#    y 0.000000 2.019360 0.000000 
#    z 0.167040 0.000000 1.889650 
# 
# From -- ./inp_files/29125.got.cif
#   From: 2010.05.17/outbox.cif.g08.bks.cpg/sg14_15_cif.got.tgz:29125.got - 2010.06.03 17:49:19.
