data_PCOD9251877
_publ_section_title
;
Structure prediction by ZEFSAII (Michael W. Deem and Ramdas Pophale) SiO2 
 PCOD9251877
Probable space group: P 21/C
;
_chemical_formula_sum "Si O2"
_cell_formula_units_Z 32
_cell_length_a 10.726179
_cell_length_b 16.053077
_cell_length_c 14.735284
_cell_angle_alpha 90.000000
_cell_angle_beta 147.497059
_cell_angle_gamma 90.000000
_cell_volume 1363.368808
_symmetry_space_group_name_H-M "P 21/C"
_symmetry_group_IT_number 14
_symmetry_cell_setting 'monoclinic'
loop_
_space_group_symop_operation_xyz
x,y,z
-x,1/2+y,1/2-z
-x,-y,-z
x,1/2-y,1/2+z
loop_
_atom_site_type_symbol
_atom_site_label
_atom_site_fract_x
_atom_site_fract_y
_atom_site_fract_z
Si Si1 0.735904 0.751288 0.894759
Si Si2 0.722809 0.636874 0.722158
Si Si3 0.383014 0.910175 0.433129
Si Si4 0.128170 0.632533 0.218160
Si Si5 0.475756 0.985684 0.827487
Si Si6 0.056339 0.426951 0.464011
Si Si7 0.155538 0.527269 0.964336
Si Si8 0.461083 0.259095 0.531138
O O1 0.652930 0.704055 0.754470
O O2 0.561427 0.758743 0.873449
O O3 0.838900 0.841302 0.932305
O O4 0.939859 0.691865 0.056533
O O5 0.535291 0.563307 0.611685
O O6 0.736390 0.683025 0.634519
O O7 0.956818 0.584960 0.887348
O O8 0.278865 0.911896 0.469535
O O9 0.551921 0.834870 0.512430
O O10 0.173178 0.906062 0.232895
O O11 0.500000 0.000000 0.500000
O O12 0.314321 0.586463 0.267892
O O13 0.303907 0.701151 0.367849
O O14 0.978370 0.552690 0.161699
O O15 0.347938 0.006018 0.653190
O O16 0.737214 0.959870 0.972706
O O17 0.000000 0.500000 0.500000
#
# Coordination Sequence:
#
# PCOD9251877 Si02
#       8
#     4   4   4   4   4   4   4   4
#     4  12  24  50  71 105 150 188 241 306 357 431
#     4  11  26  44  76 109 137 190 246 292 362 438
#     4  12  28  48  70 104 152 190 235 307 375 433
#     4  11  22  45  74 100 143 193 235 298 363 426
#     4  11  23  47  73 106 141 186 243 298 363 425
#     4  12  28  45  70 104 143 192 243 294 367 433
#     4  11  23  46  74 106 144 186 241 300 366 439
#     4  12  28  45  73 109 145 191 250 297 363 440
#
# _framework density 23.471271000000002
#
# number of rings (size 3 to 8) (size 9 to 14) (size 15 to 20)
#    0.000    0.500    5.000    3.000    7.000    1.000 
#    2.250    0.000    0.000    0.000    0.000    0.000 
#    0.000    0.000    0.000    0.000    0.000    0.000 
#
# Total GULP energy -178796.031104 kJ/mol
# GULP energy per Si atom -5587.375972 kJ/mol
# Density = 2.341785 g / cm^3
# Si number density = 23.471271 Si / 1000 Ang^3
#
#
#
# Elastic Constant Matrix: (Units=GPa)
#
#
# Indices 1 2 3 4 5 6 
#
# 1 74.9208 35.0393 -3.1373 0.0000 -1.5642 0.0000
# 2 35.0393 152.4447 14.4288 0.0000 4.3835 0.0000
# 3 -3.1373 14.4288 48.6881 0.0000 3.5750 0.0000
# 4 0.0000 0.0000 0.0000 38.6639 0.0000 1.9039
# 5 -1.5642 4.3835 3.5750 0.0000 28.1961 0.0000
# 6 0.0000 0.0000 0.0000 1.9039 0.0000 38.0606
#
#
#
# Elastic Compliance Matrix: (Units=1/GPa)
#
#
# Indices 1 2 3 4 5 6 
#
# 1 0.015192 -0.003714 0.001994 0.000000 0.001167 0.000000
# 2 -0.003714 0.007675 -0.002434 0.000000 -0.001091 0.000000
# 3 0.001994 -0.002434 0.021553 0.000000 -0.002244 0.000000
# 4 0.000000 0.000000 0.000000 0.025928 0.000000 -0.001297
# 5 0.001167 -0.001091 -0.002244 0.000000 0.035985 0.000000
# 6 0.000000 0.000000 0.000000 -0.001297 0.000000 0.026339
#
#
# Mechanical properties :
#
#
# Convention : Reuss Voigt Hill
#
# Bulk Modulus (GPa) = 27.69101 40.96835 34.32968
# Shear Modulus (GPa) = 32.67587 36.29897 34.48742
#
# Velocity S-wave (km/s) = 3.73522 3.93686 3.83736
# Velocity P-wave (km/s) = 5.51597 6.17719 5.85592
#
# Compressibility (1/GPa) = 0.03611280
#
# Stress axis : x y z
#
# Youngs Moduli (GPa) = 65.82238 130.28976 46.39637
#
# Poissons Ratio (x) = 0.48393 -0.09251
# Poissons Ratio (y) = 0.24448 0.11292
# Poissons Ratio (z) = -0.13125 0.31710
#
# Static dielectric constant tensor:
#      x y z
#    x 1.937460 0.000000 -0.008050 
#    y 0.000000 1.914520 0.000000 
#    z -0.008050 0.000000 1.923470 
# 
# From -- ./inp_files/58037.got.cif
#   From: 2010.05.17/outbox.cif.g08.bks.cpg/sg14_30_cif.got.tgz:58037.got - 2010.06.03 17:49:19.
