data_PCOD9251752
_publ_section_title
;
Structure prediction by ZEFSAII (Michael W. Deem and Ramdas Pophale) SiO2 
 PCOD9251752
Probable space group: P 21/C
;
_chemical_formula_sum "Si O2"
_cell_formula_units_Z 32
_cell_length_a 11.470303
_cell_length_b 8.871767
_cell_length_c 20.643987
_cell_angle_alpha 90.000000
_cell_angle_beta 132.652963
_cell_angle_gamma 90.000000
_cell_volume 1545.055899
_symmetry_space_group_name_H-M "P 21/C"
_symmetry_group_IT_number 14
_symmetry_cell_setting 'monoclinic'
loop_
_space_group_symop_operation_xyz
x,y,z
-x,1/2+y,1/2-z
-x,-y,-z
x,1/2-y,1/2+z
loop_
_atom_site_type_symbol
_atom_site_label
_atom_site_fract_x
_atom_site_fract_y
_atom_site_fract_z
Si Si1 0.457113 0.832295 0.500760
Si Si2 0.610682 0.332514 0.269522
Si Si3 0.827515 0.926658 0.928229
Si Si4 0.624104 0.587530 0.476198
Si Si5 0.721138 0.429413 0.718854
Si Si6 0.830388 0.161647 0.130693
Si Si7 0.525386 0.880839 0.670489
Si Si8 0.157326 0.254930 0.189296
O O1 0.578183 0.715383 0.511621
O O2 0.286418 0.801882 0.405884
O O3 0.444444 0.827515 0.573956
O O4 0.500000 0.000000 0.500000
O O5 0.719277 0.446143 0.352303
O O6 0.702441 0.216519 0.257302
O O7 0.520810 0.226903 0.287061
O O8 0.505446 0.446047 0.185738
O O9 0.740184 0.874099 0.960501
O O10 0.845473 0.787787 0.886716
O O11 0.000000 0.000000 0.000000
O O12 0.453774 0.544662 0.379545
O O13 0.720569 0.454957 0.548506
O O14 0.845799 0.404574 0.707946
O O15 0.780413 0.576818 0.777684
O O16 0.989468 0.211749 0.156472
O O17 0.711696 0.853769 0.728826
#
# Coordination Sequence:
#
# PCOD9251752 Si02
#       8
#     4   4   4   4   4   4   4   4
#     4  11  24  41  64  96 127 169 221 274 324 388
#     4  11  24  41  70  94 127 175 223 281 325 396
#     4  11  23  43  66  94 134 172 223 266 343 401
#     4  11  22  43  70  91 127 182 218 265 327 409
#     4  11  23  42  66  98 128 171 232 265 331 398
#     4  11  23  41  64  93 133 169 211 266 334 399
#     4  11  22  41  67  94 129 168 225 270 330 401
#     4  11  23  39  65  96 127 169 213 277 329 391
#
# _framework density 20.711224999999999
#
# number of rings (size 3 to 8) (size 9 to 14) (size 15 to 20)
#    0.000    1.000    1.250    8.250    0.000    4.000 
#    4.500    0.625    0.000    0.000    0.000    0.000 
#    0.000    0.000    0.000    0.000    0.000    0.000 
#
# Total GULP energy -178757.022882 kJ/mol
# GULP energy per Si atom -5586.156965 kJ/mol
# Density = 2.066409 g / cm^3
# Si number density = 20.711225 Si / 1000 Ang^3
#
#
#
# Elastic Constant Matrix: (Units=GPa)
#
#
# Indices 1 2 3 4 5 6 
#
# 1 144.2485 58.9609 24.6193 0.0000 -20.2192 0.0000
# 2 58.9609 144.3442 35.7880 0.0000 -17.0450 0.0000
# 3 24.6193 35.7880 51.9084 0.0000 -18.3311 0.0000
# 4 0.0000 0.0000 0.0000 34.2394 0.0000 -12.9675
# 5 -20.2192 -17.0450 -18.3311 0.0000 39.7793 0.0000
# 6 0.0000 0.0000 0.0000 -12.9675 0.0000 25.0409
#
#
#
# Elastic Compliance Matrix: (Units=1/GPa)
#
#
# Indices 1 2 3 4 5 6 
#
# 1 0.008708 -0.002959 -0.001164 0.000000 0.002622 0.000000
# 2 -0.002959 0.009403 -0.005001 0.000000 0.000220 0.000000
# 3 -0.001164 -0.005001 0.026634 0.000000 0.009538 0.000000
# 4 0.000000 0.000000 0.000000 0.036332 0.000000 0.018814
# 5 0.002622 0.000220 0.009538 0.000000 0.030961 0.000000
# 6 0.000000 0.000000 0.000000 0.018814 0.000000 0.049678
#
#
# Mechanical properties :
#
#
# Convention : Reuss Voigt Hill
#
# Bulk Modulus (GPa) = 37.74282 64.35972 51.05127
# Shear Modulus (GPa) = 26.48367 34.55411 30.51889
#
# Velocity S-wave (km/s) = 3.57979 4.08901 3.84284
# Velocity P-wave (km/s) = 5.94554 7.30996 6.66277
#
# Compressibility (1/GPa) = 0.02649511
#
# Stress axis : x y z
#
# Youngs Moduli (GPa) = 114.83594 106.35469 37.54662
#
# Poissons Ratio (x) = 0.31468 0.04372
# Poissons Ratio (y) = 0.33977 0.18779
# Poissons Ratio (z) = 0.13371 0.53193
#
# Static dielectric constant tensor:
#      x y z
#    x 1.749320 0.000000 -0.023480 
#    y 0.000000 1.803000 0.000000 
#    z -0.023480 0.000000 1.779550 
# 
# From -- ./inp_files/67046.got.cif
#   From: 2010.05.17/outbox.cif.g08.bks.cpg/sg14_34_cif.got.tgz:67046.got - 2010.06.03 17:49:19.
