data_PCOD9251435
_publ_section_title
;
Structure prediction by ZEFSAII (Michael W. Deem and Ramdas Pophale) SiO2 
 PCOD9251435
Probable space group: P 21/C
;
_chemical_formula_sum "Si O2"
_cell_formula_units_Z 32
_cell_length_a 10.784111
_cell_length_b 9.247215
_cell_length_c 18.838310
_cell_angle_alpha 90.000000
_cell_angle_beta 49.262877
_cell_angle_gamma 90.000000
_cell_volume 1423.446734
_symmetry_space_group_name_H-M "P 21/C"
_symmetry_group_IT_number 14
_symmetry_cell_setting 'monoclinic'
loop_
_space_group_symop_operation_xyz
x,y,z
-x,1/2+y,1/2-z
-x,-y,-z
x,1/2-y,1/2+z
loop_
_atom_site_type_symbol
_atom_site_label
_atom_site_fract_x
_atom_site_fract_y
_atom_site_fract_z
Si Si1 0.940260 0.233240 0.611109
Si Si2 0.529989 0.939327 0.191297
Si Si3 0.489947 0.928517 0.377114
Si Si4 0.253584 0.819159 0.952941
Si Si5 0.277866 0.315907 0.933978
Si Si6 0.036294 0.805214 0.169635
Si Si7 0.828443 0.069902 0.279873
Si Si8 0.815203 0.928340 0.685853
O O1 0.842863 0.234130 0.573020
O O2 0.855386 0.348275 0.694512
O O3 0.131785 0.264248 0.528627
O O4 0.929484 0.069063 0.643065
O O5 0.519501 0.929000 0.280373
O O6 0.677199 0.039689 0.110935
O O7 0.362308 0.010299 0.227622
O O8 0.568509 0.783885 0.144086
O O9 0.349663 0.045735 0.446587
O O10 0.657681 0.984586 0.347826
O O11 0.407880 0.774640 0.422772
O O12 0.130268 0.847123 0.062826
O O13 0.201993 0.369771 0.887948
O O14 0.150289 0.699410 0.172608
O O15 0.882256 0.703709 0.206334
O O16 0.969745 0.948365 0.232150
#
# Coordination Sequence:
#
# PCOD9251435 Si02
#       8
#     4   4   4   4   4   4   4   4
#     4  12  22  40  68 102 134 171 223 287 336 401
#     4  11  21  36  61 101 135 168 213 280 336 391
#     4  11  22  40  65  99 132 172 218 276 339 397
#     4  12  23  40  69 103 136 172 227 282 337 396
#     4  11  21  35  62  99 132 165 216 277 335 389
#     4  12  27  46  67  96 135 186 229 275 335 406
#     4  12  27  47  68  95 139 185 226 275 341 404
#     4  11  22  39  65  96 136 174 221 272 339 402
#
# _framework density 22.480644000000002
#
# number of rings (size 3 to 8) (size 9 to 14) (size 15 to 20)
#    0.000    0.500    5.000    6.375    0.000    1.500 
#    0.000    1.250    0.000    6.000    0.000    0.000 
#    0.000    0.000    0.000    0.000    0.000    0.000 
#
# Total GULP energy -179072.684583 kJ/mol
# GULP energy per Si atom -5596.021393 kJ/mol
# Density = 2.242948 g / cm^3
# Si number density = 22.480644 Si / 1000 Ang^3
#
#
#
# Elastic Constant Matrix: (Units=GPa)
#
#
# Indices 1 2 3 4 5 6 
#
# 1 29.5790 -20.3368 22.5462 0.0000 -3.9881 0.0000
# 2 -20.3368 53.6193 11.9311 0.0000 -6.9311 0.0000
# 3 22.5462 11.9311 49.1331 0.0000 -5.5760 0.0000
# 4 0.0000 0.0000 0.0000 24.0350 0.0000 -22.9043
# 5 -3.9881 -6.9311 -5.5760 0.0000 19.2196 0.0000
# 6 0.0000 0.0000 0.0000 -22.9043 0.0000 9.9799
#
#
#
# Elastic Compliance Matrix: (Units=1/GPa)
#
#
# Indices 1 2 3 4 5 6 
#
# 1 0.196672 0.105218 -0.110499 0.000000 0.046695 0.000000
# 2 0.105218 0.076678 -0.063373 0.000000 0.031099 0.000000
# 3 -0.110499 -0.063373 0.084018 0.000000 -0.021407 0.000000
# 4 0.000000 0.000000 0.000000 -0.035049 0.000000 -0.080440
# 5 0.046695 0.031099 -0.021407 0.000000 0.066724 0.000000
# 6 0.000000 0.000000 0.000000 -0.080440 0.000000 -0.084411
#
#
# Mechanical properties :
#
#
# Convention : Reuss Voigt Hill
#
# Bulk Modulus (GPa) = 4.54423 17.84584 11.19504
# Shear Modulus (GPa) = 9.70319 18.52630 14.11475
#
# Velocity S-wave (km/s) = 2.07981 2.87383 2.50844
# Velocity P-wave (km/s) = 2.79164 4.35516 3.65791
#
# Compressibility (1/GPa) = 0.22005904
#
# Stress axis : x y z
#
# Youngs Moduli (GPa) = 5.08462 13.04148 11.90218
#
# Poissons Ratio (x) = -1.37219 1.31518
# Poissons Ratio (y) = -0.53499 0.75427
# Poissons Ratio (z) = 0.56185 0.82648
#
# Static dielectric constant tensor:
#      x y z
#    x 1.840270 0.000000 -0.009240 
#    y 0.000000 1.843440 0.000000 
#    z -0.009240 0.000000 1.815690 
# 
# From -- ./inp_files/67035.got.cif
#   From: 2010.05.17/outbox.cif.g08.bks.cpg/sg14_34_cif.got.tgz:67035.got - 2010.06.03 17:49:19.
