data_PCOD9251723
_publ_section_title
;
Structure prediction by ZEFSAII (Michael W. Deem and Ramdas Pophale) SiO2 
 PCOD9251723
Probable space group: P 21/C
;
_chemical_formula_sum "Si O2"
_cell_formula_units_Z 24
_cell_length_a 15.511372
_cell_length_b 5.640322
_cell_length_c 26.788427
_cell_angle_alpha 90.000000
_cell_angle_beta 26.512208
_cell_angle_gamma 90.000000
_cell_volume 1046.199020
_symmetry_space_group_name_H-M "P 21/C"
_symmetry_group_IT_number 14
_symmetry_cell_setting 'monoclinic'
loop_
_space_group_symop_operation_xyz
x,y,z
-x,1/2+y,1/2-z
-x,-y,-z
x,1/2-y,1/2+z
loop_
_atom_site_type_symbol
_atom_site_label
_atom_site_fract_x
_atom_site_fract_y
_atom_site_fract_z
Si Si1 0.689041 0.061696 0.689398
Si Si2 0.569725 0.305609 0.144808
Si Si3 0.676588 0.003301 0.307871
Si Si4 0.065797 0.203279 0.003643
Si Si5 0.497230 0.499705 0.561069
Si Si6 0.861675 0.444698 0.438779
O O1 0.547249 0.939654 0.801160
O O2 0.800924 0.863677 0.598912
O O3 0.596604 0.198831 0.690625
O O4 0.867731 0.180444 0.623752
O O5 0.427018 0.494133 0.193599
O O6 0.773014 0.295543 0.010321
O O7 0.588171 0.761040 0.378721
O O8 0.908480 0.956684 0.188792
O O9 0.614303 0.256667 0.364069
O O10 0.171425 0.120634 0.997813
O O11 0.000000 0.000000 0.000000
O O12 0.500000 0.500000 0.500000
O O13 0.717588 0.504340 0.468557
#
# Coordination Sequence:
#
# PCOD9251723 Si02
#       6
#     4   4   4   4   4   4
#     4  11  24  37  62  90 143 193 246 290 338 413
#     4  11  24  41  63 101 143 197 245 294 349 416
#     4  11  27  46  76 106 145 180 237 299 366 435
#     4  11  22  40  61  94 136 189 242 291 349 407
#     4  11  27  52  78 108 139 180 234 299 376 448
#     4  11  25  43  71 103 142 188 238 303 356 429
#
# _framework density 22.940185
#
# number of rings (size 3 to 8) (size 9 to 14) (size 15 to 20)
#    0.000    1.000    1.667    3.500    9.333    4.000 
#    0.000    0.000    0.000    0.000    0.000    0.000 
#    0.000    0.000    0.000    0.000    0.000    0.000 
#
# Total GULP energy -133935.275012 kJ/mol
# GULP energy per Si atom -5580.636459 kJ/mol
# Density = 2.288797 g / cm^3
# Si number density = 22.940185 Si / 1000 Ang^3
#
#
#
# Elastic Constant Matrix: (Units=GPa)
#
#
# Indices 1 2 3 4 5 6 
#
# 1 138.7203 18.2358 36.7678 0.0000 -8.2432 0.0000
# 2 18.2358 89.7703 44.1477 0.0000 -14.4297 0.0000
# 3 36.7678 44.1477 122.8614 0.0000 -36.7409 0.0000
# 4 0.0000 0.0000 0.0000 49.8941 0.0000 -0.8960
# 5 -8.2432 -14.4297 -36.7409 0.0000 38.6906 0.0000
# 6 0.0000 0.0000 0.0000 -0.8960 0.0000 37.0921
#
#
#
# Elastic Compliance Matrix: (Units=1/GPa)
#
#
# Indices 1 2 3 4 5 6 
#
# 1 0.007869 -0.000548 -0.002399 0.000000 -0.000806 0.000000
# 2 -0.000548 0.013579 -0.004519 0.000000 0.000656 0.000000
# 3 -0.002399 -0.004519 0.013720 0.000000 0.010832 0.000000
# 4 0.000000 0.000000 0.000000 0.020051 0.000000 0.000484
# 5 -0.000806 0.000656 0.010832 0.000000 0.036206 0.000000
# 6 0.000000 0.000000 0.000000 0.000484 0.000000 0.026972
#
#
# Mechanical properties :
#
#
# Convention : Reuss Voigt Hill
#
# Bulk Modulus (GPa) = 49.41763 61.07273 55.24518
# Shear Modulus (GPa) = 35.69553 41.94874 38.82213
#
# Velocity S-wave (km/s) = 3.94893 4.28087 4.11824
# Velocity P-wave (km/s) = 6.51005 7.14946 6.83724
#
# Compressibility (1/GPa) = 0.02023569
#
# Stress axis : x y z
#
# Youngs Moduli (GPa) = 127.08513 73.64454 72.88471
#
# Poissons Ratio (x) = 0.04038 0.17484
# Poissons Ratio (y) = 0.06968 0.32936
# Poissons Ratio (z) = 0.30485 0.33279
#
# Static dielectric constant tensor:
#      x y z
#    x 1.870900 0.000000 0.058730 
#    y 0.000000 2.238390 0.000000 
#    z 0.058730 0.000000 1.826030 
# 
# From -- ./inp_files/77392.got.cif
#   From: 2010.05.17/outbox.cif.g08.bks.cpg/sg14_39_cif.got.tgz:77392.got - 2010.06.03 17:49:19.
