data_PCOD9251629
_publ_section_title
;
Structure prediction by ZEFSAII (Michael W. Deem and Ramdas Pophale) SiO2 
 PCOD9251629
Probable space group: P 21/C
;
_chemical_formula_sum "Si O2"
_cell_formula_units_Z 32
_cell_length_a 18.849662
_cell_length_b 8.095804
_cell_length_c 23.227397
_cell_angle_alpha 90.000000
_cell_angle_beta 158.583855
_cell_angle_gamma 90.000000
_cell_volume 1294.262795
_symmetry_space_group_name_H-M "P 21/C"
_symmetry_group_IT_number 14
_symmetry_cell_setting 'monoclinic'
loop_
_space_group_symop_operation_xyz
x,y,z
-x,1/2+y,1/2-z
-x,-y,-z
x,1/2-y,1/2+z
loop_
_atom_site_type_symbol
_atom_site_label
_atom_site_fract_x
_atom_site_fract_y
_atom_site_fract_z
Si Si1 0.131364 0.485266 0.809497
Si Si2 0.060062 0.163631 0.936128
Si Si3 0.234347 0.862105 0.188817
Si Si4 0.768145 0.297277 0.935733
Si Si5 0.087663 0.509095 0.235916
Si Si6 0.484687 0.311352 0.903745
Si Si7 0.428152 0.144098 0.747498
Si Si8 0.577567 0.708037 0.511826
O O1 0.000649 0.524654 0.655244
O O2 0.265311 0.324680 0.902278
O O3 0.999849 0.474744 0.766454
O O4 0.292641 0.630539 0.937101
O O5 0.961723 0.130179 0.922910
O O6 0.959723 0.327623 0.834810
O O7 0.281433 0.217691 0.110600
O O8 0.202492 0.807202 0.099755
O O9 0.377043 0.727218 0.326728
O O10 0.352971 0.031172 0.286511
O O11 0.635987 0.191741 0.878935
O O12 0.650232 0.465688 0.830293
O O13 0.966457 0.363300 0.113164
O O14 0.314201 0.466322 0.405555
O O15 0.431009 0.169421 0.818109
O O16 0.447532 0.276681 0.942622
#
# Coordination Sequence:
#
# PCOD9251629 Si02
#       8
#     4   4   4   4   4   4   4   4
#     4  11  21  46  65  95 128 175 218 272 321 388
#     4  11  25  43  65  97 131 173 214 271 330 384
#     4  11  24  44  66  96 135 168 217 271 320 394
#     4  11  26  45  65  95 132 174 215 270 327 388
#     4  11  26  41  66  95 136 168 220 271 324 390
#     4  11  22  45  69  94 133 172 221 268 323 385
#     4  11  26  44  68  94 132 173 216 269 327 389
#     4  11  24  42  70  98 128 177 218 269 332 382
#
# _framework density 24.724499999999999
#
# number of rings (size 3 to 8) (size 9 to 14) (size 15 to 20)
#    0.000    1.000    3.750    2.250   10.500    5.000 
#    0.000    0.000    0.000    0.000    0.000    0.000 
#    0.000    0.000    0.000    0.000    0.000    0.000 
#
# Total GULP energy -179591.368668 kJ/mol
# GULP energy per Si atom -5612.230271 kJ/mol
# Density = 2.466823 g / cm^3
# Si number density = 24.724500 Si / 1000 Ang^3
#
#
#
# Elastic Constant Matrix: (Units=GPa)
#
#
# Indices 1 2 3 4 5 6 
#
# 1 152.3898 14.7241 18.0916 0.0000 0.9320 0.0000
# 2 14.7241 56.5598 19.2601 0.0000 11.7457 0.0000
# 3 18.0916 19.2601 104.2712 0.0000 5.1248 0.0000
# 4 0.0000 0.0000 0.0000 54.3162 0.0000 -1.7287
# 5 0.9320 11.7457 5.1248 0.0000 35.2924 0.0000
# 6 0.0000 0.0000 0.0000 -1.7287 0.0000 34.3038
#
#
#
# Elastic Compliance Matrix: (Units=1/GPa)
#
#
# Indices 1 2 3 4 5 6 
#
# 1 0.006819 -0.001561 -0.000918 0.000000 0.000473 0.000000
# 2 -0.001561 0.020488 -0.003203 0.000000 -0.006312 0.000000
# 3 -0.000918 -0.003203 0.010362 0.000000 -0.000414 0.000000
# 4 0.000000 0.000000 0.000000 0.018440 0.000000 0.000929
# 5 0.000473 -0.006312 -0.000414 0.000000 0.030483 0.000000
# 6 0.000000 0.000000 0.000000 0.000929 0.000000 0.029198
#
#
# Mechanical properties :
#
#
# Convention : Reuss Voigt Hill
#
# Bulk Modulus (GPa) = 38.01594 46.37473 42.19534
# Shear Modulus (GPa) = 36.78542 42.19214 39.48878
#
# Velocity S-wave (km/s) = 3.86140 4.13545 4.00077
# Velocity P-wave (km/s) = 5.94052 6.44980 6.20039
#
# Compressibility (1/GPa) = 0.02630475
#
# Stress axis : x y z
#
# Youngs Moduli (GPa) = 146.64866 48.80811 96.50888
#
# Poissons Ratio (x) = 0.07618 0.08860
# Poissons Ratio (y) = 0.22888 0.30916
# Poissons Ratio (z) = 0.13464 0.15635
#
# Static dielectric constant tensor:
#      x y z
#    x 1.860170 0.000000 -0.020910 
#    y 0.000000 2.019580 0.000000 
#    z -0.020910 0.000000 1.917430 
# 
# From -- ./inp_files/78009.got.cif
#   From: 2010.05.17/outbox.cif.g08.bks.cpg/sg14_40_cif.got.tgz:78009.got - 2010.06.03 17:49:19.
