data_PCOD9251261
_publ_section_title
;
Structure prediction by ZEFSAII (Michael W. Deem and Ramdas Pophale) SiO2 
 PCOD9251261
Probable space group: P 21/C
;
_chemical_formula_sum "Si O2"
_cell_formula_units_Z 28
_cell_length_a 11.325931
_cell_length_b 8.600998
_cell_length_c 18.621771
_cell_angle_alpha 90.000000
_cell_angle_beta 44.185078
_cell_angle_gamma 90.000000
_cell_volume 1264.337558
_symmetry_space_group_name_H-M "P 21/C"
_symmetry_group_IT_number 14
_symmetry_cell_setting 'monoclinic'
loop_
_space_group_symop_operation_xyz
x,y,z
-x,1/2+y,1/2-z
-x,-y,-z
x,1/2-y,1/2+z
loop_
_atom_site_type_symbol
_atom_site_label
_atom_site_fract_x
_atom_site_fract_y
_atom_site_fract_z
Si Si1 0.510671 0.448868 0.892551
Si Si2 0.393465 0.625664 0.686434
Si Si3 0.853421 0.562945 0.784766
Si Si4 0.828379 0.654008 0.197498
Si Si5 0.677203 0.574865 0.675100
Si Si6 0.884384 0.561884 0.935097
Si Si7 0.095893 0.834841 0.869356
O O1 0.551785 0.266541 0.889459
O O2 0.647244 0.545256 0.879620
O O3 0.569058 0.494883 0.786401
O O4 0.312055 0.477977 0.977859
O O5 0.299454 0.466403 0.707978
O O6 0.560972 0.584389 0.657163
O O7 0.247665 0.708374 0.798263
O O8 0.893495 0.722080 0.726855
O O9 0.929609 0.563905 0.830171
O O10 0.908836 0.427057 0.705207
O O11 0.727919 0.756321 0.182939
O O12 0.986987 0.567406 0.092095
O O13 0.839995 0.461933 0.601706
O O14 0.928987 0.730470 0.948413
#
# Coordination Sequence:
#
# PCOD9251261 Si02
#       7
#     4   4   4   4   4   4   4
#     4   9  20  32  50  76  97 123 166 202 241 285
#     4   9  16  33  53  67  93 131 162 196 237 292
#     4   9  18  34  51  70  99 135 161 189 238 296
#     4   9  18  30  52  75  92 130 172 187 233 304
#     4   9  17  35  52  69  95 131 164 197 237 295
#     4  11  18  32  50  74 104 125 154 211 242 269
#     4   8  18  30  48  75  96 125 166 190 234 299
#
# _framework density 22.145982
#
# number of rings (size 3 to 8) (size 9 to 14) (size 15 to 20)
#    0.000    3.429    0.000    3.000    0.000    0.000 
#    0.000   13.571    0.000    0.000    0.000    1.000 
#    0.000    0.000    0.000    0.000    0.000    0.000 
#
# Total GULP energy -156061.393831 kJ/mol
# GULP energy per Si atom -5573.621208 kJ/mol
# Density = 2.209558 g / cm^3
# Si number density = 22.145982 Si / 1000 Ang^3
#
#
#
# Elastic Constant Matrix: (Units=GPa)
#
#
# Indices 1 2 3 4 5 6 
#
# 1 48.4019 14.6225 6.8117 0.0000 -6.9110 0.0000
# 2 14.6225 109.6635 26.2264 0.0000 -12.1976 0.0000
# 3 6.8117 26.2264 69.8327 0.0000 -18.0997 0.0000
# 4 0.0000 0.0000 0.0000 13.0863 0.0000 -9.3399
# 5 -6.9110 -12.1976 -18.0997 0.0000 20.5279 0.0000
# 6 0.0000 0.0000 0.0000 -9.3399 0.0000 19.4170
#
#
#
# Elastic Compliance Matrix: (Units=1/GPa)
#
#
# Indices 1 2 3 4 5 6 
#
# 1 0.022232 -0.002339 0.000376 0.000000 0.006426 0.000000
# 2 -0.002339 0.010453 -0.002971 0.000000 0.002804 0.000000
# 3 0.000376 -0.002971 0.019410 0.000000 0.015475 0.000000
# 4 0.000000 0.000000 0.000000 0.116365 0.000000 0.055973
# 5 0.006426 0.002804 0.015475 0.000000 0.066188 0.000000
# 6 0.000000 0.000000 0.000000 0.055973 0.000000 0.078425
#
#
# Mechanical properties :
#
#
# Convention : Reuss Voigt Hill
#
# Bulk Modulus (GPa) = 23.68244 35.91325 29.79784
# Shear Modulus (GPa) = 14.83602 22.62208 18.72905
#
# Velocity S-wave (km/s) = 2.59109 3.19956 2.91126
# Velocity P-wave (km/s) = 4.43493 5.46821 4.97845
#
# Compressibility (1/GPa) = 0.04222539
#
# Stress axis : x y z
#
# Youngs Moduli (GPa) = 44.98076 95.66521 51.51985
#
# Poissons Ratio (x) = 0.22381 -0.01935
# Poissons Ratio (y) = 0.10523 0.15305
# Poissons Ratio (z) = -0.01689 0.28420
#
# Static dielectric constant tensor:
#      x y z
#    x 1.814320 0.000000 0.012230 
#    y 0.000000 1.847460 0.000000 
#    z 0.012230 0.000000 1.893880 
# 
# From -- ./inp_files/76949.got.cif
#   From: 2010.05.17/outbox.cif.g08.bks.cpg/sg14_39_cif.got.tgz:76949.got - 2010.06.03 17:49:19.
