data_PCOD9251357
_publ_section_title
;
Structure prediction by ZEFSAII (Michael W. Deem and Ramdas Pophale) SiO2 
 PCOD9251357
Probable space group: P 21/C
;
_chemical_formula_sum "Si O2"
_cell_formula_units_Z 20
_cell_length_a 12.078244
_cell_length_b 12.156979
_cell_length_c 8.506519
_cell_angle_alpha 90.000000
_cell_angle_beta 39.389218
_cell_angle_gamma 90.000000
_cell_volume 792.631274
_symmetry_space_group_name_H-M "P 21/C"
_symmetry_group_IT_number 14
_symmetry_cell_setting 'monoclinic'
loop_
_space_group_symop_operation_xyz
x,y,z
-x,1/2+y,1/2-z
-x,-y,-z
x,1/2-y,1/2+z
loop_
_atom_site_type_symbol
_atom_site_label
_atom_site_fract_x
_atom_site_fract_y
_atom_site_fract_z
Si Si1 0.851105 0.089135 0.814980
Si Si2 0.288621 0.213122 0.468938
Si Si3 0.884351 0.208537 0.447231
Si Si4 0.140027 0.497905 0.206980
Si Si5 0.610952 0.597376 0.461270
O O1 0.855784 0.158686 0.649971
O O2 0.796691 0.173950 0.010471
O O3 0.741127 0.980969 0.913320
O O4 0.039067 0.045341 0.661621
O O5 0.326519 0.172623 0.252335
O O6 0.426277 0.304411 0.374660
O O7 0.092824 0.266639 0.696725
O O8 0.280601 0.098409 0.577935
O O9 0.815797 0.120262 0.395219
O O10 0.000000 0.500000 0.500000
O O11 0.500000 0.500000 0.500000
#
# Coordination Sequence:
#
# PCOD9251357 Si02
#       5
#     4   4   4   4   4
#     4  11  23  40  64 104 140 178 228 282 358 406
#     4  11  23  43  70 102 136 181 234 284 361 396
#     4  11  20  37  70 101 144 167 217 308 354 407
#     4  11  20  36  68 106 138 170 218 301 360 406
#     4  12  27  48  70  94 148 195 235 276 329 433
#
# _framework density 25.232413000000001
#
# number of rings (size 3 to 8) (size 9 to 14) (size 15 to 20)
#    0.000    0.800    4.000    6.600    0.000    1.600 
#    0.000    1.000    0.000    0.000    0.000    0.000 
#    0.000    0.000    0.000    0.000    0.000    0.000 
#
# Total GULP energy -111666.819050 kJ/mol
# GULP energy per Si atom -5583.340953 kJ/mol
# Density = 2.517498 g / cm^3
# Si number density = 25.232413 Si / 1000 Ang^3
#
#
#
# Elastic Constant Matrix: (Units=GPa)
#
#
# Indices 1 2 3 4 5 6 
#
# 1 47.0174 40.4412 19.3688 0.0000 10.8370 0.0000
# 2 40.4412 181.7401 14.3435 0.0000 5.8730 0.0000
# 3 19.3688 14.3435 29.8092 0.0000 17.1261 0.0000
# 4 0.0000 0.0000 0.0000 38.1493 0.0000 16.2129
# 5 10.8370 5.8730 17.1261 0.0000 33.7054 0.0000
# 6 0.0000 0.0000 0.0000 16.2129 0.0000 73.6920
#
#
#
# Elastic Compliance Matrix: (Units=1/GPa)
#
#
# Indices 1 2 3 4 5 6 
#
# 1 0.034612 -0.006163 -0.019415 0.000000 -0.000190 0.000000
# 2 -0.006163 0.006825 0.000375 0.000000 0.000602 0.000000
# 3 -0.019415 0.000375 0.059926 0.000000 -0.024272 0.000000
# 4 0.000000 0.000000 0.000000 0.028917 0.000000 -0.006362
# 5 -0.000190 0.000602 -0.024272 0.000000 0.041958 0.000000
# 6 0.000000 0.000000 0.000000 -0.006362 0.000000 0.014970
#
#
# Mechanical properties :
#
#
# Convention : Reuss Voigt Hill
#
# Bulk Modulus (GPa) = 19.62460 45.20819 32.41639
# Shear Modulus (GPa) = 19.63878 41.40354 30.52116
#
# Velocity S-wave (km/s) = 2.79286 4.05518 3.48171
# Velocity P-wave (km/s) = 4.26550 6.31519 5.38870
#
# Compressibility (1/GPa) = 0.05095646
#
# Stress axis : x y z
#
# Youngs Moduli (GPa) = 28.89203 146.52393 16.68722
#
# Poissons Ratio (x) = 0.90309 0.32397
# Poissons Ratio (y) = 0.17807 -0.00626
# Poissons Ratio (z) = 0.56093 -0.05494
#
# Static dielectric constant tensor:
#      x y z
#    x 2.100680 0.000000 -0.062200 
#    y 0.000000 2.053980 0.000000 
#    z -0.062200 0.000000 2.144420 
# 
# From -- ./inp_files/12255.got.cif
#   From: 2010.05.17/outbox.cif.g08.bks.cpg/sg14_7_cif.got.tgz:12255.got - 2010.06.03 17:49:19.
