data_PCOD9251953
_publ_section_title
;
Structure prediction by ZEFSAII (Michael W. Deem and Ramdas Pophale) SiO2 
 PCOD9251953
Probable space group: P 21/C
;
_chemical_formula_sum "Si O2"
_cell_formula_units_Z 28
_cell_length_a 11.733049
_cell_length_b 12.279332
_cell_length_c 19.507784
_cell_angle_alpha 90.000000
_cell_angle_beta 153.096143
_cell_angle_gamma 90.000000
_cell_volume 1271.765681
_symmetry_space_group_name_H-M "P 21/C"
_symmetry_group_IT_number 14
_symmetry_cell_setting 'monoclinic'
loop_
_space_group_symop_operation_xyz
x,y,z
-x,1/2+y,1/2-z
-x,-y,-z
x,1/2-y,1/2+z
loop_
_atom_site_type_symbol
_atom_site_label
_atom_site_fract_x
_atom_site_fract_y
_atom_site_fract_z
Si Si1 0.055054 0.461670 0.920188
Si Si2 0.365373 0.583897 0.526727
Si Si3 0.495631 0.868892 0.417821
Si Si4 0.403974 0.624612 0.393433
Si Si5 0.630208 0.758010 0.756048
Si Si6 0.143529 0.838183 0.555650
Si Si7 0.774998 0.910658 0.711444
O O1 0.104776 0.585745 0.967512
O O2 0.862374 0.438682 0.755475
O O3 0.314291 0.401602 0.041214
O O4 0.909347 0.410105 0.906313
O O5 0.464899 0.626921 0.506624
O O6 0.404798 0.454160 0.543951
O O7 0.527600 0.642558 0.672122
O O8 0.071995 0.612192 0.375187
O O9 0.394514 0.746496 0.360230
O O10 0.656702 0.879471 0.574655
O O11 0.283331 0.961658 0.308237
O O12 0.424641 0.794297 0.701060
O O13 0.636735 0.841680 0.696164
O O14 0.916589 0.747803 0.934235
#
# Coordination Sequence:
#
# PCOD9251953 Si02
#       7
#     4   4   4   4   4   4   4
#     4  11  24  45  63  91 129 175 214 261 321 383
#     4  11  23  39  64  98 130 165 209 265 330 386
#     4  11  24  40  64  95 131 165 209 269 326 387
#     4  11  24  40  64  95 131 165 209 269 326 387
#     4  12  22  44  66  94 128 174 214 266 312 402
#     4  11  26  43  67  89 133 179 221 258 318 384
#     4  11  23  39  64  98 130 165 209 265 330 386
#
# _framework density 22.016634
#
# number of rings (size 3 to 8) (size 9 to 14) (size 15 to 20)
#    0.000    0.857    7.143    0.000    4.000    0.000 
#    0.000    0.000    0.000    5.143    0.000    0.000 
#    0.000    0.000    0.000    0.000    0.000    0.000 
#
# Total GULP energy -156517.847295 kJ/mol
# GULP energy per Si atom -5589.923118 kJ/mol
# Density = 2.196652 g / cm^3
# Si number density = 22.016634 Si / 1000 Ang^3
#
#
#
# Elastic Constant Matrix: (Units=GPa)
#
#
# Indices 1 2 3 4 5 6 
#
# 1 72.8341 15.4293 8.6654 0.0000 25.2618 0.0000
# 2 15.4293 93.5496 4.1189 0.0000 13.5424 0.0000
# 3 8.6654 4.1189 43.0710 0.0000 22.4468 0.0000
# 4 0.0000 0.0000 0.0000 27.0121 0.0000 3.4743
# 5 25.2618 13.5424 22.4468 0.0000 31.4902 0.0000
# 6 0.0000 0.0000 0.0000 3.4743 0.0000 27.7219
#
#
#
# Elastic Compliance Matrix: (Units=1/GPa)
#
#
# Indices 1 2 3 4 5 6 
#
# 1 0.020299 -0.000623 0.006878 0.000000 -0.020919 0.000000
# 2 -0.000623 0.011567 0.002150 0.000000 -0.006008 0.000000
# 3 0.006878 0.002150 0.039754 0.000000 -0.034779 0.000000
# 4 0.000000 0.000000 0.000000 0.037627 0.000000 -0.004716
# 5 -0.020919 -0.006008 -0.034779 0.000000 0.075912 0.000000
# 6 0.000000 0.000000 0.000000 -0.004716 0.000000 0.036664
#
#
# Mechanical properties :
#
#
# Convention : Reuss Voigt Hill
#
# Bulk Modulus (GPa) = 11.30839 29.54243 20.42541
# Shear Modulus (GPa) = 21.32301 29.32758 25.32529
#
# Velocity S-wave (km/s) = 3.11544 3.65371 3.39526
# Velocity P-wave (km/s) = 4.25309 5.58988 4.96667
#
# Compressibility (1/GPa) = 0.08842991
#
# Stress axis : x y z
#
# Youngs Moduli (GPa) = 49.26366 86.45129 25.15502
#
# Poissons Ratio (x) = 0.05382 -0.17301
# Poissons Ratio (y) = 0.03067 -0.05408
# Poissons Ratio (z) = -0.33882 -0.18587
#
# Static dielectric constant tensor:
#      x y z
#    x 1.808470 0.000000 -0.030680 
#    y 0.000000 1.811540 0.000000 
#    z -0.030680 0.000000 1.835580 
# 
# From -- ./inp_files/67318.got.cif
#   From: 2010.05.17/outbox.cif.g08.bks.cpg/sg14_34_cif.got.tgz:67318.got - 2010.06.03 17:49:19.
