data_PCOD9251601
_publ_section_title
;
Structure prediction by ZEFSAII (Michael W. Deem and Ramdas Pophale) SiO2 
 PCOD9251601
Probable space group: P 21/C
;
_chemical_formula_sum "Si O2"
_cell_formula_units_Z 32
_cell_length_a 9.471531
_cell_length_b 13.381179
_cell_length_c 13.602098
_cell_angle_alpha 90.000000
_cell_angle_beta 132.696583
_cell_angle_gamma 90.000000
_cell_volume 1267.013482
_symmetry_space_group_name_H-M "P 21/C"
_symmetry_group_IT_number 14
_symmetry_cell_setting 'monoclinic'
loop_
_space_group_symop_operation_xyz
x,y,z
-x,1/2+y,1/2-z
-x,-y,-z
x,1/2-y,1/2+z
loop_
_atom_site_type_symbol
_atom_site_label
_atom_site_fract_x
_atom_site_fract_y
_atom_site_fract_z
Si Si1 0.798933 0.126570 0.170056
Si Si2 0.055559 0.286474 0.638752
Si Si3 0.540039 0.153964 0.227123
Si Si4 0.790623 0.517417 0.349432
Si Si5 0.821118 0.467725 0.980571
Si Si6 0.112590 0.256061 0.936135
Si Si7 0.522494 0.857812 0.343457
Si Si8 0.920314 0.905929 0.231166
O O1 0.850636 0.185275 0.093810
O O2 0.620067 0.155708 0.153425
O O3 0.976084 0.162435 0.322252
O O4 0.799656 0.006752 0.162110
O O5 0.934589 0.739895 0.471604
O O6 0.142438 0.187835 0.730618
O O7 0.167074 0.391817 0.706619
O O8 0.712200 0.122102 0.378538
O O9 0.499888 0.267020 0.242029
O O10 0.366684 0.074657 0.155592
O O11 0.679000 0.420510 0.251275
O O12 0.000000 0.500000 0.500000
O O13 0.670783 0.555143 0.895518
O O14 0.887231 0.441418 0.121279
O O15 0.000000 0.500000 0.000000
O O16 0.063361 0.150852 0.862868
O O17 0.330456 0.292618 0.016074
#
# Coordination Sequence:
#
# PCOD9251601 Si02
#       8
#     4   4   4   4   4   4   4   4
#     4  11  25  45  80 121 156 219 274 344 425 501
#     4  11  26  46  78 116 162 215 271 336 423 500
#     4  11  24  43  80 121 158 210 277 343 415 503
#     4  11  28  45  74 120 164 224 276 351 422 490
#     4  11  21  43  82 117 156 215 267 337 418 508
#     4  11  24  48  79 119 169 215 268 349 421 509
#     4  11  24  45  80 116 169 209 278 341 418 495
#     4  11  24  43  83 118 161 206 281 329 421 512
#
# _framework density 25.256243999999999
#
# number of rings (size 3 to 8) (size 9 to 14) (size 15 to 20)
#    0.000    1.000    3.750    1.500    7.000    1.000 
#    0.000    5.000   27.500    0.000    0.000    0.000 
#    0.000    0.000    0.000    1.125    0.000    0.000 
#
# Total GULP energy -178360.281781 kJ/mol
# GULP energy per Si atom -5573.758806 kJ/mol
# Density = 2.519876 g / cm^3
# Si number density = 25.256244 Si / 1000 Ang^3
#
#
#
# Elastic Constant Matrix: (Units=GPa)
#
#
# Indices 1 2 3 4 5 6 
#
# 1 131.6549 41.2925 54.0293 0.0000 -9.0242 0.0000
# 2 41.2925 166.3988 69.8889 0.0000 6.3844 0.0000
# 3 54.0293 69.8889 131.8694 0.0000 23.0426 0.0000
# 4 0.0000 0.0000 0.0000 58.2491 0.0000 3.6595
# 5 -9.0242 6.3844 23.0426 0.0000 45.5580 0.0000
# 6 0.0000 0.0000 0.0000 3.6595 0.0000 41.4634
#
#
#
# Elastic Compliance Matrix: (Units=1/GPa)
#
#
# Indices 1 2 3 4 5 6 
#
# 1 0.009948 -0.000779 -0.004417 0.000000 0.004314 0.000000
# 2 -0.000779 0.007841 -0.003968 0.000000 0.000754 0.000000
# 3 -0.004417 -0.003968 0.012671 0.000000 -0.006728 0.000000
# 4 0.000000 0.000000 0.000000 0.017263 0.000000 -0.001524
# 5 0.004314 0.000754 -0.006728 0.000000 0.026102 0.000000
# 6 0.000000 0.000000 0.000000 -0.001524 0.000000 0.024252
#
#
# Mechanical properties :
#
#
# Convention : Reuss Voigt Hill
#
# Bulk Modulus (GPa) = 82.42235 84.48272 83.45254
# Shear Modulus (GPa) = 41.51115 46.70162 44.10639
#
# Velocity S-wave (km/s) = 4.05853 4.30480 4.18348
# Velocity P-wave (km/s) = 7.39375 7.63094 7.51328
#
# Compressibility (1/GPa) = 0.01213263
#
# Stress axis : x y z
#
# Youngs Moduli (GPa) = 100.52005 127.54066 78.91731
#
# Poissons Ratio (x) = 0.09937 0.34857
# Poissons Ratio (y) = 0.07831 0.31314
# Poissons Ratio (z) = 0.44398 0.50607
#
# Static dielectric constant tensor:
#      x y z
#    x 2.062160 0.000000 0.055180 
#    y 0.000000 2.120540 0.000000 
#    z 0.055180 0.000000 1.745120 
# 
# From -- ./inp_files/67441.got.cif
#   From: 2010.05.17/outbox.cif.g08.bks.cpg/sg14_34_cif.got.tgz:67441.got - 2010.06.03 17:49:19.
