data_PCOD9251745
_publ_section_title
;
Structure prediction by ZEFSAII (Michael W. Deem and Ramdas Pophale) SiO2 
 PCOD9251745
Probable space group: P 21/C
;
_chemical_formula_sum "Si O2"
_cell_formula_units_Z 16
_cell_length_a 16.911759
_cell_length_b 8.401550
_cell_length_c 11.798615
_cell_angle_alpha 90.000000
_cell_angle_beta 20.050213
_cell_angle_gamma 90.000000
_cell_volume 574.744998
_symmetry_space_group_name_H-M "P 21/C"
_symmetry_group_IT_number 14
_symmetry_cell_setting 'monoclinic'
loop_
_space_group_symop_operation_xyz
x,y,z
-x,1/2+y,1/2-z
-x,-y,-z
x,1/2-y,1/2+z
loop_
_atom_site_type_symbol
_atom_site_label
_atom_site_fract_x
_atom_site_fract_y
_atom_site_fract_z
Si Si1 0.816700 0.668974 0.134013
Si Si2 0.772646 0.300780 0.779696
Si Si3 0.161324 0.002167 0.027424
Si Si4 0.495688 0.013485 0.221345
O O1 0.589716 0.610673 0.502368
O O2 0.808946 0.831002 0.074711
O O3 0.006826 0.701337 0.976296
O O4 0.205429 0.633492 0.374927
O O5 0.083193 0.033704 0.583856
O O6 0.550823 0.185915 0.095661
O O7 0.743221 0.450044 0.906292
O O8 0.346106 0.987948 0.878895
#
# Coordination Sequence:
#
# PCOD9251745 Si02
#       4
#     4   4   4   4
#     4  11  23  42  64  91 123 160 203 252 302 359
#     4  11  23  41  63  90 124 162 202 250 302 359
#     4  11  22  41  64  90 123 163 201 249 303 358
#     4  11  24  42  62  91 125 159 203 253 300 360
#
# _framework density 27.838432999999998
#
# number of rings (size 3 to 8) (size 9 to 14) (size 15 to 20)
#    0.000    1.000    0.000    9.000    0.000    4.000 
#    0.000    7.500    0.000    0.000    0.000    0.000 
#    0.000    0.000    0.000    0.000    0.000    0.000 
#
# Total GULP energy -89947.866291 kJ/mol
# GULP energy per Si atom -5621.741643 kJ/mol
# Density = 2.777507 g / cm^3
# Si number density = 27.838433 Si / 1000 Ang^3
#
#
#
# Elastic Constant Matrix: (Units=GPa)
#
#
# Indices 1 2 3 4 5 6 
#
# 1 151.4097 77.5760 46.0009 0.0000 37.7286 0.0000
# 2 77.5760 139.0921 24.5966 0.0000 16.7746 0.0000
# 3 46.0009 24.5966 104.5724 0.0000 31.2758 0.0000
# 4 0.0000 0.0000 0.0000 59.9986 0.0000 18.7791
# 5 37.7286 16.7746 31.2758 0.0000 48.4007 0.0000
# 6 0.0000 0.0000 0.0000 18.7791 0.0000 71.8202
#
#
#
# Elastic Compliance Matrix: (Units=1/GPa)
#
#
# Indices 1 2 3 4 5 6 
#
# 1 0.011353 -0.005283 -0.002048 0.000000 -0.005695 0.000000
# 2 -0.005283 0.010090 -0.000291 0.000000 0.000809 0.000000
# 3 -0.002048 -0.000291 0.012426 0.000000 -0.006332 0.000000
# 4 0.000000 0.000000 0.000000 0.018153 0.000000 -0.004746
# 5 -0.005695 0.000809 -0.006332 0.000000 0.028911 0.000000
# 6 0.000000 0.000000 0.000000 -0.004746 0.000000 0.015165
#
#
# Mechanical properties :
#
#
# Convention : Reuss Voigt Hill
#
# Bulk Modulus (GPa) = 53.69440 76.82455 65.25948
# Shear Modulus (GPa) = 42.53526 52.50395 47.51961
#
# Velocity S-wave (km/s) = 3.91312 4.34755 4.13604
# Velocity P-wave (km/s) = 6.30448 7.27036 6.80457
#
# Compressibility (1/GPa) = 0.01862391
#
# Stress axis : x y z
#
# Youngs Moduli (GPa) = 88.08563 99.11074 80.47609
#
# Poissons Ratio (x) = 0.52357 0.16482
# Poissons Ratio (y) = 0.46533 0.02345
# Poissons Ratio (z) = 0.18041 0.02889
#
# Static dielectric constant tensor:
#      x y z
#    x 2.123480 0.000000 -0.076270 
#    y 0.000000 2.190710 0.000000 
#    z -0.076270 0.000000 2.151450 
# 
# From -- ./inp_files/22592.got.cif
#   From: 2010.05.17/outbox.cif.g08.bks.cpg/sg14_12_cif.got.tgz:22592.got - 2010.06.03 17:49:19.
