data_PCOD9251149
_publ_section_title
;
Structure prediction by ZEFSAII (Michael W. Deem and Ramdas Pophale) SiO2 
 PCOD9251149
Probable space group: P 21/C
;
_chemical_formula_sum "Si O2"
_cell_formula_units_Z 22
_cell_length_a 11.038069
_cell_length_b 5.042252
_cell_length_c 25.194055
_cell_angle_alpha 90.000000
_cell_angle_beta 41.277136
_cell_angle_gamma 90.000000
_cell_volume 925.046167
_symmetry_space_group_name_H-M "P 21/C"
_symmetry_group_IT_number 14
_symmetry_cell_setting 'monoclinic'
loop_
_space_group_symop_operation_xyz
x,y,z
-x,1/2+y,1/2-z
-x,-y,-z
x,1/2-y,1/2+z
loop_
_atom_site_type_symbol
_atom_site_label
_atom_site_fract_x
_atom_site_fract_y
_atom_site_fract_z
Si Si1 0.879273 0.785361 0.293583
Si Si2 0.616598 0.727723 0.285238
Si Si3 0.379854 0.254584 0.025165
Si Si4 0.309911 0.122246 0.934122
Si Si5 0.241227 0.987701 0.368094
Si Si6 0.000000 0.000000 0.000000
O O1 0.735295 0.852266 0.293715
O O2 0.789731 0.755044 0.380202
O O3 0.967186 0.505383 0.251649
O O4 0.497434 0.491518 0.350867
O O5 0.452261 0.913183 0.316177
O O6 0.737725 0.610728 0.197350
O O7 0.500000 0.500000 0.000000
O O8 0.338085 0.279366 0.977251
O O9 0.500000 0.000000 0.000000
O O10 0.191288 0.264642 0.925249
O O11 0.152672 0.906492 0.995727
O O12 0.113129 0.734222 0.419035
#
# Coordination Sequence:
#
# PCOD9251149 Si02
#       6
#     4   4   4   4   4   2
#     4  12  29  49  73 112 152 196 249 312 372 442
#     4  11  24  43  73 102 142 193 241 295 370 439
#     4  12  26  49  77 104 143 199 250 300 366 449
#     4  11  24  45  71 100 143 186 241 295 367 439
#     4  11  23  45  71 104 142 188 241 304 367 437
#     4  10  26  42  66 108 136 182 236 302 366 430
#
# _framework density 23.782596999999999
#
# number of rings (size 3 to 8) (size 9 to 14) (size 15 to 20)
#    0.000    0.727    3.636    2.727    7.636    1.455 
#    0.000    0.000    0.000    0.000    0.000    0.000 
#    0.000    0.000    0.000    0.000    0.000    0.000 
#
# Total GULP energy -122683.799954 kJ/mol
# GULP energy per Si atom -5576.536362 kJ/mol
# Density = 2.372847 g / cm^3
# Si number density = 23.782597 Si / 1000 Ang^3
#
#
#
# Elastic Constant Matrix: (Units=GPa)
#
#
# Indices 1 2 3 4 5 6 
#
# 1 92.1909 1.6014 27.3448 0.0000 19.1758 0.0000
# 2 1.6014 104.3522 27.2791 0.0000 -3.5473 0.0000
# 3 27.3448 27.2791 131.3574 0.0000 5.5517 0.0000
# 4 0.0000 0.0000 0.0000 32.3434 0.0000 -9.1933
# 5 19.1758 -3.5473 5.5517 0.0000 44.1369 0.0000
# 6 0.0000 0.0000 0.0000 -9.1933 0.0000 43.5734
#
#
#
# Elastic Compliance Matrix: (Units=1/GPa)
#
#
# Indices 1 2 3 4 5 6 
#
# 1 0.012649 0.000277 -0.002473 0.000000 -0.005162 0.000000
# 2 0.000277 0.010191 -0.002215 0.000000 0.000977 0.000000
# 3 -0.002473 -0.002215 0.008595 0.000000 -0.000185 0.000000
# 4 0.000000 0.000000 0.000000 0.032891 0.000000 0.006939
# 5 -0.005162 0.000977 -0.000185 0.000000 0.025002 0.000000
# 6 0.000000 0.000000 0.000000 0.006939 0.000000 0.024414
#
#
# Mechanical properties :
#
#
# Convention : Reuss Voigt Hill
#
# Bulk Modulus (GPa) = 44.22101 48.92787 46.57444
# Shear Modulus (GPa) = 38.43139 42.12241 40.27690
#
# Velocity S-wave (km/s) = 4.02424 4.21306 4.11973
# Velocity P-wave (km/s) = 6.34247 6.65463 6.50043
#
# Compressibility (1/GPa) = 0.02261368
#
# Stress axis : x y z
#
# Youngs Moduli (GPa) = 79.05501 98.12556 116.34133
#
# Poissons Ratio (x) = -0.02716 0.28766
# Poissons Ratio (y) = -0.02188 0.25773
# Poissons Ratio (z) = 0.19547 0.21738
#
# Static dielectric constant tensor:
#      x y z
#    x 1.924460 0.000000 -0.092960 
#    y 0.000000 2.164570 0.000000 
#    z -0.092960 0.000000 1.998020 
# 
# From -- ./inp_files/56422.got.cif
#   From: 2010.05.17/outbox.cif.g08.bks.cpg/sg14_29_cif.got.tgz:56422.got - 2010.06.03 17:49:19.
