data_PCOD9251258
_publ_section_title
;
Structure prediction by ZEFSAII (Michael W. Deem and Ramdas Pophale) SiO2 
 PCOD9251258
Probable space group: P 21/C
;
_chemical_formula_sum "Si O2"
_cell_formula_units_Z 32
_cell_length_a 18.595439
_cell_length_b 9.042171
_cell_length_c 13.109050
_cell_angle_alpha 90.000000
_cell_angle_beta 44.978101
_cell_angle_gamma 90.000000
_cell_volume 1558.006692
_symmetry_space_group_name_H-M "P 21/C"
_symmetry_group_IT_number 14
_symmetry_cell_setting 'monoclinic'
loop_
_space_group_symop_operation_xyz
x,y,z
-x,1/2+y,1/2-z
-x,-y,-z
x,1/2-y,1/2+z
loop_
_atom_site_type_symbol
_atom_site_label
_atom_site_fract_x
_atom_site_fract_y
_atom_site_fract_z
Si Si1 0.132789 0.213744 0.527406
Si Si2 0.831496 0.979638 0.797900
Si Si3 0.386912 0.527804 0.737211
Si Si4 0.293036 0.115128 0.520266
Si Si5 0.612699 0.628738 0.465134
Si Si6 0.176450 0.883458 0.397287
Si Si7 0.945205 0.141161 0.857521
Si Si8 0.115547 0.352191 0.332374
O O1 0.229134 0.222427 0.506969
O O2 0.130374 0.328857 0.437309
O O3 0.028239 0.207758 0.695219
O O4 0.149029 0.046591 0.467926
O O5 0.858163 0.104099 0.685444
O O6 0.879069 0.027868 0.857090
O O7 0.708908 0.963060 0.913518
O O8 0.875168 0.821338 0.715218
O O9 0.502313 0.578499 0.612030
O O10 0.379691 0.390333 0.664697
O O11 0.298447 0.634575 0.783094
O O12 0.352899 0.492382 0.885768
O O13 0.368249 0.207896 0.514358
O O14 0.206324 0.059561 0.684855
O O15 0.123859 0.765459 0.521707
O O16 0.013496 0.086026 0.884214
#
# Coordination Sequence:
#
# PCOD9251258 Si02
#       8
#     4   4   4   4   4   4   4   4
#     4   9  18  32  49  68  92 126 163 192 225 279
#     4   9  18  32  48  68  94 123 158 196 232 277
#     4   9  18  33  53  74  94 121 159 197 232 276
#     4   9  16  29  54  74  90 121 162 197 228 270
#     4   9  18  33  53  74  94 121 159 197 232 276
#     4   9  18  32  48  68  94 123 158 196 232 277
#     4  11  18  25  48  74  94 121 156 195 236 274
#     4   9  18  32  49  68  92 126 163 192 225 279
#
# _framework density 20.539065999999998
#
# number of rings (size 3 to 8) (size 9 to 14) (size 15 to 20)
#    0.000    2.750    0.000    3.750    0.000    3.000 
#    0.000    0.000    0.000   69.000    0.000    0.000 
#    0.000    0.000    0.000    0.000    0.000    0.000 
#
# Total GULP energy -178335.352573 kJ/mol
# GULP energy per Si atom -5572.979768 kJ/mol
# Density = 2.049232 g / cm^3
# Si number density = 20.539066 Si / 1000 Ang^3
#
#
#
# Elastic Constant Matrix: (Units=GPa)
#
#
# Indices 1 2 3 4 5 6 
#
# 1 84.7548 8.6004 17.7522 0.0000 -7.3518 0.0000
# 2 8.6004 18.5372 6.2128 0.0000 -6.3659 0.0000
# 3 17.7522 6.2128 67.1356 0.0000 -8.8467 0.0000
# 4 0.0000 0.0000 0.0000 26.6656 0.0000 11.5473
# 5 -7.3518 -6.3659 -8.8467 0.0000 33.5443 0.0000
# 6 0.0000 0.0000 0.0000 11.5473 0.0000 23.2826
#
#
#
# Elastic Compliance Matrix: (Units=1/GPa)
#
#
# Indices 1 2 3 4 5 6 
#
# 1 0.012970 -0.004650 -0.002840 0.000000 0.001211 0.000000
# 2 -0.004650 0.060449 -0.003095 0.000000 0.009637 0.000000
# 3 -0.002840 -0.003095 0.016341 0.000000 0.003100 0.000000
# 4 0.000000 0.000000 0.000000 0.047759 0.000000 -0.023687
# 5 0.001211 0.009637 0.003100 0.000000 0.032723 0.000000
# 6 0.000000 0.000000 0.000000 -0.023687 0.000000 0.054698
#
#
# Mechanical properties :
#
#
# Convention : Reuss Voigt Hill
#
# Bulk Modulus (GPa) = 14.57893 26.17317 20.37605
# Shear Modulus (GPa) = 18.58918 25.88932 22.23925
#
# Velocity S-wave (km/s) = 3.01169 3.55419 3.29413
# Velocity P-wave (km/s) = 4.38261 5.44186 4.94070
#
# Compressibility (1/GPa) = 0.06859214
#
# Stress axis : x y z
#
# Youngs Moduli (GPa) = 77.09828 16.54274 61.19575
#
# Poissons Ratio (x) = 0.07692 0.17378
# Poissons Ratio (y) = 0.35851 0.18938
# Poissons Ratio (z) = 0.21894 0.05119
#
# Static dielectric constant tensor:
#      x y z
#    x 1.761490 0.000000 0.020830 
#    y 0.000000 1.770350 0.000000 
#    z 0.020830 0.000000 1.788910 
# 
# From -- ./inp_files/33819.got.cif
#   From: 2010.05.17/outbox.cif.g08.bks.cpg/sg14_17_cif.got.tgz:33819.got - 2010.06.03 17:49:19.
