data_PCOD9251381
_publ_section_title
;
Structure prediction by ZEFSAII (Michael W. Deem and Ramdas Pophale) SiO2 
 PCOD9251381
Probable space group: P 21/C
;
_chemical_formula_sum "Si O2"
_cell_formula_units_Z 26
_cell_length_a 5.273524
_cell_length_b 11.875970
_cell_length_c 16.176514
_cell_angle_alpha 90.000000
_cell_angle_beta 83.722321
_cell_angle_gamma 90.000000
_cell_volume 1007.031202
_symmetry_space_group_name_H-M "P 21/C"
_symmetry_group_IT_number 14
_symmetry_cell_setting 'monoclinic'
loop_
_space_group_symop_operation_xyz
x,y,z
-x,1/2+y,1/2-z
-x,-y,-z
x,1/2-y,1/2+z
loop_
_atom_site_type_symbol
_atom_site_label
_atom_site_fract_x
_atom_site_fract_y
_atom_site_fract_z
Si Si1 0.525127 0.747551 0.558765
Si Si2 0.225500 0.911605 0.973790
Si Si3 0.500000 0.000000 0.500000
Si Si4 0.895524 0.467051 0.095937
Si Si5 0.880404 0.766331 0.886522
Si Si6 0.889222 0.546165 0.260411
Si Si7 0.614305 0.561458 0.668412
O O1 0.276839 0.671550 0.548255
O O2 0.495789 0.880809 0.554331
O O3 0.698011 0.718702 0.472108
O O4 0.635922 0.690105 0.637120
O O5 0.141944 0.822972 0.907215
O O6 0.422228 0.990805 0.917002
O O7 0.000000 0.000000 0.000000
O O8 0.386082 0.934806 0.421915
O O9 0.935189 0.562670 0.161516
O O10 0.059090 0.364160 0.123774
O O11 0.000000 0.500000 0.000000
O O12 0.812716 0.839249 0.809566
O O13 0.644250 0.463431 0.272957
O O14 0.134445 0.487198 0.295100
#
# Coordination Sequence:
#
# PCOD9251381 Si02
#       7
#     4   4   2   4   4   4   4
#     4  12  22  42  74 113 158 208 263 327 401 496
#     4  11  20  38  73 113 154 203 259 331 403 471
#     4  12  28  46  76 106 148 224 268 310 400 508
#     4  12  28  52  76 104 159 215 269 319 408 500
#     4  11  23  45  75 112 158 200 264 333 400 473
#     4  11  28  48  78 118 156 203 269 338 402 469
#     4  11  24  44  75 120 155 197 260 341 403 455
#
# _framework density 25.818463000000001
#
# number of rings (size 3 to 8) (size 9 to 14) (size 15 to 20)
#    0.000    0.615    6.154    2.308    2.154    1.231 
#    2.769    0.000    0.000    0.000    0.000    0.000 
#    0.000    0.000    0.000    0.000    0.000    0.000 
#
# Total GULP energy -144757.463303 kJ/mol
# GULP energy per Si atom -5567.594742 kJ/mol
# Density = 2.575970 g / cm^3
# Si number density = 25.818463 Si / 1000 Ang^3
#
#
#
# Elastic Constant Matrix: (Units=GPa)
#
#
# Indices 1 2 3 4 5 6 
#
# 1 87.0251 39.1643 23.3201 0.0000 5.6802 0.0000
# 2 39.1643 153.7761 34.5739 0.0000 -3.2426 0.0000
# 3 23.3201 34.5739 131.4474 0.0000 11.2583 0.0000
# 4 0.0000 0.0000 0.0000 31.5464 0.0000 5.2503
# 5 5.6802 -3.2426 11.2583 0.0000 23.7332 0.0000
# 6 0.0000 0.0000 0.0000 5.2503 0.0000 30.5157
#
#
#
# Elastic Compliance Matrix: (Units=1/GPa)
#
#
# Indices 1 2 3 4 5 6 
#
# 1 0.013479 -0.003208 -0.001286 0.000000 -0.003054 0.000000
# 2 -0.003208 0.007757 -0.001697 0.000000 0.002632 0.000000
# 3 -0.001286 -0.001697 0.008626 0.000000 -0.004016 0.000000
# 4 0.000000 0.000000 0.000000 0.032634 0.000000 -0.005615
# 5 -0.003054 0.002632 -0.004016 0.000000 0.045131 0.000000
# 6 0.000000 0.000000 0.000000 -0.005615 0.000000 0.033736
#
#
# Mechanical properties :
#
#
# Convention : Reuss Voigt Hill
#
# Bulk Modulus (GPa) = 57.20670 62.92947 60.06809
# Shear Modulus (GPa) = 31.33421 35.50507 33.41964
#
# Velocity S-wave (km/s) = 3.48751 3.71237 3.60169
# Velocity P-wave (km/s) = 6.19857 6.54235 6.37278
#
# Compressibility (1/GPa) = 0.01748047
#
# Stress axis : x y z
#
# Youngs Moduli (GPa) = 74.19157 128.91634 115.92944
#
# Poissons Ratio (x) = 0.41358 0.14907
# Poissons Ratio (y) = 0.23801 0.19668
# Poissons Ratio (z) = 0.09540 0.21872
#
# Static dielectric constant tensor:
#      x y z
#    x 2.307650 0.000000 -0.004250 
#    y 0.000000 2.058130 0.000000 
#    z -0.004250 0.000000 2.090170 
# 
# From -- ./inp_files/53022.got.cif
#   From: 2010.05.17/outbox.cif.g08.bks.cpg/sg14_27_cif.got.tgz:53022.got - 2010.06.03 17:49:19.
