data_PCOD9251658
_publ_section_title
;
Structure prediction by ZEFSAII (Michael W. Deem and Ramdas Pophale) SiO2 
 PCOD9251658
Probable space group: P 21/C
;
_chemical_formula_sum "Si O2"
_cell_formula_units_Z 24
_cell_length_a 15.576216
_cell_length_b 11.911903
_cell_length_c 21.558098
_cell_angle_alpha 90.000000
_cell_angle_beta 163.867827
_cell_angle_gamma 90.000000
_cell_volume 1111.399962
_symmetry_space_group_name_H-M "P 21/C"
_symmetry_group_IT_number 14
_symmetry_cell_setting 'monoclinic'
loop_
_space_group_symop_operation_xyz
x,y,z
-x,1/2+y,1/2-z
-x,-y,-z
x,1/2-y,1/2+z
loop_
_atom_site_type_symbol
_atom_site_label
_atom_site_fract_x
_atom_site_fract_y
_atom_site_fract_z
Si Si1 0.142272 0.547186 0.939607
Si Si2 0.194814 0.323655 0.044806
Si Si3 0.873560 0.287221 0.530119
Si Si4 0.232456 0.869882 0.270656
Si Si5 0.917471 0.553836 0.230729
Si Si6 0.808950 0.642559 0.365327
O O1 0.007690 0.664193 0.870255
O O2 0.998294 0.490171 0.778716
O O3 0.163815 0.453179 0.007602
O O4 0.484231 0.586203 0.154796
O O5 0.540429 0.284218 0.264643
O O6 0.183906 0.273548 0.106714
O O7 0.920642 0.251674 0.822877
O O8 0.842316 0.363516 0.569555
O O9 0.106765 0.351967 0.647322
O O10 0.593353 0.877554 0.506183
O O11 0.145174 0.948419 0.267603
O O12 0.057070 0.907944 0.085706
#
# Coordination Sequence:
#
# PCOD9251658 Si02
#       6
#     4   4   4   4   4   4
#     4  11  23  40  65  93 128 168 208 261 317 373
#     4   9  22  40  63  92 125 162 216 253 312 376
#     4  11  23  39  64  96 123 169 217 258 311 375
#     4   9  20  39  64  94 118 165 206 264 314 367
#     4  11  22  36  64  91 131 157 211 262 319 370
#     4   9  20  40  64  90 124 162 215 252 305 378
#
# _framework density 21.594387999999999
#
# number of rings (size 3 to 8) (size 9 to 14) (size 15 to 20)
#    1.000    1.000    0.000    4.000    2.333    2.667 
#    0.000    0.833    0.000    0.000    0.000    0.000 
#    0.000    0.000    0.000    0.000    0.000    0.000 
#
# Total GULP energy -133790.836196 kJ/mol
# GULP energy per Si atom -5574.618175 kJ/mol
# Density = 2.154524 g / cm^3
# Si number density = 21.594388 Si / 1000 Ang^3
#
#
#
# Elastic Constant Matrix: (Units=GPa)
#
#
# Indices 1 2 3 4 5 6 
#
# 1 46.0902 27.0149 4.1753 0.0000 -17.2244 0.0000
# 2 27.0149 120.7309 4.0029 0.0000 -1.2165 0.0000
# 3 4.1753 4.0029 48.7767 0.0000 -2.8506 0.0000
# 4 0.0000 0.0000 0.0000 29.5928 0.0000 1.1768
# 5 -17.2244 -1.2165 -2.8506 0.0000 17.1844 0.0000
# 6 0.0000 0.0000 0.0000 1.1768 0.0000 27.3263
#
#
#
# Elastic Compliance Matrix: (Units=1/GPa)
#
#
# Indices 1 2 3 4 5 6 
#
# 1 0.042909 -0.009160 -0.000450 0.000000 0.042286 0.000000
# 2 -0.009160 0.010265 -0.000558 0.000000 -0.008548 0.000000
# 3 -0.000450 -0.000558 0.020758 0.000000 0.002953 0.000000
# 4 0.000000 0.000000 0.000000 0.033850 0.000000 -0.001458
# 5 0.042286 -0.008548 0.002953 0.000000 0.100461 0.000000
# 6 0.000000 0.000000 0.000000 -0.001458 0.000000 0.036658
#
#
# Mechanical properties :
#
#
# Convention : Reuss Voigt Hill
#
# Bulk Modulus (GPa) = 18.65805 31.77600 25.21703
# Shear Modulus (GPa) = 17.66142 26.84768 22.25455
#
# Velocity S-wave (km/s) = 2.86295 3.52983 3.21373
# Velocity P-wave (km/s) = 4.42579 5.59998 5.04715
#
# Compressibility (1/GPa) = 0.05359616
#
# Stress axis : x y z
#
# Youngs Moduli (GPa) = 23.30505 97.41838 48.17315
#
# Poissons Ratio (x) = 0.89239 0.02168
# Poissons Ratio (y) = 0.21348 0.02687
# Poissons Ratio (z) = 0.01049 0.05434
#
# Static dielectric constant tensor:
#      x y z
#    x 1.771690 0.000000 -0.007370 
#    y 0.000000 1.829540 0.000000 
#    z -0.007370 0.000000 1.802410 
# 
# From -- ./inp_files/68549.got.cif
#   From: 2010.05.17/outbox.cif.g08.bks.cpg/sg14_35_cif.got.tgz:68549.got - 2010.06.03 17:49:19.
