data_PCOD9251733
_publ_section_title
;
Structure prediction by ZEFSAII (Michael W. Deem and Ramdas Pophale) SiO2 
 PCOD9251733
Probable space group: P 21/C
;
_chemical_formula_sum "Si O2"
_cell_formula_units_Z 28
_cell_length_a 10.367855
_cell_length_b 4.926826
_cell_length_c 22.151363
_cell_angle_alpha 90.000000
_cell_angle_beta 106.743475
_cell_angle_gamma 90.000000
_cell_volume 1083.534202
_symmetry_space_group_name_H-M "P 21/C"
_symmetry_group_IT_number 14
_symmetry_cell_setting 'monoclinic'
loop_
_space_group_symop_operation_xyz
x,y,z
-x,1/2+y,1/2-z
-x,-y,-z
x,1/2-y,1/2+z
loop_
_atom_site_type_symbol
_atom_site_label
_atom_site_fract_x
_atom_site_fract_y
_atom_site_fract_z
Si Si1 0.290915 0.101645 0.206922
Si Si2 0.673627 0.000350 0.402502
Si Si3 0.466887 0.369666 0.323807
Si Si4 0.362082 0.332116 0.972511
Si Si5 0.007044 0.881497 0.861579
Si Si6 0.298121 0.680023 0.385610
Si Si7 0.041035 0.643330 0.067314
O O1 0.311721 0.307465 0.153418
O O2 0.338787 0.238984 0.274746
O O3 0.133832 0.024288 0.187557
O O4 0.411724 0.891845 0.208350
O O5 0.538511 0.177370 0.382247
O O6 0.690952 0.832512 0.466125
O O7 0.800096 0.202907 0.416459
O O8 0.408494 0.637168 0.348161
O O9 0.350950 0.034025 0.943241
O O10 0.285119 0.530572 0.915859
O O11 0.500000 0.500000 0.000000
O O12 0.981428 0.580444 0.883540
O O13 0.029029 0.080567 0.922027
O O14 0.146649 0.893067 0.844442
O O15 0.000000 0.500000 0.000000
#
# Coordination Sequence:
#
# PCOD9251733 Si02
#       7
#     4   4   4   4   4   4   4
#     4  11  25  45  70 101 135 187 243 295 348 412
#     4  11  23  40  69 100 134 183 230 292 337 416
#     4  12  24  45  71  98 136 182 240 293 344 412
#     4  12  25  44  68 106 145 183 227 283 358 425
#     4  11  24  44  65  99 141 177 227 285 347 417
#     4  12  27  45  71 106 143 184 227 288 357 425
#     4  11  22  40  66  98 139 183 225 275 344 415
#
# _framework density 25.841363999999999
#
# number of rings (size 3 to 8) (size 9 to 14) (size 15 to 20)
#    0.000    0.571    4.286    4.286    2.000    1.143 
#    0.000    5.714    0.000    0.000    0.000    0.000 
#    0.000    0.000    0.000    0.000    0.000    0.000 
#
# Total GULP energy -156717.465429 kJ/mol
# GULP energy per Si atom -5597.052337 kJ/mol
# Density = 2.578255 g / cm^3
# Si number density = 25.841364 Si / 1000 Ang^3
#
#
#
# Elastic Constant Matrix: (Units=GPa)
#
#
# Indices 1 2 3 4 5 6 
#
# 1 155.4654 4.5488 29.7500 0.0000 32.2072 0.0000
# 2 4.5488 90.4811 9.8564 0.0000 -7.4720 0.0000
# 3 29.7500 9.8564 72.6553 0.0000 8.7284 0.0000
# 4 0.0000 0.0000 0.0000 34.5877 0.0000 0.6582
# 5 32.2072 -7.4720 8.7284 0.0000 35.4498 0.0000
# 6 0.0000 0.0000 0.0000 0.6582 0.0000 26.4704
#
#
#
# Elastic Compliance Matrix: (Units=1/GPa)
#
#
# Indices 1 2 3 4 5 6 
#
# 1 0.008420 -0.000747 -0.002482 0.000000 -0.007196 0.000000
# 2 -0.000747 0.011565 -0.001687 0.000000 0.003532 0.000000
# 3 -0.002482 -0.001687 0.015231 0.000000 -0.001851 0.000000
# 4 0.000000 0.000000 0.000000 0.028926 0.000000 -0.000719
# 5 -0.007196 0.003532 -0.001851 0.000000 0.035947 0.000000
# 6 0.000000 0.000000 0.000000 -0.000719 0.000000 0.037796
#
#
# Mechanical properties :
#
#
# Convention : Reuss Voigt Hill
#
# Bulk Modulus (GPa) = 39.39567 45.21248 42.30407
# Shear Modulus (GPa) = 32.01470 37.59804 34.80637
#
# Velocity S-wave (km/s) = 3.52361 3.81853 3.67403
# Velocity P-wave (km/s) = 5.64205 6.08076 5.86551
#
# Compressibility (1/GPa) = 0.02538350
#
# Stress axis : x y z
#
# Youngs Moduli (GPa) = 118.76672 86.46727 65.65514
#
# Poissons Ratio (x) = 0.06461 0.16294
# Poissons Ratio (y) = 0.08874 0.11078
# Poissons Ratio (z) = 0.29475 0.14589
#
# Static dielectric constant tensor:
#      x y z
#    x 2.085140 0.000000 0.013740 
#    y 0.000000 2.045500 0.000000 
#    z 0.013740 0.000000 2.065660 
# 
# From -- ./inp_files/66322.got.cif
#   From: 2010.05.17/outbox.cif.g08.bks.cpg/sg14_34_cif.got.tgz:66322.got - 2010.06.03 17:49:19.
