data_PCOD9251342
_publ_section_title
;
Structure prediction by ZEFSAII (Michael W. Deem and Ramdas Pophale) SiO2 
 PCOD9251342
Probable space group: P 21/C
;
_chemical_formula_sum "Si O2"
_cell_formula_units_Z 24
_cell_length_a 14.114737
_cell_length_b 17.667722
_cell_length_c 5.085744
_cell_angle_alpha 90.000000
_cell_angle_beta 99.407302
_cell_angle_gamma 90.000000
_cell_volume 1251.202297
_symmetry_space_group_name_H-M "P 21/C"
_symmetry_group_IT_number 14
_symmetry_cell_setting 'monoclinic'
loop_
_space_group_symop_operation_xyz
x,y,z
-x,1/2+y,1/2-z
-x,-y,-z
x,1/2-y,1/2+z
loop_
_atom_site_type_symbol
_atom_site_label
_atom_site_fract_x
_atom_site_fract_y
_atom_site_fract_z
Si Si1 0.780084 0.345320 0.188200
Si Si2 0.008921 0.793615 0.129386
Si Si3 0.050451 0.037973 0.773588
Si Si4 0.450717 0.962113 0.727756
Si Si5 0.236255 0.947463 0.803629
Si Si6 0.428368 0.792578 0.538441
O O1 0.875039 0.301133 0.314350
O O2 0.750199 0.398328 0.423042
O O3 0.687724 0.298335 0.049352
O O4 0.807958 0.395106 0.946332
O O5 0.980488 0.728979 0.323164
O O6 0.966830 0.872965 0.207581
O O7 0.161731 0.014088 0.824872
O O8 0.000000 0.000000 0.500000
O O9 0.000000 0.000000 0.000000
O O10 0.337296 0.973453 0.727964
O O11 0.459794 0.872209 0.676345
O O12 0.500000 0.000000 0.500000
O O13 0.500000 0.000000 0.000000
O O14 0.459430 0.728191 0.758303
#
# Coordination Sequence:
#
# PCOD9251342 Si02
#       6
#     4   4   4   4   4   4
#     4  11  20  35  57  88 125 155 193 237 314 380
#     4  12  23  35  55  86 126 161 200 253 301 352
#     4  12  22  40  61  85 120 166 214 241 294 372
#     4  11  23  40  63  90 122 158 208 257 311 359
#     4  11  21  38  62  88 115 162 207 251 296 361
#     4  11  21  36  58  89 124 156 188 246 315 382
#
# _framework density 19.181549
#
# number of rings (size 3 to 8) (size 9 to 14) (size 15 to 20)
#    0.000    0.667    3.333    8.000    0.000    0.000 
#    0.000    0.000    0.000    6.000    0.000    0.000 
#    0.000    0.000    0.000    0.000    0.000    0.000 
#
# Total GULP energy -134072.585121 kJ/mol
# GULP energy per Si atom -5586.357713 kJ/mol
# Density = 1.913789 g / cm^3
# Si number density = 19.181549 Si / 1000 Ang^3
#
#
#
# Elastic Constant Matrix: (Units=GPa)
#
#
# Indices 1 2 3 4 5 6 
#
# 1 66.7044 35.4339 28.9043 0.0000 -10.1501 0.0000
# 2 35.4339 77.1179 34.3713 0.0000 -4.8078 0.0000
# 3 28.9043 34.3713 134.0613 0.0000 -18.5535 0.0000
# 4 0.0000 0.0000 0.0000 46.4394 0.0000 -0.4107
# 5 -10.1501 -4.8078 -18.5535 0.0000 24.6750 0.0000
# 6 0.0000 0.0000 0.0000 -0.4107 0.0000 28.2649
#
#
#
# Elastic Compliance Matrix: (Units=1/GPa)
#
#
# Indices 1 2 3 4 5 6 
#
# 1 0.021152 -0.008674 -0.001525 0.000000 0.005864 0.000000
# 2 -0.008674 0.018197 -0.003123 0.000000 -0.002371 0.000000
# 3 -0.001525 -0.003123 0.009396 0.000000 0.005829 0.000000
# 4 0.000000 0.000000 0.000000 0.021536 0.000000 0.000313
# 5 0.005864 -0.002371 0.005829 0.000000 0.046860 0.000000
# 6 0.000000 0.000000 0.000000 0.000313 0.000000 0.035384
#
#
# Mechanical properties :
#
#
# Convention : Reuss Voigt Hill
#
# Bulk Modulus (GPa) = 45.24848 52.81139 49.02994
# Shear Modulus (GPa) = 26.80450 31.82080 29.31265
#
# Velocity S-wave (km/s) = 3.74225 4.07741 3.91342
# Velocity P-wave (km/s) = 6.50487 7.05402 6.78501
#
# Compressibility (1/GPa) = 0.02210019
#
# Stress axis : x y z
#
# Youngs Moduli (GPa) = 47.27638 54.95486 106.43304
#
# Poissons Ratio (x) = 0.47666 0.16233
# Poissons Ratio (y) = 0.41006 0.33244
# Poissons Ratio (z) = 0.07210 0.17165
#
# Static dielectric constant tensor:
#      x y z
#    x 1.672950 0.000000 0.012690 
#    y 0.000000 1.695020 0.000000 
#    z 0.012690 0.000000 1.680790 
# 
# From -- ./inp_files/3533.got.cif
#   From: 2010.05.17/outbox.cif.g08.bks.cpg/sg14_2_cif.got.tgz:3533.got - 2010.06.03 17:49:19.
