data_PCOD9251145
_publ_section_title
;
Structure prediction by ZEFSAII (Michael W. Deem and Ramdas Pophale) SiO2 
 PCOD9251145
Probable space group: P 21/C
;
_chemical_formula_sum "Si O2"
_cell_formula_units_Z 30
_cell_length_a 5.076374
_cell_length_b 17.472137
_cell_length_c 13.459362
_cell_angle_alpha 90.000000
_cell_angle_beta 65.897042
_cell_angle_gamma 90.000000
_cell_volume 1089.697547
_symmetry_space_group_name_H-M "P 21/C"
_symmetry_group_IT_number 14
_symmetry_cell_setting 'monoclinic'
loop_
_space_group_symop_operation_xyz
x,y,z
-x,1/2+y,1/2-z
-x,-y,-z
x,1/2-y,1/2+z
loop_
_atom_site_type_symbol
_atom_site_label
_atom_site_fract_x
_atom_site_fract_y
_atom_site_fract_z
Si Si1 0.395526 0.256937 0.643501
Si Si2 0.135138 0.854379 0.744118
Si Si3 0.157871 0.939291 0.158816
Si Si4 0.346388 0.409418 0.117485
Si Si5 0.623454 0.526080 0.194107
Si Si6 0.499200 0.713168 0.658191
Si Si7 0.000000 0.500000 0.000000
Si Si8 0.903343 0.148159 0.009369
O O1 0.299698 0.180212 0.603465
O O2 0.539786 0.217313 0.716299
O O3 0.610798 0.303752 0.542594
O O4 0.178352 0.317029 0.728354
O O5 0.343072 0.792481 0.658207
O O6 0.339327 0.928779 0.711324
O O7 0.080485 0.856715 0.874439
O O8 0.320263 0.003417 0.200071
O O9 0.325078 0.861791 0.156223
O O10 0.125050 0.932392 0.045420
O O11 0.846296 0.926750 0.255150
O O12 0.647297 0.451124 0.111432
O O13 0.217653 0.453250 0.045329
O O14 0.913249 0.563297 0.107971
O O15 0.825533 0.695327 0.575207
#
# Coordination Sequence:
#
# PCOD9251145 Si02
#       8
#     4   4   4   4   4   4   2   4
#     4  11  23  41  70  99 136 182 239 287 347 421
#     4  11  26  43  66 110 143 176 234 301 350 420
#     4  11  21  44  71  95 133 189 229 276 353 422
#     4  11  22  44  70  97 137 189 229 286 350 428
#     4  11  25  45  69 100 147 182 236 290 358 431
#     4  11  21  44  67  97 134 183 233 285 346 418
#     4  10  26  40  68 102 136 182 232 286 360 414
#     4  11  24  40  70 105 136 182 236 287 352 413
#
# _framework density 27.530573
#
# number of rings (size 3 to 8) (size 9 to 14) (size 15 to 20)
#    0.000    1.067    4.000    1.200    0.000    9.067 
#    0.000    6.000    0.000    0.000    0.000    0.000 
#    0.000    0.000    0.000    0.000    0.000    0.000 
#
# Total GULP energy -167100.193637 kJ/mol
# GULP energy per Si atom -5570.006455 kJ/mol
# Density = 2.746791 g / cm^3
# Si number density = 27.530573 Si / 1000 Ang^3
#
#
#
# Elastic Constant Matrix: (Units=GPa)
#
#
# Indices 1 2 3 4 5 6 
#
# 1 78.8067 19.1265 -3.6166 0.0000 -37.5695 0.0000
# 2 19.1265 95.4023 20.2289 0.0000 -40.3108 0.0000
# 3 -3.6166 20.2289 113.8026 0.0000 -34.2206 0.0000
# 4 0.0000 0.0000 0.0000 43.7088 0.0000 -4.8030
# 5 -37.5695 -40.3108 -34.2206 0.0000 47.1453 0.0000
# 6 0.0000 0.0000 0.0000 -4.8030 0.0000 24.0818
#
#
#
# Elastic Compliance Matrix: (Units=1/GPa)
#
#
# Indices 1 2 3 4 5 6 
#
# 1 0.029578 0.007950 0.011076 0.000000 0.038407 0.000000
# 2 0.007950 0.018798 0.004668 0.000000 0.025797 0.000000
# 3 0.011076 0.004668 0.015560 0.000000 0.024112 0.000000
# 4 0.000000 0.000000 0.000000 0.023391 0.000000 0.004665
# 5 0.038407 0.025797 0.024112 0.000000 0.091376 0.000000
# 6 0.000000 0.000000 0.000000 0.004665 0.000000 0.042456
#
#
# Mechanical properties :
#
#
# Convention : Reuss Voigt Hill
#
# Bulk Modulus (GPa) = 8.98272 39.94325 24.46298
# Shear Modulus (GPa) = 23.71026 39.80537 31.75781
#
# Velocity S-wave (km/s) = 2.93786 3.80657 3.40008
# Velocity P-wave (km/s) = 3.84421 5.81895 4.93144
#
# Compressibility (1/GPa) = 0.11132491
#
# Stress axis : x y z
#
# Youngs Moduli (GPa) = 33.80888 53.19619 64.26809
#
# Poissons Ratio (x) = -0.42291 -0.71183
# Poissons Ratio (y) = -0.26878 -0.30003
# Poissons Ratio (z) = -0.37447 -0.24834
#
# Static dielectric constant tensor:
#      x y z
#    x 2.680280 0.000000 -0.375310 
#    y 0.000000 2.515270 0.000000 
#    z -0.375310 0.000000 2.760080 
# 
# From -- ./inp_files/37829.got.cif
#   From: 2010.05.17/outbox.cif.g08.bks.cpg/sg14_19_cif.got.tgz:37829.got - 2010.06.03 17:49:19.
