data_PCOD9251057
_publ_section_title
;
Structure prediction by ZEFSAII (Michael W. Deem and Ramdas Pophale) SiO2 
 PCOD9251057
Probable space group: P 21/C
;
_chemical_formula_sum "Si O2"
_cell_formula_units_Z 20
_cell_length_a 15.209481
_cell_length_b 10.250702
_cell_length_c 12.352377
_cell_angle_alpha 90.000000
_cell_angle_beta 156.616254
_cell_angle_gamma 90.000000
_cell_volume 764.338938
_symmetry_space_group_name_H-M "P 21/C"
_symmetry_group_IT_number 14
_symmetry_cell_setting 'monoclinic'
loop_
_space_group_symop_operation_xyz
x,y,z
-x,1/2+y,1/2-z
-x,-y,-z
x,1/2-y,1/2+z
loop_
_atom_site_type_symbol
_atom_site_label
_atom_site_fract_x
_atom_site_fract_y
_atom_site_fract_z
Si Si1 0.637282 0.062757 0.402488
Si Si2 0.284335 0.212887 0.887265
Si Si3 0.972294 0.108484 0.177802
Si Si4 0.402792 0.828850 0.406893
Si Si5 0.251890 0.919027 0.857977
O O1 0.871897 0.785796 0.705333
O O2 0.487754 0.946097 0.185029
O O3 0.889194 0.026063 0.666702
O O4 0.600818 0.090787 0.486651
O O5 0.524452 0.182342 0.212417
O O6 0.352786 0.299755 0.862759
O O7 0.195853 0.067914 0.759001
O O8 0.756335 0.102659 0.859083
O O9 0.908769 0.132941 0.230023
O O10 0.296458 0.687501 0.317626
#
# Coordination Sequence:
#
# PCOD9251057 Si02
#       5
#     4   4   4   4   4
#     4  10  25  46  69  99 146 181 225 288 349 402
#     4  10  27  46  71  99 144 187 226 286 351 406
#     4  12  25  44  72 105 135 188 232 287 339 413
#     4  12  24  45  73 107 134 184 237 280 343 417
#     4  10  27  46  72  99 145 183 227 289 348 407
#
# _framework density 26.166402999999999
#
# number of rings (size 3 to 8) (size 9 to 14) (size 15 to 20)
#    1.200    0.000    0.000    4.800    5.600    8.800 
#    0.000    0.000    0.000    0.000    0.000    0.000 
#    0.000    0.000    0.000    0.000    0.000    0.000 
#
# Total GULP energy -112019.472786 kJ/mol
# GULP energy per Si atom -5600.973639 kJ/mol
# Density = 2.610685 g / cm^3
# Si number density = 26.166403 Si / 1000 Ang^3
#
#
#
# Elastic Constant Matrix: (Units=GPa)
#
#
# Indices 1 2 3 4 5 6 
#
# 1 135.9023 -2.3069 21.5522 0.0000 20.9130 0.0000
# 2 -2.3069 57.4504 1.5356 0.0000 12.0944 0.0000
# 3 21.5522 1.5356 61.5194 0.0000 -6.9991 0.0000
# 4 0.0000 0.0000 0.0000 43.6332 0.0000 8.4068
# 5 20.9130 12.0944 -6.9991 0.0000 40.2795 0.0000
# 6 0.0000 0.0000 0.0000 8.4068 0.0000 51.8675
#
#
#
# Elastic Compliance Matrix: (Units=1/GPa)
#
#
# Indices 1 2 3 4 5 6 
#
# 1 0.008879 0.001674 -0.003810 0.000000 -0.005775 0.000000
# 2 0.001674 0.018972 -0.001844 0.000000 -0.006886 0.000000
# 3 -0.003810 -0.001844 0.018285 0.000000 0.005709 0.000000
# 4 0.000000 0.000000 0.000000 0.023657 0.000000 -0.003834
# 5 -0.005775 -0.006886 0.005709 0.000000 0.030884 0.000000
# 6 0.000000 0.000000 0.000000 -0.003834 0.000000 0.019901
#
#
# Mechanical properties :
#
#
# Convention : Reuss Voigt Hill
#
# Bulk Modulus (GPa) = 26.19231 32.93708 29.56470
# Shear Modulus (GPa) = 35.39467 42.76214 39.07841
#
# Velocity S-wave (km/s) = 3.68186 4.04696 3.86872
# Velocity P-wave (km/s) = 5.30155 5.86958 5.59279
#
# Compressibility (1/GPa) = 0.03817914
#
# Stress axis : x y z
#
# Youngs Moduli (GPa) = 112.61996 52.70789 54.68919
#
# Poissons Ratio (x) = -0.08824 0.20834
# Poissons Ratio (y) = -0.18853 0.10082
# Poissons Ratio (z) = 0.42903 0.09717
#
# Static dielectric constant tensor:
#      x y z
#    x 1.959860 0.000000 0.000150 
#    y 0.000000 2.081460 0.000000 
#    z 0.000150 0.000000 2.073170 
# 
# From -- ./inp_files/48960.got.cif
#   From: 2010.05.17/outbox.cif.g08.bks.cpg/sg14_25_cif.got.tgz:48960.got - 2010.06.03 17:49:19.
