data_PCOD9251568
_publ_section_title
;
Structure prediction by ZEFSAII (Michael W. Deem and Ramdas Pophale) SiO2 
 PCOD9251568
Probable space group: P 21/C
;
_chemical_formula_sum "Si O2"
_cell_formula_units_Z 32
_cell_length_a 17.772428
_cell_length_b 8.434914
_cell_length_c 20.715360
_cell_angle_alpha 90.000000
_cell_angle_beta 26.695247
_cell_angle_gamma 90.000000
_cell_volume 1395.092649
_symmetry_space_group_name_H-M "P 21/C"
_symmetry_group_IT_number 14
_symmetry_cell_setting 'monoclinic'
loop_
_space_group_symop_operation_xyz
x,y,z
-x,1/2+y,1/2-z
-x,-y,-z
x,1/2-y,1/2+z
loop_
_atom_site_type_symbol
_atom_site_label
_atom_site_fract_x
_atom_site_fract_y
_atom_site_fract_z
Si Si1 0.887073 0.233591 0.135180
Si Si2 0.838675 0.139133 0.363297
Si Si3 0.085897 0.584716 0.606840
Si Si4 0.521440 0.732626 0.879817
Si Si5 0.139132 0.354668 0.329920
Si Si6 0.876538 0.923251 0.462344
Si Si7 0.366972 0.129411 0.847277
Si Si8 0.636732 0.428694 0.247965
O O1 0.716552 0.304305 0.236247
O O2 0.866629 0.045966 0.162858
O O3 0.041938 0.224550 0.964762
O O4 0.949094 0.347629 0.145841
O O5 0.873177 0.314697 0.362055
O O6 0.658108 0.156226 0.468085
O O7 0.978558 0.065430 0.210970
O O8 0.851652 0.031508 0.418302
O O9 0.253642 0.527822 0.442381
O O10 0.968066 0.687389 0.650641
O O11 0.668996 0.694496 0.816276
O O12 0.568983 0.652336 0.774295
O O13 0.538659 0.921957 0.854768
O O14 0.754078 0.774977 0.545691
O O15 0.797329 0.010969 0.584834
O O16 0.512925 0.134463 0.787752
#
# Coordination Sequence:
#
# PCOD9251568 Si02
#       8
#     4   4   4   4   4   4   4   4
#     4  11  22  38  64 104 138 171 218 278 339 394
#     4  12  27  45  70  93 135 181 225 275 326 407
#     4  12  26  46  68  94 134 182 223 267 338 401
#     4  11  24  41  67 104 133 169 227 281 334 389
#     4  11  23  40  67  97 137 175 218 277 338 397
#     4  11  22  39  66  97 134 173 223 269 333 395
#     4  11  21  42  67 101 132 167 224 286 322 394
#     4  11  22  36  65 102 137 168 216 284 336 388
#
# _framework density 22.937543000000002
#
# number of rings (size 3 to 8) (size 9 to 14) (size 15 to 20)
#    0.000    0.750    6.250    2.625    3.500    0.500 
#    0.000    0.000    0.000    2.250    0.000    0.000 
#    0.000    0.000    0.000    0.000    0.000    0.000 
#
# Total GULP energy -178937.788398 kJ/mol
# GULP energy per Si atom -5591.805887 kJ/mol
# Density = 2.288534 g / cm^3
# Si number density = 22.937543 Si / 1000 Ang^3
#
#
#
# Elastic Constant Matrix: (Units=GPa)
#
#
# Indices 1 2 3 4 5 6 
#
# 1 97.8579 13.1568 -1.1321 0.0000 -40.5291 0.0000
# 2 13.1568 37.0750 12.1599 0.0000 -9.2322 0.0000
# 3 -1.1321 12.1599 38.2462 0.0000 -16.9792 0.0000
# 4 0.0000 0.0000 0.0000 18.5721 0.0000 -4.3653
# 5 -40.5291 -9.2322 -16.9792 0.0000 36.8029 0.0000
# 6 0.0000 0.0000 0.0000 -4.3653 0.0000 48.2805
#
#
#
# Elastic Compliance Matrix: (Units=1/GPa)
#
#
# Indices 1 2 3 4 5 6 
#
# 1 0.026131 -0.006505 0.018728 0.000000 0.035786 0.000000
# 2 -0.006505 0.032194 -0.012605 0.000000 -0.004902 0.000000
# 3 0.018728 -0.012605 0.048367 0.000000 0.039777 0.000000
# 4 0.000000 0.000000 0.000000 0.055013 0.000000 0.004974
# 5 0.035786 -0.004902 0.039777 0.000000 0.083702 0.000000
# 6 0.000000 0.000000 0.000000 0.004974 0.000000 0.021162
#
#
# Mechanical properties :
#
#
# Convention : Reuss Voigt Hill
#
# Bulk Modulus (GPa) = 9.44014 24.61648 17.02831
# Shear Modulus (GPa) = 16.52119 30.66406 23.59262
#
# Velocity S-wave (km/s) = 2.68669 3.66026 3.21060
# Velocity P-wave (km/s) = 3.70796 5.34964 4.60258
#
# Compressibility (1/GPa) = 0.10593069
#
# Stress axis : x y z
#
# Youngs Moduli (GPa) = 38.26847 31.06171 20.67523
#
# Poissons Ratio (x) = 0.20204 -0.38721
# Poissons Ratio (y) = 0.24892 0.26060
# Poissons Ratio (z) = -0.71671 0.39152
#
# Static dielectric constant tensor:
#      x y z
#    x 1.868540 0.000000 0.010500 
#    y 0.000000 1.879910 0.000000 
#    z 0.010500 0.000000 1.859370 
# 
# From -- ./inp_files/69155.got.cif
#   From: 2010.05.17/outbox.cif.g08.bks.cpg/sg14_35_cif.got.tgz:69155.got - 2010.06.03 17:49:19.
