data_PCOD9251740
_publ_section_title
;
Structure prediction by ZEFSAII (Michael W. Deem and Ramdas Pophale) SiO2 
 PCOD9251740
Probable space group: P 21/C
;
_chemical_formula_sum "Si O2"
_cell_formula_units_Z 32
_cell_length_a 12.949715
_cell_length_b 22.689514
_cell_length_c 9.518725
_cell_angle_alpha 90.000000
_cell_angle_beta 144.450914
_cell_angle_gamma 90.000000
_cell_volume 1626.070477
_symmetry_space_group_name_H-M "P 21/C"
_symmetry_group_IT_number 14
_symmetry_cell_setting 'monoclinic'
loop_
_space_group_symop_operation_xyz
x,y,z
-x,1/2+y,1/2-z
-x,-y,-z
x,1/2-y,1/2+z
loop_
_atom_site_type_symbol
_atom_site_label
_atom_site_fract_x
_atom_site_fract_y
_atom_site_fract_z
Si Si1 0.819103 0.009666 0.482289
Si Si2 0.265924 0.602283 0.340082
Si Si3 0.965141 0.694264 0.986498
Si Si4 0.664395 0.906243 0.827567
Si Si5 0.730660 0.402472 0.121076
Si Si6 0.979016 0.684390 0.666924
Si Si7 0.652853 0.603245 0.651346
Si Si8 0.807300 0.468454 0.476502
O O1 0.711996 0.955410 0.299155
O O2 0.006297 0.987913 0.749213
O O3 0.839279 0.058317 0.382096
O O4 0.722191 0.043817 0.500703
O O5 0.452497 0.617794 0.474890
O O6 0.295952 0.566725 0.516696
O O7 0.139203 0.657622 0.224857
O O8 0.972692 0.698849 0.825613
O O9 0.793000 0.655168 0.835274
O O10 0.961007 0.757031 0.056004
O O11 0.470520 0.886082 0.564655
O O12 0.819107 0.861085 0.958940
O O13 0.662371 0.909028 0.995470
O O14 0.708658 0.971663 0.823591
O O15 0.829584 0.426678 0.367663
O O16 0.840675 0.350216 0.171739
#
# Coordination Sequence:
#
# PCOD9251740 Si02
#       8
#     4   4   4   4   4   4   4   4
#     4  12  20  40  69  96 134 170 204 260 324 386
#     4  12  22  42  68  97 128 172 214 263 314 390
#     4  11  25  45  65  93 123 169 222 268 316 379
#     4  11  22  43  66  97 131 170 211 262 324 387
#     4  12  25  43  64  98 138 170 204 268 327 382
#     4  11  26  45  68  89 126 172 219 269 320 370
#     4  11  22  40  70  96 126 168 219 261 318 385
#     4  12  24  38  66 104 137 167 208 258 328 392
#
# _framework density 19.679344
#
# number of rings (size 3 to 8) (size 9 to 14) (size 15 to 20)
#    0.000    0.500    6.250    3.000    1.750    1.000 
#    2.250    0.000    0.000    0.000    0.000    0.000 
#    0.000    0.000    0.000    0.000    0.000    0.000 
#
# Total GULP energy -179051.289908 kJ/mol
# GULP energy per Si atom -5595.352810 kJ/mol
# Density = 1.963455 g / cm^3
# Si number density = 19.679344 Si / 1000 Ang^3
#
#
#
# Elastic Constant Matrix: (Units=GPa)
#
#
# Indices 1 2 3 4 5 6 
#
# 1 33.0947 28.6664 22.6569 0.0000 -4.4372 0.0000
# 2 28.6664 81.3580 28.4530 0.0000 -14.1317 0.0000
# 3 22.6569 28.4530 53.4194 0.0000 13.9260 0.0000
# 4 0.0000 0.0000 0.0000 12.1497 0.0000 -15.2521
# 5 -4.4372 -14.1317 13.9260 0.0000 33.7641 0.0000
# 6 0.0000 0.0000 0.0000 -15.2521 0.0000 34.7879
#
#
#
# Elastic Compliance Matrix: (Units=1/GPa)
#
#
# Indices 1 2 3 4 5 6 
#
# 1 0.054742 -0.009917 -0.020985 0.000000 0.011699 0.000000
# 2 -0.009917 0.021484 -0.010355 0.000000 0.011960 0.000000
# 3 -0.020985 -0.010355 0.039199 0.000000 -0.023260 0.000000
# 4 0.000000 0.000000 0.000000 0.183059 0.000000 0.080258
# 5 0.011699 0.011960 -0.023260 0.000000 0.045754 0.000000
# 6 0.000000 0.000000 0.000000 0.080258 0.000000 0.063933
#
#
# Mechanical properties :
#
#
# Convention : Reuss Voigt Hill
#
# Bulk Modulus (GPa) = 30.38524 36.38052 33.38288
# Shear Modulus (GPa) = 9.96699 22.01340 15.99019
#
# Velocity S-wave (km/s) = 2.25293 3.34818 2.85360
# Velocity P-wave (km/s) = 4.71607 5.78566 5.27803
#
# Compressibility (1/GPa) = 0.03291072
#
# Stress axis : x y z
#
# Youngs Moduli (GPa) = 18.26767 46.54530 25.51060
#
# Poissons Ratio (x) = 0.46159 0.53535
# Poissons Ratio (y) = 0.18116 0.26416
# Poissons Ratio (z) = 0.38335 0.48198
#
# Static dielectric constant tensor:
#      x y z
#    x 1.693450 0.000000 0.003960 
#    y 0.000000 1.659340 0.000000 
#    z 0.003960 0.000000 1.700680 
# 
# From -- ./inp_files/14544.got.cif
#   From: 2010.05.17/outbox.cif.g08.bks.cpg/sg14_8_cif.got.tgz:14544.got - 2010.06.03 17:49:19.
