data_PCOD9251667
_publ_section_title
;
Structure prediction by ZEFSAII (Michael W. Deem and Ramdas Pophale) SiO2 
 PCOD9251667
Probable space group: P 21/C
;
_chemical_formula_sum "Si O2"
_cell_formula_units_Z 32
_cell_length_a 20.288476
_cell_length_b 8.458190
_cell_length_c 9.221826
_cell_angle_alpha 90.000000
_cell_angle_beta 84.528741
_cell_angle_gamma 90.000000
_cell_volume 1575.290614
_symmetry_space_group_name_H-M "P 21/C"
_symmetry_group_IT_number 14
_symmetry_cell_setting 'monoclinic'
loop_
_space_group_symop_operation_xyz
x,y,z
-x,1/2+y,1/2-z
-x,-y,-z
x,1/2-y,1/2+z
loop_
_atom_site_type_symbol
_atom_site_label
_atom_site_fract_x
_atom_site_fract_y
_atom_site_fract_z
Si Si1 0.184850 0.428716 0.939175
Si Si2 0.446057 0.171653 0.138543
Si Si3 0.838241 0.899863 0.222542
Si Si4 0.428600 0.029637 0.825390
Si Si5 0.945800 0.429115 0.119389
Si Si6 0.285886 0.054428 0.904600
Si Si7 0.694722 0.606899 0.258773
Si Si8 0.022066 0.566761 0.343582
O O1 0.161603 0.270071 0.857918
O O2 0.126958 0.553925 0.927633
O O3 0.253782 0.485050 0.853938
O O4 0.188557 0.389238 0.107887
O O5 0.437686 0.353535 0.187206
O O6 0.383849 0.078120 0.223612
O O7 0.515247 0.102473 0.178695
O O8 0.439180 0.138264 0.968138
O O9 0.784918 0.001964 0.140368
O O10 0.911262 0.973775 0.214900
O O11 0.353833 0.962906 0.854568
O O12 0.962175 0.250310 0.153371
O O13 0.959000 0.534449 0.256717
O O14 0.000000 0.500000 0.000000
O O15 0.297706 0.217488 0.811766
O O16 0.284076 0.089346 0.077162
O O17 0.000000 0.500000 0.500000
#
# Coordination Sequence:
#
# PCOD9251667 Si02
#       8
#     4   4   4   4   4   4   4   4
#     4  11  22  37  61  85 119 146 192 238 288 349
#     4   9  18  33  53  79 113 146 193 233 286 332
#     4  11  22  38  59  89 114 151 188 237 291 347
#     4   9  18  33  53  79 112 149 187 241 278 340
#     4  12  25  46  61  91 118 152 197 238 292 347
#     4   9  17  31  53  80 112 147 194 231 287 339
#     4   9  17  31  53  81 110 151 188 238 280 341
#     4  12  27  42  67  87 120 156 191 242 290 346
#
# _framework density 20.313711999999999
#
# number of rings (size 3 to 8) (size 9 to 14) (size 15 to 20)
#    0.000    1.750    1.250    5.250    3.500    1.500 
#    0.000    1.250    0.000    3.000    0.000    0.000 
#    0.000    0.000    0.000    0.000    0.000    0.000 
#
# Total GULP energy -178445.200084 kJ/mol
# GULP energy per Si atom -5576.412503 kJ/mol
# Density = 2.026748 g / cm^3
# Si number density = 20.313712 Si / 1000 Ang^3
#
#
#
# Elastic Constant Matrix: (Units=GPa)
#
#
# Indices 1 2 3 4 5 6 
#
# 1 94.7246 -7.5121 12.8962 0.0000 -7.9462 0.0000
# 2 -7.5121 34.1861 -2.8302 0.0000 -1.5245 0.0000
# 3 12.8962 -2.8302 108.7235 0.0000 -4.4067 0.0000
# 4 0.0000 0.0000 0.0000 13.4244 0.0000 2.0467
# 5 -7.9462 -1.5245 -4.4067 0.0000 32.2727 0.0000
# 6 0.0000 0.0000 0.0000 2.0467 0.0000 29.6105
#
#
#
# Elastic Compliance Matrix: (Units=1/GPa)
#
#
# Indices 1 2 3 4 5 6 
#
# 1 0.011136 0.002473 -0.001147 0.000000 0.002702 0.000000
# 2 0.002473 0.029936 0.000571 0.000000 0.002101 0.000000
# 3 -0.001147 0.000571 0.009390 0.000000 0.001027 0.000000
# 4 0.000000 0.000000 0.000000 0.075285 0.000000 -0.005204
# 5 0.002702 0.002101 0.001027 0.000000 0.031891 0.000000
# 6 0.000000 0.000000 0.000000 -0.005204 0.000000 0.034131
#
#
# Mechanical properties :
#
#
# Convention : Reuss Voigt Hill
#
# Bulk Modulus (GPa) = 18.43139 26.97135 22.70137
# Shear Modulus (GPa) = 24.26473 30.73354 27.49914
#
# Velocity S-wave (km/s) = 3.45990 3.89388 3.68329
# Velocity P-wave (km/s) = 5.00543 5.78987 5.41188
#
# Compressibility (1/GPa) = 0.05425527
#
# Stress axis : x y z
#
# Youngs Moduli (GPa) = 89.80031 33.40467 106.49432
#
# Poissons Ratio (x) = -0.08259 0.12215
# Poissons Ratio (y) = -0.22203 -0.06082
# Poissons Ratio (z) = 0.10300 -0.01908
#
# Static dielectric constant tensor:
#      x y z
#    x 1.758150 0.000000 -0.042000 
#    y 0.000000 1.709420 0.000000 
#    z -0.042000 0.000000 1.689210 
# 
# From -- ./inp_files/18600.got.cif
#   From: 2010.05.17/outbox.cif.g08.bks.cpg/sg14_10_cif.got.tgz:18600.got - 2010.06.03 17:49:19.
