data_PCOD9251894
_publ_section_title
;
Structure prediction by ZEFSAII (Michael W. Deem and Ramdas Pophale) SiO2 
 PCOD9251894
Probable space group: P 21/C
;
_chemical_formula_sum "Si O2"
_cell_formula_units_Z 28
_cell_length_a 6.247800
_cell_length_b 28.641073
_cell_length_c 8.258792
_cell_angle_alpha 90.000000
_cell_angle_beta 60.066597
_cell_angle_gamma 90.000000
_cell_volume 1280.721253
_symmetry_space_group_name_H-M "P 21/C"
_symmetry_group_IT_number 14
_symmetry_cell_setting 'monoclinic'
loop_
_space_group_symop_operation_xyz
x,y,z
-x,1/2+y,1/2-z
-x,-y,-z
x,1/2-y,1/2+z
loop_
_atom_site_type_symbol
_atom_site_label
_atom_site_fract_x
_atom_site_fract_y
_atom_site_fract_z
Si Si1 0.502530 0.837358 0.039421
Si Si2 0.254515 0.816983 0.661480
Si Si3 0.188892 0.002973 0.091420
Si Si4 0.051154 0.905726 0.294399
Si Si5 0.928541 0.603767 0.218578
Si Si6 0.844504 0.266335 0.474537
Si Si7 0.727690 0.827969 0.305688
O O1 0.284369 0.874763 0.149784
O O2 0.601945 0.826318 0.178922
O O3 0.405938 0.789083 0.001387
O O4 0.701746 0.862139 0.849089
O O5 0.158852 0.869281 0.712658
O O6 0.155941 0.786577 0.846008
O O7 0.149363 0.789067 0.545170
O O8 0.544291 0.817479 0.521291
O O9 0.095851 0.958810 0.229460
O O10 0.124376 0.053355 0.188402
O O11 0.500000 0.000000 0.000000
O O12 0.000000 0.000000 0.000000
O O13 0.993875 0.900419 0.505535
O O14 0.827176 0.880480 0.287122
O O15 0.056268 0.290589 0.289709
#
# Coordination Sequence:
#
# PCOD9251894 Si02
#       7
#     4   4   4   4   4   4   4
#     4  11  22  46  70 101 147 184 242 305 370 436
#     4  12  26  44  71 105 143 192 249 300 379 446
#     4  12  28  50  81 112 155 203 256 317 391 458
#     4  11  25  46  74 107 144 193 243 306 377 453
#     4  12  25  46  75 107 148 193 248 314 377 452
#     4  11  27  42  68 101 142 192 239 302 372 442
#     4  11  24  45  72 102 143 190 242 308 366 453
#
# _framework density 21.862680999999998
#
# number of rings (size 3 to 8) (size 9 to 14) (size 15 to 20)
#    0.000    0.571    4.286    3.000    6.000    2.286 
#    0.000    2.143    0.000    0.000    0.000    0.000 
#    0.000    0.000    0.000    0.000    0.000    0.000 
#
# Total GULP energy -156290.356810 kJ/mol
# GULP energy per Si atom -5581.798457 kJ/mol
# Density = 2.181292 g / cm^3
# Si number density = 21.862681 Si / 1000 Ang^3
#
#
#
# Elastic Constant Matrix: (Units=GPa)
#
#
# Indices 1 2 3 4 5 6 
#
# 1 65.8421 17.4931 29.3224 0.0000 1.3313 0.0000
# 2 17.4931 121.4627 20.6038 0.0000 -17.1853 0.0000
# 3 29.3224 20.6038 113.9408 0.0000 -24.7391 0.0000
# 4 0.0000 0.0000 0.0000 26.6477 0.0000 5.2989
# 5 1.3313 -17.1853 -24.7391 0.0000 41.6225 0.0000
# 6 0.0000 0.0000 0.0000 5.2989 0.0000 29.4603
#
#
#
# Elastic Compliance Matrix: (Units=1/GPa)
#
#
# Indices 1 2 3 4 5 6 
#
# 1 0.018280 -0.002403 -0.005296 0.000000 -0.004724 0.000000
# 2 -0.002403 0.009144 -0.000228 0.000000 0.003717 0.000000
# 3 -0.005296 -0.000228 0.011708 0.000000 0.007034 0.000000
# 4 0.000000 0.000000 0.000000 0.038919 0.000000 -0.007000
# 5 -0.004724 0.003717 0.007034 0.000000 0.029892 0.000000
# 6 0.000000 0.000000 0.000000 -0.007000 0.000000 0.035203
#
#
# Mechanical properties :
#
#
# Convention : Reuss Voigt Hill
#
# Bulk Modulus (GPa) = 42.95838 48.45379 45.70608
# Shear Modulus (GPa) = 29.98363 35.13453 32.55908
#
# Velocity S-wave (km/s) = 3.70733 4.01316 3.86327
# Velocity P-wave (km/s) = 6.16584 6.60945 6.39149
#
# Compressibility (1/GPa) = 0.02327835
#
# Stress axis : x y z
#
# Youngs Moduli (GPa) = 54.70419 109.36653 85.41336
#
# Poissons Ratio (x) = 0.26279 0.45232
# Poissons Ratio (y) = 0.13145 0.01948
# Poissons Ratio (z) = 0.28969 0.02495
#
# Static dielectric constant tensor:
#      x y z
#    x 1.925460 0.000000 -0.013550 
#    y 0.000000 1.736610 0.000000 
#    z -0.013550 0.000000 1.796990 
# 
# From -- ./inp_files/6727.got.cif
#   From: 2010.05.17/outbox.cif.g08.bks.cpg/sg14_4_cif.got.tgz:6727.got - 2010.06.03 17:49:19.
