data_PCOD9251356
_publ_section_title
;
Structure prediction by ZEFSAII (Michael W. Deem and Ramdas Pophale) SiO2 
 PCOD9251356
Probable space group: P 21/C
;
_chemical_formula_sum "Si O2"
_cell_formula_units_Z 24
_cell_length_a 15.737706
_cell_length_b 9.531334
_cell_length_c 13.432851
_cell_angle_alpha 90.000000
_cell_angle_beta 29.310037
_cell_angle_gamma 90.000000
_cell_volume 986.386796
_symmetry_space_group_name_H-M "P 21/C"
_symmetry_group_IT_number 14
_symmetry_cell_setting 'monoclinic'
loop_
_space_group_symop_operation_xyz
x,y,z
-x,1/2+y,1/2-z
-x,-y,-z
x,1/2-y,1/2+z
loop_
_atom_site_type_symbol
_atom_site_label
_atom_site_fract_x
_atom_site_fract_y
_atom_site_fract_z
Si Si1 0.704197 0.850088 0.012343
Si Si2 0.922256 0.342153 0.762862
Si Si3 0.832786 0.873533 0.249517
Si Si4 0.628783 0.957905 0.280064
Si Si5 0.208985 0.755337 0.405520
Si Si6 0.835666 0.428283 0.225292
O O1 0.700997 0.700705 0.960860
O O2 0.887398 0.863251 0.884737
O O3 0.722787 0.962815 0.904756
O O4 0.572562 0.877404 0.237693
O O5 0.869039 0.466897 0.743851
O O6 0.905726 0.190884 0.728669
O O7 0.799567 0.342250 0.985095
O O8 0.767022 0.869527 0.204282
O O9 0.011364 0.789154 0.079492
O O10 0.500000 0.000000 0.500000
O O11 0.700156 0.107659 0.171792
O O12 0.273993 0.847107 0.247108
O O13 0.000000 0.500000 0.000000
#
# Coordination Sequence:
#
# PCOD9251356 Si02
#       6
#     4   4   4   4   4   4
#     4  11  23  38  63  96 125 162 208 260 318 383
#     4  11  20  36  66  96 128 153 213 264 325 367
#     4  11  22  40  68  93 124 162 213 270 314 373
#     4  12  25  45  62  90 133 177 212 255 320 389
#     4  11  22  38  66  96 123 164 209 265 320 378
#     4  12  21  34  61 100 128 155 204 272 321 366
#
# _framework density 24.331225
#
# number of rings (size 3 to 8) (size 9 to 14) (size 15 to 20)
#    0.000    0.667    8.333    2.500    0.000    0.000 
#    6.000    0.000    0.000    2.000    0.000    0.000 
#    0.000    0.000    0.000    0.000    0.000    0.000 
#
# Total GULP energy -134295.415865 kJ/mol
# GULP energy per Si atom -5595.642328 kJ/mol
# Density = 2.427585 g / cm^3
# Si number density = 24.331225 Si / 1000 Ang^3
#
#
#
# Elastic Constant Matrix: (Units=GPa)
#
#
# Indices 1 2 3 4 5 6 
#
# 1 91.3203 17.7097 34.9950 0.0000 27.4787 0.0000
# 2 17.7097 87.7319 9.6702 0.0000 12.0537 0.0000
# 3 34.9950 9.6702 68.6519 0.0000 32.1754 0.0000
# 4 0.0000 0.0000 0.0000 30.7348 0.0000 28.8311
# 5 27.4787 12.0537 32.1754 0.0000 44.8923 0.0000
# 6 0.0000 0.0000 0.0000 28.8311 0.0000 37.5174
#
#
#
# Elastic Compliance Matrix: (Units=1/GPa)
#
#
# Indices 1 2 3 4 5 6 
#
# 1 0.014666 -0.001734 -0.004883 0.000000 -0.005012 0.000000
# 2 -0.001734 0.012043 0.000309 0.000000 -0.002394 0.000000
# 3 -0.004883 0.000309 0.023566 0.000000 -0.013985 0.000000
# 4 0.000000 0.000000 0.000000 0.116565 0.000000 -0.089577
# 5 -0.005012 -0.002394 -0.013985 0.000000 0.036009 0.000000
# 6 0.000000 0.000000 0.000000 -0.089577 0.000000 0.095492
#
#
# Mechanical properties :
#
#
# Convention : Reuss Voigt Hill
#
# Bulk Modulus (GPa) = 26.55261 41.38377 33.96819
# Shear Modulus (GPa) = 15.45556 34.98419 25.21988
#
# Velocity S-wave (km/s) = 2.52308 3.79599 3.22300
# Velocity P-wave (km/s) = 4.40733 6.02147 5.27649
#
# Compressibility (1/GPa) = 0.03766109
#
# Stress axis : x y z
#
# Youngs Moduli (GPa) = 68.18533 83.03470 42.43448
#
# Poissons Ratio (x) = 0.14395 0.20719
# Poissons Ratio (y) = 0.11821 -0.01313
# Poissons Ratio (z) = 0.33293 -0.02570
#
# Static dielectric constant tensor:
#      x y z
#    x 1.912450 0.000000 -0.023690 
#    y 0.000000 1.910640 0.000000 
#    z -0.023690 0.000000 2.160950 
# 
# From -- ./inp_files/38931.got.cif
#   From: 2010.05.17/outbox.cif.g08.bks.cpg/sg14_20_cif.got.tgz:38931.got - 2010.06.03 17:49:19.
