data_PCOD9251131
_publ_section_title
;
Structure prediction by ZEFSAII (Michael W. Deem and Ramdas Pophale) SiO2 
 PCOD9251131
Probable space group: P 21/C
;
_chemical_formula_sum "Si O2"
_cell_formula_units_Z 18
_cell_length_a 4.923664
_cell_length_b 15.498788
_cell_length_c 8.594262
_cell_angle_alpha 90.000000
_cell_angle_beta 98.845410
_cell_angle_gamma 90.000000
_cell_volume 648.035254
_symmetry_space_group_name_H-M "P 21/C"
_symmetry_group_IT_number 14
_symmetry_cell_setting 'monoclinic'
loop_
_space_group_symop_operation_xyz
x,y,z
-x,1/2+y,1/2-z
-x,-y,-z
x,1/2-y,1/2+z
loop_
_atom_site_type_symbol
_atom_site_label
_atom_site_fract_x
_atom_site_fract_y
_atom_site_fract_z
Si Si1 0.234757 0.874460 0.138444
Si Si2 0.880543 0.865861 0.701640
Si Si3 0.114452 0.725747 0.921813
Si Si4 0.736796 0.981690 0.199011
Si Si5 0.500000 0.000000 0.500000
O O1 0.277459 0.834500 0.315909
O O2 0.927234 0.909764 0.132903
O O3 0.291908 0.798409 0.024081
O O4 0.430657 0.954670 0.125514
O O5 0.878804 0.780385 0.809997
O O6 0.002531 0.829426 0.552970
O O7 0.620441 0.924116 0.633636
O O8 0.099340 0.929538 0.804845
O O9 0.724210 0.972338 0.386081
#
# Coordination Sequence:
#
# PCOD9251131 Si02
#       5
#     4   4   4   4   2
#     4  11  25  48  75 109 153 194 257 302 385 438
#     4  11  24  49  79 107 151 200 259 304 388 443
#     4  10  25  50  72 115 149 199 245 332 368 449
#     4  12  24  46  79 108 145 205 250 302 369 472
#     4  12  22  46  78 112 142 210 244 310 366 480
#
# _framework density 27.776264000000001
#
# number of rings (size 3 to 8) (size 9 to 14) (size 15 to 20)
#    0.000    0.889    4.444    2.000    0.000    3.556 
#   20.000    0.000    0.000    0.000    0.000    0.000 
#    0.000    0.000    0.000    0.000    0.000    0.000 
#
# Total GULP energy -100304.096138 kJ/mol
# GULP energy per Si atom -5572.449785 kJ/mol
# Density = 2.771304 g / cm^3
# Si number density = 27.776264 Si / 1000 Ang^3
#
#
#
# Elastic Constant Matrix: (Units=GPa)
#
#
# Indices 1 2 3 4 5 6 
#
# 1 102.9287 41.2207 18.8577 0.0000 7.9040 0.0000
# 2 41.2207 139.5562 40.1238 0.0000 7.0627 0.0000
# 3 18.8577 40.1238 121.3333 0.0000 -16.4078 0.0000
# 4 0.0000 0.0000 0.0000 89.6928 0.0000 11.5758
# 5 7.9040 7.0627 -16.4078 0.0000 40.6631 0.0000
# 6 0.0000 0.0000 0.0000 11.5758 0.0000 40.2660
#
#
#
# Elastic Compliance Matrix: (Units=1/GPa)
#
#
# Indices 1 2 3 4 5 6 
#
# 1 0.011237 -0.002904 -0.001072 0.000000 -0.002112 0.000000
# 2 -0.002904 0.008932 -0.002788 0.000000 -0.002112 0.000000
# 3 -0.001072 -0.002788 0.009968 0.000000 0.004715 0.000000
# 4 0.000000 0.000000 0.000000 0.011579 0.000000 -0.003329
# 5 -0.002112 -0.002112 0.004715 0.000000 0.027272 0.000000
# 6 0.000000 0.000000 0.000000 -0.003329 0.000000 0.025792
#
#
# Mechanical properties :
#
#
# Convention : Reuss Voigt Hill
#
# Bulk Modulus (GPa) = 60.20747 62.69139 61.44943
# Shear Modulus (GPa) = 43.92011 51.69878 47.80945
#
# Velocity S-wave (km/s) = 3.98076 4.31891 4.15328
# Velocity P-wave (km/s) = 6.54611 6.89128 6.72091
#
# Compressibility (1/GPa) = 0.01660923
#
# Stress axis : x y z
#
# Youngs Moduli (GPa) = 88.99141 111.96006 100.32293
#
# Poissons Ratio (x) = 0.32514 0.10752
# Poissons Ratio (y) = 0.25843 0.27969
# Poissons Ratio (z) = 0.09538 0.31213
#
# Static dielectric constant tensor:
#      x y z
#    x 2.132070 0.000000 0.110460 
#    y 0.000000 2.358250 0.000000 
#    z 0.110460 0.000000 2.318950 
# 
# From -- ./inp_files/5280.got.cif
#   From: 2010.05.17/outbox.cif.g08.bks.cpg/sg14_3_cif.got.tgz:5280.got - 2010.06.03 17:49:19.
