data_PCOD9251504
_publ_section_title
;
Structure prediction by ZEFSAII (Michael W. Deem and Ramdas Pophale) SiO2 
 PCOD9251504
Probable space group: P 21/C
;
_chemical_formula_sum "Si O2"
_cell_formula_units_Z 32
_cell_length_a 11.923261
_cell_length_b 12.475709
_cell_length_c 11.433867
_cell_angle_alpha 90.000000
_cell_angle_beta 73.416743
_cell_angle_gamma 90.000000
_cell_volume 1630.057615
_symmetry_space_group_name_H-M "P 21/C"
_symmetry_group_IT_number 14
_symmetry_cell_setting 'monoclinic'
loop_
_space_group_symop_operation_xyz
x,y,z
-x,1/2+y,1/2-z
-x,-y,-z
x,1/2-y,1/2+z
loop_
_atom_site_type_symbol
_atom_site_label
_atom_site_fract_x
_atom_site_fract_y
_atom_site_fract_z
Si Si1 0.023999 0.195745 0.646249
Si Si2 0.773651 0.865869 0.594251
Si Si3 0.918772 0.929152 0.939507
Si Si4 0.528265 0.838848 0.543457
Si Si5 0.197361 0.558327 0.739114
Si Si6 0.538337 0.096014 0.903378
Si Si7 0.427478 0.031335 0.690973
Si Si8 0.799837 0.651533 0.700108
O O1 0.107342 0.153878 0.515330
O O2 0.019780 0.324129 0.632996
O O3 0.090114 0.161367 0.746260
O O4 0.895617 0.145723 0.688913
O O5 0.662315 0.857395 0.542951
O O6 0.755052 0.772884 0.697205
O O7 0.779885 0.976314 0.661636
O O8 0.862504 0.995765 0.851524
O O9 0.825243 0.883782 0.059815
O O10 0.000000 0.000000 0.000000
O O11 0.503185 0.713465 0.544849
O O12 0.507971 0.898285 0.427012
O O13 0.450699 0.906636 0.658643
O O14 0.322246 0.599511 0.657424
O O15 0.477363 0.067335 0.799430
O O16 0.500000 0.000000 0.000000
O O17 0.293317 0.067819 0.724045
#
# Coordination Sequence:
#
# PCOD9251504 Si02
#       8
#     4   4   4   4   4   4   4   4
#     4  11  24  42  69  99 130 178 226 284 337 408
#     4  11  22  41  71  96 133 178 235 275 336 415
#     4  11  24  43  66  97 133 175 226 271 345 408
#     4  11  25  44  68 103 138 181 233 290 345 410
#     4  12  25  46  66 103 138 180 227 287 346 405
#     4  12  28  44  72 104 140 182 230 286 346 418
#     4  11  24  44  69 100 136 180 232 283 349 405
#     4  11  21  39  70  98 129 180 227 276 331 415
#
# _framework density 19.631208000000001
#
# number of rings (size 3 to 8) (size 9 to 14) (size 15 to 20)
#    0.000    0.750    6.250    1.125    5.250    1.000 
#    2.250    0.000    0.000    0.000    0.000    0.000 
#    0.000    0.000    0.000    0.000    0.000    0.000 
#
# Total GULP energy -178744.428027 kJ/mol
# GULP energy per Si atom -5585.763376 kJ/mol
# Density = 1.958653 g / cm^3
# Si number density = 19.631208 Si / 1000 Ang^3
#
#
#
# Elastic Constant Matrix: (Units=GPa)
#
#
# Indices 1 2 3 4 5 6 
#
# 1 106.7044 49.5969 24.3570 0.0000 -6.0501 0.0000
# 2 49.5969 117.9169 36.6853 0.0000 -1.7584 0.0000
# 3 24.3570 36.6853 63.3359 0.0000 1.9382 0.0000
# 4 0.0000 0.0000 0.0000 31.0977 0.0000 0.2020
# 5 -6.0501 -1.7584 1.9382 0.0000 34.6702 0.0000
# 6 0.0000 0.0000 0.0000 0.2020 0.0000 27.6352
#
#
#
# Elastic Compliance Matrix: (Units=1/GPa)
#
#
# Indices 1 2 3 4 5 6 
#
# 1 0.011997 -0.004345 -0.002158 0.000000 0.001994 0.000000
# 2 -0.004345 0.011944 -0.005252 0.000000 0.000141 0.000000
# 3 -0.002158 -0.005252 0.019714 0.000000 -0.001745 0.000000
# 4 0.000000 0.000000 0.000000 0.032158 0.000000 -0.000235
# 5 0.001994 0.000141 -0.001745 0.000000 0.029296 0.000000
# 6 0.000000 0.000000 0.000000 -0.000235 0.000000 0.036188
#
#
# Mechanical properties :
#
#
# Convention : Reuss Voigt Hill
#
# Bulk Modulus (GPa) = 49.63795 56.58172 53.10984
# Shear Modulus (GPa) = 29.15102 30.50181 29.82642
#
# Velocity S-wave (km/s) = 3.85766 3.94603 3.90210
# Velocity P-wave (km/s) = 6.72177 7.04602 6.88581
#
# Compressibility (1/GPa) = 0.02014587
#
# Stress axis : x y z
#
# Youngs Moduli (GPa) = 83.35518 83.72423 50.72547
#
# Poissons Ratio (x) = 0.36377 0.10947
# Poissons Ratio (y) = 0.36217 0.26639
# Poissons Ratio (z) = 0.17988 0.43969
#
# Static dielectric constant tensor:
#      x y z
#    x 1.690130 0.000000 -0.021670 
#    y 0.000000 1.710900 0.000000 
#    z -0.021670 0.000000 1.715540 
# 
# From -- ./inp_files/29043.got.cif
#   From: 2010.05.17/outbox.cif.g08.bks.cpg/sg14_15_cif.got.tgz:29043.got - 2010.06.03 17:49:19.
