data_PCOD9251500
_publ_section_title
;
Structure prediction by ZEFSAII (Michael W. Deem and Ramdas Pophale) SiO2 
 PCOD9251500
Probable space group: P 21/C
;
_chemical_formula_sum "Si O2"
_cell_formula_units_Z 28
_cell_length_a 12.986942
_cell_length_b 8.345950
_cell_length_c 14.789355
_cell_angle_alpha 90.000000
_cell_angle_beta 128.952169
_cell_angle_gamma 90.000000
_cell_volume 1246.602079
_symmetry_space_group_name_H-M "P 21/C"
_symmetry_group_IT_number 14
_symmetry_cell_setting 'monoclinic'
loop_
_space_group_symop_operation_xyz
x,y,z
-x,1/2+y,1/2-z
-x,-y,-z
x,1/2-y,1/2+z
loop_
_atom_site_type_symbol
_atom_site_label
_atom_site_fract_x
_atom_site_fract_y
_atom_site_fract_z
Si Si1 0.236911 0.157662 0.704863
Si Si2 0.411200 0.651180 0.815797
Si Si3 0.609765 0.634610 0.336004
Si Si4 0.248000 0.865751 0.980632
Si Si5 0.156295 0.818319 0.729877
Si Si6 0.024629 0.686122 0.497539
Si Si7 0.484576 0.189944 0.961003
O O1 0.309943 0.211392 0.653927
O O2 0.343094 0.207538 0.838364
O O3 0.096422 0.244455 0.626356
O O4 0.210079 0.974018 0.708534
O O5 0.411937 0.494357 0.755577
O O6 0.468450 0.801046 0.789928
O O7 0.263525 0.679884 0.770217
O O8 0.501793 0.679015 0.953264
O O9 0.700904 0.541346 0.459187
O O10 0.162474 0.856925 0.840286
O O11 0.159579 0.796846 0.013467
O O12 0.389331 0.784549 0.035300
O O13 0.031371 0.767493 0.600574
O O14 0.000000 0.500000 0.500000
O O15 0.500000 0.000000 0.000000
#
# Coordination Sequence:
#
# PCOD9251500 Si02
#       7
#     4   4   4   4   4   4   4
#     4  12  24  43  70 100 138 189 243 293 364 429
#     4  11  21  39  68 103 137 178 235 301 364 418
#     4  12  22  39  70 102 140 185 235 301 357 427
#     4  11  22  44  72  97 144 188 231 295 370 415
#     4  11  23  44  72 100 137 190 237 294 363 435
#     4  12  26  47  68 102 150 187 238 301 357 437
#     4  11  21  43  71 100 138 181 237 304 357 428
#
# _framework density 22.461058000000001
#
# number of rings (size 3 to 8) (size 9 to 14) (size 15 to 20)
#    0.000    0.571    7.143    2.143    0.000    1.714 
#    2.571    1.429    3.143    0.000    0.000    0.000 
#    0.000    0.000    0.000    0.000    0.000    0.000 
#
# Total GULP energy -156290.351678 kJ/mol
# GULP energy per Si atom -5581.798274 kJ/mol
# Density = 2.240994 g / cm^3
# Si number density = 22.461058 Si / 1000 Ang^3
#
#
#
# Elastic Constant Matrix: (Units=GPa)
#
#
# Indices 1 2 3 4 5 6 
#
# 1 34.2037 -8.4065 20.7450 0.0000 4.0440 0.0000
# 2 -8.4065 50.8220 40.0101 0.0000 -11.2952 0.0000
# 3 20.7450 40.0101 159.4133 0.0000 2.5643 0.0000
# 4 0.0000 0.0000 0.0000 27.8806 0.0000 2.2808
# 5 4.0440 -11.2952 2.5643 0.0000 40.4720 0.0000
# 6 0.0000 0.0000 0.0000 2.2808 0.0000 30.2399
#
#
#
# Elastic Compliance Matrix: (Units=1/GPa)
#
#
# Indices 1 2 3 4 5 6 
#
# 1 0.037095 0.012464 -0.007960 0.000000 0.000276 0.000000
# 2 0.012464 0.031030 -0.009539 0.000000 0.008019 0.000000
# 3 -0.007960 -0.009539 0.009743 0.000000 -0.002484 0.000000
# 4 0.000000 0.000000 0.000000 0.036090 0.000000 -0.002722
# 5 0.000276 0.008019 -0.002484 0.000000 0.027076 0.000000
# 6 0.000000 0.000000 0.000000 -0.002722 0.000000 0.033274
#
#
# Mechanical properties :
#
#
# Convention : Reuss Voigt Hill
#
# Bulk Modulus (GPa) = 14.74968 38.79292 26.77130
# Shear Modulus (GPa) = 24.15714 32.52452 28.34083
#
# Velocity S-wave (km/s) = 3.28306 3.80944 3.55600
# Velocity P-wave (km/s) = 4.57737 6.05457 5.36704
#
# Compressibility (1/GPa) = 0.06779807
#
# Stress axis : x y z
#
# Youngs Moduli (GPa) = 26.95770 32.22673 102.63814
#
# Poissons Ratio (x) = -0.40167 0.81700
# Poissons Ratio (y) = -0.33600 0.97907
# Poissons Ratio (z) = 0.21458 0.30741
#
# Static dielectric constant tensor:
#      x y z
#    x 1.889180 0.000000 -0.020290 
#    y 0.000000 1.840340 0.000000 
#    z -0.020290 0.000000 1.929000 
# 
# From -- ./inp_files/46564.got.cif
#   From: 2010.05.17/outbox.cif.g08.bks.cpg/sg14_24_cif.got.tgz:46564.got - 2010.06.03 17:49:19.
