data_PCOD9251382
_publ_section_title
;
Structure prediction by ZEFSAII (Michael W. Deem and Ramdas Pophale) SiO2 
 PCOD9251382
Probable space group: P 21/C
;
_chemical_formula_sum "Si O2"
_cell_formula_units_Z 16
_cell_length_a 8.281412
_cell_length_b 7.540817
_cell_length_c 9.331910
_cell_angle_alpha 90.000000
_cell_angle_beta 71.595429
_cell_angle_gamma 90.000000
_cell_volume 552.956891
_symmetry_space_group_name_H-M "P 21/C"
_symmetry_group_IT_number 14
_symmetry_cell_setting 'monoclinic'
loop_
_space_group_symop_operation_xyz
x,y,z
-x,1/2+y,1/2-z
-x,-y,-z
x,1/2-y,1/2+z
loop_
_atom_site_type_symbol
_atom_site_label
_atom_site_fract_x
_atom_site_fract_y
_atom_site_fract_z
Si Si1 0.332137 0.912424 0.735798
Si Si2 0.309089 0.505742 0.810659
Si Si3 0.193452 0.439569 0.548709
Si Si4 0.024120 0.687180 0.159735
O O1 0.307992 0.718042 0.812525
O O2 0.201742 0.913168 0.640603
O O3 0.530086 0.935232 0.648684
O O4 0.276925 0.058168 0.869681
O O5 0.335679 0.457670 0.633199
O O6 0.875180 0.583821 0.118803
O O7 0.079811 0.620190 0.591224
O O8 0.064942 0.299310 0.657147
#
# Coordination Sequence:
#
# PCOD9251382 Si02
#       4
#     4   4   4   4
#     4  11  20  39  59  81 114 152 176 232 284 315
#     4   9  23  35  57  85 114 141 194 224 266 343
#     4   9  20  39  58  82 113 144 187 227 280 325
#     4   9  21  39  54  86 113 141 194 226 264 344
#
# _framework density 28.935348999999999
#
# number of rings (size 3 to 8) (size 9 to 14) (size 15 to 20)
#    1.500    1.000    0.000    1.500    3.500    1.000 
#    0.000    5.000    0.000    0.000    0.000    0.000 
#    0.000    0.000    0.000    0.000    0.000    0.000 
#
# Total GULP energy -89541.561530 kJ/mol
# GULP energy per Si atom -5596.347596 kJ/mol
# Density = 2.886949 g / cm^3
# Si number density = 28.935349 Si / 1000 Ang^3
#
#
#
# Elastic Constant Matrix: (Units=GPa)
#
#
# Indices 1 2 3 4 5 6 
#
# 1 260.5980 84.3749 44.4498 0.0000 -21.6007 0.0000
# 2 84.3749 130.1521 28.0744 0.0000 -13.8785 0.0000
# 3 44.4498 28.0744 102.6828 0.0000 -2.5078 0.0000
# 4 0.0000 0.0000 0.0000 34.5244 0.0000 1.0167
# 5 -21.6007 -13.8785 -2.5078 0.0000 44.9664 0.0000
# 6 0.0000 0.0000 0.0000 1.0167 0.0000 42.7245
#
#
#
# Elastic Compliance Matrix: (Units=1/GPa)
#
#
# Indices 1 2 3 4 5 6 
#
# 1 0.005127 -0.002862 -0.001400 0.000000 0.001502 0.000000
# 2 -0.002862 0.010029 -0.001463 0.000000 0.001639 0.000000
# 3 -0.001400 -0.001463 0.010732 0.000000 -0.000526 0.000000
# 4 0.000000 0.000000 0.000000 0.028985 0.000000 -0.000690
# 5 0.001502 0.001639 -0.000526 0.000000 0.023437 0.000000
# 6 0.000000 0.000000 0.000000 -0.000690 0.000000 0.023422
#
#
# Mechanical properties :
#
#
# Convention : Reuss Voigt Hill
#
# Bulk Modulus (GPa) = 69.26305 89.69234 79.47770
# Shear Modulus (GPa) = 42.37451 46.87866 44.62659
#
# Velocity S-wave (km/s) = 3.83097 4.02943 3.93146
# Velocity P-wave (km/s) = 6.59982 7.26039 6.93797
#
# Compressibility (1/GPa) = 0.01443771
#
# Stress axis : x y z
#
# Youngs Moduli (GPa) = 195.03853 99.71225 93.17804
#
# Poissons Ratio (x) = 0.28534 0.13049
# Poissons Ratio (y) = 0.55813 0.13634
# Poissons Ratio (z) = 0.27313 0.14590
#
# Static dielectric constant tensor:
#      x y z
#    x 2.259230 0.000000 0.069300 
#    y 0.000000 2.215560 0.000000 
#    z 0.069300 0.000000 2.245520 
# 
# From -- ./inp_files/22612.got.cif
#   From: 2010.05.17/outbox.cif.g08.bks.cpg/sg14_12_cif.got.tgz:22612.got - 2010.06.03 17:49:19.
