data_PCOD9251858
_publ_section_title
;
Structure prediction by ZEFSAII (Michael W. Deem and Ramdas Pophale) SiO2 
 PCOD9251858
Probable space group: P 21/C
;
_chemical_formula_sum "Si O2"
_cell_formula_units_Z 16
_cell_length_a 12.077523
_cell_length_b 7.839889
_cell_length_c 13.331564
_cell_angle_alpha 90.000000
_cell_angle_beta 29.977938
_cell_angle_gamma 90.000000
_cell_volume 630.738177
_symmetry_space_group_name_H-M "P 21/C"
_symmetry_group_IT_number 14
_symmetry_cell_setting 'monoclinic'
loop_
_space_group_symop_operation_xyz
x,y,z
-x,1/2+y,1/2-z
-x,-y,-z
x,1/2-y,1/2+z
loop_
_atom_site_type_symbol
_atom_site_label
_atom_site_fract_x
_atom_site_fract_y
_atom_site_fract_z
Si Si1 0.940402 0.471908 0.756176
Si Si2 0.220734 0.789058 0.902604
Si Si3 0.524474 0.638179 0.830366
Si Si4 0.910626 0.660185 0.979755
O O1 0.950942 0.513852 0.866242
O O2 0.026366 0.635975 0.627405
O O3 0.091955 0.322833 0.593725
O O4 0.691359 0.403330 0.933444
O O5 0.407653 0.686462 0.816116
O O6 0.110488 0.682359 0.900247
O O7 0.337834 0.963572 0.774196
O O8 0.685218 0.801309 0.719175
#
# Coordination Sequence:
#
# PCOD9251858 Si02
#       4
#     4   4   4   4
#     4  11  22  45  66  96 135 167 222 271 316 397
#     4  11  25  44  68  98 133 173 218 272 328 385
#     4  11  22  45  66  96 135 167 222 271 316 397
#     4  11  25  44  68  98 133 173 218 272 328 385
#
# _framework density 25.367104000000001
#
# number of rings (size 3 to 8) (size 9 to 14) (size 15 to 20)
#    0.000    1.000    5.000    3.000    0.000    5.000 
#    0.000    5.000    0.000    0.000    0.000    0.000 
#    0.000    0.000    0.000    0.000    0.000    0.000 
#
# Total GULP energy -89299.912505 kJ/mol
# GULP energy per Si atom -5581.244532 kJ/mol
# Density = 2.530937 g / cm^3
# Si number density = 25.367104 Si / 1000 Ang^3
#
#
#
# Elastic Constant Matrix: (Units=GPa)
#
#
# Indices 1 2 3 4 5 6 
#
# 1 140.6288 16.2309 25.5451 0.0000 -3.1070 0.0000
# 2 16.2309 67.3653 5.7371 0.0000 5.1608 0.0000
# 3 25.5451 5.7371 126.5047 0.0000 -13.2364 0.0000
# 4 0.0000 0.0000 0.0000 14.3742 0.0000 -10.7283
# 5 -3.1070 5.1608 -13.2364 0.0000 37.6846 0.0000
# 6 0.0000 0.0000 0.0000 -10.7283 0.0000 41.0415
#
#
#
# Elastic Compliance Matrix: (Units=1/GPa)
#
#
# Indices 1 2 3 4 5 6 
#
# 1 0.007576 -0.001733 -0.001413 0.000000 0.000366 0.000000
# 2 -0.001733 0.015504 -0.000613 0.000000 -0.002481 0.000000
# 3 -0.001413 -0.000613 0.008528 0.000000 0.002963 0.000000
# 4 0.000000 0.000000 0.000000 0.086432 0.000000 0.022593
# 5 0.000366 -0.002481 0.002963 0.000000 0.027947 0.000000
# 6 0.000000 0.000000 0.000000 0.022593 0.000000 0.030272
#
#
# Mechanical properties :
#
#
# Convention : Reuss Voigt Hill
#
# Bulk Modulus (GPa) = 41.51014 47.72501 44.61758
# Shear Modulus (GPa) = 26.06806 37.75244 31.91025
#
# Velocity S-wave (km/s) = 3.20915 3.86196 3.55059
# Velocity P-wave (km/s) = 5.48915 6.22422 5.86821
#
# Compressibility (1/GPa) = 0.02409050
#
# Stress axis : x y z
#
# Youngs Moduli (GPa) = 132.00160 64.49838 117.26146
#
# Poissons Ratio (x) = 0.11177 0.16568
# Poissons Ratio (y) = 0.22875 0.07186
# Poissons Ratio (z) = 0.18651 0.03953
#
# Static dielectric constant tensor:
#      x y z
#    x 1.975340 0.000000 0.022110 
#    y 0.000000 2.181240 0.000000 
#    z 0.022110 0.000000 2.047620 
# 
# From -- ./inp_files/28406.got.cif
#   From: 2010.05.17/outbox.cif.g08.bks.cpg/sg14_15_cif.got.tgz:28406.got - 2010.06.03 17:49:19.
