data_PCOD9251130
_publ_section_title
;
Structure prediction by ZEFSAII (Michael W. Deem and Ramdas Pophale) SiO2 
 PCOD9251130
Probable space group: P 21/C
;
_chemical_formula_sum "Si O2"
_cell_formula_units_Z 24
_cell_length_a 15.926619
_cell_length_b 6.998669
_cell_length_c 19.211620
_cell_angle_alpha 90.000000
_cell_angle_beta 152.875095
_cell_angle_gamma 90.000000
_cell_volume 976.344160
_symmetry_space_group_name_H-M "P 21/C"
_symmetry_group_IT_number 14
_symmetry_cell_setting 'monoclinic'
loop_
_space_group_symop_operation_xyz
x,y,z
-x,1/2+y,1/2-z
-x,-y,-z
x,1/2-y,1/2+z
loop_
_atom_site_type_symbol
_atom_site_label
_atom_site_fract_x
_atom_site_fract_y
_atom_site_fract_z
Si Si1 0.673485 0.480988 0.175865
Si Si2 0.170018 0.493763 0.029009
Si Si3 0.061910 0.212151 0.064956
Si Si4 0.260148 0.001021 0.997519
Si Si5 0.904051 0.279527 0.748940
Si Si6 0.475807 0.859691 0.286718
O O1 0.796544 0.672234 0.268181
O O2 0.788518 0.308897 0.227118
O O3 0.500000 0.500000 0.000000
O O4 0.223570 0.847199 0.909136
O O5 0.164058 0.309295 0.075641
O O6 0.320746 0.884549 0.111519
O O7 0.355351 0.478056 0.122276
O O8 0.007864 0.465931 0.854021
O O9 0.892985 0.342135 0.964563
O O10 0.000000 0.000000 0.000000
O O11 0.396247 0.948945 0.297761
O O12 0.424225 0.160761 0.114776
O O13 0.069157 0.124439 0.858499
#
# Coordination Sequence:
#
# PCOD9251130 Si02
#       6
#     4   4   4   4   4   4
#     4  12  29  47  75 115 162 206 272 337 412 484
#     4  10  25  49  81 113 159 212 276 331 411 491
#     4  11  24  49  78 114 154 214 267 334 408 492
#     4  11  29  48  85 114 161 214 280 335 417 487
#     4  11  27  51  77 116 156 217 269 345 412 498
#     4  11  28  51  76 121 157 214 271 343 406 490
#
# _framework density 24.581493999999999
#
# number of rings (size 3 to 8) (size 9 to 14) (size 15 to 20)
#    0.000    1.000    1.667    2.000   14.000    0.667 
#    0.000    0.000    0.000    0.000    0.000    0.000 
#    0.000    0.000    0.000    0.000    0.000    0.000 
#
# Total GULP energy -134164.169568 kJ/mol
# GULP energy per Si atom -5590.173732 kJ/mol
# Density = 2.452555 g / cm^3
# Si number density = 24.581494 Si / 1000 Ang^3
#
#
#
# Elastic Constant Matrix: (Units=GPa)
#
#
# Indices 1 2 3 4 5 6 
#
# 1 172.1928 69.7676 65.8520 0.0000 -5.0459 0.0000
# 2 69.7676 111.9802 46.7375 0.0000 1.3327 0.0000
# 3 65.8520 46.7375 135.8441 0.0000 -28.4932 0.0000
# 4 0.0000 0.0000 0.0000 48.1140 0.0000 -10.5321
# 5 -5.0459 1.3327 -28.4932 0.0000 56.0999 0.0000
# 6 0.0000 0.0000 0.0000 -10.5321 0.0000 35.3826
#
#
#
# Elastic Compliance Matrix: (Units=1/GPa)
#
#
# Indices 1 2 3 4 5 6 
#
# 1 0.008554 -0.004135 -0.002845 0.000000 -0.000577 0.000000
# 2 -0.004135 0.012703 -0.002806 0.000000 -0.002099 0.000000
# 3 -0.002845 -0.002806 0.010819 0.000000 0.005306 0.000000
# 4 0.000000 0.000000 0.000000 0.022233 0.000000 0.006618
# 5 -0.000577 -0.002099 0.005306 0.000000 0.020518 0.000000
# 6 0.000000 0.000000 0.000000 0.006618 0.000000 0.030232
#
#
# Mechanical properties :
#
#
# Convention : Reuss Voigt Hill
#
# Bulk Modulus (GPa) = 79.98087 87.19237 83.58662
# Shear Modulus (GPa) = 38.82027 43.76328 41.29177
#
# Velocity S-wave (km/s) = 3.97829 4.22398 4.10297
# Velocity P-wave (km/s) = 7.32871 7.70306 7.51821
#
# Compressibility (1/GPa) = 0.01250299
#
# Stress axis : x y z
#
# Youngs Moduli (GPa) = 116.90450 78.72387 92.43122
#
# Poissons Ratio (x) = 0.32553 0.26297
# Poissons Ratio (y) = 0.48341 0.25937
# Poissons Ratio (z) = 0.33260 0.22090
#
# Static dielectric constant tensor:
#      x y z
#    x 1.910740 0.000000 -0.011130 
#    y 0.000000 2.083860 0.000000 
#    z -0.011130 0.000000 2.059870 
# 
# From -- ./inp_files/77898.got.cif
#   From: 2010.05.17/outbox.cif.g08.bks.cpg/sg14_39_cif.got.tgz:77898.got - 2010.06.03 17:49:19.
