data_PCOD9251632
_publ_section_title
;
Structure prediction by ZEFSAII (Michael W. Deem and Ramdas Pophale) SiO2 
 PCOD9251632
Probable space group: P 21/C
;
_chemical_formula_sum "Si O2"
_cell_formula_units_Z 32
_cell_length_a 8.879772
_cell_length_b 14.707274
_cell_length_c 13.470819
_cell_angle_alpha 90.000000
_cell_angle_beta 60.249420
_cell_angle_gamma 90.000000
_cell_volume 1527.371473
_symmetry_space_group_name_H-M "P 21/C"
_symmetry_group_IT_number 14
_symmetry_cell_setting 'monoclinic'
loop_
_space_group_symop_operation_xyz
x,y,z
-x,1/2+y,1/2-z
-x,-y,-z
x,1/2-y,1/2+z
loop_
_atom_site_type_symbol
_atom_site_label
_atom_site_fract_x
_atom_site_fract_y
_atom_site_fract_z
Si Si1 0.583345 0.812055 0.993751
Si Si2 0.879476 0.189808 0.534916
Si Si3 0.750124 0.868306 0.503482
Si Si4 0.413349 0.893105 0.237921
Si Si5 0.194962 0.019330 0.158326
Si Si6 0.743397 0.369346 0.522899
Si Si7 0.443159 0.562405 0.218465
Si Si8 0.818753 0.443642 0.871695
O O1 0.537467 0.840157 0.121857
O O2 0.672869 0.714537 0.965472
O O3 0.703991 0.890210 0.907442
O O4 0.403171 0.816653 0.992966
O O5 0.722775 0.171814 0.663001
O O6 0.886097 0.295723 0.505937
O O7 0.839462 0.130456 0.450859
O O8 0.058046 0.156009 0.523352
O O9 0.623330 0.886601 0.638000
O O10 0.758588 0.961963 0.440603
O O11 0.305337 0.965115 0.205470
O O12 0.515746 0.955350 0.282731
O O13 0.005573 0.041249 0.260526
O O14 0.188630 0.951474 0.066518
O O15 0.650352 0.406978 0.650924
O O16 0.320166 0.582748 0.165811
#
# Coordination Sequence:
#
# PCOD9251632 Si02
#       8
#     4   4   4   4   4   4   4   4
#     4  11  24  44  71 101 136 177 229 278 335 405
#     4  12  26  44  71  98 140 178 224 284 337 400
#     4  12  26  45  67 102 136 178 229 278 340 395
#     4  11  21  46  72  95 130 182 220 275 344 394
#     4  11  23  47  71  98 137 180 222 277 342 397
#     4  11  25  45  71 101 136 180 224 278 336 404
#     4  12  24  44  72  97 133 179 227 276 337 401
#     4  12  27  43  71  98 140 177 225 282 332 406
#
# _framework density 20.951027
#
# number of rings (size 3 to 8) (size 9 to 14) (size 15 to 20)
#    0.000    0.500    5.000    3.750    3.500    3.500 
#    0.000    0.000    0.000    0.000    0.000    0.000 
#    0.000    0.000    0.000    0.000    0.000    0.000 
#
# Total GULP energy -179200.285387 kJ/mol
# GULP energy per Si atom -5600.008918 kJ/mol
# Density = 2.090334 g / cm^3
# Si number density = 20.951027 Si / 1000 Ang^3
#
#
#
# Elastic Constant Matrix: (Units=GPa)
#
#
# Indices 1 2 3 4 5 6 
#
# 1 25.7483 -8.8386 3.9806 0.0000 -4.5529 0.0000
# 2 -8.8386 59.9929 11.6824 0.0000 -12.9261 0.0000
# 3 3.9806 11.6824 89.2860 0.0000 -15.6121 0.0000
# 4 0.0000 0.0000 0.0000 3.7282 0.0000 11.6321
# 5 -4.5529 -12.9261 -15.6121 0.0000 27.3735 0.0000
# 6 0.0000 0.0000 0.0000 11.6321 0.0000 29.2687
#
#
#
# Elastic Compliance Matrix: (Units=1/GPa)
#
#
# Indices 1 2 3 4 5 6 
#
# 1 0.044079 0.009088 -0.001246 0.000000 0.010912 0.000000
# 2 0.009088 0.020510 -0.001256 0.000000 0.010480 0.000000
# 3 -0.001246 -0.001256 0.012529 0.000000 0.006345 0.000000
# 4 0.000000 0.000000 0.000000 -1.117719 0.000000 0.444207
# 5 0.010912 0.010480 0.006345 0.000000 0.046915 0.000000
# 6 0.000000 0.000000 0.000000 0.444207 0.000000 -0.142372
#
#
# Mechanical properties :
#
#
# Convention : Reuss Voigt Hill
#
# Bulk Modulus (GPa) = 11.07544 20.96402 16.01973
# Shear Modulus (GPa) = -4.46775 23.28758 9.40991
#
# Velocity S-wave (km/s) = -1.46188 3.33757 2.12159
# Velocity P-wave (km/s) = 1.56472 4.98803 3.69654
#
# Compressibility (1/GPa) = 0.09028985
#
# Stress axis : x y z
#
# Youngs Moduli (GPa) = 22.68635 48.75610 79.81202
#
# Poissons Ratio (x) = -0.44309 0.09946
# Poissons Ratio (y) = -0.20617 0.10026
# Poissons Ratio (z) = 0.02827 0.06125
#
# Static dielectric constant tensor:
#      x y z
#    x 1.731370 0.000000 0.009750 
#    y 0.000000 1.739040 0.000000 
#    z 0.009750 0.000000 1.724130 
# 
# From -- ./inp_files/25488.got.cif
#   From: 2010.05.17/outbox.cif.g08.bks.cpg/sg14_13_cif.got.tgz:25488.got - 2010.06.03 17:49:19.
