data_PCOD9251615
_publ_section_title
;
Structure prediction by ZEFSAII (Michael W. Deem and Ramdas Pophale) SiO2 
 PCOD9251615
Probable space group: P 21/C
;
_chemical_formula_sum "Si O2"
_cell_formula_units_Z 20
_cell_length_a 8.995182
_cell_length_b 7.744939
_cell_length_c 27.870964
_cell_angle_alpha 90.000000
_cell_angle_beta 26.651776
_cell_angle_gamma 90.000000
_cell_volume 870.978005
_symmetry_space_group_name_H-M "P 21/C"
_symmetry_group_IT_number 14
_symmetry_cell_setting 'monoclinic'
loop_
_space_group_symop_operation_xyz
x,y,z
-x,1/2+y,1/2-z
-x,-y,-z
x,1/2-y,1/2+z
loop_
_atom_site_type_symbol
_atom_site_label
_atom_site_fract_x
_atom_site_fract_y
_atom_site_fract_z
Si Si1 0.466446 0.056553 0.162871
Si Si2 0.461298 0.386405 0.558832
Si Si3 0.301732 0.620557 0.851884
Si Si4 0.185367 0.225257 0.878895
Si Si5 0.858328 0.585908 0.894941
O O1 0.626333 0.245892 0.126354
O O2 0.140386 0.034462 0.290339
O O3 0.722403 0.913793 0.107663
O O4 0.382361 0.023478 0.131871
O O5 0.500000 0.500000 0.500000
O O6 0.175929 0.250480 0.629274
O O7 0.810245 0.291326 0.469138
O O8 0.285616 0.416911 0.867083
O O9 0.588347 0.664677 0.730955
O O10 0.971839 0.648607 0.914957
O O11 0.500000 0.500000 0.000000
#
# Coordination Sequence:
#
# PCOD9251615 Si02
#       5
#     4   4   4   4   4
#     4  11  26  46  71 108 143 191 247 288 364 440
#     4  12  27  47  72 102 150 194 241 307 361 419
#     4  11  21  44  76 100 143 188 237 294 361 431
#     4  11  22  44  76 103 140 190 243 297 358 441
#     4  11  23  46  71 108 146 182 234 303 367 428
#
# _framework density 22.962693000000002
#
# number of rings (size 3 to 8) (size 9 to 14) (size 15 to 20)
#    0.000    0.800    6.000    1.800    2.800    4.000 
#    3.600    0.000    0.000    0.000    0.000    0.000 
#    0.000    0.000    0.000    0.000    0.000    0.000 
#
# Total GULP energy -111844.994784 kJ/mol
# GULP energy per Si atom -5592.249739 kJ/mol
# Density = 2.291043 g / cm^3
# Si number density = 22.962693 Si / 1000 Ang^3
#
#
#
# Elastic Constant Matrix: (Units=GPa)
#
#
# Indices 1 2 3 4 5 6 
#
# 1 125.5887 53.1954 28.8029 0.0000 19.1635 0.0000
# 2 53.1954 154.4684 30.1722 0.0000 2.6033 0.0000
# 3 28.8029 30.1722 84.5995 0.0000 -10.6814 0.0000
# 4 0.0000 0.0000 0.0000 32.0935 0.0000 -13.2547
# 5 19.1635 2.6033 -10.6814 0.0000 36.5888 0.0000
# 6 0.0000 0.0000 0.0000 -13.2547 0.0000 46.6123
#
#
#
# Elastic Compliance Matrix: (Units=1/GPa)
#
#
# Indices 1 2 3 4 5 6 
#
# 1 0.011052 -0.003006 -0.003524 0.000000 -0.006603 0.000000
# 2 -0.003006 0.007833 -0.001705 0.000000 0.000520 0.000000
# 3 -0.003524 -0.001705 0.014408 0.000000 0.006173 0.000000
# 4 0.000000 0.000000 0.000000 0.035305 0.000000 0.010039
# 5 -0.006603 0.000520 0.006173 0.000000 0.032554 0.000000
# 6 0.000000 0.000000 0.000000 0.010039 0.000000 0.024308
#
#
# Mechanical properties :
#
#
# Convention : Reuss Voigt Hill
#
# Bulk Modulus (GPa) = 59.44449 65.44418 62.44434
# Shear Modulus (GPa) = 33.88949 39.89135 36.89042
#
# Velocity S-wave (km/s) = 3.84585 4.17252 4.01251
# Velocity P-wave (km/s) = 6.75754 7.19551 6.97996
#
# Compressibility (1/GPa) = 0.01682242
#
# Stress axis : x y z
#
# Youngs Moduli (GPa) = 90.48373 127.65988 69.40783
#
# Poissons Ratio (x) = 0.38378 0.24461
# Poissons Ratio (y) = 0.27202 0.11831
# Poissons Ratio (z) = 0.31888 0.21761
#
# Static dielectric constant tensor:
#      x y z
#    x 1.826190 0.000000 0.016070 
#    y 0.000000 1.942530 0.000000 
#    z 0.016070 0.000000 1.870820 
# 
# From -- ./inp_files/79387.got.cif
#   From: 2010.05.17/outbox.cif.g08.bks.cpg/sg14_40_cif.got.tgz:79387.got - 2010.06.03 17:49:19.
