data_PCOD9251283
_publ_section_title
;
Structure prediction by ZEFSAII (Michael W. Deem and Ramdas Pophale) SiO2 
 PCOD9251283
Probable space group: P 21/C
;
_chemical_formula_sum "Si O2"
_cell_formula_units_Z 28
_cell_length_a 21.230884
_cell_length_b 15.821363
_cell_length_c 8.400237
_cell_angle_alpha 90.000000
_cell_angle_beta 29.327638
_cell_angle_gamma 90.000000
_cell_volume 1382.053974
_symmetry_space_group_name_H-M "P 21/C"
_symmetry_group_IT_number 14
_symmetry_cell_setting 'monoclinic'
loop_
_space_group_symop_operation_xyz
x,y,z
-x,1/2+y,1/2-z
-x,-y,-z
x,1/2-y,1/2+z
loop_
_atom_site_type_symbol
_atom_site_label
_atom_site_fract_x
_atom_site_fract_y
_atom_site_fract_z
Si Si1 0.171479 0.009878 0.957714
Si Si2 0.236231 0.337699 0.884494
Si Si3 0.012301 0.084288 0.069128
Si Si4 0.359534 0.503523 0.735632
Si Si5 0.244276 0.835402 0.323076
Si Si6 0.162745 0.170113 0.178308
Si Si7 0.853031 0.169465 0.823427
O O1 0.262517 0.000525 0.601851
O O2 0.208438 0.080999 0.003375
O O3 0.037189 0.049725 0.189870
O O4 0.155374 0.919112 0.067916
O O5 0.257103 0.240851 0.891864
O O6 0.129877 0.361983 0.249738
O O7 0.332836 0.417406 0.692020
O O8 0.181189 0.334289 0.827538
O O9 0.887552 0.135350 0.306243
O O10 0.000000 0.000000 0.000000
O O11 0.500000 0.500000 0.500000
O O12 0.339108 0.590681 0.678685
O O13 0.241333 0.737509 0.380952
O O14 0.209654 0.839035 0.213144
O O15 0.009224 0.188871 0.479998
#
# Coordination Sequence:
#
# PCOD9251283 Si02
#       7
#     4   4   4   4   4   4   4
#     4  11  23  39  61  96 131 166 208 252 314 383
#     4  11  22  37  62  94 131 165 208 253 311 382
#     4  11  19  34  58  89 129 164 196 254 314 374
#     4  11  26  48  66  84 122 172 223 270 307 358
#     4  12  23  39  61  96 130 169 210 252 317 381
#     4  12  22  36  63 104 137 162 196 250 331 391
#     4  12  24  36  64 102 141 162 196 256 330 396
#
# _framework density 20.259701
#
# number of rings (size 3 to 8) (size 9 to 14) (size 15 to 20)
#    0.000    0.571    5.714    5.571    0.000    0.000 
#    0.000    8.571    0.000    0.000    0.000    0.000 
#    0.000    0.000    0.000    0.000    0.000    0.000 
#
# Total GULP energy -155873.003707 kJ/mol
# GULP energy per Si atom -5566.892990 kJ/mol
# Density = 2.021359 g / cm^3
# Si number density = 20.259701 Si / 1000 Ang^3
#
#
#
# Elastic Constant Matrix: (Units=GPa)
#
#
# Indices 1 2 3 4 5 6 
#
# 1 132.5531 62.1903 27.2667 0.0000 -4.8820 0.0000
# 2 62.1903 161.6928 15.2477 0.0000 2.4545 0.0000
# 3 27.2667 15.2477 21.2613 0.0000 -6.9938 0.0000
# 4 0.0000 0.0000 0.0000 15.4925 0.0000 11.7494
# 5 -4.8820 2.4545 -6.9938 0.0000 30.3989 0.0000
# 6 0.0000 0.0000 0.0000 11.7494 0.0000 39.0939
#
#
#
# Elastic Compliance Matrix: (Units=1/GPa)
#
#
# Indices 1 2 3 4 5 6 
#
# 1 0.011711 -0.003271 -0.012948 0.000000 -0.000834 0.000000
# 2 -0.003271 0.007635 -0.001792 0.000000 -0.001554 0.000000
# 3 -0.012948 -0.001792 0.069552 0.000000 0.014067 0.000000
# 4 0.000000 0.000000 0.000000 0.083603 0.000000 -0.025126
# 5 -0.000834 -0.001554 0.014067 0.000000 0.036124 0.000000
# 6 0.000000 0.000000 0.000000 -0.025126 0.000000 0.033131
#
#
# Mechanical properties :
#
#
# Convention : Reuss Voigt Hill
#
# Bulk Modulus (GPa) = 18.91211 58.32407 38.61809
# Shear Modulus (GPa) = 16.92598 31.05054 23.98826
#
# Velocity S-wave (km/s) = 2.89355 3.91912 3.44472
# Velocity P-wave (km/s) = 4.52975 7.02354 5.90968
#
# Compressibility (1/GPa) = 0.05287616
#
# Stress axis : x y z
#
# Youngs Moduli (GPa) = 85.38621 130.97280 14.37778
#
# Poissons Ratio (x) = 0.42839 0.18617
# Poissons Ratio (y) = 0.27928 0.02577
# Poissons Ratio (z) = 1.10559 0.23473
#
# Static dielectric constant tensor:
#      x y z
#    x 2.140170 0.000000 0.116500 
#    y 0.000000 1.874150 0.000000 
#    z 0.116500 0.000000 1.789560 
# 
# From -- ./inp_files/19099.got.cif
#   From: 2010.05.17/outbox.cif.g08.bks.cpg/sg14_10_cif.got.tgz:19099.got - 2010.06.03 17:49:19.
