data_PCOD9251359
_publ_section_title
;
Structure prediction by ZEFSAII (Michael W. Deem and Ramdas Pophale) SiO2 
 PCOD9251359
Probable space group: P 21/C
;
_chemical_formula_sum "Si O2"
_cell_formula_units_Z 20
_cell_length_a 8.029033
_cell_length_b 22.191868
_cell_length_c 4.848127
_cell_angle_alpha 90.000000
_cell_angle_beta 91.422171
_cell_angle_gamma 90.000000
_cell_volume 863.569491
_symmetry_space_group_name_H-M "P 21/C"
_symmetry_group_IT_number 14
_symmetry_cell_setting 'monoclinic'
loop_
_space_group_symop_operation_xyz
x,y,z
-x,1/2+y,1/2-z
-x,-y,-z
x,1/2-y,1/2+z
loop_
_atom_site_type_symbol
_atom_site_label
_atom_site_fract_x
_atom_site_fract_y
_atom_site_fract_z
Si Si1 0.532950 0.707871 0.792300
Si Si2 0.734050 0.888956 0.018340
Si Si3 0.262640 0.897392 0.282396
Si Si4 0.583652 0.448860 0.692658
Si Si5 0.070291 0.432109 0.997337
O O1 0.528297 0.766354 0.598530
O O2 0.695876 0.672150 0.686557
O O3 0.375358 0.662290 0.769313
O O4 0.563210 0.899916 0.846777
O O5 0.778730 0.932851 0.275097
O O6 0.868619 0.904519 0.788848
O O7 0.259872 0.926677 0.980878
O O8 0.077441 0.890715 0.386964
O O9 0.359132 0.944723 0.490088
O O10 0.500000 0.500000 0.500000
O O11 0.000000 0.500000 0.000000
#
# Coordination Sequence:
#
# PCOD9251359 Si02
#       5
#     4   4   4   4   4
#     4  11  23  44  66  86 117 166 220 275 309 346
#     4  11  23  39  62  91 123 164 213 252 307 381
#     4  11  23  38  61  91 123 162 210 254 311 379
#     4  11  20  37  60  89 122 165 210 252 301 375
#     4  12  23  40  62  97 138 165 189 251 324 387
#
# _framework density 23.159689
#
# number of rings (size 3 to 8) (size 9 to 14) (size 15 to 20)
#    0.000    0.800    0.000   10.800    0.000    0.000 
#    0.000    6.000    0.000    0.000    0.000    0.000 
#    0.000    0.000    0.000    0.000    0.000    0.000 
#
# Total GULP energy -111576.437482 kJ/mol
# GULP energy per Si atom -5578.821874 kJ/mol
# Density = 2.310698 g / cm^3
# Si number density = 23.159689 Si / 1000 Ang^3
#
#
#
# Elastic Constant Matrix: (Units=GPa)
#
#
# Indices 1 2 3 4 5 6 
#
# 1 75.2064 19.5134 25.6322 0.0000 -14.5625 0.0000
# 2 19.5134 83.4810 23.0185 0.0000 -24.7646 0.0000
# 3 25.6322 23.0185 130.4415 0.0000 -13.5366 0.0000
# 4 0.0000 0.0000 0.0000 47.7448 0.0000 -6.3103
# 5 -14.5625 -24.7646 -13.5366 0.0000 43.9132 0.0000
# 6 0.0000 0.0000 0.0000 -6.3103 0.0000 33.4908
#
#
#
# Elastic Compliance Matrix: (Units=1/GPa)
#
#
# Indices 1 2 3 4 5 6 
#
# 1 0.015218 -0.001963 -0.002309 0.000000 0.003228 0.000000
# 2 -0.001963 0.015037 -0.001503 0.000000 0.007366 0.000000
# 3 -0.002309 -0.001503 0.008489 0.000000 0.001003 0.000000
# 4 0.000000 0.000000 0.000000 0.021480 0.000000 0.004047
# 5 0.003228 0.007366 0.001003 0.000000 0.028306 0.000000
# 6 0.000000 0.000000 0.000000 0.004047 0.000000 0.030621
#
#
# Mechanical properties :
#
#
# Convention : Reuss Voigt Hill
#
# Bulk Modulus (GPa) = 36.77306 47.27303 42.02305
# Shear Modulus (GPa) = 35.77382 39.76075 37.76729
#
# Velocity S-wave (km/s) = 3.93448 4.14793 4.04262
# Velocity P-wave (km/s) = 6.04588 6.58761 6.32255
#
# Compressibility (1/GPa) = 0.02719382
#
# Stress axis : x y z
#
# Youngs Moduli (GPa) = 65.71142 66.50170 117.79348
#
# Poissons Ratio (x) = 0.13054 0.27199
# Poissons Ratio (y) = 0.12899 0.17710
# Poissons Ratio (z) = 0.15173 0.09998
#
# Static dielectric constant tensor:
#      x y z
#    x 1.918530 0.000000 -0.017480 
#    y 0.000000 1.939400 0.000000 
#    z -0.017480 0.000000 1.854940 
# 
# From -- ./inp_files/1300.got.cif
#   From: 2010.05.17/outbox.cif.g08.bks.cpg/sg14_1_cif.got.tgz:1300.got - 2010.06.03 17:49:19.
