data_PCOD9251822
_publ_section_title
;
Structure prediction by ZEFSAII (Michael W. Deem and Ramdas Pophale) SiO2 
 PCOD9251822
Probable space group: P 21/C
;
_chemical_formula_sum "Si O2"
_cell_formula_units_Z 32
_cell_length_a 12.467352
_cell_length_b 20.453213
_cell_length_c 11.670421
_cell_angle_alpha 90.000000
_cell_angle_beta 33.362726
_cell_angle_gamma 90.000000
_cell_volume 1636.573929
_symmetry_space_group_name_H-M "P 21/C"
_symmetry_group_IT_number 14
_symmetry_cell_setting 'monoclinic'
loop_
_space_group_symop_operation_xyz
x,y,z
-x,1/2+y,1/2-z
-x,-y,-z
x,1/2-y,1/2+z
loop_
_atom_site_type_symbol
_atom_site_label
_atom_site_fract_x
_atom_site_fract_y
_atom_site_fract_z
Si Si1 0.894777 0.221200 0.342147
Si Si2 0.705941 0.463967 0.826869
Si Si3 0.562410 0.124107 0.656922
Si Si4 0.178788 0.318727 0.388305
Si Si5 0.121463 0.863877 0.240194
Si Si6 0.484264 0.575833 0.551101
Si Si7 0.992673 0.422454 0.386770
Si Si8 0.824026 0.819908 0.700898
O O1 0.693276 0.188031 0.559331
O O2 0.853035 0.296758 0.353543
O O3 0.050360 0.204068 0.302175
O O4 0.996222 0.194353 0.135353
O O5 0.870947 0.515189 0.715781
O O6 0.788705 0.432784 0.636088
O O7 0.500000 0.500000 0.000000
O O8 0.672250 0.412187 0.956330
O O9 0.346751 0.142788 0.806588
O O10 0.559948 0.081589 0.774064
O O11 0.103267 0.361960 0.349432
O O12 0.260181 0.248225 0.274985
O O13 0.313747 0.891288 0.128318
O O14 0.041327 0.913056 0.216533
O O15 0.967593 0.848757 0.476989
O O16 0.500000 0.500000 0.500000
O O17 0.671047 0.623328 0.366778
#
# Coordination Sequence:
#
# PCOD9251822 Si02
#       8
#     4   4   4   4   4   4   4   4
#     4  11  22  44  70  97 132 171 225 278 335 399
#     4  11  25  41  65 100 135 174 223 274 335 398
#     4  12  24  43  69  96 133 178 221 276 340 394
#     4  11  22  43  70  98 129 172 226 283 336 396
#     4  11  26  45  69 100 136 176 224 280 337 402
#     4  12  29  45  67 102 142 186 227 272 338 425
#     4  11  24  42  67  99 133 176 225 276 334 404
#     4  11  24  46  68 100 134 178 227 278 344 397
#
# _framework density 19.553044
#
# number of rings (size 3 to 8) (size 9 to 14) (size 15 to 20)
#    0.000    0.750    6.250    0.750    3.500    1.500 
#    2.250    0.000    0.000    0.000    0.000    0.000 
#    0.000    0.000    0.000    0.000    0.000    0.000 
#
# Total GULP energy -178747.494654 kJ/mol
# GULP energy per Si atom -5585.859208 kJ/mol
# Density = 1.950854 g / cm^3
# Si number density = 19.553044 Si / 1000 Ang^3
#
#
#
# Elastic Constant Matrix: (Units=GPa)
#
#
# Indices 1 2 3 4 5 6 
#
# 1 93.7308 4.7016 1.7532 0.0000 -11.3071 0.0000
# 2 4.7016 60.3015 12.9039 0.0000 -9.4548 0.0000
# 3 1.7532 12.9039 46.5948 0.0000 -7.2819 0.0000
# 4 0.0000 0.0000 0.0000 28.7440 0.0000 -3.3589
# 5 -11.3071 -9.4548 -7.2819 0.0000 29.3702 0.0000
# 6 0.0000 0.0000 0.0000 -3.3589 0.0000 28.0213
#
#
#
# Elastic Compliance Matrix: (Units=1/GPa)
#
#
# Indices 1 2 3 4 5 6 
#
# 1 0.011195 -0.000268 0.000326 0.000000 0.004305 0.000000
# 2 -0.000268 0.018265 -0.004313 0.000000 0.004708 0.000000
# 3 0.000326 -0.004313 0.023351 0.000000 0.004527 0.000000
# 4 0.000000 0.000000 0.000000 0.035284 0.000000 0.004229
# 5 0.004305 0.004708 0.004527 0.000000 0.038343 0.000000
# 6 0.000000 0.000000 0.000000 0.004229 0.000000 0.036194
#
#
# Mechanical properties :
#
#
# Convention : Reuss Voigt Hill
#
# Bulk Modulus (GPa) = 22.57201 26.59381 24.58291
# Shear Modulus (GPa) = 26.89477 29.31166 28.10322
#
# Velocity S-wave (km/s) = 3.71277 3.87600 3.79526
# Velocity P-wave (km/s) = 5.47253 5.80186 5.63960
#
# Compressibility (1/GPa) = 0.04430265
#
# Stress axis : x y z
#
# Youngs Moduli (GPa) = 89.32181 54.74906 42.82455
#
# Poissons Ratio (x) = 0.01465 -0.01394
# Poissons Ratio (y) = 0.02390 0.18468
# Poissons Ratio (z) = -0.02908 0.23611
#
# Static dielectric constant tensor:
#      x y z
#    x 1.679440 0.000000 -0.000150 
#    y 0.000000 1.733440 0.000000 
#    z -0.000150 0.000000 1.662100 
# 
# From -- ./inp_files/30726.got.cif
#   From: 2010.05.17/outbox.cif.g08.bks.cpg/sg14_16_cif.got.tgz:30726.got - 2010.06.03 17:49:19.
