data_PCOD9251375
_publ_section_title
;
Structure prediction by ZEFSAII (Michael W. Deem and Ramdas Pophale) SiO2 
 PCOD9251375
Probable space group: P 21/C
;
_chemical_formula_sum "Si O2"
_cell_formula_units_Z 28
_cell_length_a 8.901013
_cell_length_b 8.625053
_cell_length_c 26.478112
_cell_angle_alpha 90.000000
_cell_angle_beta 39.442117
_cell_angle_gamma 90.000000
_cell_volume 1291.415394
_symmetry_space_group_name_H-M "P 21/C"
_symmetry_group_IT_number 14
_symmetry_cell_setting 'monoclinic'
loop_
_space_group_symop_operation_xyz
x,y,z
-x,1/2+y,1/2-z
-x,-y,-z
x,1/2-y,1/2+z
loop_
_atom_site_type_symbol
_atom_site_label
_atom_site_fract_x
_atom_site_fract_y
_atom_site_fract_z
Si Si1 0.580974 0.071066 0.315636
Si Si2 0.901918 0.950601 0.615866
Si Si3 0.408552 0.440574 0.968802
Si Si4 0.895393 0.673961 0.691252
Si Si5 0.448191 0.598467 0.562938
Si Si6 0.240000 0.122480 0.183703
Si Si7 0.904803 0.154845 0.715754
O O1 0.321580 0.037204 0.362009
O O2 0.570527 0.026256 0.377767
O O3 0.666842 0.249374 0.290118
O O4 0.763504 0.988571 0.229516
O O5 0.888720 0.779295 0.643686
O O6 0.894633 0.075404 0.663905
O O7 0.155713 0.981311 0.525648
O O8 0.397894 0.253137 0.973497
O O9 0.500000 0.500000 0.000000
O O10 0.743466 0.766692 0.772859
O O11 0.173440 0.656340 0.631877
O O12 0.500000 0.500000 0.500000
O O13 0.459591 0.471376 0.604647
O O14 0.114669 0.224077 0.172910
O O15 0.076366 0.986423 0.249507
#
# Coordination Sequence:
#
# PCOD9251375 Si02
#       7
#     4   4   4   4   4   4   4
#     4  12  24  45  68  98 139 180 224 272 341 413
#     4  11  26  44  68  98 139 181 220 275 347 409
#     4  12  26  44  67  99 132 178 226 280 335 395
#     4  11  24  41  69 100 132 174 222 275 334 395
#     4  12  24  39  64 100 132 168 216 286 333 380
#     4  11  20  38  64 102 129 169 225 281 326 385
#     4  11  21  38  68  97 134 171 231 279 329 399
#
# _framework density 21.681636999999998
#
# number of rings (size 3 to 8) (size 9 to 14) (size 15 to 20)
#    0.000    0.571    5.714    2.143    6.000    0.000 
#    0.000    0.000    0.000    1.714    0.000    0.000 
#    0.000    0.000    0.000    0.000    0.000    0.000 
#
# Total GULP energy -156267.571477 kJ/mol
# GULP energy per Si atom -5580.984696 kJ/mol
# Density = 2.163229 g / cm^3
# Si number density = 21.681637 Si / 1000 Ang^3
#
#
#
# Elastic Constant Matrix: (Units=GPa)
#
#
# Indices 1 2 3 4 5 6 
#
# 1 55.1709 10.2616 2.7568 0.0000 -3.2793 0.0000
# 2 10.2616 86.0426 7.8311 0.0000 9.6915 0.0000
# 3 2.7568 7.8311 69.7677 0.0000 13.0712 0.0000
# 4 0.0000 0.0000 0.0000 38.7932 0.0000 2.5865
# 5 -3.2793 9.6915 13.0712 0.0000 30.4514 0.0000
# 6 0.0000 0.0000 0.0000 2.5865 0.0000 20.6671
#
#
#
# Elastic Compliance Matrix: (Units=1/GPa)
#
#
# Indices 1 2 3 4 5 6 
#
# 1 0.018844 -0.002520 -0.001079 0.000000 0.003295 0.000000
# 2 -0.002520 0.012422 -0.000547 0.000000 -0.003990 0.000000
# 3 -0.001079 -0.000547 0.015688 0.000000 -0.006676 0.000000
# 4 0.000000 0.000000 0.000000 0.025995 0.000000 -0.003253
# 5 0.003295 -0.003990 -0.006676 0.000000 0.037330 0.000000
# 6 0.000000 0.000000 0.000000 -0.003253 0.000000 0.048793
#
#
# Mechanical properties :
#
#
# Convention : Reuss Voigt Hill
#
# Bulk Modulus (GPa) = 25.86568 28.07557 26.97063
# Shear Modulus (GPa) = 27.73904 30.65778 29.19841
#
# Velocity S-wave (km/s) = 3.58072 3.76440 3.67371
# Velocity P-wave (km/s) = 5.38991 5.64547 5.51917
#
# Compressibility (1/GPa) = 0.03866127
#
# Stress axis : x y z
#
# Youngs Moduli (GPa) = 53.06732 80.50281 63.74248
#
# Poissons Ratio (x) = 0.20289 0.06877
# Poissons Ratio (y) = 0.13374 0.03488
# Poissons Ratio (z) = 0.05726 0.04405
#
# Static dielectric constant tensor:
#      x y z
#    x 1.802110 0.000000 0.021260 
#    y 0.000000 1.897670 0.000000 
#    z 0.021260 0.000000 1.819450 
# 
# From -- ./inp_files/54796.got.cif
#   From: 2010.05.17/outbox.cif.g08.bks.cpg/sg14_28_cif.got.tgz:54796.got - 2010.06.03 17:49:19.
