data_PCOD9251037
_publ_section_title
;
Structure prediction by ZEFSAII (Michael W. Deem and Ramdas Pophale) SiO2 
 PCOD9251037
Probable space group: P 21/C
;
_chemical_formula_sum "Si O2"
_cell_formula_units_Z 16
_cell_length_a 5.150027
_cell_length_b 13.532119
_cell_length_c 11.668731
_cell_angle_alpha 90.000000
_cell_angle_beta 64.891375
_cell_angle_gamma 90.000000
_cell_volume 736.359277
_symmetry_space_group_name_H-M "P 21/C"
_symmetry_group_IT_number 14
_symmetry_cell_setting 'monoclinic'
loop_
_space_group_symop_operation_xyz
x,y,z
-x,1/2+y,1/2-z
-x,-y,-z
x,1/2-y,1/2+z
loop_
_atom_site_type_symbol
_atom_site_label
_atom_site_fract_x
_atom_site_fract_y
_atom_site_fract_z
Si Si1 0.328639 0.529438 0.421289
Si Si2 0.185260 0.905218 0.611095
Si Si3 0.564847 0.911363 0.320621
Si Si4 0.437315 0.309841 0.760412
O O1 0.500000 0.500000 0.500000
O O2 0.470466 0.471356 0.289391
O O3 0.370188 0.642697 0.377115
O O4 0.000000 0.500000 0.500000
O O5 0.307018 0.906013 0.459665
O O6 0.388246 0.836540 0.655536
O O7 0.867892 0.863619 0.675427
O O8 0.207975 0.017655 0.655359
O O9 0.628214 0.801915 0.263964
#
# Coordination Sequence:
#
# PCOD9251037 Si02
#       4
#     4   4   4   4
#     4  11  25  43  65 102 136 171 222 278 329 399
#     4  10  25  46  66 105 131 183 235 276 341 404
#     4  10  25  45  73  95 145 177 227 289 331 411
#     4  11  25  42  72 100 134 186 225 276 350 396
#
# _framework density 21.728522999999999
#
# number of rings (size 3 to 8) (size 9 to 14) (size 15 to 20)
#    0.000    1.500    0.000    3.000    7.000   17.000 
#    0.000    0.000    0.000    0.000    0.000    0.000 
#    0.000    0.000    0.000    0.000    0.000    0.000 
#
# Total GULP energy -89372.462412 kJ/mol
# GULP energy per Si atom -5585.778901 kJ/mol
# Density = 2.167907 g / cm^3
# Si number density = 21.728523 Si / 1000 Ang^3
#
#
#
# Elastic Constant Matrix: (Units=GPa)
#
#
# Indices 1 2 3 4 5 6 
#
# 1 162.3253 38.6324 71.9755 0.0000 -13.7254 0.0000
# 2 38.6324 148.4550 42.9627 0.0000 -11.8582 0.0000
# 3 71.9755 42.9627 139.4919 0.0000 18.3972 0.0000
# 4 0.0000 0.0000 0.0000 27.6680 0.0000 -2.4151
# 5 -13.7254 -11.8582 18.3972 0.0000 34.7428 0.0000
# 6 0.0000 0.0000 0.0000 -2.4151 0.0000 4.2219
#
#
#
# Elastic Compliance Matrix: (Units=1/GPa)
#
#
# Indices 1 2 3 4 5 6 
#
# 1 0.009226 -0.000284 -0.005527 0.000000 0.006475 0.000000
# 2 -0.000284 0.007963 -0.002848 0.000000 0.004114 0.000000
# 3 -0.005527 -0.002848 0.012164 0.000000 -0.009597 0.000000
# 4 0.000000 0.000000 0.000000 0.038042 0.000000 0.021762
# 5 0.006475 0.004114 -0.009597 0.000000 0.037827 0.000000
# 6 0.000000 0.000000 0.000000 0.021762 0.000000 0.249309
#
#
# Mechanical properties :
#
#
# Convention : Reuss Voigt Hill
#
# Bulk Modulus (GPa) = 83.10092 84.15704 83.62898
# Shear Modulus (GPa) = 13.30279 33.10664 23.20471
#
# Velocity S-wave (km/s) = 2.47701 3.90763 3.27148
# Velocity P-wave (km/s) = 6.81974 7.69251 7.26923
#
# Compressibility (1/GPa) = 0.01203356
#
# Stress axis : x y z
#
# Youngs Moduli (GPa) = 108.38654 125.58144 82.21225
#
# Poissons Ratio (x) = 0.03570 0.45438
# Poissons Ratio (y) = 0.03081 0.23417
# Poissons Ratio (z) = 0.59904 0.35771
#
# Static dielectric constant tensor:
#      x y z
#    x 1.789880 0.000000 0.028400 
#    y 0.000000 1.930380 0.000000 
#    z 0.028400 0.000000 1.770610 
# 
# From -- ./inp_files/20354.got.cif
#   From: 2010.05.17/outbox.cif.g08.bks.cpg/sg14_11_cif.got.tgz:20354.got - 2010.06.03 17:49:19.
