data_PCOD9251643
_publ_section_title
;
Structure prediction by ZEFSAII (Michael W. Deem and Ramdas Pophale) SiO2 
 PCOD9251643
Probable space group: P 21/C
;
_chemical_formula_sum "Si O2"
_cell_formula_units_Z 32
_cell_length_a 5.282744
_cell_length_b 12.710501
_cell_length_c 19.867630
_cell_angle_alpha 90.000000
_cell_angle_beta 88.035231
_cell_angle_gamma 90.000000
_cell_volume 1333.254015
_symmetry_space_group_name_H-M "P 21/C"
_symmetry_group_IT_number 14
_symmetry_cell_setting 'monoclinic'
loop_
_space_group_symop_operation_xyz
x,y,z
-x,1/2+y,1/2-z
-x,-y,-z
x,1/2-y,1/2+z
loop_
_atom_site_type_symbol
_atom_site_label
_atom_site_fract_x
_atom_site_fract_y
_atom_site_fract_z
Si Si1 0.103282 0.391687 0.736546
Si Si2 0.431187 0.436914 0.418039
Si Si3 0.070259 0.441139 0.581974
Si Si4 0.091897 0.144896 0.695306
Si Si5 0.985966 0.197392 0.545297
Si Si6 0.402698 0.862953 0.688588
Si Si7 0.508273 0.805792 0.538444
Si Si8 0.420369 0.617297 0.732283
O O1 0.061475 0.437998 0.663150
O O2 0.099450 0.266515 0.718801
O O3 0.374578 0.411244 0.768207
O O4 0.872154 0.405985 0.790035
O O5 0.648637 0.518778 0.438155
O O6 0.483437 0.319652 0.444410
O O7 0.468668 0.433087 0.336627
O O8 0.148487 0.476677 0.435349
O O9 0.009434 0.323892 0.557341
O O10 0.018767 0.143983 0.617740
O O11 0.374356 0.107898 0.710180
O O12 0.865431 0.094202 0.740838
O O13 0.222070 0.166527 0.496245
O O14 0.720514 0.175750 0.511379
O O15 0.460779 0.865191 0.609059
O O16 0.403725 0.740375 0.710494
#
# Coordination Sequence:
#
# PCOD9251643 Si02
#       8
#     4   4   4   4   4   4   4   4
#     4   9  17  31  50  69  91 122 162 211 257 283
#     4  11  22  34  49  72 104 139 171 200 234 289
#     4  11  22  34  49  72 104 139 171 200 234 289
#     4   9  17  31  50  69  91 122 162 211 257 283
#     4  11  22  34  49  72 104 139 171 200 234 289
#     4   9  17  31  50  69  91 122 162 211 257 283
#     4  11  22  34  49  72 104 139 171 200 234 289
#     4   9  17  31  50  69  91 122 162 211 257 283
#
# _framework density 24.001427
#
# number of rings (size 3 to 8) (size 9 to 14) (size 15 to 20)
#    0.000    2.000    0.000    4.500    0.000   11.000 
#    0.000    0.000    0.000    0.000    0.000    0.000 
#    0.000   70.000    0.000    0.000    0.000    0.000 
#
# Total GULP energy -179243.560061 kJ/mol
# GULP energy per Si atom -5601.361252 kJ/mol
# Density = 2.394680 g / cm^3
# Si number density = 24.001427 Si / 1000 Ang^3
#
#
#
# Elastic Constant Matrix: (Units=GPa)
#
#
# Indices 1 2 3 4 5 6 
#
# 1 163.4277 9.2582 48.2103 0.0000 1.8358 0.0000
# 2 9.2582 23.2092 -0.9608 0.0000 0.8202 0.0000
# 3 48.2103 -0.9608 133.6332 0.0000 7.5788 0.0000
# 4 0.0000 0.0000 0.0000 33.9880 0.0000 -2.3756
# 5 1.8358 0.8202 7.5788 0.0000 49.8942 0.0000
# 6 0.0000 0.0000 0.0000 -2.3756 0.0000 40.7600
#
#
#
# Elastic Compliance Matrix: (Units=1/GPa)
#
#
# Indices 1 2 3 4 5 6 
#
# 1 0.007041 -0.002921 -0.002571 0.000000 0.000180 0.000000
# 2 -0.002921 0.044340 0.001420 0.000000 -0.000837 0.000000
# 3 -0.002571 0.001420 0.008490 0.000000 -0.001218 0.000000
# 4 0.000000 0.000000 0.000000 0.029542 0.000000 0.001722
# 5 0.000180 -0.000837 -0.001218 0.000000 0.020235 0.000000
# 6 0.000000 0.000000 0.000000 0.001722 0.000000 0.024634
#
#
# Mechanical properties :
#
#
# Convention : Reuss Voigt Hill
#
# Bulk Modulus (GPa) = 19.33261 48.14283 33.73772
# Shear Modulus (GPa) = 31.31470 42.51262 36.91366
#
# Velocity S-wave (km/s) = 3.61598 4.21319 3.92596
# Velocity P-wave (km/s) = 5.05035 6.61588 5.88540
#
# Compressibility (1/GPa) = 0.05172608
#
# Stress axis : x y z
#
# Youngs Moduli (GPa) = 142.02693 22.55297 117.78394
#
# Poissons Ratio (x) = 0.06589 0.30286
# Poissons Ratio (y) = 0.41492 -0.16728
# Poissons Ratio (z) = 0.36520 -0.03203
#
# Static dielectric constant tensor:
#      x y z
#    x 1.835670 0.000000 -0.006280 
#    y 0.000000 2.002920 0.000000 
#    z -0.006280 0.000000 1.888860 
# 
# From -- ./inp_files/53325.got.cif
#   From: 2010.05.17/outbox.cif.g08.bks.cpg/sg14_27_cif.got.tgz:53325.got - 2010.06.03 17:49:19.
