data_PCOD9251484
_publ_section_title
;
Structure prediction by ZEFSAII (Michael W. Deem and Ramdas Pophale) SiO2 
 PCOD9251484
Probable space group: P 21/C
;
_chemical_formula_sum "Si O2"
_cell_formula_units_Z 20
_cell_length_a 5.970268
_cell_length_b 19.587288
_cell_length_c 8.099399
_cell_angle_alpha 90.000000
_cell_angle_beta 75.595227
_cell_angle_gamma 90.000000
_cell_volume 917.378491
_symmetry_space_group_name_H-M "P 21/C"
_symmetry_group_IT_number 14
_symmetry_cell_setting 'monoclinic'
loop_
_space_group_symop_operation_xyz
x,y,z
-x,1/2+y,1/2-z
-x,-y,-z
x,1/2-y,1/2+z
loop_
_atom_site_type_symbol
_atom_site_label
_atom_site_fract_x
_atom_site_fract_y
_atom_site_fract_z
Si Si1 0.748921 0.035700 0.502960
Si Si2 0.215558 0.632687 0.316140
Si Si3 0.593167 0.753366 0.693482
Si Si4 0.089168 0.236333 0.612766
Si Si5 0.720094 0.369220 0.322456
O O1 0.806276 0.080409 0.329266
O O2 0.690321 0.076451 0.682707
O O3 0.500000 0.000000 0.500000
O O4 0.000000 0.000000 0.500000
O O5 0.430623 0.681924 0.232095
O O6 0.243442 0.603810 0.497858
O O7 0.011646 0.688006 0.365939
O O8 0.649879 0.728974 0.869087
O O9 0.851885 0.774131 0.590464
O O10 0.487322 0.685492 0.634201
O O11 0.929797 0.178951 0.719578
#
# Coordination Sequence:
#
# PCOD9251484 Si02
#       5
#     4   4   4   4   4
#     4  12  32  52  74 102 150 206 254 306 352 434
#     4  11  25  44  71 109 142 190 249 297 373 441
#     4  11  21  38  70 110 148 177 225 310 378 440
#     4  11  21  38  70 110 148 177 225 310 378 440
#     4  11  25  44  71 109 142 190 249 297 373 441
#
# _framework density 21.801255000000001
#
# number of rings (size 3 to 8) (size 9 to 14) (size 15 to 20)
#    0.000    0.800    4.000    2.400   14.000    1.600 
#    0.000    0.000    0.000    0.000    0.000    0.000 
#    0.000    0.000    0.000    0.000    0.000    0.000 
#
# Total GULP energy -111343.717630 kJ/mol
# GULP energy per Si atom -5567.185881 kJ/mol
# Density = 2.175163 g / cm^3
# Si number density = 21.801255 Si / 1000 Ang^3
#
#
#
# Elastic Constant Matrix: (Units=GPa)
#
#
# Indices 1 2 3 4 5 6 
#
# 1 113.0245 49.5339 52.4313 0.0000 11.2217 0.0000
# 2 49.5339 67.6637 74.8479 0.0000 18.4877 0.0000
# 3 52.4313 74.8479 168.1402 0.0000 13.8813 0.0000
# 4 0.0000 0.0000 0.0000 32.0834 0.0000 64.5371
# 5 11.2217 18.4877 13.8813 0.0000 45.8555 0.0000
# 6 0.0000 0.0000 0.0000 64.5371 0.0000 -79.5120
#
#
#
# Elastic Compliance Matrix: (Units=1/GPa)
#
#
# Indices 1 2 3 4 5 6 
#
# 1 0.013065 -0.010254 0.000424 0.000000 0.000809 0.000000
# 2 -0.010254 0.040351 -0.013978 0.000000 -0.009528 0.000000
# 3 0.000424 -0.013978 0.011878 0.000000 0.001936 0.000000
# 4 0.000000 0.000000 0.000000 0.011839 0.000000 0.009609
# 5 0.000809 -0.009528 0.001936 0.000000 0.024865 0.000000
# 6 0.000000 0.000000 0.000000 0.009609 0.000000 -0.004777
#
#
# Mechanical properties :
#
#
# Convention : Reuss Voigt Hill
#
# Bulk Modulus (GPa) = 56.57098 78.05051 67.31075
# Shear Modulus (GPa) = 33.17207 11.15306 22.16256
#
# Velocity S-wave (km/s) = 3.90496 2.26426 3.19183
# Velocity P-wave (km/s) = 6.80709 6.53563 6.67274
#
# Compressibility (1/GPa) = 0.01767691
#
# Stress axis : x y z
#
# Youngs Moduli (GPa) = 76.54298 24.78251 84.19007
#
# Poissons Ratio (x) = 0.25411 -0.03568
# Poissons Ratio (y) = 0.78485 1.17684
# Poissons Ratio (z) = -0.03244 0.34642
#
# Static dielectric constant tensor:
#      x y z
#    x 1.867280 0.000000 0.040680 
#    y 0.000000 1.771230 0.000000 
#    z 0.040680 0.000000 1.961910 
# 
# From -- ./inp_files/5432.got.cif
#   From: 2010.05.17/outbox.cif.g08.bks.cpg/sg14_3_cif.got.tgz:5432.got - 2010.06.03 17:49:19.
