data_PCOD9251133
_publ_section_title
;
Structure prediction by ZEFSAII (Michael W. Deem and Ramdas Pophale) SiO2 
 PCOD9251133
Probable space group: P 21/C
;
_chemical_formula_sum "Si O2"
_cell_formula_units_Z 16
_cell_length_a 6.945988
_cell_length_b 7.415039
_cell_length_c 13.704021
_cell_angle_alpha 90.000000
_cell_angle_beta 50.538291
_cell_angle_gamma 90.000000
_cell_volume 544.929893
_symmetry_space_group_name_H-M "P 21/C"
_symmetry_group_IT_number 14
_symmetry_cell_setting 'monoclinic'
loop_
_space_group_symop_operation_xyz
x,y,z
-x,1/2+y,1/2-z
-x,-y,-z
x,1/2-y,1/2+z
loop_
_atom_site_type_symbol
_atom_site_label
_atom_site_fract_x
_atom_site_fract_y
_atom_site_fract_z
Si Si1 0.252991 0.072067 0.786414
Si Si2 0.105520 0.718227 0.218518
Si Si3 0.474552 0.002666 0.892890
Si Si4 0.246883 0.899664 0.461833
O O1 0.517310 0.000635 0.662546
O O2 0.153086 0.226167 0.747912
O O3 0.062076 0.914296 0.822053
O O4 0.285937 0.121493 0.887012
O O5 0.265268 0.885228 0.209193
O O6 0.231781 0.614384 0.085054
O O7 0.342057 0.808206 0.908820
O O8 0.500000 0.000000 0.000000
O O9 0.000000 0.000000 0.500000
#
# Coordination Sequence:
#
# PCOD9251133 Si02
#       4
#     4   4   4   4
#     4  12  26  48  82 112 161 205 266 323 407 464
#     4  11  27  48  78 117 156 211 263 331 393 477
#     4  10  25  50  77 111 154 207 261 318 395 468
#     4  11  27  47  78 117 157 202 268 326 395 476
#
# _framework density 29.361574999999998
#
# number of rings (size 3 to 8) (size 9 to 14) (size 15 to 20)
#    0.000    1.000    0.000    3.750   14.000    4.000 
#    4.500    0.000    0.000    0.000    0.000    0.000 
#    0.000    0.000    0.000    0.000    0.000    0.000 
#
# Total GULP energy -89222.759069 kJ/mol
# GULP energy per Si atom -5576.422442 kJ/mol
# Density = 2.929475 g / cm^3
# Si number density = 29.361575 Si / 1000 Ang^3
#
#
#
# Elastic Constant Matrix: (Units=GPa)
#
#
# Indices 1 2 3 4 5 6 
#
# 1 269.2525 68.2922 72.4501 0.0000 34.6510 0.0000
# 2 68.2922 159.3233 19.5006 0.0000 15.0118 0.0000
# 3 72.4501 19.5006 123.6159 0.0000 2.9812 0.0000
# 4 0.0000 0.0000 0.0000 32.1868 0.0000 -9.7294
# 5 34.6510 15.0118 2.9812 0.0000 56.1537 0.0000
# 6 0.0000 0.0000 0.0000 -9.7294 0.0000 56.4800
#
#
#
# Elastic Compliance Matrix: (Units=1/GPa)
#
#
# Indices 1 2 3 4 5 6 
#
# 1 0.005204 -0.001649 -0.002726 0.000000 -0.002625 0.000000
# 2 -0.001649 0.007081 -0.000129 0.000000 -0.000868 0.000000
# 3 -0.002726 -0.000129 0.009679 0.000000 0.001203 0.000000
# 4 0.000000 0.000000 0.000000 0.032775 0.000000 0.005646
# 5 -0.002625 -0.000868 0.001203 0.000000 0.019597 0.000000
# 6 0.000000 0.000000 0.000000 0.005646 0.000000 0.018678
#
#
# Mechanical properties :
#
#
# Convention : Reuss Voigt Hill
#
# Bulk Modulus (GPa) = 77.19972 96.96419 87.08196
# Shear Modulus (GPa) = 47.01804 55.09402 51.05603
#
# Velocity S-wave (km/s) = 4.00602 4.33644 4.17450
# Velocity P-wave (km/s) = 6.90996 7.62685 7.27724
#
# Compressibility (1/GPa) = 0.01295341
#
# Stress axis : x y z
#
# Youngs Moduli (GPa) = 192.16540 141.21827 103.31769
#
# Poissons Ratio (x) = 0.23294 0.28169
# Poissons Ratio (y) = 0.31698 0.01337
# Poissons Ratio (z) = 0.52392 0.01827
#
# Static dielectric constant tensor:
#      x y z
#    x 2.242100 0.000000 -0.035420 
#    y 0.000000 2.519140 0.000000 
#    z -0.035420 0.000000 2.289360 
# 
# From -- ./inp_files/36687.got.cif
#   From: 2010.05.17/outbox.cif.g08.bks.cpg/sg14_19_cif.got.tgz:36687.got - 2010.06.03 17:49:19.
