data_PCOD9251608
_publ_section_title
;
Structure prediction by ZEFSAII (Michael W. Deem and Ramdas Pophale) SiO2 
 PCOD9251608
Probable space group: P 21/C
;
_chemical_formula_sum "Si O2"
_cell_formula_units_Z 24
_cell_length_a 22.361785
_cell_length_b 8.397376
_cell_length_c 17.878630
_cell_angle_alpha 90.000000
_cell_angle_beta 160.153238
_cell_angle_gamma 90.000000
_cell_volume 1139.807169
_symmetry_space_group_name_H-M "P 21/C"
_symmetry_group_IT_number 14
_symmetry_cell_setting 'monoclinic'
loop_
_space_group_symop_operation_xyz
x,y,z
-x,1/2+y,1/2-z
-x,-y,-z
x,1/2-y,1/2+z
loop_
_atom_site_type_symbol
_atom_site_label
_atom_site_fract_x
_atom_site_fract_y
_atom_site_fract_z
Si Si1 0.785795 0.484381 0.931068
Si Si2 0.145456 0.381709 0.137374
Si Si3 0.032703 0.932436 0.122070
Si Si4 0.420011 0.392299 0.575614
Si Si5 0.960405 0.169391 0.172399
Si Si6 0.678142 0.221895 0.971102
O O1 0.752072 0.522350 0.805427
O O2 0.603721 0.423705 0.750016
O O3 0.937636 0.348300 0.114775
O O4 0.865268 0.625645 0.075553
O O5 0.273048 0.314561 0.350896
O O6 0.000000 0.500000 0.000000
O O7 0.062479 0.237197 0.994462
O O8 0.226838 0.871672 0.376244
O O9 0.959392 0.048997 0.100561
O O10 0.000000 0.000000 0.000000
O O11 0.342815 0.564252 0.505097
O O12 0.484989 0.281056 0.719025
O O13 0.800269 0.166267 0.044430
#
# Coordination Sequence:
#
# PCOD9251608 Si02
#       6
#     4   4   4   4   4   4
#     4  11  22  41  68  98 136 178 229 284 341 411
#     4  12  23  43  67  99 135 182 226 283 347 407
#     4  12  25  43  70 100 133 182 236 280 337 415
#     4  11  25  42  66  99 138 171 229 287 348 406
#     4  11  21  44  69  97 132 182 231 276 345 413
#     4  11  25  46  66 102 135 185 227 281 350 404
#
# _framework density 21.056193
#
# number of rings (size 3 to 8) (size 9 to 14) (size 15 to 20)
#    0.000    0.667    6.667    1.500    2.333    4.000 
#    0.000    3.333    0.000    0.000    0.000    0.000 
#    0.000    0.000    0.000    0.000    0.000    0.000 
#
# Total GULP energy -133906.720533 kJ/mol
# GULP energy per Si atom -5579.446689 kJ/mol
# Density = 2.100827 g / cm^3
# Si number density = 21.056193 Si / 1000 Ang^3
#
#
#
# Elastic Constant Matrix: (Units=GPa)
#
#
# Indices 1 2 3 4 5 6 
#
# 1 84.3433 13.0890 7.4965 0.0000 -13.8577 0.0000
# 2 13.0890 42.3593 2.6297 0.0000 -7.0068 0.0000
# 3 7.4965 2.6297 113.2503 0.0000 -23.4189 0.0000
# 4 0.0000 0.0000 0.0000 39.0930 0.0000 -13.4281
# 5 -13.8577 -7.0068 -23.4189 0.0000 30.7466 0.0000
# 6 0.0000 0.0000 0.0000 -13.4281 0.0000 34.2442
#
#
#
# Elastic Compliance Matrix: (Units=1/GPa)
#
#
# Indices 1 2 3 4 5 6 
#
# 1 0.013224 -0.003200 0.000333 0.000000 0.005485 0.000000
# 2 -0.003200 0.025353 0.000617 0.000000 0.004805 0.000000
# 3 0.000333 0.000617 0.010509 0.000000 0.008295 0.000000
# 4 0.000000 0.000000 0.000000 0.029562 0.000000 0.011592
# 5 0.005485 0.004805 0.008295 0.000000 0.042409 0.000000
# 6 0.000000 0.000000 0.000000 0.011592 0.000000 0.033748
#
#
# Mechanical properties :
#
#
# Convention : Reuss Voigt Hill
#
# Bulk Modulus (GPa) = 22.42829 31.82037 27.12433
# Shear Modulus (GPa) = 28.70813 35.26594 31.98704
#
# Velocity S-wave (km/s) = 3.69644 4.09693 3.90183
# Velocity P-wave (km/s) = 5.37522 6.12574 5.76271
#
# Compressibility (1/GPa) = 0.04458655
#
# Stress axis : x y z
#
# Youngs Moduli (GPa) = 75.61758 39.44333 95.15689
#
# Poissons Ratio (x) = 0.12621 -0.03170
# Poissons Ratio (y) = 0.24196 -0.05869
# Poissons Ratio (z) = -0.02519 -0.02433
#
# Static dielectric constant tensor:
#      x y z
#    x 1.788330 0.000000 -0.031280 
#    y 0.000000 1.790700 0.000000 
#    z -0.031280 0.000000 1.772950 
# 
# From -- ./inp_files/59141.got.cif
#   From: 2010.05.17/outbox.cif.g08.bks.cpg/sg14_30_cif.got.tgz:59141.got - 2010.06.03 17:49:19.
