data_PCOD9251389
_publ_section_title
;
Structure prediction by ZEFSAII (Michael W. Deem and Ramdas Pophale) SiO2 
 PCOD9251389
Probable space group: P 21/C
;
_chemical_formula_sum "Si O2"
_cell_formula_units_Z 22
_cell_length_a 12.660236
_cell_length_b 6.996316
_cell_length_c 14.171751
_cell_angle_alpha 90.000000
_cell_angle_beta 41.433453
_cell_angle_gamma 90.000000
_cell_volume 830.669941
_symmetry_space_group_name_H-M "P 21/C"
_symmetry_group_IT_number 14
_symmetry_cell_setting 'monoclinic'
loop_
_space_group_symop_operation_xyz
x,y,z
-x,1/2+y,1/2-z
-x,-y,-z
x,1/2-y,1/2+z
loop_
_atom_site_type_symbol
_atom_site_label
_atom_site_fract_x
_atom_site_fract_y
_atom_site_fract_z
Si Si1 0.500000 0.500000 0.500000
Si Si2 0.324245 0.043538 0.894023
Si Si3 0.194813 0.434567 0.060969
Si Si4 0.535161 0.193751 0.581898
Si Si5 0.872388 0.461953 0.222792
Si Si6 0.918173 0.264826 0.004914
O O1 0.452906 0.268824 0.543965
O O2 0.687837 0.441065 0.358019
O O3 0.431518 0.091299 0.731354
O O4 0.170472 0.925977 0.963181
O O5 0.426265 0.908921 0.898127
O O6 0.267493 0.232019 0.985700
O O7 0.006540 0.430874 0.214034
O O8 0.190771 0.563699 0.966588
O O9 0.308804 0.570708 0.043783
O O10 0.914936 0.673147 0.152916
O O11 0.924295 0.305235 0.110591
#
# Coordination Sequence:
#
# PCOD9251389 Si02
#       6
#     2   4   4   4   4   4
#     4  12  26  44  66 104 154 180 222 322 368 412
#     4  11  20  39  73 100 132 189 247 288 342 435
#     4   9  19  39  64  98 126 181 239 279 345 432
#     4  11  24  40  70 101 140 188 238 300 360 427
#     4   9  20  42  63 100 143 177 233 289 359 427
#     4   8  19  38  68  98 131 178 234 286 336 432
#
# _framework density 26.484646000000001
#
# number of rings (size 3 to 8) (size 9 to 14) (size 15 to 20)
#    1.091    1.091    1.818    1.091    2.545    0.727 
#    3.273    3.636    0.000    0.000    0.000    0.000 
#    0.000    0.000    0.000    0.000    0.000    0.000 
#
# Total GULP energy -122517.094480 kJ/mol
# GULP energy per Si atom -5568.958840 kJ/mol
# Density = 2.642437 g / cm^3
# Si number density = 26.484646 Si / 1000 Ang^3
#
#
#
# Elastic Constant Matrix: (Units=GPa)
#
#
# Indices 1 2 3 4 5 6 
#
# 1 46.9025 44.9182 28.7700 0.0000 -10.2544 0.0000
# 2 44.9182 149.6293 37.1290 0.0000 -29.3050 0.0000
# 3 28.7700 37.1290 165.3851 0.0000 -33.6062 0.0000
# 4 0.0000 0.0000 0.0000 12.5415 0.0000 18.0133
# 5 -10.2544 -29.3050 -33.6062 0.0000 24.0067 0.0000
# 6 0.0000 0.0000 0.0000 18.0133 0.0000 31.6970
#
#
#
# Elastic Compliance Matrix: (Units=1/GPa)
#
#
# Indices 1 2 3 4 5 6 
#
# 1 0.031986 -0.009246 -0.004201 0.000000 -0.003504 0.000000
# 2 -0.009246 0.011466 0.001504 0.000000 0.012151 0.000000
# 3 -0.004201 0.001504 0.009011 0.000000 0.012656 0.000000
# 4 0.000000 0.000000 0.000000 0.433917 0.000000 -0.246594
# 5 -0.003504 0.012151 0.012656 0.000000 0.072708 0.000000
# 6 0.000000 0.000000 0.000000 -0.246594 0.000000 0.171687
#
#
# Mechanical properties :
#
#
# Convention : Reuss Voigt Hill
#
# Bulk Modulus (GPa) = 34.99317 64.83905 49.91611
# Shear Modulus (GPa) = 6.54290 30.38901 18.46595
#
# Velocity S-wave (km/s) = 1.57347 3.39103 2.64338
# Velocity P-wave (km/s) = 4.06723 6.31404 5.31081
#
# Compressibility (1/GPa) = 0.02857700
#
# Stress axis : x y z
#
# Youngs Moduli (GPa) = 31.26338 87.21733 110.97145
#
# Poissons Ratio (x) = 0.80642 0.46614
# Poissons Ratio (y) = 0.28907 -0.16685
# Poissons Ratio (z) = 0.13132 -0.13114
#
# Static dielectric constant tensor:
#      x y z
#    x 1.599210 0.000000 0.059300 
#    y 0.000000 2.219700 0.000000 
#    z 0.059300 0.000000 2.121000 
# 
# From -- ./inp_files/58875.got.cif
#   From: 2010.05.17/outbox.cif.g08.bks.cpg/sg14_30_cif.got.tgz:58875.got - 2010.06.03 17:49:19.
