data_PCOD9251009
_publ_section_title
;
Structure prediction by ZEFSAII (Michael W. Deem and Ramdas Pophale) SiO2 
 PCOD9251009
Probable space group: P 21/C
;
_chemical_formula_sum "Si O2"
_cell_formula_units_Z 20
_cell_length_a 6.570007
_cell_length_b 7.752766
_cell_length_c 18.331181
_cell_angle_alpha 90.000000
_cell_angle_beta 90.196567
_cell_angle_gamma 90.000000
_cell_volume 933.706534
_symmetry_space_group_name_H-M "P 21/C"
_symmetry_group_IT_number 14
_symmetry_cell_setting 'monoclinic'
loop_
_space_group_symop_operation_xyz
x,y,z
-x,1/2+y,1/2-z
-x,-y,-z
x,1/2-y,1/2+z
loop_
_atom_site_type_symbol
_atom_site_label
_atom_site_fract_x
_atom_site_fract_y
_atom_site_fract_z
Si Si1 0.438012 0.248318 0.335391
Si Si2 0.061828 0.797833 0.412669
Si Si3 0.048890 0.422115 0.377144
Si Si4 0.775990 0.112239 0.439529
Si Si5 0.777394 0.069310 0.737817
O O1 0.287922 0.384706 0.372552
O O2 0.569827 0.148850 0.396302
O O3 0.594112 0.338796 0.280483
O O4 0.298353 0.114611 0.291267
O O5 0.005368 0.598009 0.419897
O O6 0.223847 0.856331 0.474054
O O7 0.151605 0.825711 0.332566
O O8 0.870652 0.925511 0.422946
O O9 0.936871 0.255525 0.410202
O O10 0.959380 0.446363 0.295743
#
# Coordination Sequence:
#
# PCOD9251009 Si02
#       5
#     4   4   4   4   4
#     4  11  24  42  66  99 132 172 226 273 326 399
#     4  11  23  44  68  92 136 175 211 277 333 382
#     4  11  23  44  66  95 131 172 220 276 326 388
#     4  10  25  45  63  98 132 172 223 266 329 402
#     4  11  24  39  67  97 130 170 221 274 326 389
#
# _framework density 21.420006999999998
#
# number of rings (size 3 to 8) (size 9 to 14) (size 15 to 20)
#    0.000    1.200    2.000    3.000    8.400    1.600 
#    0.000    0.000    0.000    0.000    0.000    0.000 
#    0.000    0.000    0.000    0.000    0.000    0.000 
#
# Total GULP energy -111935.591356 kJ/mol
# GULP energy per Si atom -5596.779568 kJ/mol
# Density = 2.137125 g / cm^3
# Si number density = 21.420007 Si / 1000 Ang^3
#
#
#
# Elastic Constant Matrix: (Units=GPa)
#
#
# Indices 1 2 3 4 5 6 
#
# 1 69.5831 29.1517 33.5959 0.0000 11.0302 0.0000
# 2 29.1517 123.6475 31.9808 0.0000 5.8108 0.0000
# 3 33.5959 31.9808 99.2401 0.0000 8.7988 0.0000
# 4 0.0000 0.0000 0.0000 -33.4745 0.0000 -52.6795
# 5 11.0302 5.8108 8.7988 0.0000 19.4117 0.0000
# 6 0.0000 0.0000 0.0000 -52.6795 0.0000 -15.6416
#
#
#
# Elastic Compliance Matrix: (Units=1/GPa)
#
#
# Indices 1 2 3 4 5 6 
#
# 1 0.019172 -0.002894 -0.004864 0.000000 -0.007823 0.000000
# 2 -0.002894 0.009297 -0.001995 0.000000 -0.000234 0.000000
# 3 -0.004864 -0.001995 0.012574 0.000000 -0.002338 0.000000
# 4 0.000000 0.000000 0.000000 0.006947 0.000000 -0.023397
# 5 -0.007823 -0.000234 -0.002338 0.000000 0.057090 0.000000
# 6 0.000000 0.000000 0.000000 -0.023397 0.000000 0.014867
#
#
# Mechanical properties :
#
#
# Convention : Reuss Voigt Hill
#
# Bulk Modulus (GPa) = 46.43595 53.54751 49.99173
# Shear Modulus (GPa) = 34.09846 7.24194 20.67020
#
# Velocity S-wave (km/s) = 3.99419 1.84072 3.10981
# Velocity P-wave (km/s) = 6.55723 5.43790 6.02362
#
# Compressibility (1/GPa) = 0.02153504
#
# Stress axis : x y z
#
# Youngs Moduli (GPa) = 52.15804 107.56134 79.53198
#
# Poissons Ratio (x) = 0.31133 0.38685
# Poissons Ratio (y) = 0.15097 0.15870
# Poissons Ratio (z) = 0.25370 0.21463
#
# Static dielectric constant tensor:
#      x y z
#    x 1.750770 0.000000 -0.015710 
#    y 0.000000 1.785520 0.000000 
#    z -0.015710 0.000000 1.772150 
# 
# From -- ./inp_files/52626.got.cif
#   From: 2010.05.17/outbox.cif.g08.bks.cpg/sg14_27_cif.got.tgz:52626.got - 2010.06.03 17:49:19.
