data_PCOD9251059
_publ_section_title
;
Structure prediction by ZEFSAII (Michael W. Deem and Ramdas Pophale) SiO2 
 PCOD9251059
Probable space group: P 21/C
;
_chemical_formula_sum "Si O2"
_cell_formula_units_Z 20
_cell_length_a 10.424262
_cell_length_b 7.968013
_cell_length_c 10.383176
_cell_angle_alpha 90.000000
_cell_angle_beta 65.312688
_cell_angle_gamma 90.000000
_cell_volume 783.607584
_symmetry_space_group_name_H-M "P 21/C"
_symmetry_group_IT_number 14
_symmetry_cell_setting 'monoclinic'
loop_
_space_group_symop_operation_xyz
x,y,z
-x,1/2+y,1/2-z
-x,-y,-z
x,1/2-y,1/2+z
loop_
_atom_site_type_symbol
_atom_site_label
_atom_site_fract_x
_atom_site_fract_y
_atom_site_fract_z
Si Si1 0.821861 0.981656 0.618206
Si Si2 0.280060 0.681857 0.357715
Si Si3 0.442138 0.151945 0.111844
Si Si4 0.754255 0.567755 0.861343
Si Si5 0.013280 0.839573 0.091278
O O1 0.689373 0.899155 0.744890
O O2 0.779954 0.010835 0.488000
O O3 0.946897 0.842328 0.574440
O O4 0.811408 0.172471 0.673832
O O5 0.433794 0.717883 0.348072
O O6 0.291375 0.537963 0.244938
O O7 0.182315 0.647069 0.524531
O O8 0.368755 0.297615 0.060718
O O9 0.500000 0.000000 0.000000
O O10 0.912253 0.628052 0.754477
O O11 0.000000 0.000000 0.000000
#
# Coordination Sequence:
#
# PCOD9251059 Si02
#       5
#     4   4   4   4   4
#     4  11  25  45  71 105 143 188 247 302 373 436
#     4  11  24  44  70 106 142 192 243 299 370 444
#     4  11  27  44  71 102 144 195 250 306 366 438
#     4  10  25  46  70 101 146 189 240 306 367 441
#     4   9  22  45  70 101 140 184 240 299 367 438
#
# _framework density 25.522977000000001
#
# number of rings (size 3 to 8) (size 9 to 14) (size 15 to 20)
#    0.000    1.600    0.000    1.800   14.000    4.800 
#    3.600    0.000    0.000    0.000    0.000    0.000 
#    0.000    0.000    0.000    0.000    0.000    0.000 
#
# Total GULP energy -111503.214172 kJ/mol
# GULP energy per Si atom -5575.160709 kJ/mol
# Density = 2.546489 g / cm^3
# Si number density = 25.522977 Si / 1000 Ang^3
#
#
#
# Elastic Constant Matrix: (Units=GPa)
#
#
# Indices 1 2 3 4 5 6 
#
# 1 99.3505 17.5365 36.1917 0.0000 -30.7001 0.0000
# 2 17.5365 110.0100 19.3976 0.0000 -4.7953 0.0000
# 3 36.1917 19.3976 74.7361 0.0000 3.0966 0.0000
# 4 0.0000 0.0000 0.0000 33.5551 0.0000 -6.3451
# 5 -30.7001 -4.7953 3.0966 0.0000 43.7145 0.0000
# 6 0.0000 0.0000 0.0000 -6.3451 0.0000 27.1656
#
#
#
# Elastic Compliance Matrix: (Units=1/GPa)
#
#
# Indices 1 2 3 4 5 6 
#
# 1 0.017276 -0.000664 -0.008719 0.000000 0.012678 0.000000
# 2 -0.000664 0.009617 -0.002205 0.000000 0.000745 0.000000
# 3 -0.008719 -0.002205 0.018493 0.000000 -0.007675 0.000000
# 4 0.000000 0.000000 0.000000 0.031179 0.000000 0.007282
# 5 0.012678 0.000745 -0.007675 0.000000 0.032405 0.000000
# 6 0.000000 0.000000 0.000000 0.007282 0.000000 0.038512
#
#
# Mechanical properties :
#
#
# Convention : Reuss Voigt Hill
#
# Bulk Modulus (GPa) = 45.02563 47.81645 46.42104
# Shear Modulus (GPa) = 28.07998 34.95177 31.51588
#
# Velocity S-wave (km/s) = 3.32050 3.70459 3.51779
# Velocity P-wave (km/s) = 5.69039 6.08884 5.89298
#
# Compressibility (1/GPa) = 0.02220957
#
# Stress axis : x y z
#
# Youngs Moduli (GPa) = 57.88263 103.97955 54.07391
#
# Poissons Ratio (x) = 0.06904 0.47148
# Poissons Ratio (y) = 0.03843 0.11926
# Poissons Ratio (z) = 0.50469 0.22932
#
# Static dielectric constant tensor:
#      x y z
#    x 1.976050 0.000000 -0.036970 
#    y 0.000000 2.299130 0.000000 
#    z -0.036970 0.000000 1.983380 
# 
# From -- ./inp_files/27740.got.cif
#   From: 2010.05.17/outbox.cif.g08.bks.cpg/sg14_14_cif.got.tgz:27740.got - 2010.06.03 17:49:19.
