data_PCOD9251935
_publ_section_title
;
Structure prediction by ZEFSAII (Michael W. Deem and Ramdas Pophale) SiO2 
 PCOD9251935
Probable space group: P 21/C
;
_chemical_formula_sum "Si O2"
_cell_formula_units_Z 24
_cell_length_a 8.010359
_cell_length_b 8.165520
_cell_length_c 13.958514
_cell_angle_alpha 90.000000
_cell_angle_beta 74.215506
_cell_angle_gamma 90.000000
_cell_volume 878.580842
_symmetry_space_group_name_H-M "P 21/C"
_symmetry_group_IT_number 14
_symmetry_cell_setting 'monoclinic'
loop_
_space_group_symop_operation_xyz
x,y,z
-x,1/2+y,1/2-z
-x,-y,-z
x,1/2-y,1/2+z
loop_
_atom_site_type_symbol
_atom_site_label
_atom_site_fract_x
_atom_site_fract_y
_atom_site_fract_z
Si Si1 0.937336 0.280547 0.469460
Si Si2 0.310224 0.275354 0.209451
Si Si3 0.688106 0.181129 0.160845
Si Si4 0.487910 0.213356 0.364139
Si Si5 0.809285 0.087029 0.802452
Si Si6 0.215871 0.079935 0.537931
O O1 0.813792 0.385689 0.559921
O O2 0.945735 0.361508 0.362745
O O3 0.100720 0.219529 0.504512
O O4 0.843603 0.104232 0.469800
O O5 0.510500 0.249261 0.141803
O O6 0.345117 0.295552 0.316853
O O7 0.214082 0.391244 0.150937
O O8 0.207352 0.103135 0.215036
O O9 0.594634 0.101869 0.269755
O O10 0.801646 0.319055 0.201124
O O11 0.624604 0.349157 0.374977
O O12 0.398775 0.112940 0.459257
#
# Coordination Sequence:
#
# PCOD9251935 Si02
#       6
#     4   4   4   4   4   4
#     4  11  23  38  57  85 121 155 188 233 291 347
#     4   9  20  38  61  85 112 149 197 241 280 336
#     4   8  21  37  59  84 110 151 190 239 281 336
#     4   8  21  37  59  84 110 151 190 239 281 336
#     4   9  20  38  61  85 112 149 197 241 280 336
#     4  11  23  38  57  85 121 155 188 233 291 347
#
# _framework density 27.316780000000001
#
# number of rings (size 3 to 8) (size 9 to 14) (size 15 to 20)
#    2.000    0.333    0.000    2.000    0.000   12.667 
#    0.000    0.000    0.000    0.000    0.000    0.000 
#    0.000    0.000    0.000    0.000    0.000    0.000 
#
# Total GULP energy -134002.440157 kJ/mol
# GULP energy per Si atom -5583.435007 kJ/mol
# Density = 2.725461 g / cm^3
# Si number density = 27.316780 Si / 1000 Ang^3
#
#
#
# Elastic Constant Matrix: (Units=GPa)
#
#
# Indices 1 2 3 4 5 6 
#
# 1 81.5069 25.9735 32.3408 0.0000 31.1620 0.0000
# 2 25.9735 55.3939 25.8523 0.0000 16.2201 0.0000
# 3 32.3408 25.8523 128.8421 0.0000 6.7853 0.0000
# 4 0.0000 0.0000 0.0000 23.4055 0.0000 3.6698
# 5 31.1620 16.2201 6.7853 0.0000 53.6905 0.0000
# 6 0.0000 0.0000 0.0000 3.6698 0.0000 10.3701
#
#
#
# Elastic Compliance Matrix: (Units=1/GPa)
#
#
# Indices 1 2 3 4 5 6 
#
# 1 0.018397 -0.004504 -0.003245 0.000000 -0.008907 0.000000
# 2 -0.004504 0.022810 -0.003243 0.000000 -0.003867 0.000000
# 3 -0.003245 -0.003243 0.009137 0.000000 0.001708 0.000000
# 4 0.000000 0.000000 0.000000 0.045235 0.000000 -0.016008
# 5 -0.008907 -0.003867 0.001708 0.000000 0.024747 0.000000
# 6 0.000000 0.000000 0.000000 -0.016008 0.000000 0.102096
#
#
# Mechanical properties :
#
#
# Convention : Reuss Voigt Hill
#
# Bulk Modulus (GPa) = 35.25984 48.23066 41.74525
# Shear Modulus (GPa) = 19.69605 29.59831 24.64718
#
# Velocity S-wave (km/s) = 2.68810 3.29526 3.00704
# Velocity P-wave (km/s) = 4.75082 5.67210 5.23178
#
# Compressibility (1/GPa) = 0.02836088
#
# Stress axis : x y z
#
# Youngs Moduli (GPa) = 54.35667 43.84046 109.44873
#
# Poissons Ratio (x) = 0.19744 0.35518
# Poissons Ratio (y) = 0.24480 0.35492
# Poissons Ratio (z) = 0.17640 0.14216
#
# Static dielectric constant tensor:
#      x y z
#    x 2.206600 0.000000 -0.072540 
#    y 0.000000 2.225160 0.000000 
#    z -0.072540 0.000000 2.081670 
# 
# From -- ./inp_files/38920.got.cif
#   From: 2010.05.17/outbox.cif.g08.bks.cpg/sg14_20_cif.got.tgz:38920.got - 2010.06.03 17:49:19.
