data_PCOD9251977
_publ_section_title
;
Structure prediction by ZEFSAII (Michael W. Deem and Ramdas Pophale) SiO2 
 PCOD9251977
Probable space group: P 21/C
;
_chemical_formula_sum "Si O2"
_cell_formula_units_Z 28
_cell_length_a 6.699848
_cell_length_b 20.388928
_cell_length_c 14.718036
_cell_angle_alpha 90.000000
_cell_angle_beta 136.563755
_cell_angle_gamma 90.000000
_cell_volume 1382.329559
_symmetry_space_group_name_H-M "P 21/C"
_symmetry_group_IT_number 14
_symmetry_cell_setting 'monoclinic'
loop_
_space_group_symop_operation_xyz
x,y,z
-x,1/2+y,1/2-z
-x,-y,-z
x,1/2-y,1/2+z
loop_
_atom_site_type_symbol
_atom_site_label
_atom_site_fract_x
_atom_site_fract_y
_atom_site_fract_z
Si Si1 0.397683 0.597686 0.172796
Si Si2 0.795480 0.557375 0.669638
Si Si3 0.492261 0.290240 0.936741
Si Si4 0.714378 0.960182 0.939936
Si Si5 0.148191 0.309702 0.199860
Si Si6 0.244419 0.153174 0.529902
Si Si7 0.575216 0.478360 0.124898
O O1 0.507711 0.645418 0.128673
O O2 0.604458 0.591437 0.328363
O O3 0.400814 0.524066 0.135477
O O4 0.072899 0.620809 0.086206
O O5 0.532517 0.515233 0.623275
O O6 0.742294 0.575658 0.546709
O O7 0.862702 0.618169 0.757921
O O8 0.081469 0.512806 0.754039
O O9 0.360224 0.232982 0.831993
O O10 0.301426 0.301083 0.963048
O O11 0.821999 0.281737 0.081154
O O12 0.000000 0.000000 0.000000
O O13 0.258642 0.314000 0.133031
O O14 0.484996 0.096305 0.608324
O O15 0.500000 0.500000 0.000000
#
# Coordination Sequence:
#
# PCOD9251977 Si02
#       7
#     4   4   4   4   4   4   4
#     4  11  23  40  66 102 129 175 224 272 346 406
#     4  11  24  42  64  99 138 179 222 276 339 410
#     4  11  26  46  67  97 133 178 235 282 334 406
#     4  11  24  40  64 100 140 178 215 271 348 408
#     4  11  26  46  67  98 133 184 235 280 340 406
#     4  11  23  43  69  98 134 172 225 278 350 398
#     4  12  19  39  70  98 137 167 214 290 338 403
#
# _framework density 20.255662000000001
#
# number of rings (size 3 to 8) (size 9 to 14) (size 15 to 20)
#    0.000    0.857    4.286    3.000    0.000    5.714 
#    0.000    0.000    0.000    0.000    0.000    0.000 
#    0.000    0.000    0.000    0.000    0.000    0.000 
#
# Total GULP energy -156443.397604 kJ/mol
# GULP energy per Si atom -5587.264200 kJ/mol
# Density = 2.020956 g / cm^3
# Si number density = 20.255662 Si / 1000 Ang^3
#
#
#
# Elastic Constant Matrix: (Units=GPa)
#
#
# Indices 1 2 3 4 5 6 
#
# 1 135.3694 19.8306 53.0938 0.0000 -3.1575 0.0000
# 2 19.8306 29.0965 14.0871 0.0000 6.5832 0.0000
# 3 53.0938 14.0871 110.5856 0.0000 -4.0662 0.0000
# 4 0.0000 0.0000 0.0000 47.3879 0.0000 -8.0571
# 5 -3.1575 6.5832 -4.0662 0.0000 36.3567 0.0000
# 6 0.0000 0.0000 0.0000 -8.0571 0.0000 12.2068
#
#
#
# Elastic Compliance Matrix: (Units=1/GPa)
#
#
# Indices 1 2 3 4 5 6 
#
# 1 0.009708 -0.004985 -0.003978 0.000000 0.001301 0.000000
# 2 -0.004985 0.041156 -0.003152 0.000000 -0.008238 0.000000
# 3 -0.003978 -0.003152 0.011410 0.000000 0.001501 0.000000
# 4 0.000000 0.000000 0.000000 0.023770 0.000000 0.015689
# 5 0.001301 -0.008238 0.001501 0.000000 0.029278 0.000000
# 6 0.000000 0.000000 0.000000 0.015689 0.000000 0.092277
#
#
# Mechanical properties :
#
#
# Convention : Reuss Voigt Hill
#
# Bulk Modulus (GPa) = 26.28617 49.89717 38.09167
# Shear Modulus (GPa) = 20.44910 31.72627 26.08768
#
# Velocity S-wave (km/s) = 3.18079 3.96193 3.59265
# Velocity P-wave (km/s) = 5.14735 6.75399 6.00465
#
# Compressibility (1/GPa) = 0.03804282
#
# Stress axis : x y z
#
# Youngs Moduli (GPa) = 103.00715 24.29794 87.64613
#
# Poissons Ratio (x) = 0.12112 0.34867
# Poissons Ratio (y) = 0.51347 0.27629
# Poissons Ratio (z) = 0.40978 0.07659
#
# Static dielectric constant tensor:
#      x y z
#    x 1.707350 0.000000 0.010270 
#    y 0.000000 1.715290 0.000000 
#    z 0.010270 0.000000 1.743130 
# 
# From -- ./inp_files/38116.got.cif
#   From: 2010.05.17/outbox.cif.g08.bks.cpg/sg14_20_cif.got.tgz:38116.got - 2010.06.03 17:49:19.
