data_PCOD9251021
_publ_section_title
;
Structure prediction by ZEFSAII (Michael W. Deem and Ramdas Pophale) SiO2 
 PCOD9251021
Probable space group: P 21/C
;
_chemical_formula_sum "Si O2"
_cell_formula_units_Z 20
_cell_length_a 12.551661
_cell_length_b 9.281669
_cell_length_c 19.627882
_cell_angle_alpha 90.000000
_cell_angle_beta 158.453773
_cell_angle_gamma 90.000000
_cell_volume 839.778258
_symmetry_space_group_name_H-M "P 21/C"
_symmetry_group_IT_number 14
_symmetry_cell_setting 'monoclinic'
loop_
_space_group_symop_operation_xyz
x,y,z
-x,1/2+y,1/2-z
-x,-y,-z
x,1/2-y,1/2+z
loop_
_atom_site_type_symbol
_atom_site_label
_atom_site_fract_x
_atom_site_fract_y
_atom_site_fract_z
Si Si1 0.708598 0.852316 0.799888
Si Si2 0.853197 0.248409 0.188171
Si Si3 0.443658 0.064995 0.857768
Si Si4 0.138927 0.505439 0.919764
Si Si5 0.028790 0.439660 0.403951
O O1 0.608272 0.691090 0.727880
O O2 0.434381 0.961112 0.635557
O O3 0.898330 0.906307 0.848264
O O4 0.887305 0.866627 0.975138
O O5 0.315714 0.459870 0.529506
O O6 0.899111 0.358553 0.153453
O O7 0.115929 0.139686 0.361811
O O8 0.588811 0.145892 0.008720
O O9 0.137532 0.998563 0.695280
O O10 0.189505 0.653035 0.770999
#
# Coordination Sequence:
#
# PCOD9251021 Si02
#       5
#     4   4   4   4   4
#     4  10  25  45  68  96 137 186 220 280 337 408
#     4  11  24  42  70 102 133 177 221 283 336 402
#     4  11  24  46  67 102 136 174 231 287 328 404
#     4  11  25  43  71 101 136 176 227 282 339 395
#     4  11  25  45  68  99 138 178 230 271 347 402
#
# _framework density 23.815809000000002
#
# number of rings (size 3 to 8) (size 9 to 14) (size 15 to 20)
#    0.000    1.200    2.000    3.000    5.600    2.400 
#    3.600    0.000    0.000    0.000    0.000    0.000 
#    0.000    0.000    0.000    0.000    0.000    0.000 
#
# Total GULP energy -111962.790114 kJ/mol
# GULP energy per Si atom -5598.139506 kJ/mol
# Density = 2.376160 g / cm^3
# Si number density = 23.815809 Si / 1000 Ang^3
#
#
#
# Elastic Constant Matrix: (Units=GPa)
#
#
# Indices 1 2 3 4 5 6 
#
# 1 77.4183 4.9612 29.4763 0.0000 11.5062 0.0000
# 2 4.9612 63.3223 -12.8147 0.0000 -6.2114 0.0000
# 3 29.4763 -12.8147 34.3712 0.0000 4.0540 0.0000
# 4 0.0000 0.0000 0.0000 26.0962 0.0000 2.1818
# 5 11.5062 -6.2114 4.0540 0.0000 39.5754 0.0000
# 6 0.0000 0.0000 0.0000 2.1818 0.0000 14.4639
#
#
#
# Elastic Compliance Matrix: (Units=1/GPa)
#
#
# Indices 1 2 3 4 5 6 
#
# 1 0.021951 -0.006405 -0.020590 0.000000 -0.005278 0.000000
# 2 -0.006405 0.019116 0.012193 0.000000 0.003613 0.000000
# 3 -0.020590 0.012193 0.050982 0.000000 0.002678 0.000000
# 4 0.000000 0.000000 0.000000 0.038809 0.000000 -0.005854
# 5 -0.005278 0.003613 0.002678 0.000000 0.027096 0.000000
# 6 0.000000 0.000000 0.000000 -0.005854 0.000000 0.070021
#
#
# Mechanical properties :
#
#
# Convention : Reuss Voigt Hill
#
# Bulk Modulus (GPa) = 16.01369 24.26194 20.13782
# Shear Modulus (GPa) = 17.96017 26.25972 22.10994
#
# Velocity S-wave (km/s) = 2.74912 3.32417 3.05023
# Velocity P-wave (km/s) = 4.10066 4.99429 4.56937
#
# Compressibility (1/GPa) = 0.06244655
#
# Stress axis : x y z
#
# Youngs Moduli (GPa) = 45.55532 52.31207 19.61460
#
# Poissons Ratio (x) = 0.33504 0.40387
# Poissons Ratio (y) = 0.29176 -0.23917
# Poissons Ratio (z) = 0.93800 -0.63786
#
# Static dielectric constant tensor:
#      x y z
#    x 1.885740 0.000000 -0.004690 
#    y 0.000000 1.893790 0.000000 
#    z -0.004690 0.000000 1.891990 
# 
# From -- ./inp_files/68289.got.cif
#   From: 2010.05.17/outbox.cif.g08.bks.cpg/sg14_35_cif.got.tgz:68289.got - 2010.06.03 17:49:19.
