data_PCOD9251255
_publ_section_title
;
Structure prediction by ZEFSAII (Michael W. Deem and Ramdas Pophale) SiO2 
 PCOD9251255
Probable space group: P 21/C
;
_chemical_formula_sum "Si O2"
_cell_formula_units_Z 12
_cell_length_a 7.493444
_cell_length_b 7.546561
_cell_length_c 7.525197
_cell_angle_alpha 90.000000
_cell_angle_beta 75.311968
_cell_angle_gamma 90.000000
_cell_volume 411.641284
_symmetry_space_group_name_H-M "P 21/C"
_symmetry_group_IT_number 14
_symmetry_cell_setting 'monoclinic'
loop_
_space_group_symop_operation_xyz
x,y,z
-x,1/2+y,1/2-z
-x,-y,-z
x,1/2-y,1/2+z
loop_
_atom_site_type_symbol
_atom_site_label
_atom_site_fract_x
_atom_site_fract_y
_atom_site_fract_z
Si Si1 0.973905 0.548084 0.799859
Si Si2 0.414272 0.201536 0.547048
Si Si3 0.727859 0.057754 0.061432
O O1 0.878229 0.416539 0.678361
O O2 0.163577 0.584783 0.650574
O O3 0.800614 0.680848 0.845933
O O4 0.000000 0.500000 0.000000
O O5 0.373678 0.367317 0.419295
O O6 0.570556 0.298618 0.620835
O O7 0.500000 0.000000 0.500000
#
# Coordination Sequence:
#
# PCOD9251255 Si02
#       3
#     4   4   4
#     4  11  28  54  87 128 172 224 284 356 430 504
#     4  11  28  52  89 127 168 228 285 351 431 510
#     4  10  28  58  84 126 176 218 287 357 420 513
#
# _framework density 29.151595
#
# number of rings (size 3 to 8) (size 9 to 14) (size 15 to 20)
#    0.000    1.333    0.000    0.000   14.000    5.333 
#    0.000    0.000    0.000    8.000    0.000    0.000 
#    0.000    0.000    0.000    0.000    0.000    0.000 
#
# Total GULP energy -66963.924096 kJ/mol
# GULP energy per Si atom -5580.327008 kJ/mol
# Density = 2.908524 g / cm^3
# Si number density = 29.151595 Si / 1000 Ang^3
#
#
#
# Elastic Constant Matrix: (Units=GPa)
#
#
# Indices 1 2 3 4 5 6 
#
# 1 239.5514 84.3679 109.2464 0.0000 -18.7248 0.0000
# 2 84.3679 223.3170 82.3692 0.0000 -31.3885 0.0000
# 3 109.2464 82.3692 236.8510 0.0000 -16.7165 0.0000
# 4 0.0000 0.0000 0.0000 24.3490 0.0000 -12.5780
# 5 -18.7248 -31.3885 -16.7165 0.0000 83.7141 0.0000
# 6 0.0000 0.0000 0.0000 -12.5780 0.0000 71.1146
#
#
#
# Elastic Compliance Matrix: (Units=1/GPa)
#
#
# Indices 1 2 3 4 5 6 
#
# 1 0.005624 -0.001294 -0.002119 0.000000 0.000350 0.000000
# 2 -0.001294 0.005653 -0.001258 0.000000 0.001579 0.000000
# 3 -0.002119 -0.001258 0.005650 0.000000 0.000183 0.000000
# 4 0.000000 0.000000 0.000000 0.045199 0.000000 0.007994
# 5 0.000350 0.001579 0.000183 0.000000 0.012652 0.000000
# 6 0.000000 0.000000 0.000000 0.007994 0.000000 0.015476
#
#
# Mechanical properties :
#
#
# Convention : Reuss Voigt Hill
#
# Bulk Modulus (GPa) = 131.84324 139.07626 135.45975
# Shear Modulus (GPa) = 48.96048 64.08460 56.52254
#
# Velocity S-wave (km/s) = 4.10263 4.69371 4.40809
# Velocity P-wave (km/s) = 8.23208 8.78556 8.51332
#
# Compressibility (1/GPa) = 0.00758477
#
# Stress axis : x y z
#
# Youngs Moduli (GPa) = 177.80831 176.91258 176.99552
#
# Poissons Ratio (x) = 0.22890 0.37513
# Poissons Ratio (y) = 0.23006 0.22258
# Poissons Ratio (z) = 0.37685 0.22248
#
# Static dielectric constant tensor:
#      x y z
#    x 2.122220 0.000000 0.053170 
#    y 0.000000 2.480320 0.000000 
#    z 0.053170 0.000000 2.449860 
# 
# From -- ./inp_files/7188.got.cif
#   From: 2010.05.17/outbox.cif.g08.bks.cpg/sg14_4_cif.got.tgz:7188.got - 2010.06.03 17:49:19.
