data_PCOD9251316
_publ_section_title
;
Structure prediction by ZEFSAII (Michael W. Deem and Ramdas Pophale) SiO2 
 PCOD9251316
Probable space group: P 21/C
;
_chemical_formula_sum "Si O2"
_cell_formula_units_Z 32
_cell_length_a 15.105214
_cell_length_b 16.703456
_cell_length_c 13.145622
_cell_angle_alpha 90.000000
_cell_angle_beta 151.242606
_cell_angle_gamma 90.000000
_cell_volume 1595.700707
_symmetry_space_group_name_H-M "P 21/C"
_symmetry_group_IT_number 14
_symmetry_cell_setting 'monoclinic'
loop_
_space_group_symop_operation_xyz
x,y,z
-x,1/2+y,1/2-z
-x,-y,-z
x,1/2-y,1/2+z
loop_
_atom_site_type_symbol
_atom_site_label
_atom_site_fract_x
_atom_site_fract_y
_atom_site_fract_z
Si Si1 0.714010 0.592784 0.183984
Si Si2 0.174868 0.713207 0.684462
Si Si3 0.137883 0.470002 0.448834
Si Si4 0.280543 0.565012 0.920452
Si Si5 0.396415 0.147948 0.127708
Si Si6 0.956942 0.358049 0.633120
Si Si7 0.163643 0.276081 0.023841
Si Si8 0.452240 0.228613 0.968126
O O1 0.778756 0.561746 0.359750
O O2 0.636139 0.516817 0.042694
O O3 0.603416 0.676282 0.078988
O O4 0.894540 0.614462 0.301140
O O5 0.233209 0.625046 0.780707
O O6 0.145702 0.710969 0.533278
O O7 0.996492 0.736279 0.569478
O O8 0.345456 0.771532 0.875979
O O9 0.245814 0.422663 0.470774
O O10 0.164937 0.564738 0.467694
O O11 0.918029 0.452948 0.228333
O O12 0.424327 0.610633 0.137174
O O13 0.291318 0.213570 0.091099
O O14 0.444017 0.188584 0.069551
O O15 0.062886 0.329570 0.839105
O O16 0.304323 0.313359 0.246090
#
# Coordination Sequence:
#
# PCOD9251316 Si02
#       8
#     4   4   4   4   4   4   4   4
#     4  11  19  40  66  95 129 158 206 275 323 375
#     4  12  22  38  61  98 128 164 210 264 315 385
#     4  11  21  41  66  97 130 157 214 275 322 376
#     4  11  21  35  64  95 127 155 204 266 325 371
#     4  12  24  40  63  94 130 172 210 262 323 385
#     4  11  22  39  68  96 127 169 209 269 329 374
#     4  12  23  42  61  93 132 170 213 258 320 387
#     4  12  26  40  63  93 132 173 210 261 321 383
#
# _framework density 20.053887
#
# number of rings (size 3 to 8) (size 9 to 14) (size 15 to 20)
#    0.000    0.500    8.750    0.750    3.500    2.000 
#    0.000    0.625    0.000    3.750    0.000    0.000 
#    0.000    0.000    0.000    0.000    0.000    0.000 
#
# Total GULP energy -178693.476658 kJ/mol
# GULP energy per Si atom -5584.171146 kJ/mol
# Density = 2.000824 g / cm^3
# Si number density = 20.053887 Si / 1000 Ang^3
#
#
#
# Elastic Constant Matrix: (Units=GPa)
#
#
# Indices 1 2 3 4 5 6 
#
# 1 23.2694 8.8505 21.9003 0.0000 -9.8563 0.0000
# 2 8.8505 51.2966 40.1650 0.0000 -20.4933 0.0000
# 3 21.9003 40.1650 114.8151 0.0000 -17.7636 0.0000
# 4 0.0000 0.0000 0.0000 39.0675 0.0000 -6.4525
# 5 -9.8563 -20.4933 -17.7636 0.0000 32.3182 0.0000
# 6 0.0000 0.0000 0.0000 -6.4525 0.0000 18.4212
#
#
#
# Elastic Compliance Matrix: (Units=1/GPa)
#
#
# Indices 1 2 3 4 5 6 
#
# 1 0.056967 0.003630 -0.009937 0.000000 0.014214 0.000000
# 2 0.003630 0.033180 -0.009698 0.000000 0.016816 0.000000
# 3 -0.009937 -0.009698 0.013746 0.000000 -0.001624 0.000000
# 4 0.000000 0.000000 0.000000 0.027169 0.000000 0.009516
# 5 0.014214 0.016816 -0.001624 0.000000 0.045048 0.000000
# 6 0.000000 0.000000 0.000000 0.009516 0.000000 0.057619
#
#
# Mechanical properties :
#
#
# Convention : Reuss Voigt Hill
#
# Bulk Modulus (GPa) = 13.91130 36.80142 25.35636
# Shear Modulus (GPa) = 17.25934 25.85905 21.55919
#
# Velocity S-wave (km/s) = 2.93686 3.59483 3.28237
# Velocity P-wave (km/s) = 4.29561 5.96837 5.19970
#
# Compressibility (1/GPa) = 0.07188403
#
# Stress axis : x y z
#
# Youngs Moduli (GPa) = 17.55397 30.13902 72.74703
#
# Poissons Ratio (x) = -0.10941 0.72289
# Poissons Ratio (y) = -0.06373 0.70548
# Poissons Ratio (z) = 0.17443 0.29228
#
# Static dielectric constant tensor:
#      x y z
#    x 1.692880 0.000000 0.020610 
#    y 0.000000 1.747580 0.000000 
#    z 0.020610 0.000000 1.767190 
# 
# From -- ./inp_files/33061.got.cif
#   From: 2010.05.17/outbox.cif.g08.bks.cpg/sg14_17_cif.got.tgz:33061.got - 2010.06.03 17:49:19.
