data_PCOD9251190
_publ_section_title
;
Structure prediction by ZEFSAII (Michael W. Deem and Ramdas Pophale) SiO2 
 PCOD9251190
Probable space group: P 21/C
;
_chemical_formula_sum "Si O2"
_cell_formula_units_Z 18
_cell_length_a 7.328415
_cell_length_b 5.305695
_cell_length_c 19.815461
_cell_angle_alpha 90.000000
_cell_angle_beta 114.695135
_cell_angle_gamma 90.000000
_cell_volume 700.006892
_symmetry_space_group_name_H-M "P 21/C"
_symmetry_group_IT_number 14
_symmetry_cell_setting 'monoclinic'
loop_
_space_group_symop_operation_xyz
x,y,z
-x,1/2+y,1/2-z
-x,-y,-z
x,1/2-y,1/2+z
loop_
_atom_site_type_symbol
_atom_site_label
_atom_site_fract_x
_atom_site_fract_y
_atom_site_fract_z
Si Si1 0.043808 0.643153 0.656968
Si Si2 0.644423 0.650332 0.919560
Si Si3 0.727549 0.646779 0.778272
Si Si4 0.000000 0.500000 0.500000
Si Si5 0.572145 0.851037 0.109511
O O1 0.128141 0.390254 0.704664
O O2 0.092925 0.602765 0.585962
O O3 0.803734 0.667367 0.624159
O O4 0.144356 0.891038 0.702307
O O5 0.623010 0.649192 0.834980
O O6 0.563471 0.384346 0.933810
O O7 0.868149 0.737006 0.971052
O O8 0.512906 0.882148 0.927375
O O9 0.579895 0.649547 0.692339
#
# Coordination Sequence:
#
# PCOD9251190 Si02
#       5
#     4   4   4   2   4
#     4  11  24  41  67  91 131 170 211 265 318 393
#     4  11  24  40  65  91 131 168 213 267 314 389
#     4  11  22  42  65  95 129 167 206 265 337 385
#     4  10  26  46  62  92 132 184 218 250 332 384
#     4  12  23  40  66 100 123 162 219 275 321 370
#
# _framework density 25.714033000000001
#
# number of rings (size 3 to 8) (size 9 to 14) (size 15 to 20)
#    0.000    0.889    0.000    8.000    0.000    9.778 
#    0.000    0.000    0.000    0.000    0.000    0.000 
#    0.000    0.000    0.000    0.000    0.000    0.000 
#
# Total GULP energy -100484.795833 kJ/mol
# GULP energy per Si atom -5582.488657 kJ/mol
# Density = 2.565551 g / cm^3
# Si number density = 25.714033 Si / 1000 Ang^3
#
#
#
# Elastic Constant Matrix: (Units=GPa)
#
#
# Indices 1 2 3 4 5 6 
#
# 1 83.6022 71.3300 -0.1728 0.0000 12.4506 0.0000
# 2 71.3300 249.9942 40.0651 0.0000 25.0442 0.0000
# 3 -0.1728 40.0651 92.4143 0.0000 -8.3113 0.0000
# 4 0.0000 0.0000 0.0000 37.2496 0.0000 24.4200
# 5 12.4506 25.0442 -8.3113 0.0000 33.8865 0.0000
# 6 0.0000 0.0000 0.0000 24.4200 0.0000 -1.8038
#
#
#
# Elastic Compliance Matrix: (Units=1/GPa)
#
#
# Indices 1 2 3 4 5 6 
#
# 1 0.016330 -0.004765 0.001916 0.000000 -0.002008 0.000000
# 2 -0.004765 0.006201 -0.003019 0.000000 -0.003573 0.000000
# 3 0.001916 -0.003019 0.012547 0.000000 0.004605 0.000000
# 4 0.000000 0.000000 0.000000 0.002718 0.000000 0.036803
# 5 -0.002008 -0.003573 0.004605 0.000000 0.034018 0.000000
# 6 0.000000 0.000000 0.000000 0.036803 0.000000 -0.056139
#
#
# Mechanical properties :
#
#
# Convention : Reuss Voigt Hill
#
# Bulk Modulus (GPa) = 42.84026 72.05059 57.44543
# Shear Modulus (GPa) = 142.06939 34.85236 88.46087
#
# Velocity S-wave (km/s) = 7.44108 3.68555 5.87167
# Velocity P-wave (km/s) = 9.51434 6.79645 8.26784
#
# Compressibility (1/GPa) = 0.02334253
#
# Stress axis : x y z
#
# Youngs Moduli (GPa) = 61.23602 161.25157 79.69842
#
# Poissons Ratio (x) = 0.76841 -0.15269
# Poissons Ratio (y) = 0.29181 0.24059
# Poissons Ratio (z) = -0.11732 0.48679
#
# Static dielectric constant tensor:
#      x y z
#    x 2.078190 0.000000 -0.053080 
#    y 0.000000 1.985630 0.000000 
#    z -0.053080 0.000000 1.955070 
# 
# From -- ./inp_files/71500.got.cif
#   From: 2010.05.17/outbox.cif.g08.bks.cpg/sg14_36_cif.got.tgz:71500.got - 2010.06.03 17:49:19.
