data_PCOD9251898
_publ_section_title
;
Structure prediction by ZEFSAII (Michael W. Deem and Ramdas Pophale) SiO2 
 PCOD9251898
Probable space group: P 21/C
;
_chemical_formula_sum "Si O2"
_cell_formula_units_Z 28
_cell_length_a 10.230022
_cell_length_b 14.716714
_cell_length_c 17.091167
_cell_angle_alpha 90.000000
_cell_angle_beta 32.123414
_cell_angle_gamma 90.000000
_cell_volume 1368.240104
_symmetry_space_group_name_H-M "P 21/C"
_symmetry_group_IT_number 14
_symmetry_cell_setting 'monoclinic'
loop_
_space_group_symop_operation_xyz
x,y,z
-x,1/2+y,1/2-z
-x,-y,-z
x,1/2-y,1/2+z
loop_
_atom_site_type_symbol
_atom_site_label
_atom_site_fract_x
_atom_site_fract_y
_atom_site_fract_z
Si Si1 0.915233 0.894749 0.687127
Si Si2 0.453439 0.700222 0.345617
Si Si3 0.333190 0.889150 0.345231
Si Si4 0.740254 0.459916 0.656217
Si Si5 0.490747 0.581690 0.067350
Si Si6 0.208592 0.758799 0.631047
Si Si7 0.052835 0.598396 0.825123
O O1 0.704676 0.848720 0.742237
O O2 0.153979 0.904408 0.510131
O O3 0.984585 0.826034 0.721468
O O4 0.856668 0.996840 0.744119
O O5 0.479524 0.796581 0.289217
O O6 0.302766 0.634437 0.365798
O O7 0.307536 0.718108 0.499787
O O8 0.524708 0.970679 0.240728
O O9 0.163635 0.883361 0.354649
O O10 0.703873 0.444186 0.766973
O O11 0.000000 0.500000 0.500000
O O12 0.409678 0.674205 0.066500
O O13 0.500000 0.500000 0.000000
O O14 0.757028 0.595379 0.971464
O O15 0.139106 0.677444 0.723477
#
# Coordination Sequence:
#
# PCOD9251898 Si02
#       7
#     4   4   4   4   4   4   4
#     4  11  22  46  73  95 138 190 232 287 357 432
#     4  11  25  45  69 104 143 179 240 295 357 418
#     4  11  24  46  70  99 132 191 233 288 359 429
#     4  12  27  45  72 105 140 180 237 301 355 416
#     4  12  24  48  74 104 144 194 239 291 369 436
#     4  11  26  42  68 110 141 191 232 296 361 430
#     4  12  23  44  75  98 140 187 244 287 355 437
#
# _framework density 20.464244000000001
#
# number of rings (size 3 to 8) (size 9 to 14) (size 15 to 20)
#    0.000    0.571    4.286    3.857    6.000    0.571 
#    7.714    0.000    0.000    0.000    0.000    0.000 
#    0.000    0.000    0.000    0.000    0.000    0.000 
#
# Total GULP energy -156658.399111 kJ/mol
# GULP energy per Si atom -5594.942825 kJ/mol
# Density = 2.041767 g / cm^3
# Si number density = 20.464244 Si / 1000 Ang^3
#
#
#
# Elastic Constant Matrix: (Units=GPa)
#
#
# Indices 1 2 3 4 5 6 
#
# 1 84.6180 44.8347 14.7830 0.0000 19.5390 0.0000
# 2 44.8347 158.9239 46.1241 0.0000 16.8014 0.0000
# 3 14.7830 46.1241 56.0618 0.0000 27.0654 0.0000
# 4 0.0000 0.0000 0.0000 27.4211 0.0000 8.3361
# 5 19.5390 16.8014 27.0654 0.0000 29.3623 0.0000
# 6 0.0000 0.0000 0.0000 8.3361 0.0000 51.8672
#
#
#
# Elastic Compliance Matrix: (Units=1/GPa)
#
#
# Indices 1 2 3 4 5 6 
#
# 1 0.016696 -0.005162 0.006814 0.000000 -0.014438 0.000000
# 2 -0.005162 0.009989 -0.010371 0.000000 0.007279 0.000000
# 3 0.006814 -0.010371 0.043060 0.000000 -0.038291 0.000000
# 4 0.000000 0.000000 0.000000 0.038342 0.000000 -0.006162
# 5 -0.014438 0.007279 -0.038291 0.000000 0.074796 0.000000
# 6 0.000000 0.000000 0.000000 -0.006162 0.000000 0.020270
#
#
# Mechanical properties :
#
#
# Convention : Reuss Voigt Hill
#
# Bulk Modulus (GPa) = 19.11763 56.78747 37.95255
# Shear Modulus (GPa) = 21.00612 34.65423 27.83018
#
# Velocity S-wave (km/s) = 3.20735 4.11956 3.69174
# Velocity P-wave (km/s) = 4.80399 7.10194 6.06283
#
# Compressibility (1/GPa) = 0.05230774
#
# Stress axis : x y z
#
# Youngs Moduli (GPa) = 59.89444 100.11006 23.22353
#
# Poissons Ratio (x) = 0.51672 -0.15826
# Poissons Ratio (y) = 0.30915 0.24086
# Poissons Ratio (z) = -0.40815 1.03829
#
# Static dielectric constant tensor:
#      x y z
#    x 1.724910 0.000000 -0.010720 
#    y 0.000000 1.730530 0.000000 
#    z -0.010720 0.000000 1.708360 
# 
# From -- ./inp_files/41389.got.cif
#   From: 2010.05.17/outbox.cif.g08.bks.cpg/sg14_21_cif.got.tgz:41389.got - 2010.06.03 17:49:19.
