data_PCOD9251743
_publ_section_title
;
Structure prediction by ZEFSAII (Michael W. Deem and Ramdas Pophale) SiO2 
 PCOD9251743
Probable space group: P 21/C
;
_chemical_formula_sum "Si O2"
_cell_formula_units_Z 20
_cell_length_a 13.718831
_cell_length_b 8.764439
_cell_length_c 23.679537
_cell_angle_alpha 90.000000
_cell_angle_beta 159.533241
_cell_angle_gamma 90.000000
_cell_volume 995.554936
_symmetry_space_group_name_H-M "P 21/C"
_symmetry_group_IT_number 14
_symmetry_cell_setting 'monoclinic'
loop_
_space_group_symop_operation_xyz
x,y,z
-x,1/2+y,1/2-z
-x,-y,-z
x,1/2-y,1/2+z
loop_
_atom_site_type_symbol
_atom_site_label
_atom_site_fract_x
_atom_site_fract_y
_atom_site_fract_z
Si Si1 0.063938 0.921647 0.613425
Si Si2 0.307800 0.897202 0.435187
Si Si3 0.014499 0.243499 0.538655
Si Si4 0.238763 0.587909 0.332409
Si Si5 0.443321 0.882216 0.635541
O O1 0.076221 0.787934 0.574544
O O2 0.235974 0.892726 0.763317
O O3 0.739861 0.964551 0.452613
O O4 0.159188 0.081204 0.636149
O O5 0.225346 0.748396 0.356049
O O6 0.450810 0.855694 0.572521
O O7 0.500000 0.000000 0.500000
O O8 0.032689 0.989557 0.301496
O O9 0.245212 0.372404 0.671760
O O10 0.749152 0.243454 0.436389
O O11 0.500000 0.500000 0.500000
#
# Coordination Sequence:
#
# PCOD9251743 Si02
#       5
#     4   4   4   4   4
#     4   8  19  37  56  81 119 150 196 243 298 357
#     4  11  24  40  61  91 122 158 207 253 304 372
#     4   9  17  38  57  80 114 154 190 248 301 354
#     4  11  22  41  63  90 122 165 202 253 308 356
#     4   9  19  36  60  79 115 151 196 245 305 355
#
# _framework density 20.089300000000001
#
# number of rings (size 3 to 8) (size 9 to 14) (size 15 to 20)
#    1.200    1.200    0.000    2.400    2.800    0.000 
#   10.800    1.000    0.000    0.000    0.000    0.000 
#    0.000    0.000    0.000    0.000    0.000    0.000 
#
# Total GULP energy -111468.730021 kJ/mol
# GULP energy per Si atom -5573.436501 kJ/mol
# Density = 2.004358 g / cm^3
# Si number density = 20.089300 Si / 1000 Ang^3
#
#
#
# Elastic Constant Matrix: (Units=GPa)
#
#
# Indices 1 2 3 4 5 6 
#
# 1 121.2730 15.4089 65.9423 0.0000 -36.1705 0.0000
# 2 15.4089 51.5832 18.0798 0.0000 -16.9646 0.0000
# 3 65.9423 18.0798 99.1445 0.0000 -20.3469 0.0000
# 4 0.0000 0.0000 0.0000 21.2697 0.0000 1.5927
# 5 -36.1705 -16.9646 -20.3469 0.0000 43.0796 0.0000
# 6 0.0000 0.0000 0.0000 1.5927 0.0000 9.0523
#
#
#
# Elastic Compliance Matrix: (Units=1/GPa)
#
#
# Indices 1 2 3 4 5 6 
#
# 1 0.015671 0.001550 -0.008726 0.000000 0.009646 0.000000
# 2 0.001550 0.023000 -0.003432 0.000000 0.008737 0.000000
# 3 -0.008726 -0.003432 0.016316 0.000000 -0.000971 0.000000
# 4 0.000000 0.000000 0.000000 0.047643 0.000000 -0.008382
# 5 0.009646 0.008737 -0.000971 0.000000 0.034294 0.000000
# 6 0.000000 0.000000 0.000000 -0.008382 0.000000 0.111944
#
#
# Mechanical properties :
#
#
# Convention : Reuss Voigt Hill
#
# Bulk Modulus (GPa) = 29.61107 52.31805 40.96456
# Shear Modulus (GPa) = 17.77208 26.18497 21.97853
#
# Velocity S-wave (km/s) = 2.97754 3.61422 3.31122
# Velocity P-wave (km/s) = 5.15681 6.59667 5.92067
#
# Compressibility (1/GPa) = 0.03377116
#
# Stress axis : x y z
#
# Youngs Moduli (GPa) = 63.81356 43.47903 61.28839
#
# Poissons Ratio (x) = -0.06738 0.53478
# Poissons Ratio (y) = -0.09889 0.21033
# Poissons Ratio (z) = 0.55682 0.14921
#
# Static dielectric constant tensor:
#      x y z
#    x 1.727830 0.000000 -0.010120 
#    y 0.000000 1.681940 0.000000 
#    z -0.010120 0.000000 1.709480 
# 
# From -- ./inp_files/73783.got.cif
#   From: 2010.05.17/outbox.cif.g08.bks.cpg/sg14_37_cif.got.tgz:73783.got - 2010.06.03 17:49:19.
