data_PCOD9251176
_publ_section_title
;
Structure prediction by ZEFSAII (Michael W. Deem and Ramdas Pophale) SiO2 
 PCOD9251176
Probable space group: P 21/C
;
_chemical_formula_sum "Si O2"
_cell_formula_units_Z 18
_cell_length_a 14.730586
_cell_length_b 9.490898
_cell_length_c 14.514084
_cell_angle_alpha 90.000000
_cell_angle_beta 19.234638
_cell_angle_gamma 90.000000
_cell_volume 668.482441
_symmetry_space_group_name_H-M "P 21/C"
_symmetry_group_IT_number 14
_symmetry_cell_setting 'monoclinic'
loop_
_space_group_symop_operation_xyz
x,y,z
-x,1/2+y,1/2-z
-x,-y,-z
x,1/2-y,1/2+z
loop_
_atom_site_type_symbol
_atom_site_label
_atom_site_fract_x
_atom_site_fract_y
_atom_site_fract_z
Si Si1 0.855472 0.918054 0.793167
Si Si2 0.383177 0.406756 0.813814
Si Si3 0.561864 0.749459 0.922527
Si Si4 0.228630 0.832302 0.910719
Si Si5 0.000000 0.000000 0.000000
O O1 0.045240 0.784649 0.634881
O O2 0.725270 0.874967 0.818811
O O3 0.072005 0.046663 0.592184
O O4 0.586007 0.959367 0.107326
O O5 0.480601 0.301235 0.639774
O O6 0.482035 0.349970 0.816984
O O7 0.743953 0.611067 0.750726
O O8 0.290187 0.709180 0.243200
O O9 0.062704 0.974510 0.052663
#
# Coordination Sequence:
#
# PCOD9251176 Si02
#       5
#     4   4   4   4   2
#     4  11  26  47  71 109 147 190 257 309 373 443
#     4  12  28  44  80 107 151 197 254 311 370 455
#     4  11  25  49  74 109 151 199 245 315 375 451
#     4  11  27  48  74 111 150 200 249 309 382 448
#     4  10  26  44  72 104 156 184 248 304 378 434
#
# _framework density 26.926659999999998
#
# number of rings (size 3 to 8) (size 9 to 14) (size 15 to 20)
#    0.000    0.889    2.222    2.000   15.556    1.778 
#    0.000    0.000    0.000    0.000    0.000    0.000 
#    0.000    0.000    0.000    0.000    0.000    0.000 
#
# Total GULP energy -100317.366757 kJ/mol
# GULP energy per Si atom -5573.187042 kJ/mol
# Density = 2.686537 g / cm^3
# Si number density = 26.926660 Si / 1000 Ang^3
#
#
#
# Elastic Constant Matrix: (Units=GPa)
#
#
# Indices 1 2 3 4 5 6 
#
# 1 77.3931 -1.2461 -7.0804 0.0000 -1.9739 0.0000
# 2 -1.2461 48.1006 23.1376 0.0000 9.2204 0.0000
# 3 -7.0804 23.1376 130.8863 0.0000 -15.2850 0.0000
# 4 0.0000 0.0000 0.0000 13.4581 0.0000 25.3535
# 5 -1.9739 9.2204 -15.2850 0.0000 25.5429 0.0000
# 6 0.0000 0.0000 0.0000 25.3535 0.0000 23.7149
#
#
#
# Elastic Compliance Matrix: (Units=1/GPa)
#
#
# Indices 1 2 3 4 5 6 
#
# 1 0.013050 -0.000484 0.001000 0.000000 0.001781 0.000000
# 2 -0.000484 0.026315 -0.006227 0.000000 -0.013263 0.000000
# 3 0.001000 -0.006227 0.009748 0.000000 0.008158 0.000000
# 4 0.000000 0.000000 0.000000 -0.073275 0.000000 0.078338
# 5 0.001781 -0.013263 0.008158 0.000000 0.048957 0.000000
# 6 0.000000 0.000000 0.000000 0.078338 0.000000 -0.041583
#
#
# Mechanical properties :
#
#
# Convention : Reuss Voigt Hill
#
# Bulk Modulus (GPa) = 26.53242 31.77801 29.15522
# Shear Modulus (GPa) = 694.73757 28.64778 361.69267
#
# Velocity S-wave (km/s) = 16.08015 3.26532 11.60244
# Velocity P-wave (km/s) = 18.83180 5.10330 13.79638
#
# Compressibility (1/GPa) = 0.03768974
#
# Stress axis : x y z
#
# Youngs Moduli (GPa) = 76.62757 38.00145 102.58777
#
# Poissons Ratio (x) = 0.01840 -0.10255
# Poissons Ratio (y) = 0.03711 0.63880
# Poissons Ratio (z) = -0.07660 0.23663
#
# Static dielectric constant tensor:
#      x y z
#    x 2.093110 0.000000 0.098240 
#    y 0.000000 1.909010 0.000000 
#    z 0.098240 0.000000 1.988460 
# 
# From -- ./inp_files/20483.got.cif
#   From: 2010.05.17/outbox.cif.g08.bks.cpg/sg14_11_cif.got.tgz:20483.got - 2010.06.03 17:49:19.
