data_PCOD9251505
_publ_section_title
;
Structure prediction by ZEFSAII (Michael W. Deem and Ramdas Pophale) SiO2 
 PCOD9251505
Probable space group: P 21/C
;
_chemical_formula_sum "Si O2"
_cell_formula_units_Z 20
_cell_length_a 8.563411
_cell_length_b 19.391805
_cell_length_c 5.171076
_cell_angle_alpha 90.000000
_cell_angle_beta 89.123314
_cell_angle_gamma 90.000000
_cell_volume 858.608342
_symmetry_space_group_name_H-M "P 21/C"
_symmetry_group_IT_number 14
_symmetry_cell_setting 'monoclinic'
loop_
_space_group_symop_operation_xyz
x,y,z
-x,1/2+y,1/2-z
-x,-y,-z
x,1/2-y,1/2+z
loop_
_atom_site_type_symbol
_atom_site_label
_atom_site_fract_x
_atom_site_fract_y
_atom_site_fract_z
Si Si1 0.881925 0.599804 0.519798
Si Si2 0.539591 0.584220 0.474735
Si Si3 0.120603 0.534729 0.182042
Si Si4 0.634745 0.377667 0.026923
Si Si5 0.054223 0.796083 0.360911
O O1 0.713042 0.613598 0.404593
O O2 0.845357 0.521212 0.603992
O O3 0.032432 0.597245 0.327808
O O4 0.938762 0.642873 0.767365
O O5 0.500000 0.500000 0.500000
O O6 0.497479 0.613410 0.758404
O O7 0.430269 0.621812 0.263606
O O8 0.264624 0.552485 0.999118
O O9 0.000000 0.500000 0.000000
O O10 0.766737 0.323697 0.117749
O O11 0.026901 0.758628 0.632162
#
# Coordination Sequence:
#
# PCOD9251505 Si02
#       5
#     4   4   4   4   4
#     4  11  25  41  69 107 142 177 235 289 353 416
#     4  12  25  41  69 113 148 173 206 293 377 433
#     4  11  21  39  71 104 140 180 221 293 355 422
#     4  12  25  44  68 102 143 183 226 279 359 424
#     4  12  27  49  71  94 133 197 253 286 320 407
#
# _framework density 23.293510000000001
#
# number of rings (size 3 to 8) (size 9 to 14) (size 15 to 20)
#    0.000    0.400    4.000    5.400    2.800    0.000 
#    0.000    6.000    0.000    0.000    0.000    0.000 
#    0.000    0.000    0.000    0.000    0.000    0.000 
#
# Total GULP energy -111498.805326 kJ/mol
# GULP energy per Si atom -5574.940266 kJ/mol
# Density = 2.324049 g / cm^3
# Si number density = 23.293510 Si / 1000 Ang^3
#
#
#
# Elastic Constant Matrix: (Units=GPa)
#
#
# Indices 1 2 3 4 5 6 
#
# 1 77.8660 21.2534 -4.7213 0.0000 29.8953 0.0000
# 2 21.2534 76.6820 27.6087 0.0000 6.2148 0.0000
# 3 -4.7213 27.6087 97.7394 0.0000 20.2491 0.0000
# 4 0.0000 0.0000 0.0000 42.9076 0.0000 13.4079
# 5 29.8953 6.2148 20.2491 0.0000 40.0914 0.0000
# 6 0.0000 0.0000 0.0000 13.4079 0.0000 26.2489
#
#
#
# Elastic Compliance Matrix: (Units=1/GPa)
#
#
# Indices 1 2 3 4 5 6 
#
# 1 0.022751 -0.007320 0.007200 0.000000 -0.019467 0.000000
# 2 -0.007320 0.016874 -0.006376 0.000000 0.006063 0.000000
# 3 0.007200 -0.006376 0.014841 0.000000 -0.011876 0.000000
# 4 0.000000 0.000000 0.000000 0.027732 0.000000 -0.014166
# 5 -0.019467 0.006063 -0.011876 0.000000 0.044517 0.000000
# 6 0.000000 0.000000 0.000000 -0.014166 0.000000 0.045333
#
#
# Mechanical properties :
#
#
# Convention : Reuss Voigt Hill
#
# Bulk Modulus (GPa) = 24.11250 37.84100 30.97675
# Shear Modulus (GPa) = 25.14262 35.72602 30.43432
#
# Velocity S-wave (km/s) = 3.28896 3.92054 3.61856
# Velocity P-wave (km/s) = 4.97967 6.06422 5.54850
#
# Compressibility (1/GPa) = 0.04147227
#
# Stress axis : x y z
#
# Youngs Moduli (GPa) = 43.95392 59.26247 67.38281
#
# Poissons Ratio (x) = 0.43382 -0.48514
# Poissons Ratio (y) = 0.32176 0.42965
# Poissons Ratio (z) = -0.31646 0.37787
#
# Static dielectric constant tensor:
#      x y z
#    x 1.913350 0.000000 0.016060 
#    y 0.000000 1.998980 0.000000 
#    z 0.016060 0.000000 1.865380 
# 
# From -- ./inp_files/1301.got.cif
#   From: 2010.05.17/outbox.cif.g08.bks.cpg/sg14_1_cif.got.tgz:1301.got - 2010.06.03 17:49:19.
