data_PCOD9251560
_publ_section_title
;
Structure prediction by ZEFSAII (Michael W. Deem and Ramdas Pophale) SiO2 
 PCOD9251560
Probable space group: P 21/C
;
_chemical_formula_sum "Si O2"
_cell_formula_units_Z 24
_cell_length_a 8.013411
_cell_length_b 15.955712
_cell_length_c 9.336012
_cell_angle_alpha 90.000000
_cell_angle_beta 95.183025
_cell_angle_gamma 90.000000
_cell_volume 1188.818698
_symmetry_space_group_name_H-M "P 21/C"
_symmetry_group_IT_number 14
_symmetry_cell_setting 'monoclinic'
loop_
_space_group_symop_operation_xyz
x,y,z
-x,1/2+y,1/2-z
-x,-y,-z
x,1/2-y,1/2+z
loop_
_atom_site_type_symbol
_atom_site_label
_atom_site_fract_x
_atom_site_fract_y
_atom_site_fract_z
Si Si1 0.994515 0.589499 0.421112
Si Si2 0.637811 0.845869 0.516156
Si Si3 0.215960 0.230386 0.215044
Si Si4 0.099095 0.482276 0.865880
Si Si5 0.121122 0.764237 0.123508
Si Si6 0.263977 0.846621 0.388132
O O1 0.106212 0.654860 0.517935
O O2 0.000000 0.500000 0.500000
O O3 0.826634 0.646822 0.382491
O O4 0.021537 0.561920 0.258795
O O5 0.735590 0.802094 0.392346
O O6 0.642245 0.785578 0.655567
O O7 0.745360 0.923923 0.579626
O O8 0.451541 0.865272 0.451778
O O9 0.050517 0.251124 0.298304
O O10 0.171961 0.571055 0.821328
O O11 0.000000 0.500000 0.000000
O O12 0.256305 0.780197 0.258022
O O13 0.164469 0.689980 0.017603
#
# Coordination Sequence:
#
# PCOD9251560 Si02
#       6
#     4   4   4   4   4   4
#     4  11  22  38  64  94 120 159 219 268 302 365
#     4  11  24  40  63  94 131 167 207 267 328 368
#     4  11  21  42  64  91 124 172 218 258 307 390
#     4  11  24  41  67  93 124 169 214 261 313 389
#     4  12  22  41  67  90 125 166 223 257 308 392
#     4  12  24  41  63  95 130 164 207 271 325 374
#
# _framework density 20.188106999999999
#
# number of rings (size 3 to 8) (size 9 to 14) (size 15 to 20)
#    0.000    0.667    5.000    4.500    0.000    0.000 
#    0.000    0.000    0.000    3.000    0.000    0.000 
#    0.000    0.000    0.000    0.000    0.000    0.000 
#
# Total GULP energy -133830.685332 kJ/mol
# GULP energy per Si atom -5576.278556 kJ/mol
# Density = 2.014216 g / cm^3
# Si number density = 20.188107 Si / 1000 Ang^3
#
#
#
# Elastic Constant Matrix: (Units=GPa)
#
#
# Indices 1 2 3 4 5 6 
#
# 1 53.4630 8.2388 25.2311 0.0000 0.3170 0.0000
# 2 8.2388 92.3942 30.7935 0.0000 -17.6957 0.0000
# 3 25.2311 30.7935 129.1026 0.0000 6.1528 0.0000
# 4 0.0000 0.0000 0.0000 51.3339 0.0000 4.0356
# 5 0.3170 -17.6957 6.1528 0.0000 28.5089 0.0000
# 6 0.0000 0.0000 0.0000 4.0356 0.0000 21.4059
#
#
#
# Elastic Compliance Matrix: (Units=1/GPa)
#
#
# Indices 1 2 3 4 5 6 
#
# 1 0.020632 -0.000464 -0.003937 0.000000 0.000332 0.000000
# 2 -0.000464 0.013893 -0.003672 0.000000 0.009421 0.000000
# 3 -0.003937 -0.003672 0.009596 0.000000 -0.004307 0.000000
# 4 0.000000 0.000000 0.000000 0.019773 0.000000 -0.003728
# 5 0.000332 0.009421 -0.004307 0.000000 0.041850 0.000000
# 6 0.000000 0.000000 0.000000 -0.003728 0.000000 0.047419
#
#
# Mechanical properties :
#
#
# Convention : Reuss Voigt Hill
#
# Bulk Modulus (GPa) = 35.74655 44.83184 40.28919
# Shear Modulus (GPa) = 27.98999 34.29617 31.14308
#
# Velocity S-wave (km/s) = 3.72756 4.12616 3.93191
# Velocity P-wave (km/s) = 6.02258 6.70489 6.37287
#
# Compressibility (1/GPa) = 0.02797473
#
# Stress axis : x y z
#
# Youngs Moduli (GPa) = 48.46779 71.98028 104.20594
#
# Poissons Ratio (x) = 0.03339 0.41031
# Poissons Ratio (y) = 0.02248 0.38265
# Poissons Ratio (z) = 0.19084 0.26431
#
# Static dielectric constant tensor:
#      x y z
#    x 1.711210 0.000000 0.018310 
#    y 0.000000 1.786700 0.000000 
#    z 0.018310 0.000000 1.740390 
# 
# From -- ./inp_files/8429.got.cif
#   From: 2010.05.17/outbox.cif.g08.bks.cpg/sg14_5_cif.got.tgz:8429.got - 2010.06.03 17:49:19.
