data_PCOD9251104
_publ_section_title
;
Structure prediction by ZEFSAII (Michael W. Deem and Ramdas Pophale) SiO2 
 PCOD9251104
Probable space group: P 21/C
;
_chemical_formula_sum "Si O2"
_cell_formula_units_Z 20
_cell_length_a 8.503145
_cell_length_b 11.294455
_cell_length_c 18.640091
_cell_angle_alpha 90.000000
_cell_angle_beta 154.797704
_cell_angle_gamma 90.000000
_cell_volume 762.279797
_symmetry_space_group_name_H-M "P 21/C"
_symmetry_group_IT_number 14
_symmetry_cell_setting 'monoclinic'
loop_
_space_group_symop_operation_xyz
x,y,z
-x,1/2+y,1/2-z
-x,-y,-z
x,1/2-y,1/2+z
loop_
_atom_site_type_symbol
_atom_site_label
_atom_site_fract_x
_atom_site_fract_y
_atom_site_fract_z
Si Si1 0.343882 0.638092 0.804269
Si Si2 0.156164 0.291959 0.276670
Si Si3 0.557582 0.855535 0.795816
Si Si4 0.746521 0.463604 0.487526
Si Si5 0.298011 0.903186 0.533912
O O1 0.481438 0.732100 0.803060
O O2 0.649436 0.543101 0.954622
O O3 0.167485 0.702345 0.799616
O O4 0.018718 0.557414 0.636819
O O5 0.488094 0.384061 0.430934
O O6 0.331273 0.163362 0.341196
O O7 0.014468 0.341765 0.142037
O O8 0.307118 0.877318 0.622488
O O9 0.510228 0.959193 0.834356
O O10 0.980297 0.876874 0.944118
#
# Coordination Sequence:
#
# PCOD9251104 Si02
#       5
#     4   4   4   4   4
#     4  11  26  47  82 110 149 200 254 309 382 447
#     4  12  27  48  75 107 160 192 252 313 386 443
#     4  10  25  47  77 107 148 197 253 302 375 447
#     4  10  25  49  77 110 151 198 249 311 374 446
#     4  11  27  47  70 114 148 200 249 315 372 452
#
# _framework density 26.237083999999999
#
# number of rings (size 3 to 8) (size 9 to 14) (size 15 to 20)
#    0.000    1.200    0.000    3.600   16.800    2.400 
#    0.000    0.000    0.000    0.000    0.000    0.000 
#    0.000    0.000    0.000    0.000    0.000    0.000 
#
# Total GULP energy -112221.447357 kJ/mol
# GULP energy per Si atom -5611.072368 kJ/mol
# Density = 2.617737 g / cm^3
# Si number density = 26.237084 Si / 1000 Ang^3
#
#
#
# Elastic Constant Matrix: (Units=GPa)
#
#
# Indices 1 2 3 4 5 6 
#
# 1 88.8512 68.2909 16.5228 0.0000 7.5573 0.0000
# 2 68.2909 147.0623 22.9020 0.0000 9.9969 0.0000
# 3 16.5228 22.9020 91.5204 0.0000 0.5035 0.0000
# 4 0.0000 0.0000 0.0000 38.2913 0.0000 1.6149
# 5 7.5573 9.9969 0.5035 0.0000 30.6360 0.0000
# 6 0.0000 0.0000 0.0000 1.6149 0.0000 31.9964
#
#
#
# Elastic Compliance Matrix: (Units=1/GPa)
#
#
# Indices 1 2 3 4 5 6 
#
# 1 0.017716 -0.007919 -0.001207 0.000000 -0.001766 0.000000
# 2 -0.007919 0.010778 -0.001259 0.000000 -0.001543 0.000000
# 3 -0.001207 -0.001259 0.011457 0.000000 0.000520 0.000000
# 4 0.000000 0.000000 0.000000 0.026171 0.000000 -0.001321
# 5 -0.001766 -0.001543 0.000520 0.000000 0.033572 0.000000
# 6 0.000000 0.000000 0.000000 -0.001321 0.000000 0.031320
#
#
# Mechanical properties :
#
#
# Convention : Reuss Voigt Hill
#
# Bulk Modulus (GPa) = 52.13490 60.31837 56.22663
# Shear Modulus (GPa) = 31.61026 34.83261 33.22144
#
# Velocity S-wave (km/s) = 3.47478 3.64759 3.56223
# Velocity P-wave (km/s) = 6.00105 6.38589 6.19646
#
# Compressibility (1/GPa) = 0.01918101
#
# Stress axis : x y z
#
# Youngs Moduli (GPa) = 56.44728 92.78256 87.28565
#
# Poissons Ratio (x) = 0.73470 0.10536
# Poissons Ratio (y) = 0.44698 0.10989
# Poissons Ratio (z) = 0.06814 0.11681
#
# Static dielectric constant tensor:
#      x y z
#    x 2.017800 0.000000 -0.010100 
#    y 0.000000 2.026450 0.000000 
#    z -0.010100 0.000000 2.141510 
# 
# From -- ./inp_files/64918.got.cif
#   From: 2010.05.17/outbox.cif.g08.bks.cpg/sg14_33_cif.got.tgz:64918.got - 2010.06.03 17:49:19.
