data_PCOD9251536
_publ_section_title
;
Structure prediction by ZEFSAII (Michael W. Deem and Ramdas Pophale) SiO2 
 PCOD9251536
Probable space group: P 21/C
;
_chemical_formula_sum "Si O2"
_cell_formula_units_Z 24
_cell_length_a 30.204015
_cell_length_b 4.974085
_cell_length_c 17.020605
_cell_angle_alpha 90.000000
_cell_angle_beta 27.192646
_cell_angle_gamma 90.000000
_cell_volume 1168.567072
_symmetry_space_group_name_H-M "P 21/C"
_symmetry_group_IT_number 14
_symmetry_cell_setting 'monoclinic'
loop_
_space_group_symop_operation_xyz
x,y,z
-x,1/2+y,1/2-z
-x,-y,-z
x,1/2-y,1/2+z
loop_
_atom_site_type_symbol
_atom_site_label
_atom_site_fract_x
_atom_site_fract_y
_atom_site_fract_z
Si Si1 0.778505 0.834866 0.722308
Si Si2 0.731899 0.738103 0.473098
Si Si3 0.240073 0.749491 0.970028
Si Si4 0.065143 0.956995 0.638372
Si Si5 0.517214 0.535604 0.775005
Si Si6 0.335325 0.833194 0.662659
O O1 0.878379 0.934812 0.527204
O O2 0.740756 0.569134 0.737873
O O3 0.700201 0.068569 0.827582
O O4 0.780856 0.777231 0.810734
O O5 0.780204 0.535785 0.458844
O O6 0.622823 0.629254 0.634509
O O7 0.732934 0.036040 0.505950
O O8 0.148124 0.638996 0.067459
O O9 0.325080 0.776812 0.771142
O O10 0.002243 0.201480 0.771268
O O11 0.514504 0.234525 0.745885
O O12 0.438837 0.575563 0.967356
#
# Coordination Sequence:
#
# PCOD9251536 Si02
#       6
#     4   4   4   4   4   4
#     4  11  22  40  68  91 123 171 212 248 319 378
#     4  12  23  40  62  97 133 164 203 270 311 351
#     4  11  25  40  63  95 131 160 205 268 328 354
#     4  11  23  45  69  91 118 164 215 258 313 402
#     4  12  22  38  63  94 128 171 225 245 287 372
#     4  11  21  41  62  91 127 178 215 246 295 382
#
# _framework density 20.537973000000001
#
# number of rings (size 3 to 8) (size 9 to 14) (size 15 to 20)
#    0.000    0.667    3.333    7.000    0.000    1.333 
#    0.000    5.000    0.000    0.000    0.000    0.000 
#    0.000    0.000    0.000    0.000    0.000    0.000 
#
# Total GULP energy -134330.292388 kJ/mol
# GULP energy per Si atom -5597.095516 kJ/mol
# Density = 2.049123 g / cm^3
# Si number density = 20.537973 Si / 1000 Ang^3
#
#
#
# Elastic Constant Matrix: (Units=GPa)
#
#
# Indices 1 2 3 4 5 6 
#
# 1 44.3211 -3.0828 27.1400 0.0000 12.3227 0.0000
# 2 -3.0828 81.3459 -8.0027 0.0000 2.1524 0.0000
# 3 27.1400 -8.0027 87.0867 0.0000 4.2220 0.0000
# 4 0.0000 0.0000 0.0000 20.4525 0.0000 11.3285
# 5 12.3227 2.1524 4.2220 0.0000 27.8549 0.0000
# 6 0.0000 0.0000 0.0000 11.3285 0.0000 31.1192
#
#
#
# Elastic Compliance Matrix: (Units=1/GPa)
#
#
# Indices 1 2 3 4 5 6 
#
# 1 0.031797 0.000633 -0.009235 0.000000 -0.012716 0.000000
# 2 0.000633 0.012454 0.001015 0.000000 -0.001396 0.000000
# 3 -0.009235 0.001015 0.014365 0.000000 0.001829 0.000000
# 4 0.000000 0.000000 0.000000 0.061242 0.000000 -0.022294
# 5 -0.012716 -0.001396 0.001829 0.000000 0.041356 0.000000
# 6 0.000000 0.000000 0.000000 -0.022294 0.000000 0.040250
#
#
# Mechanical properties :
#
#
# Convention : Reuss Voigt Hill
#
# Bulk Modulus (GPa) = 23.01894 27.20698 25.11296
# Shear Modulus (GPa) = 21.63383 28.99860 25.31622
#
# Velocity S-wave (km/s) = 3.24907 3.76167 3.51473
# Velocity P-wave (km/s) = 5.03066 5.66946 5.35959
#
# Compressibility (1/GPa) = 0.04344249
#
# Stress axis : x y z
#
# Youngs Moduli (GPa) = 31.44967 80.29576 69.61221
#
# Poissons Ratio (x) = -0.05083 0.64284
# Poissons Ratio (y) = -0.01991 -0.07065
# Poissons Ratio (z) = 0.29043 -0.08149
#
# Static dielectric constant tensor:
#      x y z
#    x 1.718150 0.000000 0.000900 
#    y 0.000000 1.718360 0.000000 
#    z 0.000900 0.000000 1.726580 
# 
# From -- ./inp_files/51697.got.cif
#   From: 2010.05.17/outbox.cif.g08.bks.cpg/sg14_26_cif.got.tgz:51697.got - 2010.06.03 17:49:19.
