data_PCOD9251921
_publ_section_title
;
Structure prediction by ZEFSAII (Michael W. Deem and Ramdas Pophale) SiO2 
 PCOD9251921
Probable space group: P 21/C
;
_chemical_formula_sum "Si O2"
_cell_formula_units_Z 30
_cell_length_a 4.993410
_cell_length_b 15.215968
_cell_length_c 17.597405
_cell_angle_alpha 90.000000
_cell_angle_beta 61.393442
_cell_angle_gamma 90.000000
_cell_volume 1173.827909
_symmetry_space_group_name_H-M "P 21/C"
_symmetry_group_IT_number 14
_symmetry_cell_setting 'monoclinic'
loop_
_space_group_symop_operation_xyz
x,y,z
-x,1/2+y,1/2-z
-x,-y,-z
x,1/2-y,1/2+z
loop_
_atom_site_type_symbol
_atom_site_label
_atom_site_fract_x
_atom_site_fract_y
_atom_site_fract_z
Si Si1 0.898935 0.417036 0.333033
Si Si2 0.538551 0.346818 0.719022
Si Si3 0.773392 0.899018 0.883659
Si Si4 0.500000 0.500000 0.000000
Si Si5 0.288374 0.775923 0.034065
Si Si6 0.833002 0.666919 0.993899
Si Si7 0.433146 0.504896 0.171109
Si Si8 0.756660 0.154670 0.688418
O O1 0.714981 0.496726 0.396453
O O2 0.929030 0.336516 0.386059
O O3 0.768475 0.382196 0.271338
O O4 0.202746 0.465604 0.265653
O O5 0.271734 0.376272 0.698959
O O6 0.485547 0.401042 0.803735
O O7 0.550607 0.241649 0.718864
O O8 0.878425 0.374521 0.641538
O O9 0.512569 0.842499 0.959484
O O10 0.738731 0.565794 0.011866
O O11 0.707681 0.495942 0.893616
O O12 0.523499 0.719950 0.051856
O O13 0.102338 0.707545 0.007515
O O14 0.921750 0.684014 0.892923
O O15 0.662592 0.421875 0.142209
#
# Coordination Sequence:
#
# PCOD9251921 Si02
#       8
#     4   4   4   2   4   4   4   4
#     4  11  27  45  77 114 152 201 260 330 396 469
#     4  11  25  43  75 107 151 199 257 316 393 466
#     4  11  22  49  71 111 151 194 250 323 396 469
#     4  12  28  52  72 108 158 210 258 326 382 474
#     4  12  26  48  78 114 148 199 264 318 395 469
#     4  12  28  49  75 110 149 207 256 318 388 467
#     4  11  27  49  74 111 152 205 263 319 396 463
#     4  12  24  49  75 103 157 203 259 321 394 468
#
# _framework density 25.557411999999999
#
# number of rings (size 3 to 8) (size 9 to 14) (size 15 to 20)
#    0.000    0.533    5.333    1.200    5.600    2.133 
#    0.000    3.333    0.000    0.000    0.000    0.000 
#    0.000    0.000    0.000    0.000    0.000    0.000 
#
# Total GULP energy -167255.398669 kJ/mol
# GULP energy per Si atom -5575.179956 kJ/mol
# Density = 2.549924 g / cm^3
# Si number density = 25.557412 Si / 1000 Ang^3
#
#
#
# Elastic Constant Matrix: (Units=GPa)
#
#
# Indices 1 2 3 4 5 6 
#
# 1 67.0970 18.7334 -3.9644 0.0000 -11.2295 0.0000
# 2 18.7334 118.4370 0.9450 0.0000 -9.2268 0.0000
# 3 -3.9644 0.9450 51.6577 0.0000 -12.2845 0.0000
# 4 0.0000 0.0000 0.0000 38.0233 0.0000 3.3244
# 5 -11.2295 -9.2268 -12.2845 0.0000 23.7657 0.0000
# 6 0.0000 0.0000 0.0000 3.3244 0.0000 36.3242
#
#
#
# Elastic Compliance Matrix: (Units=1/GPa)
#
#
# Indices 1 2 3 4 5 6 
#
# 1 0.017217 -0.002037 0.003540 0.000000 0.009174 0.000000
# 2 -0.002037 0.008972 0.000318 0.000000 0.002685 0.000000
# 3 0.003540 0.000318 0.022861 0.000000 0.013613 0.000000
# 4 0.000000 0.000000 0.000000 0.026512 0.000000 -0.002426
# 5 0.009174 0.002685 0.013613 0.000000 0.054492 0.000000
# 6 0.000000 0.000000 0.000000 -0.002426 0.000000 0.027752
#
#
# Mechanical properties :
#
#
# Convention : Reuss Voigt Hill
#
# Bulk Modulus (GPa) = 18.97747 29.84664 24.41205
# Shear Modulus (GPa) = 29.11589 34.38782 31.75186
#
# Velocity S-wave (km/s) = 3.37892 3.67210 3.52856
# Velocity P-wave (km/s) = 4.76071 5.44819 5.11601
#
# Compressibility (1/GPa) = 0.05269406
#
# Stress axis : x y z
#
# Youngs Moduli (GPa) = 58.08174 111.45621 43.74181
#
# Poissons Ratio (x) = 0.22701 -0.15486
# Poissons Ratio (y) = 0.11830 -0.01392
# Poissons Ratio (z) = -0.20563 -0.03546
#
# Static dielectric constant tensor:
#      x y z
#    x 2.113110 0.000000 -0.598770 
#    y 0.000000 2.160500 0.000000 
#    z -0.598770 0.000000 4.352630 
# 
# From -- ./inp_files/53425.got.cif
#   From: 2010.05.17/outbox.cif.g08.bks.cpg/sg14_27_cif.got.tgz:53425.got - 2010.06.03 17:49:19.
