data_PCOD9251997
_publ_section_title
;
Structure prediction by ZEFSAII (Michael W. Deem and Ramdas Pophale) SiO2 
 PCOD9251997
Probable space group: P 21/C
;
_chemical_formula_sum "Si O2"
_cell_formula_units_Z 32
_cell_length_a 18.572498
_cell_length_b 9.814934
_cell_length_c 8.765891
_cell_angle_alpha 90.000000
_cell_angle_beta 106.415131
_cell_angle_gamma 90.000000
_cell_volume 1532.783332
_symmetry_space_group_name_H-M "P 21/C"
_symmetry_group_IT_number 14
_symmetry_cell_setting 'monoclinic'
loop_
_space_group_symop_operation_xyz
x,y,z
-x,1/2+y,1/2-z
-x,-y,-z
x,1/2-y,1/2+z
loop_
_atom_site_type_symbol
_atom_site_label
_atom_site_fract_x
_atom_site_fract_y
_atom_site_fract_z
Si Si1 0.293762 0.436909 0.391694
Si Si2 0.965464 0.202925 0.078493
Si Si3 0.325669 0.329822 0.753287
Si Si4 0.498455 0.639677 0.089644
Si Si5 0.054328 0.550684 0.754703
Si Si6 0.231023 0.567492 0.825246
Si Si7 0.207846 0.668375 0.470108
Si Si8 0.439661 0.600713 0.389797
O O1 0.313015 0.374358 0.570558
O O2 0.286820 0.313036 0.270775
O O3 0.225406 0.539274 0.374743
O O4 0.360530 0.534362 0.377834
O O5 0.979732 0.362078 0.124608
O O6 0.880504 0.190686 0.087650
O O7 0.963467 0.148352 0.903355
O O8 0.016798 0.094969 0.199262
O O9 0.414836 0.315341 0.834203
O O10 0.288751 0.443051 0.843281
O O11 0.458633 0.614133 0.225186
O O12 0.500000 0.500000 0.000000
O O13 0.452706 0.753122 0.972171
O O14 0.144730 0.527488 0.813625
O O15 0.229092 0.630111 0.654208
O O16 0.249689 0.693666 0.945946
O O17 0.500000 0.500000 0.500000
#
# Coordination Sequence:
#
# PCOD9251997 Si02
#       8
#     4   4   4   4   4   4   4   4
#     4  11  25  40  61  83 119 149 192 236 288 342
#     4   9  18  34  56  81 116 147 189 228 281 327
#     4  11  23  41  57  84 114 150 188 237 285 342
#     4  12  26  41  64  87 116 151 191 240 289 344
#     4   9  18  34  55  83 112 151 184 235 274 334
#     4   9  20  37  58  80 115 146 192 229 284 333
#     4   9  20  38  57  84 112 150 187 235 277 340
#     4  12  24  43  62  88 116 149 192 238 289 342
#
# _framework density 20.877051999999999
#
# number of rings (size 3 to 8) (size 9 to 14) (size 15 to 20)
#    0.000    1.750    2.500    0.750    3.500    3.500 
#    0.000    0.000    0.000    0.000    0.000    0.000 
#    0.000    0.000    0.000    0.000    0.000    0.000 
#
# Total GULP energy -178774.380519 kJ/mol
# GULP energy per Si atom -5586.699391 kJ/mol
# Density = 2.082954 g / cm^3
# Si number density = 20.877052 Si / 1000 Ang^3
#
#
#
# Elastic Constant Matrix: (Units=GPa)
#
#
# Indices 1 2 3 4 5 6 
#
# 1 35.1048 19.5341 10.4714 0.0000 -11.5313 0.0000
# 2 19.5341 110.1997 28.7511 0.0000 -17.9004 0.0000
# 3 10.4714 28.7511 52.3064 0.0000 -21.4912 0.0000
# 4 0.0000 0.0000 0.0000 33.8062 0.0000 -1.2764
# 5 -11.5313 -17.9004 -21.4912 0.0000 21.3047 0.0000
# 6 0.0000 0.0000 0.0000 -1.2764 0.0000 40.5898
#
#
#
# Elastic Compliance Matrix: (Units=1/GPa)
#
#
# Indices 1 2 3 4 5 6 
#
# 1 0.036140 -0.004052 0.002785 0.000000 0.018966 0.000000
# 2 -0.004052 0.011392 -0.004131 0.000000 0.003211 0.000000
# 3 0.002785 -0.004131 0.034199 0.000000 0.032535 0.000000
# 4 0.000000 0.000000 0.000000 0.029616 0.000000 0.000931
# 5 0.018966 0.003211 0.032535 0.000000 0.092721 0.000000
# 6 0.000000 0.000000 0.000000 0.000931 0.000000 0.024666
#
#
# Mechanical properties :
#
#
# Convention : Reuss Voigt Hill
#
# Bulk Modulus (GPa) = 14.09763 35.01378 24.55570
# Shear Modulus (GPa) = 18.99871 28.39708 23.69789
#
# Velocity S-wave (km/s) = 3.01994 3.69210 3.37280
# Velocity P-wave (km/s) = 4.35056 5.91467 5.19185
#
# Compressibility (1/GPa) = 0.07093393
#
# Stress axis : x y z
#
# Youngs Moduli (GPa) = 27.67011 87.77952 29.24054
#
# Poissons Ratio (x) = 0.35569 -0.08143
# Poissons Ratio (y) = 0.11212 0.12080
# Poissons Ratio (z) = -0.07705 0.36265
#
# Static dielectric constant tensor:
#      x y z
#    x 1.727960 0.000000 0.003240 
#    y 0.000000 1.775360 0.000000 
#    z 0.003240 0.000000 1.757650 
# 
# From -- ./inp_files/18632.got.cif
#   From: 2010.05.17/outbox.cif.g08.bks.cpg/sg14_10_cif.got.tgz:18632.got - 2010.06.03 17:49:19.
