data_PCOD9251582
_publ_section_title
;
Structure prediction by ZEFSAII (Michael W. Deem and Ramdas Pophale) SiO2 
 PCOD9251582
Probable space group: P 21/C
;
_chemical_formula_sum "Si O2"
_cell_formula_units_Z 28
_cell_length_a 19.102105
_cell_length_b 6.418111
_cell_length_c 16.662049
_cell_angle_alpha 90.000000
_cell_angle_beta 40.342493
_cell_angle_gamma 90.000000
_cell_volume 1322.389888
_symmetry_space_group_name_H-M "P 21/C"
_symmetry_group_IT_number 14
_symmetry_cell_setting 'monoclinic'
loop_
_space_group_symop_operation_xyz
x,y,z
-x,1/2+y,1/2-z
-x,-y,-z
x,1/2-y,1/2+z
loop_
_atom_site_type_symbol
_atom_site_label
_atom_site_fract_x
_atom_site_fract_y
_atom_site_fract_z
Si Si1 0.885724 0.908265 0.439825
Si Si2 0.308475 0.331887 0.109530
Si Si3 0.293433 0.322429 0.794814
Si Si4 0.111177 0.415936 0.702975
Si Si5 0.742540 0.200372 0.455111
Si Si6 0.399433 0.491217 0.313927
Si Si7 0.473649 0.659560 0.651413
O O1 0.829727 0.879297 0.575134
O O2 0.903561 0.695623 0.371748
O O3 0.797650 0.040582 0.467550
O O4 0.994445 0.045342 0.343783
O O5 0.299134 0.325119 0.212919
O O6 0.198190 0.228006 0.172465
O O7 0.314789 0.560225 0.062946
O O8 0.412676 0.190528 0.993687
O O9 0.377662 0.511809 0.704784
O O10 0.333364 0.205247 0.840389
O O11 0.165359 0.643742 0.655971
O O12 0.667445 0.353786 0.571598
O O13 0.496656 0.421730 0.285321
O O14 0.433221 0.609490 0.204333
#
# Coordination Sequence:
#
# PCOD9251582 Si02
#       7
#     4   4   4   4   4   4   4
#     4  11  22  41  71 100 121 169 231 267 318 382
#     4  11  27  42  61 100 141 172 207 264 345 387
#     4  12  26  42  64 100 135 170 215 268 328 395
#     4  11  22  41  72  95 127 171 219 278 317 382
#     4  11  21  43  66  94 130 173 221 267 315 387
#     4  12  22  40  69  94 124 173 227 266 307 381
#     4  12  23  41  67  96 131 172 220 267 316 387
#
# _framework density 21.173786
#
# number of rings (size 3 to 8) (size 9 to 14) (size 15 to 20)
#    0.000    0.571    7.143    2.143    0.000    2.286 
#    0.000    0.714    0.000    0.000    0.000    0.000 
#    0.000    0.000    0.000    0.000    0.000    0.000 
#
# Total GULP energy -156267.500787 kJ/mol
# GULP energy per Si atom -5580.982171 kJ/mol
# Density = 2.112559 g / cm^3
# Si number density = 21.173786 Si / 1000 Ang^3
#
#
#
# Elastic Constant Matrix: (Units=GPa)
#
#
# Indices 1 2 3 4 5 6 
#
# 1 40.4964 16.2512 46.2440 0.0000 -2.3715 0.0000
# 2 16.2512 81.2092 32.3759 0.0000 -6.1981 0.0000
# 3 46.2440 32.3759 113.1415 0.0000 -20.4322 0.0000
# 4 0.0000 0.0000 0.0000 36.1009 0.0000 -5.1644
# 5 -2.3715 -6.1981 -20.4322 0.0000 28.6124 0.0000
# 6 0.0000 0.0000 0.0000 -5.1644 0.0000 27.5487
#
#
#
# Elastic Compliance Matrix: (Units=1/GPa)
#
#
# Indices 1 2 3 4 5 6 
#
# 1 0.049933 -0.002154 -0.021962 0.000000 -0.012011 0.000000
# 2 -0.002154 0.013993 -0.002995 0.000000 0.000714 0.000000
# 3 -0.021962 -0.002995 0.020924 0.000000 0.012473 0.000000
# 4 0.000000 0.000000 0.000000 0.028463 0.000000 0.005336
# 5 -0.012011 0.000714 0.012473 0.000000 0.043016 0.000000
# 6 0.000000 0.000000 0.000000 0.005336 0.000000 0.037300
#
#
# Mechanical properties :
#
#
# Convention : Reuss Voigt Hill
#
# Bulk Modulus (GPa) = 32.64760 47.17658 39.91209
# Shear Modulus (GPa) = 19.37523 27.78415 23.57969
#
# Velocity S-wave (km/s) = 3.02827 3.62635 3.34072
# Velocity P-wave (km/s) = 5.26114 6.31371 5.81131
#
# Compressibility (1/GPa) = 0.03063012
#
# Stress axis : x y z
#
# Youngs Moduli (GPa) = 20.02673 71.46229 47.79089
#
# Poissons Ratio (x) = 0.15389 1.04958
# Poissons Ratio (y) = 0.04313 0.14314
# Poissons Ratio (z) = 0.43982 0.21404
#
# Static dielectric constant tensor:
#      x y z
#    x 1.750950 0.000000 -0.029000 
#    y 0.000000 1.818540 0.000000 
#    z -0.029000 0.000000 1.855970 
# 
# From -- ./inp_files/60921.got.cif
#   From: 2010.05.17/outbox.cif.g08.bks.cpg/sg14_31_cif.got.tgz:60921.got - 2010.06.03 17:49:19.
