data_PCOD9251839
_publ_section_title
;
Structure prediction by ZEFSAII (Michael W. Deem and Ramdas Pophale) SiO2 
 PCOD9251839
Probable space group: P 21/C
;
_chemical_formula_sum "Si O2"
_cell_formula_units_Z 24
_cell_length_a 7.049664
_cell_length_b 13.406693
_cell_length_c 16.445262
_cell_angle_alpha 90.000000
_cell_angle_beta 133.253796
_cell_angle_gamma 90.000000
_cell_volume 1132.026097
_symmetry_space_group_name_H-M "P 21/C"
_symmetry_group_IT_number 14
_symmetry_cell_setting 'monoclinic'
loop_
_space_group_symop_operation_xyz
x,y,z
-x,1/2+y,1/2-z
-x,-y,-z
x,1/2-y,1/2+z
loop_
_atom_site_type_symbol
_atom_site_label
_atom_site_fract_x
_atom_site_fract_y
_atom_site_fract_z
Si Si1 0.722610 0.084744 0.566618
Si Si2 0.291507 0.142233 0.719353
Si Si3 0.775017 0.055118 0.767026
Si Si4 0.167975 0.135457 0.130045
Si Si5 0.339226 0.418384 0.506677
Si Si6 0.589075 0.293161 0.463306
O O1 0.749194 0.102339 0.670952
O O2 0.636531 0.175540 0.483135
O O3 0.031094 0.074944 0.635408
O O4 0.500000 0.000000 0.500000
O O5 0.529508 0.090180 0.745648
O O6 0.254523 0.251363 0.668770
O O7 0.378366 0.168195 0.836946
O O8 0.046010 0.085719 0.887776
O O9 0.787384 0.934374 0.778277
O O10 0.307998 0.081959 0.094673
O O11 0.857976 0.148240 0.024294
O O12 0.500000 0.500000 0.500000
O O13 0.491217 0.319784 0.524625
#
# Coordination Sequence:
#
# PCOD9251839 Si02
#       6
#     4   4   4   4   4   4
#     4  11  26  45  65  96 135 174 219 271 335 394
#     4  11  24  44  67  95 134 176 220 272 334 403
#     4  12  23  42  66  99 130 173 224 270 335 396
#     4  11  24  40  67  97 133 175 223 277 337 391
#     4  12  22  39  68 100 129 170 225 283 330 389
#     4  11  22  44  67  95 134 174 223 279 327 400
#
# _framework density 21.200925000000002
#
# number of rings (size 3 to 8) (size 9 to 14) (size 15 to 20)
#    0.000    0.667    5.000    3.500    0.000    0.667 
#    3.000    0.000    0.000    0.000    0.000    0.000 
#    0.000    0.000    0.000    0.000    0.000    0.000 
#
# Total GULP energy -133791.141484 kJ/mol
# GULP energy per Si atom -5574.630895 kJ/mol
# Density = 2.115267 g / cm^3
# Si number density = 21.200925 Si / 1000 Ang^3
#
#
#
# Elastic Constant Matrix: (Units=GPa)
#
#
# Indices 1 2 3 4 5 6 
#
# 1 141.7409 32.1120 24.3777 0.0000 22.8411 0.0000
# 2 32.1120 57.4498 5.2644 0.0000 24.4333 0.0000
# 3 24.3777 5.2644 61.6856 0.0000 13.9376 0.0000
# 4 0.0000 0.0000 0.0000 30.1085 0.0000 3.8488
# 5 22.8411 24.4333 13.9376 0.0000 38.0776 0.0000
# 6 0.0000 0.0000 0.0000 3.8488 0.0000 37.2563
#
#
#
# Elastic Compliance Matrix: (Units=1/GPa)
#
#
# Indices 1 2 3 4 5 6 
#
# 1 0.008675 -0.003864 -0.002707 0.000000 -0.001734 0.000000
# 2 -0.003864 0.025798 0.002771 0.000000 -0.015251 0.000000
# 3 -0.002707 0.002771 0.018619 0.000000 -0.006970 0.000000
# 4 0.000000 0.000000 0.000000 0.033658 0.000000 -0.003477
# 5 -0.001734 -0.015251 -0.006970 0.000000 0.039639 0.000000
# 6 0.000000 0.000000 0.000000 -0.003477 0.000000 0.027200
#
#
# Mechanical properties :
#
#
# Convention : Reuss Voigt Hill
#
# Bulk Modulus (GPa) = 21.98103 42.70937 32.34520
# Shear Modulus (GPa) = 28.35207 34.36331 31.35769
#
# Velocity S-wave (km/s) = 3.66088 4.03033 3.85004
# Velocity P-wave (km/s) = 5.31600 6.46892 5.92059
#
# Compressibility (1/GPa) = 0.04549378
#
# Stress axis : x y z
#
# Youngs Moduli (GPa) = 115.26784 38.76228 53.70781
#
# Poissons Ratio (x) = 0.14977 0.14538
# Poissons Ratio (y) = 0.44536 -0.14883
# Poissons Ratio (z) = 0.31202 -0.10741
#
# Static dielectric constant tensor:
#      x y z
#    x 1.754480 0.000000 0.013450 
#    y 0.000000 1.854030 0.000000 
#    z 0.013450 0.000000 1.789790 
# 
# From -- ./inp_files/37408.got.cif
#   From: 2010.05.17/outbox.cif.g08.bks.cpg/sg14_19_cif.got.tgz:37408.got - 2010.06.03 17:49:19.
