data_PCOD9251085
_publ_section_title
;
Structure prediction by ZEFSAII (Michael W. Deem and Ramdas Pophale) SiO2 
 PCOD9251085
Probable space group: P 21/C
;
_chemical_formula_sum "Si O2"
_cell_formula_units_Z 28
_cell_length_a 12.502003
_cell_length_b 5.402018
_cell_length_c 22.711543
_cell_angle_alpha 90.000000
_cell_angle_beta 134.461400
_cell_angle_gamma 90.000000
_cell_volume 1094.741665
_symmetry_space_group_name_H-M "P 21/C"
_symmetry_group_IT_number 14
_symmetry_cell_setting 'monoclinic'
loop_
_space_group_symop_operation_xyz
x,y,z
-x,1/2+y,1/2-z
-x,-y,-z
x,1/2-y,1/2+z
loop_
_atom_site_type_symbol
_atom_site_label
_atom_site_fract_x
_atom_site_fract_y
_atom_site_fract_z
Si Si1 0.388871 0.154422 0.861625
Si Si2 0.365496 0.591065 0.988580
Si Si3 0.846610 0.020318 0.770209
Si Si4 0.852897 0.145853 0.176654
Si Si5 0.524206 0.106559 0.795483
Si Si6 0.230230 0.556029 0.052417
Si Si7 0.071151 0.185326 0.074235
O O1 0.553604 0.167225 0.952831
O O2 0.312580 0.413595 0.812232
O O3 0.416118 0.032137 0.808366
O O4 0.275233 0.060574 0.867718
O O5 0.321513 0.449810 0.031667
O O6 0.500000 0.500000 0.000000
O O7 0.224473 0.647165 0.893643
O O8 0.870394 0.962794 0.847055
O O9 0.985733 0.898976 0.788154
O O10 0.862701 0.292561 0.750012
O O11 0.468085 0.359343 0.741005
O O12 0.678575 0.215949 0.883043
O O13 0.189600 0.360957 0.087191
O O14 0.072000 0.645133 0.964548
O O15 0.000000 0.000000 0.000000
#
# Coordination Sequence:
#
# PCOD9251085 Si02
#       7
#     4   4   4   4   4   4   4
#     4  11  26  44  71 107 143 195 248 310 384 457
#     4  11  23  47  75 106 149 194 248 313 388 458
#     4  12  25  44  71 107 142 197 248 317 381 462
#     4  12  25  45  72 106 150 190 250 312 385 465
#     4  11  27  47  75 108 151 199 259 318 385 462
#     4  10  25  47  70 108 146 198 252 319 383 463
#     4  11  26  45  73 104 147 196 254 313 388 462
#
# _framework density 25.576812
#
# number of rings (size 3 to 8) (size 9 to 14) (size 15 to 20)
#    0.000    0.857    4.286    1.286    6.000    4.571 
#    2.571    0.000    0.000    0.000    0.000    0.000 
#    0.000    0.000    0.000    0.000    0.000    0.000 
#
# Total GULP energy -156384.723994 kJ/mol
# GULP energy per Si atom -5585.168714 kJ/mol
# Density = 2.551860 g / cm^3
# Si number density = 25.576812 Si / 1000 Ang^3
#
#
#
# Elastic Constant Matrix: (Units=GPa)
#
#
# Indices 1 2 3 4 5 6 
#
# 1 160.9986 20.1943 41.7954 0.0000 -13.7827 0.0000
# 2 20.1943 46.4096 27.7366 0.0000 -5.6623 0.0000
# 3 41.7954 27.7366 121.5284 0.0000 -11.7097 0.0000
# 4 0.0000 0.0000 0.0000 29.8533 0.0000 -1.4034
# 5 -13.7827 -5.6623 -11.7097 0.0000 49.0636 0.0000
# 6 0.0000 0.0000 0.0000 -1.4034 0.0000 43.6716
#
#
#
# Elastic Compliance Matrix: (Units=1/GPa)
#
#
# Indices 1 2 3 4 5 6 
#
# 1 0.007037 -0.001772 -0.001888 0.000000 0.001322 0.000000
# 2 -0.001772 0.025514 -0.005095 0.000000 0.001231 0.000000
# 3 -0.001888 -0.005095 0.010167 0.000000 0.001308 0.000000
# 4 0.000000 0.000000 0.000000 0.033548 0.000000 0.001078
# 5 0.001322 0.001231 0.001308 0.000000 0.021207 0.000000
# 6 0.000000 0.000000 0.000000 0.001078 0.000000 0.022933
#
#
# Mechanical properties :
#
#
# Convention : Reuss Voigt Hill
#
# Bulk Modulus (GPa) = 39.67247 56.48767 48.08007
# Shear Modulus (GPa) = 34.17216 40.46505 37.31861
#
# Velocity S-wave (km/s) = 3.65918 3.98188 3.82393
# Velocity P-wave (km/s) = 5.77907 6.57829 6.19159
#
# Compressibility (1/GPa) = 0.02520640
#
# Stress axis : x y z
#
# Youngs Moduli (GPa) = 142.10895 39.19488 98.35956
#
# Poissons Ratio (x) = 0.06946 0.18573
# Poissons Ratio (y) = 0.25185 0.50113
# Poissons Ratio (z) = 0.26834 0.19969
#
# Static dielectric constant tensor:
#      x y z
#    x 2.058010 0.000000 0.036740 
#    y 0.000000 2.151130 0.000000 
#    z 0.036740 0.000000 2.057580 
# 
# From -- ./inp_files/66552.got.cif
#   From: 2010.05.17/outbox.cif.g08.bks.cpg/sg14_34_cif.got.tgz:66552.got - 2010.06.03 17:49:19.
