data_PCOD9251742
_publ_section_title
;
Structure prediction by ZEFSAII (Michael W. Deem and Ramdas Pophale) SiO2 
 PCOD9251742
Probable space group: P 21/C
;
_chemical_formula_sum "Si O2"
_cell_formula_units_Z 32
_cell_length_a 11.197123
_cell_length_b 8.265826
_cell_length_c 22.983112
_cell_angle_alpha 90.000000
_cell_angle_beta 47.122612
_cell_angle_gamma 90.000000
_cell_volume 1558.812257
_symmetry_space_group_name_H-M "P 21/C"
_symmetry_group_IT_number 14
_symmetry_cell_setting 'monoclinic'
loop_
_space_group_symop_operation_xyz
x,y,z
-x,1/2+y,1/2-z
-x,-y,-z
x,1/2-y,1/2+z
loop_
_atom_site_type_symbol
_atom_site_label
_atom_site_fract_x
_atom_site_fract_y
_atom_site_fract_z
Si Si1 0.305949 0.266352 0.277800
Si Si2 0.799884 0.550279 0.425836
Si Si3 0.994667 0.893351 0.057853
Si Si4 0.500455 0.281034 0.416591
Si Si5 0.525400 0.565030 0.187578
Si Si6 0.166312 0.575246 0.974846
Si Si7 0.670592 0.867452 0.851903
Si Si8 0.634864 0.193721 0.490741
O O1 0.161863 0.291429 0.371609
O O2 0.379614 0.440689 0.240566
O O3 0.443058 0.157584 0.262911
O O4 0.256786 0.183095 0.233766
O O5 0.679528 0.660607 0.504132
O O6 0.797938 0.625455 0.362692
O O7 0.723951 0.368443 0.451078
O O8 0.967955 0.515037 0.401531
O O9 0.129505 0.762538 0.995414
O O10 0.000000 0.000000 0.000000
O O11 0.500308 0.190084 0.356025
O O12 0.595377 0.451534 0.376928
O O13 0.572052 0.168214 0.445115
O O14 0.689495 0.468760 0.116360
O O15 0.253311 0.560720 0.012028
O O16 0.000000 0.500000 0.000000
O O17 0.523555 0.744088 0.918072
#
# Coordination Sequence:
#
# PCOD9251742 Si02
#       8
#     4   4   4   4   4   4   4   4
#     4  12  25  40  60  90 128 165 208 266 322 380
#     4   8  17  35  65  87 118 166 204 250 312 382
#     4  11  24  42  64  86 124 170 216 252 316 387
#     4   9  18  37  65  96 117 160 210 254 312 377
#     4  12  25  39  62  93 126 158 208 264 317 370
#     4  11  22  41  59  90 124 158 205 259 310 364
#     4   9  17  38  63  89 123 161 207 256 320 373
#     4   8  16  35  65  90 120 158 203 256 305 376
#
# _framework density 20.528449999999999
#
# number of rings (size 3 to 8) (size 9 to 14) (size 15 to 20)
#    0.000    2.000    2.500    3.000    1.750    0.500 
#    0.000    3.750    0.000    0.000    0.000    0.000 
#    0.000    0.000    0.000    0.000    0.000    0.000 
#
# Total GULP energy -178139.078847 kJ/mol
# GULP energy per Si atom -5566.846214 kJ/mol
# Density = 2.048173 g / cm^3
# Si number density = 20.528450 Si / 1000 Ang^3
#
#
#
# Elastic Constant Matrix: (Units=GPa)
#
#
# Indices 1 2 3 4 5 6 
#
# 1 85.3462 32.8432 10.0515 0.0000 18.9274 0.0000
# 2 32.8432 62.9704 22.7170 0.0000 18.3537 0.0000
# 3 10.0515 22.7170 55.8515 0.0000 18.1169 0.0000
# 4 0.0000 0.0000 0.0000 24.5472 0.0000 12.7289
# 5 18.9274 18.3537 18.1169 0.0000 26.6523 0.0000
# 6 0.0000 0.0000 0.0000 12.7289 0.0000 43.3312
#
#
#
# Elastic Compliance Matrix: (Units=1/GPa)
#
#
# Indices 1 2 3 4 5 6 
#
# 1 0.015879 -0.006783 0.002622 0.000000 -0.008388 0.000000
# 2 -0.006783 0.023765 -0.006029 0.000000 -0.007450 0.000000
# 3 0.002622 -0.006029 0.024557 0.000000 -0.014403 0.000000
# 4 0.000000 0.000000 0.000000 0.048059 0.000000 -0.014118
# 5 -0.008388 -0.007450 -0.014403 0.000000 0.058398 0.000000
# 6 0.000000 0.000000 0.000000 -0.014118 0.000000 0.027225
#
#
# Mechanical properties :
#
#
# Convention : Reuss Voigt Hill
#
# Bulk Modulus (GPa) = 22.82012 37.26571 30.04291
# Shear Modulus (GPa) = 21.47144 28.14323 24.80733
#
# Velocity S-wave (km/s) = 3.23760 3.70663 3.48003
# Velocity P-wave (km/s) = 5.01164 6.04247 5.55104
#
# Compressibility (1/GPa) = 0.04382098
#
# Stress axis : x y z
#
# Youngs Moduli (GPa) = 62.97800 42.07948 40.72191
#
# Poissons Ratio (x) = 0.28542 -0.10677
# Poissons Ratio (y) = 0.42717 0.24550
# Poissons Ratio (z) = -0.16513 0.25368
#
# Static dielectric constant tensor:
#      x y z
#    x 1.933240 0.000000 0.010480 
#    y 0.000000 1.725550 0.000000 
#    z 0.010480 0.000000 1.689690 
# 
# From -- ./inp_files/67026.got.cif
#   From: 2010.05.17/outbox.cif.g08.bks.cpg/sg14_34_cif.got.tgz:67026.got - 2010.06.03 17:49:19.
