data_PCOD9251392
_publ_section_title
;
Structure prediction by ZEFSAII (Michael W. Deem and Ramdas Pophale) SiO2 
 PCOD9251392
Probable space group: P 21/C
;
_chemical_formula_sum "Si O2"
_cell_formula_units_Z 32
_cell_length_a 13.989342
_cell_length_b 16.433245
_cell_length_c 11.953810
_cell_angle_alpha 90.000000
_cell_angle_beta 147.990341
_cell_angle_gamma 90.000000
_cell_volume 1456.645324
_symmetry_space_group_name_H-M "P 21/C"
_symmetry_group_IT_number 14
_symmetry_cell_setting 'monoclinic'
loop_
_space_group_symop_operation_xyz
x,y,z
-x,1/2+y,1/2-z
-x,-y,-z
x,1/2-y,1/2+z
loop_
_atom_site_type_symbol
_atom_site_label
_atom_site_fract_x
_atom_site_fract_y
_atom_site_fract_z
Si Si1 0.575008 0.876489 0.899991
Si Si2 0.086498 0.004052 0.298153
Si Si3 0.461508 0.782184 0.178428
Si Si4 0.750329 0.837584 0.288273
Si Si5 0.430332 0.413771 0.032408
Si Si6 0.245593 0.533030 0.175905
Si Si7 0.262824 0.042158 0.151633
Si Si8 0.899114 0.363960 0.760203
O O1 0.463430 0.809719 0.721519
O O2 0.439611 0.930269 0.839348
O O3 0.677375 0.931191 0.912520
O O4 0.709951 0.830605 0.117736
O O5 0.119860 0.950451 0.442660
O O6 0.987558 0.085031 0.246887
O O7 0.951373 0.967705 0.072355
O O8 0.282907 0.027541 0.446202
O O9 0.596491 0.796581 0.209321
O O10 0.532891 0.838578 0.350594
O O11 0.266604 0.812481 0.948049
O O12 0.945287 0.811501 0.525877
O O13 0.747092 0.935550 0.307577
O O14 0.336202 0.396993 0.819735
O O15 0.620427 0.460870 0.206673
O O16 0.171684 0.573107 0.215251
#
# Coordination Sequence:
#
# PCOD9251392 Si02
#       8
#     4   4   4   4   4   4   4   4
#     4  12  25  42  69  96 135 175 213 272 330 392
#     4  11  20  40  67 102 122 163 226 280 321 375
#     4  12  25  43  62  93 142 172 210 259 342 401
#     4  11  23  45  72  96 127 172 226 278 326 380
#     4  11  23  41  65  92 131 174 217 259 321 392
#     4  11  21  40  72 102 125 162 233 283 319 372
#     4  11  23  41  67  93 127 174 220 267 311 381
#     4  11  22  40  70  98 127 167 215 281 329 380
#
# _framework density 21.968285000000002
#
# number of rings (size 3 to 8) (size 9 to 14) (size 15 to 20)
#    0.000    0.750    6.250    3.750    1.750    0.000 
#    4.500    0.000    0.000    0.000    0.000    0.000 
#    0.000    0.000    0.000    0.000    0.000    0.000 
#
# Total GULP energy -178984.046900 kJ/mol
# GULP energy per Si atom -5593.251466 kJ/mol
# Density = 2.191828 g / cm^3
# Si number density = 21.968285 Si / 1000 Ang^3
#
#
#
# Elastic Constant Matrix: (Units=GPa)
#
#
# Indices 1 2 3 4 5 6 
#
# 1 53.4320 -12.0999 3.4502 0.0000 -7.0254 0.0000
# 2 -12.0999 30.0663 7.3007 0.0000 4.7355 0.0000
# 3 3.4502 7.3007 155.1787 0.0000 -2.3499 0.0000
# 4 0.0000 0.0000 0.0000 26.1142 0.0000 -9.1900
# 5 -7.0254 4.7355 -2.3499 0.0000 35.3697 0.0000
# 6 0.0000 0.0000 0.0000 -9.1900 0.0000 4.9294
#
#
#
# Elastic Compliance Matrix: (Units=1/GPa)
#
#
# Indices 1 2 3 4 5 6 
#
# 1 0.021017 0.008177 -0.000806 0.000000 0.003026 0.000000
# 2 0.008177 0.037595 -0.002004 0.000000 -0.003542 0.000000
# 3 -0.000806 -0.002004 0.006565 0.000000 0.000544 0.000000
# 4 0.000000 0.000000 0.000000 0.111343 0.000000 0.207578
# 5 0.003026 -0.003542 0.000544 0.000000 0.029384 0.000000
# 6 0.000000 0.000000 0.000000 0.207578 0.000000 0.589855
#
#
# Mechanical properties :
#
#
# Convention : Reuss Voigt Hill
#
# Bulk Modulus (GPa) = 13.17334 26.21988 19.69661
# Shear Modulus (GPa) = 6.17033 29.28441 17.72737
#
# Velocity S-wave (km/s) = 1.67775 3.65503 2.84377
# Velocity P-wave (km/s) = 3.12453 5.45652 4.44614
#
# Compressibility (1/GPa) = 0.07591091
#
# Stress axis : x y z
#
# Youngs Moduli (GPa) = 47.58029 26.59904 152.33123
#
# Poissons Ratio (x) = -0.21751 0.12281
# Poissons Ratio (y) = -0.38908 0.30530
# Poissons Ratio (z) = 0.03836 0.05331
#
# Static dielectric constant tensor:
#      x y z
#    x 1.803000 0.000000 -0.023980 
#    y 0.000000 1.781870 0.000000 
#    z -0.023980 0.000000 1.860270 
# 
# From -- ./inp_files/33071.got.cif
#   From: 2010.05.17/outbox.cif.g08.bks.cpg/sg14_17_cif.got.tgz:33071.got - 2010.06.03 17:49:19.
