data_PCOD9251893
_publ_section_title
;
Structure prediction by ZEFSAII (Michael W. Deem and Ramdas Pophale) SiO2 
 PCOD9251893
Probable space group: P 21/C
;
_chemical_formula_sum "Si O2"
_cell_formula_units_Z 20
_cell_length_a 17.201529
_cell_length_b 7.390010
_cell_length_c 23.582707
_cell_angle_alpha 90.000000
_cell_angle_beta 164.214657
_cell_angle_gamma 90.000000
_cell_volume 815.509576
_symmetry_space_group_name_H-M "P 21/C"
_symmetry_group_IT_number 14
_symmetry_cell_setting 'monoclinic'
loop_
_space_group_symop_operation_xyz
x,y,z
-x,1/2+y,1/2-z
-x,-y,-z
x,1/2-y,1/2+z
loop_
_atom_site_type_symbol
_atom_site_label
_atom_site_fract_x
_atom_site_fract_y
_atom_site_fract_z
Si Si1 0.243687 0.208948 0.467416
Si Si2 0.729042 0.524335 0.609494
Si Si3 0.365153 0.389755 0.178130
Si Si4 0.290326 0.401473 0.722803
Si Si5 0.951152 0.253540 0.078164
O O1 0.352537 0.378999 0.506888
O O2 0.262334 0.210450 0.548594
O O3 0.453271 0.043228 0.597930
O O4 0.913569 0.153791 0.225407
O O5 0.500000 0.500000 0.500000
O O6 0.951421 0.665712 0.794136
O O7 0.326118 0.263340 0.204595
O O8 0.707218 0.396974 0.411104
O O9 0.194071 0.577991 0.057790
O O10 0.000000 0.500000 0.500000
O O11 0.224792 0.320746 0.738068
#
# Coordination Sequence:
#
# PCOD9251893 Si02
#       5
#     4   4   4   4   4
#     4  11  27  47  72 105 148 189 247 300 355 448
#     4  11  28  50  69 106 147 200 240 294 377 428
#     4  11  22  46  69 106 138 182 243 297 353 423
#     4  12  24  43  70 109 134 185 238 295 366 415
#     4  11  24  43  74 102 145 186 239 298 362 432
#
# _framework density 24.524543000000001
#
# number of rings (size 3 to 8) (size 9 to 14) (size 15 to 20)
#    0.000    0.800    6.000    0.600    8.400    5.600 
#    0.000    0.000    0.000    0.000    0.000    0.000 
#    0.000    0.000    0.000    0.000    0.000    0.000 
#
# Total GULP energy -111904.767289 kJ/mol
# GULP energy per Si atom -5595.238364 kJ/mol
# Density = 2.446872 g / cm^3
# Si number density = 24.524543 Si / 1000 Ang^3
#
#
#
# Elastic Constant Matrix: (Units=GPa)
#
#
# Indices 1 2 3 4 5 6 
#
# 1 76.6852 12.1965 8.6656 0.0000 33.2067 0.0000
# 2 12.1965 84.6375 17.1119 0.0000 20.0219 0.0000
# 3 8.6656 17.1119 71.5124 0.0000 26.7538 0.0000
# 4 0.0000 0.0000 0.0000 48.4906 0.0000 -0.7405
# 5 33.2067 20.0219 26.7538 0.0000 39.8959 0.0000
# 6 0.0000 0.0000 0.0000 -0.7405 0.0000 49.9167
#
#
#
# Elastic Compliance Matrix: (Units=1/GPa)
#
#
# Indices 1 2 3 4 5 6 
#
# 1 0.022015 0.001046 0.005518 0.000000 -0.022549 0.000000
# 2 0.001046 0.013502 -0.000663 0.000000 -0.007202 0.000000
# 3 0.005518 -0.000663 0.020113 0.000000 -0.017748 0.000000
# 4 0.000000 0.000000 0.000000 0.020627 0.000000 0.000306
# 5 -0.022549 -0.007202 -0.017748 0.000000 0.059349 0.000000
# 6 0.000000 0.000000 0.000000 0.000306 0.000000 0.020038
#
#
# Mechanical properties :
#
#
# Convention : Reuss Voigt Hill
#
# Bulk Modulus (GPa) = 14.82985 34.30925 24.56955
# Shear Modulus (GPa) = 30.06255 40.65137 35.35696
#
# Velocity S-wave (km/s) = 3.50496 4.07575 3.80109
# Velocity P-wave (km/s) = 4.73706 6.01408 5.41336
#
# Compressibility (1/GPa) = 0.06743155
#
# Stress axis : x y z
#
# Youngs Moduli (GPa) = 45.42440 74.06221 49.71842
#
# Poissons Ratio (x) = -0.07748 -0.27434
# Poissons Ratio (y) = -0.04752 0.03297
# Poissons Ratio (z) = -0.25064 0.04912
#
# Static dielectric constant tensor:
#      x y z
#    x 1.968880 0.000000 -0.005260 
#    y 0.000000 1.980770 0.000000 
#    z -0.005260 0.000000 1.983320 
# 
# From -- ./inp_files/23124.got.cif
#   From: 2010.05.17/outbox.cif.g08.bks.cpg/sg14_12_cif.got.tgz:23124.got - 2010.06.03 17:49:19.
