data_PCOD9251234
_publ_section_title
;
Structure prediction by ZEFSAII (Michael W. Deem and Ramdas Pophale) SiO2 
 PCOD9251234
Probable space group: P 21/C
;
_chemical_formula_sum "Si O2"
_cell_formula_units_Z 16
_cell_length_a 10.624064
_cell_length_b 8.692345
_cell_length_c 8.405811
_cell_angle_alpha 90.000000
_cell_angle_beta 57.697947
_cell_angle_gamma 90.000000
_cell_volume 656.128158
_symmetry_space_group_name_H-M "P 21/C"
_symmetry_group_IT_number 14
_symmetry_cell_setting 'monoclinic'
loop_
_space_group_symop_operation_xyz
x,y,z
-x,1/2+y,1/2-z
-x,-y,-z
x,1/2-y,1/2+z
loop_
_atom_site_type_symbol
_atom_site_label
_atom_site_fract_x
_atom_site_fract_y
_atom_site_fract_z
Si Si1 0.660193 0.113217 0.342904
Si Si2 0.517070 0.630899 0.358180
Si Si3 0.806736 0.882340 0.465683
Si Si4 0.023783 0.891608 0.829317
O O1 0.586727 0.095172 0.222912
O O2 0.552563 0.213028 0.525634
O O3 0.821800 0.196616 0.232807
O O4 0.705777 0.950839 0.390300
O O5 0.500000 0.500000 0.500000
O O6 0.688743 0.630084 0.186956
O O7 0.887311 0.720445 0.393888
O O8 0.937949 0.009441 0.354730
O O9 0.000000 0.000000 0.000000
#
# Coordination Sequence:
#
# PCOD9251234 Si02
#       4
#     4   4   4   4
#     4  10  27  50  79 123 160 216 283 334 421 491
#     4  12  26  50  85 119 166 217 281 349 415 493
#     4  10  26  51  84 116 170 217 272 342 419 497
#     4  10  26  50  80 118 170 212 275 334 420 495
#
# _framework density 24.385477999999999
#
# number of rings (size 3 to 8) (size 9 to 14) (size 15 to 20)
#    1.500    0.000    0.000    2.250    7.000    2.000 
#    0.000    8.750    0.000    0.000    0.000    0.000 
#    0.000    0.000    0.000    0.000    0.000    0.000 
#
# Total GULP energy -89364.454727 kJ/mol
# GULP energy per Si atom -5585.278420 kJ/mol
# Density = 2.432998 g / cm^3
# Si number density = 24.385478 Si / 1000 Ang^3
#
#
#
# Elastic Constant Matrix: (Units=GPa)
#
#
# Indices 1 2 3 4 5 6 
#
# 1 119.1263 105.2097 102.8434 0.0000 -4.5048 0.0000
# 2 105.2097 138.5592 96.6365 0.0000 -12.4088 0.0000
# 3 102.8434 96.6365 194.5562 0.0000 -29.1347 0.0000
# 4 0.0000 0.0000 0.0000 52.0499 0.0000 -18.9917
# 5 -4.5048 -12.4088 -29.1347 0.0000 50.4723 0.0000
# 6 0.0000 0.0000 0.0000 -18.9917 0.0000 60.4147
#
#
#
# Elastic Compliance Matrix: (Units=1/GPa)
#
#
# Indices 1 2 3 4 5 6 
#
# 1 0.032912 -0.019514 -0.008739 0.000000 -0.006905 0.000000
# 2 -0.019514 0.022624 -0.000383 0.000000 0.003599 0.000000
# 3 -0.008739 -0.000383 0.010748 0.000000 0.005330 0.000000
# 4 0.000000 0.000000 0.000000 0.021701 0.000000 0.006822
# 5 -0.006905 0.003599 0.005330 0.000000 0.023158 0.000000
# 6 0.000000 0.000000 0.000000 0.006822 0.000000 0.018697
#
#
# Mechanical properties :
#
#
# Convention : Reuss Voigt Hill
#
# Bulk Modulus (GPa) = 110.96572 117.95787 114.46180
# Shear Modulus (GPa) = 26.29968 42.42418 34.36193
#
# Velocity S-wave (km/s) = 3.28761 4.17553 3.75789
# Velocity P-wave (km/s) = 7.74692 8.46900 8.11600
#
# Compressibility (1/GPa) = 0.00901179
#
# Stress axis : x y z
#
# Youngs Moduli (GPa) = 30.38388 44.20075 93.04344
#
# Poissons Ratio (x) = 0.86254 0.81308
# Poissons Ratio (y) = 0.59292 0.03564
# Poissons Ratio (z) = 0.26552 0.01693
#
# Static dielectric constant tensor:
#      x y z
#    x 1.965850 0.000000 -0.057840 
#    y 0.000000 1.972870 0.000000 
#    z -0.057840 0.000000 1.970100 
# 
# From -- ./inp_files/14917.got.cif
#   From: 2010.05.17/outbox.cif.g08.bks.cpg/sg14_8_cif.got.tgz:14917.got - 2010.06.03 17:49:19.
