data_PCOD9251957
_publ_section_title
;
Structure prediction by ZEFSAII (Michael W. Deem and Ramdas Pophale) SiO2 
 PCOD9251957
Probable space group: P 21/C
;
_chemical_formula_sum "Si O2"
_cell_formula_units_Z 20
_cell_length_a 32.848973
_cell_length_b 5.156516
_cell_length_c 18.846804
_cell_angle_alpha 90.000000
_cell_angle_beta 165.764710
_cell_angle_gamma 90.000000
_cell_volume 785.022784
_symmetry_space_group_name_H-M "P 21/C"
_symmetry_group_IT_number 14
_symmetry_cell_setting 'monoclinic'
loop_
_space_group_symop_operation_xyz
x,y,z
-x,1/2+y,1/2-z
-x,-y,-z
x,1/2-y,1/2+z
loop_
_atom_site_type_symbol
_atom_site_label
_atom_site_fract_x
_atom_site_fract_y
_atom_site_fract_z
Si Si1 0.356233 0.647985 0.057013
Si Si2 0.259110 0.044076 0.782366
Si Si3 0.684714 0.289915 0.361001
Si Si4 0.710939 0.704661 0.826561
Si Si5 0.098825 0.249179 0.138679
O O1 0.286125 0.370013 0.963664
O O2 0.553808 0.646964 0.386850
O O3 0.311105 0.831800 0.047679
O O4 0.275148 0.760407 0.847785
O O5 0.235208 0.096120 0.658960
O O6 0.117646 0.189583 0.586931
O O7 0.761815 0.519810 0.444921
O O8 0.759693 0.017751 0.463789
O O9 0.488606 0.247298 0.014384
O O10 0.000000 0.500000 0.000000
O O11 0.000000 0.000000 0.000000
#
# Coordination Sequence:
#
# PCOD9251957 Si02
#       5
#     4   4   4   4   4
#     4  11  23  39  70 101 135 174 235 288 332 404
#     4  11  23  39  70 101 132 170 236 288 333 395
#     4   9  20  35  57  92 133 170 208 269 342 390
#     4   9  20  35  57  92 133 166 208 274 338 391
#     4  12  26  42  62  98 137 176 219 283 351 405
#
# _framework density 25.476967999999999
#
# number of rings (size 3 to 8) (size 9 to 14) (size 15 to 20)
#    0.000    1.600    4.000    0.000    5.600    1.600 
#    0.000    0.000    0.000    4.800    0.000    0.000 
#    0.000    0.000    0.000    0.000    0.000    0.000 
#
# Total GULP energy -111483.464549 kJ/mol
# GULP energy per Si atom -5574.173227 kJ/mol
# Density = 2.541898 g / cm^3
# Si number density = 25.476968 Si / 1000 Ang^3
#
#
#
# Elastic Constant Matrix: (Units=GPa)
#
#
# Indices 1 2 3 4 5 6 
#
# 1 200.4116 95.7430 33.5926 0.0000 41.0195 0.0000
# 2 95.7430 204.6266 32.7951 0.0000 24.0012 0.0000
# 3 33.5926 32.7951 105.4210 0.0000 17.2765 0.0000
# 4 0.0000 0.0000 0.0000 32.7754 0.0000 10.7913
# 5 41.0195 24.0012 17.2765 0.0000 30.1202 0.0000
# 6 0.0000 0.0000 0.0000 10.7913 0.0000 39.7606
#
#
#
# Elastic Compliance Matrix: (Units=1/GPa)
#
#
# Indices 1 2 3 4 5 6 
#
# 1 0.008132 -0.002732 -0.000313 0.000000 -0.008718 0.000000
# 2 -0.002732 0.006421 -0.000991 0.000000 -0.000827 0.000000
# 3 -0.000313 -0.000991 0.010700 0.000000 -0.004922 0.000000
# 4 0.000000 0.000000 0.000000 0.033505 0.000000 -0.009093
# 5 -0.008718 -0.000827 -0.004922 0.000000 0.048555 0.000000
# 6 0.000000 0.000000 0.000000 -0.009093 0.000000 0.027619
#
#
# Mechanical properties :
#
#
# Convention : Reuss Voigt Hill
#
# Bulk Modulus (GPa) = 58.20325 92.74674 75.47500
# Shear Modulus (GPa) = 33.61777 43.75314 38.68545
#
# Velocity S-wave (km/s) = 3.63648 4.14860 3.90095
# Velocity P-wave (km/s) = 6.36608 7.70915 7.06959
#
# Compressibility (1/GPa) = 0.01718117
#
# Stress axis : x y z
#
# Youngs Moduli (GPa) = 122.97583 155.73400 93.45457
#
# Poissons Ratio (x) = 0.42548 0.02921
# Poissons Ratio (y) = 0.33598 0.09265
# Poissons Ratio (z) = 0.03844 0.15439
#
# Static dielectric constant tensor:
#      x y z
#    x 2.000010 0.000000 -0.042270 
#    y 0.000000 2.163050 0.000000 
#    z -0.042270 0.000000 2.207280 
# 
# From -- ./inp_files/62185.got.cif
#   From: 2010.05.17/outbox.cif.g08.bks.cpg/sg14_32_cif.got.tgz:62185.got - 2010.06.03 17:49:19.
