data_PCOD9251471
_publ_section_title
;
Structure prediction by ZEFSAII (Michael W. Deem and Ramdas Pophale) SiO2 
 PCOD9251471
Probable space group: P 21/C
;
_chemical_formula_sum "Si O2"
_cell_formula_units_Z 32
_cell_length_a 11.115135
_cell_length_b 8.596548
_cell_length_c 18.235861
_cell_angle_alpha 90.000000
_cell_angle_beta 53.655196
_cell_angle_gamma 90.000000
_cell_volume 1403.498111
_symmetry_space_group_name_H-M "P 21/C"
_symmetry_group_IT_number 14
_symmetry_cell_setting 'monoclinic'
loop_
_space_group_symop_operation_xyz
x,y,z
-x,1/2+y,1/2-z
-x,-y,-z
x,1/2-y,1/2+z
loop_
_atom_site_type_symbol
_atom_site_label
_atom_site_fract_x
_atom_site_fract_y
_atom_site_fract_z
Si Si1 0.128634 0.804384 0.947890
Si Si2 0.380440 0.172403 0.516844
Si Si3 0.922561 0.817042 0.878899
Si Si4 0.682044 0.117692 0.368851
Si Si5 0.683311 0.510843 0.113074
Si Si6 0.653753 0.020306 0.223241
Si Si7 0.994780 0.025425 0.289982
Si Si8 0.135566 0.258946 0.854945
O O1 0.212318 0.639296 0.920070
O O2 0.264347 0.922263 0.880298
O O3 0.014826 0.822544 0.920385
O O4 0.018862 0.811190 0.057245
O O5 0.255876 0.302173 0.552526
O O6 0.551806 0.222514 0.449137
O O7 0.361141 0.061827 0.594413
O O8 0.353869 0.057868 0.456734
O O9 0.967606 0.650205 0.825435
O O10 0.959601 0.956671 0.810676
O O11 0.683535 0.138191 0.280632
O O12 0.842286 0.126125 0.347207
O O13 0.524400 0.494481 0.212804
O O14 0.781204 0.649975 0.110116
O O15 0.747737 0.869821 0.211885
O O16 0.106146 0.114460 0.303032
#
# Coordination Sequence:
#
# PCOD9251471 Si02
#       8
#     4   4   4   4   4   4   4   4
#     4  12  22  40  61  89 122 158 203 248 299 357
#     4   9  18  34  59  85 111 149 199 243 284 349
#     4  11  21  38  61  89 118 154 199 244 297 353
#     4   9  18  35  57  84 113 152 197 237 289 351
#     4  11  22  40  63  88 117 161 206 250 294 360
#     4  11  24  40  59  89 127 160 194 251 314 354
#     4  11  22  37  62  87 120 152 198 246 293 358
#     4  12  23  39  62  93 120 158 204 251 299 355
#
# _framework density 22.800172
#
# number of rings (size 3 to 8) (size 9 to 14) (size 15 to 20)
#    0.000    1.250    3.750    4.500    0.000    0.000 
#    0.000    1.250    0.000    0.750    0.000    0.000 
#    0.000    0.000    0.000    0.000    0.000    0.000 
#
# Total GULP energy -178761.132607 kJ/mol
# GULP energy per Si atom -5586.285394 kJ/mol
# Density = 2.274828 g / cm^3
# Si number density = 22.800172 Si / 1000 Ang^3
#
#
#
# Elastic Constant Matrix: (Units=GPa)
#
#
# Indices 1 2 3 4 5 6 
#
# 1 63.2124 4.6027 19.3885 0.0000 -5.8636 0.0000
# 2 4.6027 40.2791 24.1160 0.0000 -6.9508 0.0000
# 3 19.3885 24.1160 90.2503 0.0000 -18.6701 0.0000
# 4 0.0000 0.0000 0.0000 27.4236 0.0000 -5.3081
# 5 -5.8636 -6.9508 -18.6701 0.0000 46.9452 0.0000
# 6 0.0000 0.0000 0.0000 -5.3081 0.0000 11.2845
#
#
#
# Elastic Compliance Matrix: (Units=1/GPa)
#
#
# Indices 1 2 3 4 5 6 
#
# 1 0.016962 0.000333 -0.003579 0.000000 0.000745 0.000000
# 2 0.000333 0.029640 -0.007710 0.000000 0.001364 0.000000
# 3 -0.003579 -0.007710 0.014798 0.000000 0.004297 0.000000
# 4 0.000000 0.000000 0.000000 0.040118 0.000000 0.018871
# 5 0.000745 0.001364 0.004297 0.000000 0.023305 0.000000
# 6 0.000000 0.000000 0.000000 0.018871 0.000000 0.097494
#
#
# Mechanical properties :
#
#
# Convention : Reuss Voigt Hill
#
# Bulk Modulus (GPa) = 25.32325 32.21733 28.77029
# Shear Modulus (GPa) = 19.42572 26.83964 23.13268
#
# Velocity S-wave (km/s) = 2.92207 3.43471 3.18871
# Velocity P-wave (km/s) = 4.74504 5.46723 5.11889
#
# Compressibility (1/GPa) = 0.03948940
#
# Stress axis : x y z
#
# Youngs Moduli (GPa) = 58.95455 33.73822 67.57628
#
# Poissons Ratio (x) = -0.01124 0.24185
# Poissons Ratio (y) = -0.01963 0.52098
# Poissons Ratio (z) = 0.21100 0.26011
#
# Static dielectric constant tensor:
#      x y z
#    x 1.813280 0.000000 -0.027960 
#    y 0.000000 1.831810 0.000000 
#    z -0.027960 0.000000 1.936660 
# 
# From -- ./inp_files/67041.got.cif
#   From: 2010.05.17/outbox.cif.g08.bks.cpg/sg14_34_cif.got.tgz:67041.got - 2010.06.03 17:49:19.
