data_PCOD9251284
_publ_section_title
;
Structure prediction by ZEFSAII (Michael W. Deem and Ramdas Pophale) SiO2 
 PCOD9251284
Probable space group: P 21/C
;
_chemical_formula_sum "Si O2"
_cell_formula_units_Z 28
_cell_length_a 18.028590
_cell_length_b 8.069256
_cell_length_c 19.416887
_cell_angle_alpha 90.000000
_cell_angle_beta 26.092595
_cell_angle_gamma 90.000000
_cell_volume 1242.375556
_symmetry_space_group_name_H-M "P 21/C"
_symmetry_group_IT_number 14
_symmetry_cell_setting 'monoclinic'
loop_
_space_group_symop_operation_xyz
x,y,z
-x,1/2+y,1/2-z
-x,-y,-z
x,1/2-y,1/2+z
loop_
_atom_site_type_symbol
_atom_site_label
_atom_site_fract_x
_atom_site_fract_y
_atom_site_fract_z
Si Si1 0.930350 0.028912 0.907540
Si Si2 0.330810 0.158956 0.939976
Si Si3 0.744197 0.661235 0.802632
Si Si4 0.325874 0.683610 0.909018
Si Si5 0.733148 0.467950 0.374811
Si Si6 0.907872 0.568509 0.863962
Si Si7 0.445086 0.639769 0.965427
O O1 0.067643 0.083162 0.848956
O O2 0.033551 0.970114 0.753337
O O3 0.829219 0.192534 0.969314
O O4 0.772869 0.902663 0.041326
O O5 0.513979 0.226371 0.770344
O O6 0.196545 0.284444 0.083304
O O7 0.348648 0.018003 0.982976
O O8 0.644008 0.646095 0.814519
O O9 0.739719 0.856832 0.828051
O O10 0.631463 0.533869 0.943208
O O11 0.393504 0.659630 0.929525
O O12 0.234150 0.511149 0.969164
O O13 0.635314 0.304369 0.429991
O O14 0.923705 0.409637 0.232843
#
# Coordination Sequence:
#
# PCOD9251284 Si02
#       7
#     4   4   4   4   4   4   4
#     4  11  19  37  59  84 117 153 205 251 296 356
#     4  11  22  33  60  93 119 152 201 260 312 355
#     4  11  22  39  61  92 120 162 208 252 294 367
#     4  12  21  36  57  91 124 152 197 262 310 359
#     4  11  21  40  64  90 119 159 210 256 299 365
#     4  11  19  34  61  87 113 153 205 252 301 357
#     4  11  23  37  62  90 126 158 203 254 307 358
#
# _framework density 22.537469000000002
#
# number of rings (size 3 to 8) (size 9 to 14) (size 15 to 20)
#    0.000    0.857    7.143    3.000    0.000    0.000 
#    0.000    0.714    0.000    5.143    0.000    0.000 
#    0.000    0.000    0.000    0.000    0.000    0.000 
#
# Total GULP energy -155882.376238 kJ/mol
# GULP energy per Si atom -5567.227723 kJ/mol
# Density = 2.248617 g / cm^3
# Si number density = 22.537469 Si / 1000 Ang^3
#
#
#
# Elastic Constant Matrix: (Units=GPa)
#
#
# Indices 1 2 3 4 5 6 
#
# 1 63.0255 -1.6401 32.8988 0.0000 -39.3673 0.0000
# 2 -1.6401 83.9935 12.2113 0.0000 -3.9582 0.0000
# 3 32.8988 12.2113 111.9161 0.0000 -29.7891 0.0000
# 4 0.0000 0.0000 0.0000 27.5842 0.0000 -13.9634
# 5 -39.3673 -3.9582 -29.7891 0.0000 41.6729 0.0000
# 6 0.0000 0.0000 0.0000 -13.9634 0.0000 17.5731
#
#
#
# Elastic Compliance Matrix: (Units=1/GPa)
#
#
# Indices 1 2 3 4 5 6 
#
# 1 0.039731 0.002823 -0.002378 0.000000 0.036101 0.000000
# 2 0.002823 0.012300 -0.001422 0.000000 0.002819 0.000000
# 3 -0.002378 -0.001422 0.011307 0.000000 0.005701 0.000000
# 4 0.000000 0.000000 0.000000 0.060647 0.000000 0.048189
# 5 0.036101 0.002819 0.005701 0.000000 0.062443 0.000000
# 6 0.000000 0.000000 0.000000 0.048189 0.000000 0.095195
#
#
# Mechanical properties :
#
#
# Convention : Reuss Voigt Hill
#
# Bulk Modulus (GPa) = 16.29085 38.43058 27.36072
# Shear Modulus (GPa) = 16.44529 31.73038 24.08783
#
# Velocity S-wave (km/s) = 2.70420 3.75626 3.27278
# Velocity P-wave (km/s) = 4.12242 5.99179 5.14276
#
# Compressibility (1/GPa) = 0.06138415
#
# Stress axis : x y z
#
# Youngs Moduli (GPa) = 25.16926 81.29871 88.44161
#
# Poissons Ratio (x) = -0.22949 0.21033
# Poissons Ratio (y) = -0.07105 0.12573
# Poissons Ratio (z) = 0.05986 0.11558
#
# Static dielectric constant tensor:
#      x y z
#    x 1.861320 0.000000 -0.004030 
#    y 0.000000 2.031860 0.000000 
#    z -0.004030 0.000000 1.785980 
# 
# From -- ./inp_files/64614.got.cif
#   From: 2010.05.17/outbox.cif.g08.bks.cpg/sg14_33_cif.got.tgz:64614.got - 2010.06.03 17:49:19.
