data_PCOD9251670
_publ_section_title
;
Structure prediction by ZEFSAII (Michael W. Deem and Ramdas Pophale) SiO2 
 PCOD9251670
Probable space group: P 21/C
;
_chemical_formula_sum "Si O2"
_cell_formula_units_Z 28
_cell_length_a 12.364378
_cell_length_b 7.228242
_cell_length_c 26.204919
_cell_angle_alpha 90.000000
_cell_angle_beta 27.517794
_cell_angle_gamma 90.000000
_cell_volume 1082.062574
_symmetry_space_group_name_H-M "P 21/C"
_symmetry_group_IT_number 14
_symmetry_cell_setting 'monoclinic'
loop_
_space_group_symop_operation_xyz
x,y,z
-x,1/2+y,1/2-z
-x,-y,-z
x,1/2-y,1/2+z
loop_
_atom_site_type_symbol
_atom_site_label
_atom_site_fract_x
_atom_site_fract_y
_atom_site_fract_z
Si Si1 0.388715 0.909669 0.751209
Si Si2 0.234480 0.289915 0.826146
Si Si3 0.762246 0.199747 0.917685
Si Si4 0.452299 0.285621 0.958739
Si Si5 0.255671 0.923435 0.232808
Si Si6 0.760317 0.068862 0.517818
Si Si7 0.949263 0.371371 0.745268
O O1 0.202306 0.069098 0.841240
O O2 0.536970 0.842360 0.737416
O O3 0.566329 0.023714 0.640393
O O4 0.295301 0.731018 0.760624
O O5 0.251283 0.382692 0.763112
O O6 0.003641 0.390089 0.943691
O O7 0.518104 0.242613 0.989785
O O8 0.742095 0.267850 0.983437
O O9 0.949805 0.319679 0.804720
O O10 0.868345 0.998443 0.860394
O O11 0.521257 0.101969 0.898431
O O12 0.675228 0.427199 0.852950
O O13 0.244121 0.388585 0.017582
O O14 0.060334 0.829102 0.277889
#
# Coordination Sequence:
#
# PCOD9251670 Si02
#       7
#     4   4   4   4   4   4   4
#     4  11  23  44  61  94 123 160 220 265 307 381
#     4  12  23  40  73  82 126 175 205 260 333 365
#     4   9  18  34  62  91 123 168 198 248 310 370
#     4   7  19  35  57  87 130 151 203 255 291 375
#     4   8  19  39  60  90 118 160 209 255 299 373
#     4  11  22  37  64  96 126 165 207 263 319 365
#     4   8  18  34  62  88 125 160 209 238 305 380
#
# _framework density 25.876505999999999
#
# number of rings (size 3 to 8) (size 9 to 14) (size 15 to 20)
#    1.714    0.571    1.429    1.714    4.000    0.000 
#    0.000    6.429    0.000    5.143    0.000    0.000 
#    0.000    0.000    0.000    0.000    0.000    0.000 
#
# Total GULP energy -155984.329016 kJ/mol
# GULP energy per Si atom -5570.868893 kJ/mol
# Density = 2.581761 g / cm^3
# Si number density = 25.876506 Si / 1000 Ang^3
#
#
#
# Elastic Constant Matrix: (Units=GPa)
#
#
# Indices 1 2 3 4 5 6 
#
# 1 126.9518 21.4942 -19.7878 0.0000 1.1850 0.0000
# 2 21.4942 73.7006 -10.2276 0.0000 -3.7827 0.0000
# 3 -19.7878 -10.2276 36.0188 0.0000 9.3543 0.0000
# 4 0.0000 0.0000 0.0000 36.1956 0.0000 6.2340
# 5 1.1850 -3.7827 9.3543 0.0000 27.4939 0.0000
# 6 0.0000 0.0000 0.0000 6.2340 0.0000 25.0579
#
#
#
# Elastic Compliance Matrix: (Units=1/GPa)
#
#
# Indices 1 2 3 4 5 6 
#
# 1 0.009026 -0.002062 0.004989 0.000000 -0.002370 0.000000
# 2 -0.002062 0.014606 0.002709 0.000000 0.001177 0.000000
# 3 0.004989 0.002709 0.034259 0.000000 -0.011498 0.000000
# 4 0.000000 0.000000 0.000000 0.028864 0.000000 -0.007181
# 5 -0.002370 0.001177 -0.011498 0.000000 0.040548 0.000000
# 6 0.000000 0.000000 0.000000 -0.007181 0.000000 0.041694
#
#
# Mechanical properties :
#
#
# Convention : Reuss Voigt Hill
#
# Bulk Modulus (GPa) = 14.45850 24.40319 19.43085
# Shear Modulus (GPa) = 27.65797 34.09565 30.87681
#
# Velocity S-wave (km/s) = 3.27287 3.63385 3.45807
# Velocity P-wave (km/s) = 4.45891 5.20170 4.84456
#
# Compressibility (1/GPa) = 0.06916346
#
# Stress axis : x y z
#
# Youngs Moduli (GPa) = 110.79414 68.46487 29.18911
#
# Poissons Ratio (x) = 0.14115 -0.14561
# Poissons Ratio (y) = 0.22842 -0.07908
# Poissons Ratio (z) = -0.55271 -0.18549
#
# Static dielectric constant tensor:
#      x y z
#    x 2.067360 0.000000 -0.002340 
#    y 0.000000 2.102360 0.000000 
#    z -0.002340 0.000000 2.261240 
# 
# From -- ./inp_files/77107.got.cif
#   From: 2010.05.17/outbox.cif.g08.bks.cpg/sg14_39_cif.got.tgz:77107.got - 2010.06.03 17:49:19.
