data_PCOD9251472
_publ_section_title
;
Structure prediction by ZEFSAII (Michael W. Deem and Ramdas Pophale) SiO2 
 PCOD9251472
Probable space group: P 21/C
;
_chemical_formula_sum "Si O2"
_cell_formula_units_Z 24
_cell_length_a 9.595248
_cell_length_b 9.645681
_cell_length_c 11.367055
_cell_angle_alpha 90.000000
_cell_angle_beta 110.469114
_cell_angle_gamma 90.000000
_cell_volume 985.625986
_symmetry_space_group_name_H-M "P 21/C"
_symmetry_group_IT_number 14
_symmetry_cell_setting 'monoclinic'
loop_
_space_group_symop_operation_xyz
x,y,z
-x,1/2+y,1/2-z
-x,-y,-z
x,1/2-y,1/2+z
loop_
_atom_site_type_symbol
_atom_site_label
_atom_site_fract_x
_atom_site_fract_y
_atom_site_fract_z
Si Si1 0.473953 0.828237 0.325122
Si Si2 0.939052 0.231649 0.503685
Si Si3 0.174265 0.939682 0.237290
Si Si4 0.325773 0.906586 0.661323
Si Si5 0.131072 0.541603 0.327690
Si Si6 0.243501 0.334998 0.560602
O O1 0.679566 0.375669 0.160111
O O2 0.416768 0.738978 0.195256
O O3 0.594844 0.726107 0.416914
O O4 0.565350 0.967695 0.330950
O O5 0.889855 0.330160 0.378097
O O6 0.821144 0.109668 0.460522
O O7 0.909098 0.321280 0.610991
O O8 0.116217 0.218267 0.542471
O O9 0.028858 0.987046 0.265704
O O10 0.233141 0.068672 0.174404
O O11 0.254727 0.931795 0.768516
O O12 0.193146 0.431378 0.438962
#
# Coordination Sequence:
#
# PCOD9251472 Si02
#       6
#     4   4   4   4   4   4
#     4  11  21  38  61  93 134 159 202 267 324 360
#     4   8  18  38  64  89 123 160 214 264 300 377
#     4   8  16  37  60  86 119 164 204 254 311 368
#     4  11  23  40  65  94 124 173 209 259 321 378
#     4   9  19  40  70  86 119 182 220 233 314 409
#     4   9  17  37  63  88 123 163 207 264 312 366
#
# _framework density 24.350007999999999
#
# number of rings (size 3 to 8) (size 9 to 14) (size 15 to 20)
#    0.000    2.667    1.667    2.000    0.000    1.333 
#   18.000    0.833    0.000    0.000    0.000    0.000 
#    0.000    0.000    0.000    0.000    0.000    0.000 
#
# Total GULP energy -134069.100542 kJ/mol
# GULP energy per Si atom -5586.212523 kJ/mol
# Density = 2.429459 g / cm^3
# Si number density = 24.350008 Si / 1000 Ang^3
#
#
#
# Elastic Constant Matrix: (Units=GPa)
#
#
# Indices 1 2 3 4 5 6 
#
# 1 143.2469 28.6066 33.5286 0.0000 38.7523 0.0000
# 2 28.6066 89.0763 6.2647 0.0000 23.9360 0.0000
# 3 33.5286 6.2647 38.9474 0.0000 16.6400 0.0000
# 4 0.0000 0.0000 0.0000 18.7813 0.0000 21.6635
# 5 38.7523 23.9360 16.6400 0.0000 40.3433 0.0000
# 6 0.0000 0.0000 0.0000 21.6635 0.0000 20.5576
#
#
#
# Elastic Compliance Matrix: (Units=1/GPa)
#
#
# Indices 1 2 3 4 5 6 
#
# 1 0.010454 -0.001065 -0.005837 0.000000 -0.007003 0.000000
# 2 -0.001065 0.013537 0.002105 0.000000 -0.007877 0.000000
# 3 -0.005837 0.002105 0.034596 0.000000 -0.009912 0.000000
# 4 0.000000 0.000000 0.000000 -0.247052 0.000000 0.260343
# 5 -0.007003 -0.007877 -0.009912 0.000000 0.040275 0.000000
# 6 0.000000 0.000000 0.000000 0.260343 0.000000 -0.225705
#
#
# Mechanical properties :
#
#
# Convention : Reuss Voigt Hill
#
# Bulk Modulus (GPa) = 20.41081 45.34117 32.87599
# Shear Modulus (GPa) = -14.36907 29.46113 7.54603
#
# Velocity S-wave (km/s) = -2.43184 3.48214 1.76230
# Velocity P-wave (km/s) = 0.71784 5.90153 4.20377
#
# Compressibility (1/GPa) = 0.04899366
#
# Stress axis : x y z
#
# Youngs Moduli (GPa) = 95.65553 73.87216 28.90466
#
# Poissons Ratio (x) = 0.07869 0.16870
# Poissons Ratio (y) = 0.10189 -0.06084
# Poissons Ratio (z) = 0.55830 -0.15548
#
# Static dielectric constant tensor:
#      x y z
#    x 1.897630 0.000000 0.025100 
#    y 0.000000 2.003090 0.000000 
#    z 0.025100 0.000000 1.960340 
# 
# From -- ./inp_files/39066.got.cif
#   From: 2010.05.17/outbox.cif.g08.bks.cpg/sg14_20_cif.got.tgz:39066.got - 2010.06.03 17:49:19.
