data_PCOD9251909
_publ_section_title
;
Structure prediction by ZEFSAII (Michael W. Deem and Ramdas Pophale) SiO2 
 PCOD9251909
Probable space group: P 21/C
;
_chemical_formula_sum "Si O2"
_cell_formula_units_Z 32
_cell_length_a 23.492967
_cell_length_b 8.031467
_cell_length_c 14.954554
_cell_angle_alpha 90.000000
_cell_angle_beta 152.929695
_cell_angle_gamma 90.000000
_cell_volume 1284.095354
_symmetry_space_group_name_H-M "P 21/C"
_symmetry_group_IT_number 14
_symmetry_cell_setting 'monoclinic'
loop_
_space_group_symop_operation_xyz
x,y,z
-x,1/2+y,1/2-z
-x,-y,-z
x,1/2-y,1/2+z
loop_
_atom_site_type_symbol
_atom_site_label
_atom_site_fract_x
_atom_site_fract_y
_atom_site_fract_z
Si Si1 0.751559 0.243347 0.480125
Si Si2 0.512651 0.772585 0.355403
Si Si3 0.266264 0.630859 0.249351
Si Si4 0.094512 0.036778 0.213604
Si Si5 0.922878 0.981667 0.143568
Si Si6 0.536244 0.877509 0.195590
Si Si7 0.008953 0.853130 0.442034
Si Si8 0.706308 0.739348 0.769725
O O1 0.628496 0.343088 0.339560
O O2 0.726136 0.183296 0.343390
O O3 0.862523 0.372138 0.618081
O O4 0.796998 0.092436 0.608217
O O5 0.570019 0.809914 0.339837
O O6 0.481448 0.577003 0.325699
O O7 0.605721 0.827310 0.563891
O O8 0.397796 0.683115 0.475685
O O9 0.252582 0.428867 0.225332
O O10 0.153072 0.709500 0.148039
O O11 0.111445 0.232452 0.217567
O O12 0.009773 0.035628 0.184221
O O13 0.000000 0.000000 0.000000
O O14 0.008646 0.899038 0.337584
O O15 0.818336 0.858726 0.956505
O O16 0.632691 0.822540 0.254697
O O17 0.000000 0.000000 0.500000
#
# Coordination Sequence:
#
# PCOD9251909 Si02
#       8
#     4   4   4   4   4   4   4   4
#     4  12  24  46  72  98 146 186 234 296 358 427
#     4  11  26  46  71 103 142 187 242 300 367 431
#     4  11  22  47  73  94 141 188 235 292 359 423
#     4  12  27  46  70 106 146 190 235 296 366 430
#     4  12  27  44  74 106 141 190 238 295 360 434
#     4  11  25  45  72 101 139 189 238 301 364 429
#     4  12  28  46  73 108 144 187 243 294 359 438
#     4  11  25  47  73 103 141 191 241 298 367 433
#
# _framework density 24.920268
#
# number of rings (size 3 to 8) (size 9 to 14) (size 15 to 20)
#    0.000    0.500    5.000    2.250    8.750    3.500 
#    0.000    0.000    0.000    0.000    0.000    0.000 
#    0.000    0.000    0.000    0.000    0.000    0.000 
#
# Total GULP energy -178995.625173 kJ/mol
# GULP energy per Si atom -5593.613287 kJ/mol
# Density = 2.486355 g / cm^3
# Si number density = 24.920268 Si / 1000 Ang^3
#
#
#
# Elastic Constant Matrix: (Units=GPa)
#
#
# Indices 1 2 3 4 5 6 
#
# 1 95.8216 8.5442 38.8226 0.0000 -18.9723 0.0000
# 2 8.5442 42.3631 9.1476 0.0000 -1.4049 0.0000
# 3 38.8226 9.1476 90.5132 0.0000 -2.3317 0.0000
# 4 0.0000 0.0000 0.0000 36.4484 0.0000 -4.8781
# 5 -18.9723 -1.4049 -2.3317 0.0000 46.0467 0.0000
# 6 0.0000 0.0000 0.0000 -4.8781 0.0000 37.1624
#
#
#
# Elastic Compliance Matrix: (Units=1/GPa)
#
#
# Indices 1 2 3 4 5 6 
#
# 1 0.013942 -0.001402 -0.005699 0.000000 0.005413 0.000000
# 2 -0.001402 0.024290 -0.001852 0.000000 0.000070 0.000000
# 3 -0.005699 -0.001852 0.013635 0.000000 -0.001714 0.000000
# 4 0.000000 0.000000 0.000000 0.027927 0.000000 0.003666
# 5 0.005413 0.000070 -0.001714 0.000000 0.023863 0.000000
# 6 0.000000 0.000000 0.000000 0.003666 0.000000 0.027390
#
#
# Mechanical properties :
#
#
# Convention : Reuss Voigt Hill
#
# Bulk Modulus (GPa) = 29.44409 37.96966 33.70688
# Shear Modulus (GPa) = 31.19691 35.41041 33.30366
#
# Velocity S-wave (km/s) = 3.54201 3.77364 3.65966
# Velocity P-wave (km/s) = 5.34498 5.85292 5.60470
#
# Compressibility (1/GPa) = 0.03396267
#
# Stress axis : x y z
#
# Youngs Moduli (GPa) = 71.72755 41.16862 73.33872
#
# Poissons Ratio (x) = 0.05771 0.41793
# Poissons Ratio (y) = 0.10055 0.13581
# Poissons Ratio (z) = 0.40875 0.07624
#
# Static dielectric constant tensor:
#      x y z
#    x 2.089710 0.000000 0.105130 
#    y 0.000000 2.064550 0.000000 
#    z 0.105130 0.000000 2.036570 
# 
# From -- ./inp_files/51386.got.cif
#   From: 2010.05.17/outbox.cif.g08.bks.cpg/sg14_26_cif.got.tgz:51386.got - 2010.06.03 17:49:19.
