data_PCOD9251559
_publ_section_title
;
Structure prediction by ZEFSAII (Michael W. Deem and Ramdas Pophale) SiO2 
 PCOD9251559
Probable space group: P 21/C
;
_chemical_formula_sum "Si O2"
_cell_formula_units_Z 24
_cell_length_a 11.249112
_cell_length_b 5.288928
_cell_length_c 22.068892
_cell_angle_alpha 90.000000
_cell_angle_beta 133.543659
_cell_angle_gamma 90.000000
_cell_volume 951.731299
_symmetry_space_group_name_H-M "P 21/C"
_symmetry_group_IT_number 14
_symmetry_cell_setting 'monoclinic'
loop_
_space_group_symop_operation_xyz
x,y,z
-x,1/2+y,1/2-z
-x,-y,-z
x,1/2-y,1/2+z
loop_
_atom_site_type_symbol
_atom_site_label
_atom_site_fract_x
_atom_site_fract_y
_atom_site_fract_z
Si Si1 0.373153 0.788343 0.601222
Si Si2 0.081174 0.206829 0.203821
Si Si3 0.589330 0.289731 0.661565
Si Si4 0.161603 0.682322 0.645251
Si Si5 0.159813 0.076801 0.435876
Si Si6 0.767375 0.574969 0.632906
O O1 0.469214 0.527567 0.627436
O O2 0.266478 0.751673 0.624038
O O3 0.490817 0.034663 0.642424
O O4 0.251933 0.857670 0.503727
O O5 0.216911 0.251446 0.301944
O O6 0.961516 0.442187 0.153685
O O7 0.149550 0.109651 0.163405
O O8 0.953948 0.996092 0.182011
O O9 0.738465 0.301265 0.762504
O O10 0.666458 0.335316 0.621604
O O11 0.973393 0.773023 0.570433
O O12 0.282317 0.263214 0.443050
#
# Coordination Sequence:
#
# PCOD9251559 Si02
#       6
#     4   4   4   4   4   4
#     4  12  30  47  69 110 152 191 240 302 378 436
#     4  11  21  41  77 107 136 188 254 317 351 433
#     4  12  27  47  73 104 150 198 235 298 370 449
#     4  11  25  47  75 102 139 197 256 296 356 446
#     4  11  26  44  75 107 143 190 244 318 361 429
#     4  11  22  42  73 109 142 189 251 301 371 440
#
# _framework density 25.217202
#
# number of rings (size 3 to 8) (size 9 to 14) (size 15 to 20)
#    0.000    0.667    3.333    3.500    9.333    2.000 
#    0.000    0.000    0.000    0.000    0.000    0.000 
#    0.000    0.000    0.000    0.000    0.000    0.000 
#
# Total GULP energy -134246.864527 kJ/mol
# GULP energy per Si atom -5593.619355 kJ/mol
# Density = 2.515981 g / cm^3
# Si number density = 25.217202 Si / 1000 Ang^3
#
#
#
# Elastic Constant Matrix: (Units=GPa)
#
#
# Indices 1 2 3 4 5 6 
#
# 1 192.4017 80.2285 42.2031 0.0000 3.8426 0.0000
# 2 80.2285 138.4351 25.0096 0.0000 16.4221 0.0000
# 3 42.2031 25.0096 71.8345 0.0000 19.5171 0.0000
# 4 0.0000 0.0000 0.0000 30.1516 0.0000 8.7777
# 5 3.8426 16.4221 19.5171 0.0000 39.3738 0.0000
# 6 0.0000 0.0000 0.0000 8.7777 0.0000 46.5918
#
#
#
# Elastic Compliance Matrix: (Units=1/GPa)
#
#
# Indices 1 2 3 4 5 6 
#
# 1 0.007703 -0.004105 -0.003880 0.000000 0.002884 0.000000
# 2 -0.004105 0.010061 -0.000069 0.000000 -0.003762 0.000000
# 3 -0.003880 -0.000069 0.018621 0.000000 -0.008823 0.000000
# 4 0.000000 0.000000 0.000000 0.035090 0.000000 -0.006611
# 5 0.002884 -0.003762 -0.008823 0.000000 0.031059 0.000000
# 6 0.000000 0.000000 0.000000 -0.006611 0.000000 0.022708
#
#
# Mechanical properties :
#
#
# Convention : Reuss Voigt Hill
#
# Bulk Modulus (GPa) = 49.31522 77.50598 63.41060
# Shear Modulus (GPa) = 33.75879 40.23877 36.99878
#
# Velocity S-wave (km/s) = 3.66282 3.99894 3.83457
# Velocity P-wave (km/s) = 6.12266 7.21970 6.69369
#
# Compressibility (1/GPa) = 0.02027771
#
# Stress axis : x y z
#
# Youngs Moduli (GPa) = 129.82579 99.38963 53.70178
#
# Poissons Ratio (x) = 0.40801 0.20834
# Poissons Ratio (y) = 0.53296 0.00371
# Poissons Ratio (z) = 0.50366 0.00687
#
# Static dielectric constant tensor:
#      x y z
#    x 2.001580 0.000000 0.011310 
#    y 0.000000 2.078020 0.000000 
#    z 0.011310 0.000000 1.998030 
# 
# From -- ./inp_files/72789.got.cif
#   From: 2010.05.17/outbox.cif.g08.bks.cpg/sg14_37_cif.got.tgz:72789.got - 2010.06.03 17:49:19.
