data_PCOD9251771
_publ_section_title
;
Structure prediction by ZEFSAII (Michael W. Deem and Ramdas Pophale) SiO2 
 PCOD9251771
Probable space group: P 21/C
;
_chemical_formula_sum "Si O2"
_cell_formula_units_Z 24
_cell_length_a 8.218483
_cell_length_b 18.921125
_cell_length_c 7.875789
_cell_angle_alpha 90.000000
_cell_angle_beta 49.366162
_cell_angle_gamma 90.000000
_cell_volume 929.415067
_symmetry_space_group_name_H-M "P 21/C"
_symmetry_group_IT_number 14
_symmetry_cell_setting 'monoclinic'
loop_
_space_group_symop_operation_xyz
x,y,z
-x,1/2+y,1/2-z
-x,-y,-z
x,1/2-y,1/2+z
loop_
_atom_site_type_symbol
_atom_site_label
_atom_site_fract_x
_atom_site_fract_y
_atom_site_fract_z
Si Si1 0.674192 0.164510 0.896416
Si Si2 0.940277 0.127435 0.375483
Si Si3 0.269111 0.233184 0.006086
Si Si4 0.748619 0.004598 0.368601
Si Si5 0.895509 0.850964 0.209094
Si Si6 0.345434 0.050638 0.206340
O O1 0.505057 0.219725 0.925092
O O2 0.802033 0.135788 0.641487
O O3 0.860879 0.170647 0.910796
O O4 0.504124 0.116061 0.109221
O O5 0.138213 0.073351 0.245648
O O6 0.068323 0.198956 0.247803
O O7 0.806911 0.087877 0.318375
O O8 0.227672 0.190024 0.859835
O O9 0.224007 0.316834 0.044411
O O10 0.868157 0.935972 0.207546
O O11 0.750667 0.985672 0.565122
O O12 0.500000 0.000000 0.500000
O O13 0.500000 0.000000 0.000000
#
# Coordination Sequence:
#
# PCOD9251771 Si02
#       6
#     4   4   4   4   4   4
#     4  11  24  47  76 102 146 196 241 308 370 440
#     4  11  23  48  71 105 147 192 247 305 369 444
#     4  11  29  48  75 106 146 197 256 298 379 453
#     4  12  26  42  73 112 151 186 251 313 368 442
#     4  12  27  50  72 109 149 195 247 312 368 444
#     4  11  22  41  71 105 141 192 233 292 377 436
#
# _framework density 25.822693000000001
#
# number of rings (size 3 to 8) (size 9 to 14) (size 15 to 20)
#    0.000    0.667    3.333    3.500    7.000    4.667 
#    0.000    0.000    0.000    0.000    0.000    0.000 
#    0.000    0.000    0.000    0.000    0.000    0.000 
#
# Total GULP energy -133750.874384 kJ/mol
# GULP energy per Si atom -5572.953099 kJ/mol
# Density = 2.576392 g / cm^3
# Si number density = 25.822693 Si / 1000 Ang^3
#
#
#
# Elastic Constant Matrix: (Units=GPa)
#
#
# Indices 1 2 3 4 5 6 
#
# 1 126.1752 20.7545 -5.9424 0.0000 -37.2539 0.0000
# 2 20.7545 72.6533 28.7747 0.0000 -9.1265 0.0000
# 3 -5.9424 28.7747 108.3798 0.0000 -10.9134 0.0000
# 4 0.0000 0.0000 0.0000 35.1197 0.0000 -5.7224
# 5 -37.2539 -9.1265 -10.9134 0.0000 49.5015 0.0000
# 6 0.0000 0.0000 0.0000 -5.7224 0.0000 18.4215
#
#
#
# Elastic Compliance Matrix: (Units=1/GPa)
#
#
# Indices 1 2 3 4 5 6 
#
# 1 0.010929 -0.002972 0.002210 0.000000 0.008164 0.000000
# 2 -0.002972 0.016382 -0.004534 0.000000 -0.000216 0.000000
# 3 0.002210 -0.004534 0.010877 0.000000 0.003225 0.000000
# 4 0.000000 0.000000 0.000000 0.029992 0.000000 0.009317
# 5 0.008164 -0.000216 0.003225 0.000000 0.027017 0.000000
# 6 0.000000 0.000000 0.000000 0.009317 0.000000 0.057179
#
#
# Mechanical properties :
#
#
# Convention : Reuss Voigt Hill
#
# Bulk Modulus (GPa) = 36.23692 43.82020 40.02856
# Shear Modulus (GPa) = 29.04200 38.18329 33.61264
#
# Velocity S-wave (km/s) = 3.35725 3.84952 3.61178
# Velocity P-wave (km/s) = 5.39366 6.06341 5.73831
#
# Compressibility (1/GPa) = 0.02759616
#
# Stress axis : x y z
#
# Youngs Moduli (GPa) = 91.49968 61.04432 91.94078
#
# Poissons Ratio (x) = 0.18142 -0.20322
# Poissons Ratio (y) = 0.27193 0.41686
# Poissons Ratio (z) = -0.20225 0.27677
#
# Static dielectric constant tensor:
#      x y z
#    x 1.872160 0.000000 0.084000 
#    y 0.000000 1.742190 0.000000 
#    z 0.084000 0.000000 2.059790 
# 
# From -- ./inp_files/10142.got.cif
#   From: 2010.05.17/outbox.cif.g08.bks.cpg/sg14_6_cif.got.tgz:10142.got - 2010.06.03 17:49:19.
