data_PCOD9251669
_publ_section_title
;
Structure prediction by ZEFSAII (Michael W. Deem and Ramdas Pophale) SiO2 
 PCOD9251669
Probable space group: P 21/C
;
_chemical_formula_sum "Si O2"
_cell_formula_units_Z 32
_cell_length_a 5.192277
_cell_length_b 9.633178
_cell_length_c 29.487891
_cell_angle_alpha 90.000000
_cell_angle_beta 105.270159
_cell_angle_gamma 90.000000
_cell_volume 1422.856336
_symmetry_space_group_name_H-M "P 21/C"
_symmetry_group_IT_number 14
_symmetry_cell_setting 'monoclinic'
loop_
_space_group_symop_operation_xyz
x,y,z
-x,1/2+y,1/2-z
-x,-y,-z
x,1/2-y,1/2+z
loop_
_atom_site_type_symbol
_atom_site_label
_atom_site_fract_x
_atom_site_fract_y
_atom_site_fract_z
Si Si1 0.418331 0.963611 0.629642
Si Si2 0.684307 0.530003 0.238768
Si Si3 0.425924 0.600751 0.310176
Si Si4 0.183935 0.236489 0.097447
Si Si5 0.708342 0.954801 0.971058
Si Si6 0.995679 0.219547 0.761569
Si Si7 0.762777 0.011543 0.107695
Si Si8 0.070944 0.284226 0.871280
O O1 0.509456 0.989615 0.686020
O O2 0.267774 0.102460 0.605528
O O3 0.679865 0.894327 0.617616
O O4 0.189235 0.850166 0.619646
O O5 0.554909 0.493302 0.280961
O O6 0.952001 0.439095 0.245660
O O7 0.761420 0.691627 0.246856
O O8 0.643965 0.672585 0.352795
O O9 0.262223 0.709913 0.273183
O O10 0.232564 0.533968 0.338496
O O11 0.257571 0.198340 0.048663
O O12 0.902677 0.149591 0.092492
O O13 0.547385 0.013025 0.920127
O O14 0.500000 0.000000 0.000000
O O15 0.000000 0.000000 0.000000
O O16 0.013623 0.251125 0.815667
O O17 0.887812 0.863603 0.102519
#
# Coordination Sequence:
#
# PCOD9251669 Si02
#       8
#     4   4   4   4   4   4   4   4
#     4  11  26  43  65  97 145 190 234 283 352 408
#     4  11  24  41  57  90 133 194 244 295 336 402
#     4  11  22  37  64  93 132 182 239 291 331 388
#     4  11  24  44  74 104 137 180 237 290 349 420
#     4  11  24  46  79 114 136 167 226 303 369 430
#     4  11  22  38  59  85 135 188 243 285 331 394
#     4  11  26  44  74 103 139 178 240 291 353 424
#     4  11  26  43  64  98 143 193 231 283 347 415
#
# _framework density 22.489971000000001
#
# number of rings (size 3 to 8) (size 9 to 14) (size 15 to 20)
#    0.000    1.000    3.750    2.250    8.750    3.000 
#    2.250    0.000    0.000    4.500    0.000    0.000 
#    0.000    0.000    0.000    0.000    0.000    0.000 
#
# Total GULP energy -178265.250353 kJ/mol
# GULP energy per Si atom -5570.789074 kJ/mol
# Density = 2.243878 g / cm^3
# Si number density = 22.489971 Si / 1000 Ang^3
#
#
#
# Elastic Constant Matrix: (Units=GPa)
#
#
# Indices 1 2 3 4 5 6 
#
# 1 102.3231 18.5727 14.1883 0.0000 14.5751 0.0000
# 2 18.5727 90.9981 3.2228 0.0000 15.9407 0.0000
# 3 14.1883 3.2228 24.7246 0.0000 15.6471 0.0000
# 4 0.0000 0.0000 0.0000 6.0216 0.0000 -3.5791
# 5 14.5751 15.9407 15.6471 0.0000 43.4889 0.0000
# 6 0.0000 0.0000 0.0000 -3.5791 0.0000 21.9341
#
#
#
# Elastic Compliance Matrix: (Units=1/GPa)
#
#
# Indices 1 2 3 4 5 6 
#
# 1 0.011013 -0.001871 -0.005405 0.000000 -0.001061 0.000000
# 2 -0.001871 0.012107 0.002469 0.000000 -0.004699 0.000000
# 3 -0.005405 0.002469 0.055227 0.000000 -0.018964 0.000000
# 4 0.000000 0.000000 0.000000 0.183906 0.000000 0.030009
# 5 -0.001061 -0.004699 -0.018964 0.000000 0.031895 0.000000
# 6 0.000000 0.000000 0.000000 0.030009 0.000000 0.050488
#
#
# Mechanical properties :
#
#
# Convention : Reuss Voigt Hill
#
# Bulk Modulus (GPa) = 14.54875 32.22370 23.38622
# Shear Modulus (GPa) = 13.25701 26.42639 19.84170
#
# Velocity S-wave (km/s) = 2.43052 3.43159 2.97349
# Velocity P-wave (km/s) = 3.78941 5.48272 4.71274
#
# Compressibility (1/GPa) = 0.06873444
#
# Stress axis : x y z
#
# Youngs Moduli (GPa) = 90.80173 82.59855 18.10717
#
# Poissons Ratio (x) = 0.15450 0.09786
# Poissons Ratio (y) = 0.16985 -0.04471
# Poissons Ratio (z) = 0.49076 -0.20396
#
# Static dielectric constant tensor:
#      x y z
#    x 1.947860 0.000000 -0.011330 
#    y 0.000000 1.938080 0.000000 
#    z -0.011330 0.000000 1.839830 
# 
# From -- ./inp_files/78850.got.cif
#   From: 2010.05.17/outbox.cif.g08.bks.cpg/sg14_40_cif.got.tgz:78850.got - 2010.06.03 17:49:19.
