data_PCOD9251570
_publ_section_title
;
Structure prediction by ZEFSAII (Michael W. Deem and Ramdas Pophale) SiO2 
 PCOD9251570
Probable space group: P 21/C
;
_chemical_formula_sum "Si O2"
_cell_formula_units_Z 32
_cell_length_a 9.213275
_cell_length_b 20.357443
_cell_length_c 12.099611
_cell_angle_alpha 90.000000
_cell_angle_beta 143.443887
_cell_angle_gamma 90.000000
_cell_volume 1351.669389
_symmetry_space_group_name_H-M "P 21/C"
_symmetry_group_IT_number 14
_symmetry_cell_setting 'monoclinic'
loop_
_space_group_symop_operation_xyz
x,y,z
-x,1/2+y,1/2-z
-x,-y,-z
x,1/2-y,1/2+z
loop_
_atom_site_type_symbol
_atom_site_label
_atom_site_fract_x
_atom_site_fract_y
_atom_site_fract_z
Si Si1 0.048904 0.284503 0.923229
Si Si2 0.054129 0.424024 0.837609
Si Si3 0.737233 0.955153 0.152974
Si Si4 0.889060 0.390516 0.489680
Si Si5 0.473724 0.771721 0.887803
Si Si6 0.422799 0.332911 0.314386
Si Si7 0.348551 0.390557 0.633657
Si Si8 0.540638 0.484649 0.154765
O O1 0.268273 0.265505 0.973525
O O2 0.204353 0.292057 0.128727
O O3 0.959060 0.357723 0.834289
O O4 0.801069 0.242671 0.780976
O O5 0.947051 0.493781 0.808248
O O6 0.989989 0.418652 0.668394
O O7 0.333200 0.429881 0.042373
O O8 0.687250 0.902653 0.216416
O O9 0.757227 0.919940 0.046230
O O10 0.500000 0.000000 0.000000
O O11 0.661920 0.344430 0.385395
O O12 0.782085 0.448423 0.346254
O O13 0.125708 0.364498 0.571299
O O14 0.485692 0.829728 0.802917
O O15 0.494803 0.799327 0.023315
O O16 0.475123 0.449032 0.781258
O O17 0.500000 0.500000 0.000000
#
# Coordination Sequence:
#
# PCOD9251570 Si02
#       8
#     4   4   4   4   4   4   4   4
#     4  12  28  50  76 110 140 198 252 312 371 453
#     4  12  23  40  72 104 150 186 244 302 381 440
#     4  11  21  42  68 104 150 195 231 301 372 444
#     4  12  22  44  67 106 156 188 234 313 372 436
#     4  11  29  52  74 104 147 190 258 304 376 450
#     4  11  25  47  76 105 145 195 250 308 377 443
#     4  11  24  43  71 105 151 196 238 305 375 441
#     4  12  23  37  66 113 148 194 239 293 367 450
#
# _framework density 23.674429
#
# number of rings (size 3 to 8) (size 9 to 14) (size 15 to 20)
#    0.000    0.500    6.250    1.875    3.500    2.500 
#    0.000    0.000    0.000    0.000    0.000    0.000 
#    0.000    0.000    0.000    0.000    0.000    0.000 
#
# Total GULP energy -178822.993443 kJ/mol
# GULP energy per Si atom -5588.218545 kJ/mol
# Density = 2.362054 g / cm^3
# Si number density = 23.674429 Si / 1000 Ang^3
#
#
#
# Elastic Constant Matrix: (Units=GPa)
#
#
# Indices 1 2 3 4 5 6 
#
# 1 132.6879 20.9068 48.3252 0.0000 11.5958 0.0000
# 2 20.9068 46.1541 15.6781 0.0000 0.6198 0.0000
# 3 48.3252 15.6781 133.5325 0.0000 6.0134 0.0000
# 4 0.0000 0.0000 0.0000 27.4921 0.0000 3.1111
# 5 11.5958 0.6198 6.0134 0.0000 46.9898 0.0000
# 6 0.0000 0.0000 0.0000 3.1111 0.0000 41.6107
#
#
#
# Elastic Compliance Matrix: (Units=1/GPa)
#
#
# Indices 1 2 3 4 5 6 
#
# 1 0.009255 -0.003185 -0.002891 0.000000 -0.001872 0.000000
# 2 -0.003185 0.023663 -0.001656 0.000000 0.000686 0.000000
# 3 -0.002891 -0.001656 0.008747 0.000000 -0.000384 0.000000
# 4 0.000000 0.000000 0.000000 0.036685 0.000000 -0.002743
# 5 -0.001872 0.000686 -0.000384 0.000000 0.021783 0.000000
# 6 0.000000 0.000000 0.000000 -0.002743 0.000000 0.024237
#
#
# Mechanical properties :
#
#
# Convention : Reuss Voigt Hill
#
# Bulk Modulus (GPa) = 38.16891 53.57716 45.87304
# Shear Modulus (GPa) = 33.65466 38.38281 36.01873
#
# Velocity S-wave (km/s) = 3.77445 4.03088 3.90477
# Velocity P-wave (km/s) = 5.92897 6.65912 6.30463
#
# Compressibility (1/GPa) = 0.02619933
#
# Stress axis : x y z
#
# Youngs Moduli (GPa) = 108.05154 42.26050 114.32666
#
# Poissons Ratio (x) = 0.13460 0.33053
# Poissons Ratio (y) = 0.34415 0.18938
# Poissons Ratio (z) = 0.31238 0.07000
#
# Static dielectric constant tensor:
#      x y z
#    x 1.828970 0.000000 -0.161330 
#    y 0.000000 2.077090 0.000000 
#    z -0.161330 0.000000 1.264790 
# 
# From -- ./inp_files/27033.got.cif
#   From: 2010.05.17/outbox.cif.g08.bks.cpg/sg14_14_cif.got.tgz:27033.got - 2010.06.03 17:49:19.
