data_PCOD9251525
_publ_section_title
;
Structure prediction by ZEFSAII (Michael W. Deem and Ramdas Pophale) SiO2 
 PCOD9251525
Probable space group: P 21/C
;
_chemical_formula_sum "Si O2"
_cell_formula_units_Z 32
_cell_length_a 5.034083
_cell_length_b 29.227105
_cell_length_c 9.584018
_cell_angle_alpha 90.000000
_cell_angle_beta 81.345101
_cell_angle_gamma 90.000000
_cell_volume 1394.055147
_symmetry_space_group_name_H-M "P 21/C"
_symmetry_group_IT_number 14
_symmetry_cell_setting 'monoclinic'
loop_
_space_group_symop_operation_xyz
x,y,z
-x,1/2+y,1/2-z
-x,-y,-z
x,1/2-y,1/2+z
loop_
_atom_site_type_symbol
_atom_site_label
_atom_site_fract_x
_atom_site_fract_y
_atom_site_fract_z
Si Si1 0.227577 0.104490 0.725081
Si Si2 0.319119 0.216807 0.372623
Si Si3 0.775872 0.996616 0.392052
Si Si4 0.664512 0.410049 0.786873
Si Si5 0.278050 0.841992 0.179351
Si Si6 0.759459 0.320135 0.626663
Si Si7 0.102231 0.375528 0.920026
Si Si8 0.910128 0.732345 0.836506
O O1 0.487835 0.127604 0.772255
O O2 0.189158 0.123035 0.571621
O O3 0.971414 0.123639 0.827641
O O4 0.218461 0.050388 0.695597
O O5 0.561396 0.198201 0.263198
O O6 0.098934 0.176658 0.372214
O O7 0.327194 0.220524 0.536937
O O8 0.216399 0.261767 0.305493
O O9 0.759898 0.037735 0.280077
O O10 0.500000 0.000000 0.500000
O O11 0.000000 0.000000 0.500000
O O12 0.791477 0.373697 0.668391
O O13 0.343398 0.402304 0.820320
O O14 0.807625 0.395191 0.921002
O O15 0.154238 0.802967 0.292185
O O16 0.350883 0.820759 0.022963
O O17 0.987924 0.281462 0.615748
#
# Coordination Sequence:
#
# PCOD9251525 Si02
#       8
#     4   4   4   4   4   4   4   4
#     4  12  25  44  69 107 146 185 242 301 369 424
#     4  11  26  42  68 102 141 185 242 295 360 431
#     4  12  22  40  73 109 143 181 241 306 366 435
#     4  11  22  42  69 104 138 183 230 299 358 427
#     4  12  29  46  70 102 151 193 242 302 362 438
#     4  11  28  45  70 101 144 197 240 298 368 439
#     4  11  21  40  68 101 141 175 225 296 358 415
#     4  12  25  43  71 102 139 191 244 300 358 433
#
# _framework density 22.954615
#
# number of rings (size 3 to 8) (size 9 to 14) (size 15 to 20)
#    0.000    0.500    6.250    1.500    5.250    0.000 
#    0.000    1.250    0.000    0.000    0.000    0.000 
#    0.000    0.000    0.000    0.000    0.000    0.000 
#
# Total GULP energy -178587.083081 kJ/mol
# GULP energy per Si atom -5580.846346 kJ/mol
# Density = 2.290237 g / cm^3
# Si number density = 22.954615 Si / 1000 Ang^3
#
#
#
# Elastic Constant Matrix: (Units=GPa)
#
#
# Indices 1 2 3 4 5 6 
#
# 1 106.8826 29.3375 34.3712 0.0000 5.8414 0.0000
# 2 29.3375 131.7139 46.0899 0.0000 -1.2518 0.0000
# 3 34.3712 46.0899 125.8363 0.0000 -6.8974 0.0000
# 4 0.0000 0.0000 0.0000 34.4918 0.0000 4.0103
# 5 5.8414 -1.2518 -6.8974 0.0000 29.6710 0.0000
# 6 0.0000 0.0000 0.0000 4.0103 0.0000 31.2590
#
#
#
# Elastic Compliance Matrix: (Units=1/GPa)
#
#
# Indices 1 2 3 4 5 6 
#
# 1 0.010740 -0.001536 -0.002523 0.000000 -0.002766 0.000000
# 2 -0.001536 0.008932 -0.002851 0.000000 0.000016 0.000000
# 3 -0.002523 -0.002851 0.009826 0.000000 0.002661 0.000000
# 4 0.000000 0.000000 0.000000 0.029431 0.000000 -0.003776
# 5 -0.002766 0.000016 0.002661 0.000000 0.034867 0.000000
# 6 0.000000 0.000000 0.000000 -0.003776 0.000000 0.032475
#
#
# Mechanical properties :
#
#
# Convention : Reuss Voigt Hill
#
# Bulk Modulus (GPa) = 63.77964 64.89222 64.33593
# Shear Modulus (GPa) = 34.40762 36.05998 35.23380
#
# Velocity S-wave (km/s) = 3.87582 3.96779 3.92207
# Velocity P-wave (km/s) = 6.91915 7.02298 6.97126
#
# Compressibility (1/GPa) = 0.01567898
#
# Stress axis : x y z
#
# Youngs Moduli (GPa) = 93.11014 111.95535 101.77078
#
# Poissons Ratio (x) = 0.17193 0.25673
# Poissons Ratio (y) = 0.14299 0.29017
# Poissons Ratio (z) = 0.23488 0.31921
#
# Static dielectric constant tensor:
#      x y z
#    x 1.884210 0.000000 -0.004190 
#    y 0.000000 2.012000 0.000000 
#    z -0.004190 0.000000 1.884960 
# 
# From -- ./inp_files/6971.got.cif
#   From: 2010.05.17/outbox.cif.g08.bks.cpg/sg14_4_cif.got.tgz:6971.got - 2010.06.03 17:49:19.
