data_PCOD9251925
_publ_section_title
;
Structure prediction by ZEFSAII (Michael W. Deem and Ramdas Pophale) SiO2 
 PCOD9251925
Probable space group: P 21/C
;
_chemical_formula_sum "Si O2"
_cell_formula_units_Z 24
_cell_length_a 17.496635
_cell_length_b 9.256780
_cell_length_c 14.541523
_cell_angle_alpha 90.000000
_cell_angle_beta 157.548109
_cell_angle_gamma 90.000000
_cell_volume 899.461576
_symmetry_space_group_name_H-M "P 21/C"
_symmetry_group_IT_number 14
_symmetry_cell_setting 'monoclinic'
loop_
_space_group_symop_operation_xyz
x,y,z
-x,1/2+y,1/2-z
-x,-y,-z
x,1/2-y,1/2+z
loop_
_atom_site_type_symbol
_atom_site_label
_atom_site_fract_x
_atom_site_fract_y
_atom_site_fract_z
Si Si1 0.267612 0.339046 0.688354
Si Si2 0.999065 0.379802 0.078145
Si Si3 0.420840 0.629992 0.131808
Si Si4 0.914608 0.139516 0.218622
Si Si5 0.947128 0.921597 0.829270
Si Si6 0.542271 0.360169 0.610267
O O1 0.403350 0.370816 0.747876
O O2 0.101076 0.219737 0.474704
O O3 0.571505 0.726149 0.061975
O O4 0.132910 0.477893 0.567954
O O5 0.091995 0.471786 0.263136
O O6 0.093276 0.226112 0.161140
O O7 0.774942 0.341296 0.853024
O O8 0.000000 0.500000 0.000000
O O9 0.486286 0.615317 0.311996
O O10 0.252914 0.511340 0.916470
O O11 0.290320 0.778911 0.985052
O O12 0.973867 0.140903 0.179324
O O13 0.500000 0.500000 0.500000
#
# Coordination Sequence:
#
# PCOD9251925 Si02
#       6
#     4   4   4   4   4   4
#     4  11  26  48  79 114 159 203 262 337 398 461
#     4  12  25  47  79 111 154 209 257 327 397 464
#     4  11  25  50  83 113 152 216 258 323 413 460
#     4  11  22  50  76 109 154 201 265 321 384 484
#     4  11  24  50  77 110 161 202 268 322 385 489
#     4  12  24  48  76 119 157 194 277 329 383 491
#
# _framework density 26.68263
#
# number of rings (size 3 to 8) (size 9 to 14) (size 15 to 20)
#    0.000    0.667    5.000    2.000    0.000    6.000 
#    3.000    7.500    3.667    0.000    0.000    0.000 
#    0.000    0.000    0.000    0.000    0.000    0.000 
#
# Total GULP energy -134606.743776 kJ/mol
# GULP energy per Si atom -5608.614324 kJ/mol
# Density = 2.662190 g / cm^3
# Si number density = 26.682630 Si / 1000 Ang^3
#
#
#
# Elastic Constant Matrix: (Units=GPa)
#
#
# Indices 1 2 3 4 5 6 
#
# 1 170.3033 59.7685 81.4012 0.0000 13.7224 0.0000
# 2 59.7685 212.8710 99.6599 0.0000 -5.9787 0.0000
# 3 81.4012 99.6599 166.7381 0.0000 -3.7038 0.0000
# 4 0.0000 0.0000 0.0000 57.0803 0.0000 -7.1429
# 5 13.7224 -5.9787 -3.7038 0.0000 48.3625 0.0000
# 6 0.0000 0.0000 0.0000 -7.1429 0.0000 39.7514
#
#
#
# Elastic Compliance Matrix: (Units=1/GPa)
#
#
# Indices 1 2 3 4 5 6 
#
# 1 0.008027 -0.000647 -0.003591 0.000000 -0.002633 0.000000
# 2 -0.000647 0.006588 -0.003606 0.000000 0.000722 0.000000
# 3 -0.003591 -0.003606 0.009935 0.000000 0.001334 0.000000
# 4 0.000000 0.000000 0.000000 0.017922 0.000000 0.003220
# 5 -0.002633 0.000722 0.001334 0.000000 0.021616 0.000000
# 6 0.000000 0.000000 0.000000 0.003220 0.000000 0.025735
#
#
# Mechanical properties :
#
#
# Convention : Reuss Voigt Hill
#
# Bulk Modulus (GPa) = 112.81982 114.61908 113.71945
# Shear Modulus (GPa) = 46.09827 49.64438 47.87133
#
# Velocity S-wave (km/s) = 4.16101 4.31809 4.24028
# Velocity P-wave (km/s) = 8.09069 8.24081 8.16609
#
# Compressibility (1/GPa) = 0.00886369
#
# Stress axis : x y z
#
# Youngs Moduli (GPa) = 124.57469 151.80039 100.65151
#
# Poissons Ratio (x) = 0.09816 0.36143
# Poissons Ratio (y) = 0.08056 0.36292
# Poissons Ratio (z) = 0.44733 0.54735
#
# Static dielectric constant tensor:
#      x y z
#    x 2.065770 0.000000 -0.006010 
#    y 0.000000 1.876930 0.000000 
#    z -0.006010 0.000000 2.039270 
# 
# From -- ./inp_files/62258.got.cif
#   From: 2010.05.17/outbox.cif.g08.bks.cpg/sg14_32_cif.got.tgz:62258.got - 2010.06.03 17:49:19.
