data_PCOD9251347
_publ_section_title
;
Structure prediction by ZEFSAII (Michael W. Deem and Ramdas Pophale) SiO2 
 PCOD9251347
Probable space group: P 21/C
;
_chemical_formula_sum "Si O2"
_cell_formula_units_Z 28
_cell_length_a 13.433264
_cell_length_b 14.696569
_cell_length_c 9.856848
_cell_angle_alpha 90.000000
_cell_angle_beta 148.336146
_cell_angle_gamma 90.000000
_cell_volume 1021.506021
_symmetry_space_group_name_H-M "P 21/C"
_symmetry_group_IT_number 14
_symmetry_cell_setting 'monoclinic'
loop_
_space_group_symop_operation_xyz
x,y,z
-x,1/2+y,1/2-z
-x,-y,-z
x,1/2-y,1/2+z
loop_
_atom_site_type_symbol
_atom_site_label
_atom_site_fract_x
_atom_site_fract_y
_atom_site_fract_z
Si Si1 0.110068 0.126695 0.079032
Si Si2 0.000623 0.803783 0.630026
Si Si3 0.647583 0.664125 0.913984
Si Si4 0.335791 0.453534 0.617626
Si Si5 0.697536 0.392271 0.196433
Si Si6 0.344882 0.786997 0.688838
Si Si7 0.697080 0.427744 0.647296
O O1 0.094560 0.234911 0.084797
O O2 0.907347 0.089116 0.884507
O O3 0.285249 0.103113 0.379866
O O4 0.173590 0.106840 0.000156
O O5 0.838350 0.827862 0.548018
O O6 0.166480 0.742881 0.891155
O O7 0.108515 0.886215 0.686183
O O8 0.539343 0.754678 0.842031
O O9 0.490119 0.615377 0.639825
O O10 0.313865 0.548435 0.678705
O O11 0.308818 0.472217 0.426840
O O12 0.536969 0.415894 0.901819
O O13 0.670314 0.286804 0.205709
O O14 0.317883 0.887634 0.718712
#
# Coordination Sequence:
#
# PCOD9251347 Si02
#       7
#     4   4   4   4   4   4   4
#     4  12  22  37  62  89 123 156 191 250 302 347
#     4  11  22  37  61  89 117 160 202 238 293 356
#     4  11  20  35  61  89 113 155 201 245 290 345
#     4  11  22  36  58  93 121 149 194 250 305 347
#     4  11  20  38  59  89 121 153 190 247 302 344
#     4  11  21  39  60  86 122 158 199 243 286 357
#     4  11  22  39  59  87 123 156 199 246 293 353
#
# _framework density 27.410509000000001
#
# number of rings (size 3 to 8) (size 9 to 14) (size 15 to 20)
#    0.000    0.857    7.143    2.143    0.000    1.143 
#    0.000    0.714    0.000    1.714    0.000    0.000 
#    0.000    0.000    0.000    0.000    0.000    0.000 
#
# Total GULP energy -156853.398838 kJ/mol
# GULP energy per Si atom -5601.907101 kJ/mol
# Density = 2.734812 g / cm^3
# Si number density = 27.410509 Si / 1000 Ang^3
#
#
#
# Elastic Constant Matrix: (Units=GPa)
#
#
# Indices 1 2 3 4 5 6 
#
# 1 141.9605 13.6058 38.6118 0.0000 47.7295 0.0000
# 2 13.6058 41.2190 7.5065 0.0000 10.1859 0.0000
# 3 38.6118 7.5065 111.0166 0.0000 36.9740 0.0000
# 4 0.0000 0.0000 0.0000 48.4674 0.0000 -3.3010
# 5 47.7295 10.1859 36.9740 0.0000 53.4852 0.0000
# 6 0.0000 0.0000 0.0000 -3.3010 0.0000 46.2251
#
#
#
# Elastic Compliance Matrix: (Units=1/GPa)
#
#
# Indices 1 2 3 4 5 6 
#
# 1 0.010154 -0.001160 -0.000661 0.000000 -0.008383 0.000000
# 2 -0.001160 0.025593 -0.000063 0.000000 -0.003796 0.000000
# 3 -0.000661 -0.000063 0.011746 0.000000 -0.007518 0.000000
# 4 0.000000 0.000000 0.000000 0.020733 0.000000 0.001481
# 5 -0.008383 -0.003796 -0.007518 0.000000 0.032098 0.000000
# 6 0.000000 0.000000 0.000000 0.001481 0.000000 0.021739
#
#
# Mechanical properties :
#
#
# Convention : Reuss Voigt Hill
#
# Bulk Modulus (GPa) = 22.87032 45.96049 34.41540
# Shear Modulus (GPa) = 35.61140 45.26700 40.43920
#
# Velocity S-wave (km/s) = 3.60834 4.06821 3.84515
# Velocity P-wave (km/s) = 5.07167 6.23466 5.68299
#
# Compressibility (1/GPa) = 0.04372480
#
# Stress axis : x y z
#
# Youngs Moduli (GPa) = 98.48583 39.07344 85.13813
#
# Poissons Ratio (x) = 0.04531 0.05628
# Poissons Ratio (y) = 0.11420 0.00537
# Poissons Ratio (z) = 0.06510 0.00246
#
# Static dielectric constant tensor:
#      x y z
#    x 2.244180 0.000000 -0.079070 
#    y 0.000000 2.253000 0.000000 
#    z -0.079070 0.000000 2.074430 
# 
# From -- ./inp_files/32932.got.cif
#   From: 2010.05.17/outbox.cif.g08.bks.cpg/sg14_17_cif.got.tgz:32932.got - 2010.06.03 17:49:19.
