data_PCOD9251691
_publ_section_title
;
Structure prediction by ZEFSAII (Michael W. Deem and Ramdas Pophale) SiO2 
 PCOD9251691
Probable space group: P 21/C
;
_chemical_formula_sum "Si O2"
_cell_formula_units_Z 24
_cell_length_a 8.083733
_cell_length_b 8.668394
_cell_length_c 16.823697
_cell_angle_alpha 90.000000
_cell_angle_beta 90.873089
_cell_angle_gamma 90.000000
_cell_volume 1178.749759
_symmetry_space_group_name_H-M "P 21/C"
_symmetry_group_IT_number 14
_symmetry_cell_setting 'monoclinic'
loop_
_space_group_symop_operation_xyz
x,y,z
-x,1/2+y,1/2-z
-x,-y,-z
x,1/2-y,1/2+z
loop_
_atom_site_type_symbol
_atom_site_label
_atom_site_fract_x
_atom_site_fract_y
_atom_site_fract_z
Si Si1 0.805528 0.592943 0.620925
Si Si2 0.497748 0.099708 0.580435
Si Si3 0.339895 0.427375 0.542116
Si Si4 0.825771 0.420744 0.311048
Si Si5 0.384737 0.362113 0.800591
Si Si6 0.328119 0.710233 0.306912
O O1 0.800392 0.574509 0.526315
O O2 0.709626 0.749362 0.641000
O O3 0.700404 0.459584 0.662645
O O4 0.987415 0.577015 0.658212
O O5 0.379288 0.249789 0.568525
O O6 0.665743 0.183459 0.613916
O O7 0.500000 0.000000 0.500000
O O8 0.486697 0.971174 0.650171
O O9 0.500000 0.500000 0.500000
O O10 0.287657 0.538651 0.613699
O O11 0.757138 0.544165 0.246769
O O12 0.797647 0.263859 0.261649
O O13 0.495318 0.275857 0.735921
#
# Coordination Sequence:
#
# PCOD9251691 Si02
#       6
#     4   4   4   4   4   4
#     4  12  23  41  65  93 136 167 207 279 328 383
#     4  11  22  38  64  95 119 160 222 269 304 377
#     4  12  22  43  66  91 125 172 221 266 318 395
#     4  11  25  40  62  98 130 168 215 269 337 371
#     4  11  22  41  66  93 126 171 221 261 316 394
#     4  11  23  41  66  94 123 172 218 261 313 394
#
# _framework density 20.360557
#
# number of rings (size 3 to 8) (size 9 to 14) (size 15 to 20)
#    0.000    0.667    5.000    4.500    0.000    0.000 
#    0.000    0.000    0.000    3.000    0.000    0.000 
#    0.000    0.000    0.000    0.000    0.000    0.000 
#
# Total GULP energy -133757.759466 kJ/mol
# GULP energy per Si atom -5573.239978 kJ/mol
# Density = 2.031422 g / cm^3
# Si number density = 20.360557 Si / 1000 Ang^3
#
#
#
# Elastic Constant Matrix: (Units=GPa)
#
#
# Indices 1 2 3 4 5 6 
#
# 1 59.1008 4.2979 27.9902 0.0000 17.4483 0.0000
# 2 4.2979 66.9520 51.3051 0.0000 -1.9370 0.0000
# 3 27.9902 51.3051 143.4395 0.0000 27.9352 0.0000
# 4 0.0000 0.0000 0.0000 38.2791 0.0000 4.0282
# 5 17.4483 -1.9370 27.9352 0.0000 36.1954 0.0000
# 6 0.0000 0.0000 0.0000 4.0282 0.0000 16.1931
#
#
#
# Elastic Compliance Matrix: (Units=1/GPa)
#
#
# Indices 1 2 3 4 5 6 
#
# 1 0.020436 0.000493 -0.002649 0.000000 -0.007781 0.000000
# 2 0.000493 0.022752 -0.009915 0.000000 0.008633 0.000000
# 3 -0.002649 -0.009915 0.012816 0.000000 -0.009145 0.000000
# 4 0.000000 0.000000 0.000000 0.026826 0.000000 -0.006673
# 5 -0.007781 0.008633 -0.009145 0.000000 0.038899 0.000000
# 6 0.000000 0.000000 0.000000 -0.006673 0.000000 0.063415
#
#
# Mechanical properties :
#
#
# Convention : Reuss Voigt Hill
#
# Bulk Modulus (GPa) = 31.38582 48.51984 39.95283
# Shear Modulus (GPa) = 22.73688 30.52678 26.63183
#
# Velocity S-wave (km/s) = 3.34535 3.87629 3.62057
# Velocity P-wave (km/s) = 5.51092 6.62693 6.09453
#
# Compressibility (1/GPa) = 0.03186153
#
# Stress axis : x y z
#
# Youngs Moduli (GPa) = 48.93343 43.95160 78.02780
#
# Poissons Ratio (x) = -0.02166 0.20667
# Poissons Ratio (y) = -0.02411 0.77367
# Poissons Ratio (z) = 0.12961 0.43580
#
# Static dielectric constant tensor:
#      x y z
#    x 1.711240 0.000000 0.025600 
#    y 0.000000 1.786610 0.000000 
#    z 0.025600 0.000000 1.753800 
# 
# From -- ./inp_files/39038.got.cif
#   From: 2010.05.17/outbox.cif.g08.bks.cpg/sg14_20_cif.got.tgz:39038.got - 2010.06.03 17:49:19.
