data_PCOD9251900
_publ_section_title
;
Structure prediction by ZEFSAII (Michael W. Deem and Ramdas Pophale) SiO2 
 PCOD9251900
Probable space group: P 21/C
;
_chemical_formula_sum "Si O2"
_cell_formula_units_Z 32
_cell_length_a 25.438705
_cell_length_b 7.761293
_cell_length_c 14.520764
_cell_angle_alpha 90.000000
_cell_angle_beta 29.705066
_cell_angle_gamma 90.000000
_cell_volume 1420.670266
_symmetry_space_group_name_H-M "P 21/C"
_symmetry_group_IT_number 14
_symmetry_cell_setting 'monoclinic'
loop_
_space_group_symop_operation_xyz
x,y,z
-x,1/2+y,1/2-z
-x,-y,-z
x,1/2-y,1/2+z
loop_
_atom_site_type_symbol
_atom_site_label
_atom_site_fract_x
_atom_site_fract_y
_atom_site_fract_z
Si Si1 0.489768 0.458017 0.408883
Si Si2 0.735414 0.874669 0.810429
Si Si3 0.850601 0.342447 0.765783
Si Si4 0.359704 0.482090 0.972932
Si Si5 0.011854 0.912757 0.110625
Si Si6 0.780447 0.501987 0.438299
Si Si7 0.532501 0.050565 0.347890
Si Si8 0.116094 0.281586 0.556450
O O1 0.500000 0.500000 0.500000
O O2 0.370115 0.482894 0.553894
O O3 0.577016 0.559263 0.216924
O O4 0.516327 0.254989 0.357488
O O5 0.810748 0.855172 0.607759
O O6 0.795072 0.938628 0.810492
O O7 0.693542 0.684431 0.900726
O O8 0.903084 0.507223 0.735564
O O9 0.837441 0.183085 0.854232
O O10 0.927836 0.310432 0.561335
O O11 0.733933 0.386124 0.905935
O O12 0.451748 0.544423 0.901668
O O13 0.984654 0.804548 0.241893
O O14 0.082219 0.075659 0.033742
O O15 0.654387 0.489341 0.644041
O O16 0.823731 0.626342 0.450965
O O17 0.500000 0.000000 0.500000
#
# Coordination Sequence:
#
# PCOD9251900 Si02
#       8
#     4   4   4   4   4   4   4   4
#     4  11  25  41  68 103 137 185 226 273 342 420
#     4  11  26  44  71 105 141 186 231 288 350 418
#     4  11  25  47  73 100 137 187 235 297 352 409
#     4  11  22  47  66  97 146 183 222 280 344 413
#     4  11  27  49  71 102 137 183 242 298 356 409
#     4  12  25  45  73 106 139 187 232 288 359 424
#     4  11  25  41  66 102 144 180 226 273 342 422
#     4  12  27  48  74 102 141 184 238 299 354 421
#
# _framework density 22.524578999999999
#
# number of rings (size 3 to 8) (size 9 to 14) (size 15 to 20)
#    0.000    0.750    3.750    3.000    8.750    1.500 
#    0.000    0.000    0.000    0.000    0.000    0.000 
#    0.000    0.000    0.000    0.000    0.000    0.000 
#
# Total GULP energy -179140.609060 kJ/mol
# GULP energy per Si atom -5598.144033 kJ/mol
# Density = 2.247331 g / cm^3
# Si number density = 22.524579 Si / 1000 Ang^3
#
#
#
# Elastic Constant Matrix: (Units=GPa)
#
#
# Indices 1 2 3 4 5 6 
#
# 1 92.6431 1.0834 54.3913 0.0000 10.9476 0.0000
# 2 1.0834 28.7631 21.8625 0.0000 -5.2334 0.0000
# 3 54.3913 21.8625 98.0988 0.0000 5.5917 0.0000
# 4 0.0000 0.0000 0.0000 23.9402 0.0000 10.4237
# 5 10.9476 -5.2334 5.5917 0.0000 38.7490 0.0000
# 6 0.0000 0.0000 0.0000 10.4237 0.0000 33.5045
#
#
#
# Elastic Compliance Matrix: (Units=1/GPa)
#
#
# Indices 1 2 3 4 5 6 
#
# 1 0.017623 0.007510 -0.011312 0.000000 -0.002332 0.000000
# 2 0.007510 0.047063 -0.015018 0.000000 0.006402 0.000000
# 3 -0.011312 -0.015018 0.019910 0.000000 -0.001705 0.000000
# 4 0.000000 0.000000 0.000000 0.048316 0.000000 -0.015032
# 5 -0.002332 0.006402 -0.001705 0.000000 0.027577 0.000000
# 6 0.000000 0.000000 0.000000 -0.015032 0.000000 0.034523
#
#
# Mechanical properties :
#
#
# Convention : Reuss Voigt Hill
#
# Bulk Modulus (GPa) = 21.29589 41.57550 31.43569
# Shear Modulus (GPa) = 20.13662 28.71659 24.42660
#
# Velocity S-wave (km/s) = 2.99320 3.57445 3.29666
# Velocity P-wave (km/s) = 4.62825 5.96100 5.33639
#
# Compressibility (1/GPa) = 0.04695742
#
# Stress axis : x y z
#
# Youngs Moduli (GPa) = 56.74303 21.24794 50.22622
#
# Poissons Ratio (x) = -0.15957 0.56816
# Poissons Ratio (y) = -0.42614 0.75428
# Poissons Ratio (z) = 0.64188 0.31909
#
# Static dielectric constant tensor:
#      x y z
#    x 1.791740 0.000000 -0.008950 
#    y 0.000000 1.857220 0.000000 
#    z -0.008950 0.000000 1.819250 
# 
# From -- ./inp_files/51356.got.cif
#   From: 2010.05.17/outbox.cif.g08.bks.cpg/sg14_26_cif.got.tgz:51356.got - 2010.06.03 17:49:19.
