data_PCOD9251242
_publ_section_title
;
Structure prediction by ZEFSAII (Michael W. Deem and Ramdas Pophale) SiO2 
 PCOD9251242
Probable space group: P 21/C
;
_chemical_formula_sum "Si O2"
_cell_formula_units_Z 14
_cell_length_a 8.002176
_cell_length_b 8.344676
_cell_length_c 12.090153
_cell_angle_alpha 90.000000
_cell_angle_beta 38.825703
_cell_angle_gamma 90.000000
_cell_volume 506.156257
_symmetry_space_group_name_H-M "P 21/C"
_symmetry_group_IT_number 14
_symmetry_cell_setting 'monoclinic'
loop_
_space_group_symop_operation_xyz
x,y,z
-x,1/2+y,1/2-z
-x,-y,-z
x,1/2-y,1/2+z
loop_
_atom_site_type_symbol
_atom_site_label
_atom_site_fract_x
_atom_site_fract_y
_atom_site_fract_z
Si Si1 0.500000 0.000000 0.000000
Si Si2 0.922036 0.656601 0.606185
Si Si3 0.708611 0.634349 0.931497
Si Si4 0.338433 0.568737 0.836292
O O1 0.390599 0.185570 0.033665
O O2 0.378389 0.996851 0.192055
O O3 0.962613 0.623310 0.717769
O O4 0.608553 0.652608 0.741903
O O5 0.119958 0.794079 0.467312
O O6 0.000000 0.500000 0.500000
O O7 0.500000 0.500000 0.000000
O O8 0.740031 0.574613 0.039487
#
# Coordination Sequence:
#
# PCOD9251242 Si02
#       4
#     2   4   4   4
#     4  12  28  54  88 128 184 232 302 380 444 548
#     4  11  27  56  90 133 186 235 309 381 461 545
#     4  10  26  52  87 127 179 236 302 367 459 540
#     4  11  27  57  93 136 178 249 304 380 466 551
#
# _framework density 27.659445000000002
#
# number of rings (size 3 to 8) (size 9 to 14) (size 15 to 20)
#    0.000    1.143    0.000    3.429   16.000    3.429 
#    5.143    0.000    0.000    0.000    0.000    0.000 
#    0.000    0.000    0.000    0.000    0.000    0.000 
#
# Total GULP energy -78034.773404 kJ/mol
# GULP energy per Si atom -5573.912386 kJ/mol
# Density = 2.759649 g / cm^3
# Si number density = 27.659445 Si / 1000 Ang^3
#
#
#
# Elastic Constant Matrix: (Units=GPa)
#
#
# Indices 1 2 3 4 5 6 
#
# 1 141.9209 84.2556 114.2870 0.0000 21.0234 0.0000
# 2 84.2556 295.7962 156.9920 0.0000 44.1336 0.0000
# 3 114.2870 156.9920 282.6366 0.0000 70.3736 0.0000
# 4 0.0000 0.0000 0.0000 65.2109 0.0000 15.5899
# 5 21.0234 44.1336 70.3736 0.0000 73.7775 0.0000
# 6 0.0000 0.0000 0.0000 15.5899 0.0000 57.6457
#
#
#
# Elastic Compliance Matrix: (Units=1/GPa)
#
#
# Indices 1 2 3 4 5 6 
#
# 1 0.010809 -0.001113 -0.004133 0.000000 0.001528 0.000000
# 2 -0.001113 0.004919 -0.002136 0.000000 -0.000588 0.000000
# 3 -0.004133 -0.002136 0.007586 0.000000 -0.004781 0.000000
# 4 0.000000 0.000000 0.000000 0.016395 0.000000 -0.004434
# 5 0.001528 -0.000588 -0.004781 0.000000 0.018031 0.000000
# 6 0.000000 0.000000 0.000000 -0.004434 0.000000 0.018546
#
#
# Mechanical properties :
#
#
# Convention : Reuss Voigt Hill
#
# Bulk Modulus (GPa) = 116.95591 159.04700 138.00145
# Shear Modulus (GPa) = 53.24852 63.64810 58.44831
#
# Velocity S-wave (km/s) = 4.39241 4.80222 4.60188
# Velocity P-wave (km/s) = 8.25230 9.40080 8.84521
#
# Compressibility (1/GPa) = 0.00855023
#
# Stress axis : x y z
#
# Youngs Moduli (GPa) = 92.51708 203.28887 131.82557
#
# Poissons Ratio (x) = 0.22635 0.54479
# Poissons Ratio (y) = 0.10301 0.28154
# Poissons Ratio (z) = 0.38234 0.43416
#
# Static dielectric constant tensor:
#      x y z
#    x 2.439660 0.000000 -0.091490 
#    y 0.000000 2.211380 0.000000 
#    z -0.091490 0.000000 2.416990 
# 
# From -- ./inp_files/22545.got.cif
#   From: 2010.05.17/outbox.cif.g08.bks.cpg/sg14_12_cif.got.tgz:22545.got - 2010.06.03 17:49:19.
