data_PCOD9251537
_publ_section_title
;
Structure prediction by ZEFSAII (Michael W. Deem and Ramdas Pophale) SiO2 
 PCOD9251537
Probable space group: P 21/C
;
_chemical_formula_sum "Si O2"
_cell_formula_units_Z 32
_cell_length_a 16.732576
_cell_length_b 8.442173
_cell_length_c 25.112075
_cell_angle_alpha 90.000000
_cell_angle_beta 27.956494
_cell_angle_gamma 90.000000
_cell_volume 1662.984377
_symmetry_space_group_name_H-M "P 21/C"
_symmetry_group_IT_number 14
_symmetry_cell_setting 'monoclinic'
loop_
_space_group_symop_operation_xyz
x,y,z
-x,1/2+y,1/2-z
-x,-y,-z
x,1/2-y,1/2+z
loop_
_atom_site_type_symbol
_atom_site_label
_atom_site_fract_x
_atom_site_fract_y
_atom_site_fract_z
Si Si1 0.307892 0.934344 0.109925
Si Si2 0.984783 0.093943 0.564356
Si Si3 0.675346 0.242831 0.294614
Si Si4 0.474151 0.055096 0.834970
Si Si5 0.379405 0.380036 0.195819
Si Si6 0.734932 0.314333 0.483998
Si Si7 0.099776 0.329171 0.798265
Si Si8 0.670890 0.767704 0.666243
O O1 0.288525 0.797209 0.166279
O O2 0.268773 0.874707 0.074206
O O3 0.182728 0.075655 0.200735
O O4 0.500000 0.000000 0.000000
O O5 0.160926 0.186822 0.464668
O O6 0.835506 0.220726 0.661686
O O7 0.000000 0.000000 0.500000
O O8 0.947077 0.960021 0.629910
O O9 0.538197 0.365466 0.351474
O O10 0.618925 0.062306 0.322323
O O11 0.453869 0.190269 0.803078
O O12 0.602673 0.925705 0.735086
O O13 0.308873 0.954053 0.948322
O O14 0.247905 0.283334 0.235493
O O15 0.308196 0.355868 0.297726
O O16 0.571181 0.305781 0.083757
O O17 0.921239 0.249529 0.387831
#
# Coordination Sequence:
#
# PCOD9251537 Si02
#       8
#     4   4   4   4   4   4   4   4
#     4  11  21  50  70  87 131 177 214 275 337 382
#     4  11  21  41  64  89 131 177 212 260 328 394
#     4  11  24  40  67  94 127 172 220 269 333 388
#     4  11  23  39  63  94 129 174 213 263 326 392
#     4  11  24  43  64 100 134 169 216 269 327 395
#     4  11  25  45  70  95 132 172 220 277 327 390
#     4  11  25  43  68  98 130 171 224 272 331 392
#     4  11  23  39  62  93 133 170 212 260 327 392
#
# _framework density 19.242514
#
# number of rings (size 3 to 8) (size 9 to 14) (size 15 to 20)
#    0.000    1.000    5.000    2.250    7.000    3.000 
#    4.500    0.000    0.000    0.000    0.000    0.000 
#    0.000    0.000    0.000    0.000    0.000    0.000 
#
# Total GULP energy -178613.627841 kJ/mol
# GULP energy per Si atom -5581.675870 kJ/mol
# Density = 1.919872 g / cm^3
# Si number density = 19.242514 Si / 1000 Ang^3
#
#
#
# Elastic Constant Matrix: (Units=GPa)
#
#
# Indices 1 2 3 4 5 6 
#
# 1 56.9906 11.0969 5.9589 0.0000 -2.1094 0.0000
# 2 11.0969 53.5670 24.2683 0.0000 -0.5461 0.0000
# 3 5.9589 24.2683 96.4671 0.0000 -7.5752 0.0000
# 4 0.0000 0.0000 0.0000 27.4612 0.0000 -11.8229
# 5 -2.1094 -0.5461 -7.5752 0.0000 34.4766 0.0000
# 6 0.0000 0.0000 0.0000 -11.8229 0.0000 22.8753
#
#
#
# Elastic Compliance Matrix: (Units=1/GPa)
#
#
# Indices 1 2 3 4 5 6 
#
# 1 0.018324 -0.003735 -0.000111 0.000000 0.001038 0.000000
# 2 -0.003735 0.021855 -0.005350 0.000000 -0.001058 0.000000
# 3 -0.000111 -0.005350 0.011918 0.000000 0.002527 0.000000
# 4 0.000000 0.000000 0.000000 0.046837 0.000000 0.024207
# 5 0.001038 -0.001058 0.002527 0.000000 0.029607 0.000000
# 6 0.000000 0.000000 0.000000 0.024207 0.000000 0.056227
#
#
# Mechanical properties :
#
#
# Convention : Reuss Voigt Hill
#
# Bulk Modulus (GPa) = 29.67021 32.18589 30.92805
# Shear Modulus (GPa) = 23.32142 28.00933 25.66537
#
# Velocity S-wave (km/s) = 3.48512 3.81937 3.65606
# Velocity P-wave (km/s) = 5.62559 6.01771 5.82495
#
# Compressibility (1/GPa) = 0.03370384
#
# Stress axis : x y z
#
# Youngs Moduli (GPa) = 54.57308 45.75566 83.91005
#
# Poissons Ratio (x) = 0.17091 0.00929
# Poissons Ratio (y) = 0.20384 0.44896
# Poissons Ratio (z) = 0.00604 0.24481
#
# Static dielectric constant tensor:
#      x y z
#    x 1.666360 0.000000 -0.037740 
#    y 0.000000 1.695990 0.000000 
#    z -0.037740 0.000000 1.723030 
# 
# From -- ./inp_files/51231.got.cif
#   From: 2010.05.17/outbox.cif.g08.bks.cpg/sg14_26_cif.got.tgz:51231.got - 2010.06.03 17:49:19.
