data_PCOD9251566
_publ_section_title
;
Structure prediction by ZEFSAII (Michael W. Deem and Ramdas Pophale) SiO2 
 PCOD9251566
Probable space group: P 21/C
;
_chemical_formula_sum "Si O2"
_cell_formula_units_Z 20
_cell_length_a 7.447673
_cell_length_b 7.527418
_cell_length_c 15.595841
_cell_angle_alpha 90.000000
_cell_angle_beta 123.802988
_cell_angle_gamma 90.000000
_cell_volume 726.529372
_symmetry_space_group_name_H-M "P 21/C"
_symmetry_group_IT_number 14
_symmetry_cell_setting 'monoclinic'
loop_
_space_group_symop_operation_xyz
x,y,z
-x,1/2+y,1/2-z
-x,-y,-z
x,1/2-y,1/2+z
loop_
_atom_site_type_symbol
_atom_site_label
_atom_site_fract_x
_atom_site_fract_y
_atom_site_fract_z
Si Si1 0.181488 0.138587 0.961062
Si Si2 0.710726 0.357598 0.364356
Si Si3 0.224700 0.851882 0.354294
Si Si4 0.351311 0.992226 0.572081
Si Si5 0.266070 0.449787 0.300506
O O1 0.233321 0.318709 0.027051
O O2 0.929893 0.102441 0.870853
O O3 0.300131 0.145801 0.901846
O O4 0.249494 0.976816 0.039679
O O5 0.455674 0.393497 0.285984
O O6 0.733283 0.146198 0.381513
O O7 0.393518 0.974361 0.347137
O O8 0.263668 0.656492 0.326589
O O9 0.309304 0.885832 0.472613
O O10 0.973169 0.896955 0.291691
#
# Coordination Sequence:
#
# PCOD9251566 Si02
#       5
#     4   4   4   4   4
#     4  11  23  41  67  94 127 168 210 260 317 379
#     4  11  23  41  67  94 127 168 210 260 317 379
#     4  11  23  38  69  94 127 174 212 264 324 379
#     4  11  21  42  66  97 127 170 215 257 322 383
#     4  12  22  44  63  95 133 166 215 270 318 372
#
# _framework density 27.528134000000001
#
# number of rings (size 3 to 8) (size 9 to 14) (size 15 to 20)
#    0.000    0.800    4.000    6.000    0.000    0.000 
#    0.000   10.000    0.000    0.000    0.000    0.000 
#    0.000    0.000    0.000    0.000    0.000    0.000 
#
# Total GULP energy -112076.901715 kJ/mol
# GULP energy per Si atom -5603.845086 kJ/mol
# Density = 2.746548 g / cm^3
# Si number density = 27.528134 Si / 1000 Ang^3
#
#
#
# Elastic Constant Matrix: (Units=GPa)
#
#
# Indices 1 2 3 4 5 6 
#
# 1 139.8930 17.4539 43.3031 0.0000 41.1834 0.0000
# 2 17.4539 171.0403 42.3014 0.0000 8.8584 0.0000
# 3 43.3031 42.3014 121.2840 0.0000 43.2895 0.0000
# 4 0.0000 0.0000 0.0000 39.7110 0.0000 8.5074
# 5 41.1834 8.8584 43.2895 0.0000 46.7930 0.0000
# 6 0.0000 0.0000 0.0000 8.5074 0.0000 26.7888
#
#
#
# Elastic Compliance Matrix: (Units=1/GPa)
#
#
# Indices 1 2 3 4 5 6 
#
# 1 0.009713 -0.000468 -0.000426 0.000000 -0.008066 0.000000
# 2 -0.000468 0.006472 -0.002687 0.000000 0.001673 0.000000
# 3 -0.000426 -0.002687 0.013465 0.000000 -0.011574 0.000000
# 4 0.000000 0.000000 0.000000 0.027020 0.000000 -0.008581
# 5 -0.008066 0.001673 -0.011574 0.000000 0.038861 0.000000
# 6 0.000000 0.000000 0.000000 -0.008581 0.000000 0.040054
#
#
# Mechanical properties :
#
#
# Convention : Reuss Voigt Hill
#
# Bulk Modulus (GPa) = 44.46690 70.92599 57.69644
# Shear Modulus (GPa) = 33.27910 44.60249 38.94079
#
# Velocity S-wave (km/s) = 3.48071 4.02960 3.76517
# Velocity P-wave (km/s) = 5.68702 6.88993 6.31717
#
# Compressibility (1/GPa) = 0.02248864
#
# Stress axis : x y z
#
# Youngs Moduli (GPa) = 102.95324 154.50346 74.26441
#
# Poissons Ratio (x) = 0.07233 0.03161
# Poissons Ratio (y) = 0.04820 0.19958
# Poissons Ratio (z) = 0.04381 0.41521
#
# Static dielectric constant tensor:
#      x y z
#    x 2.104480 0.000000 -0.044460 
#    y 0.000000 2.124560 0.000000 
#    z -0.044460 0.000000 2.217400 
# 
# From -- ./inp_files/12711.got.cif
#   From: 2010.05.17/outbox.cif.g08.bks.cpg/sg14_7_cif.got.tgz:12711.got - 2010.06.03 17:49:19.
