data_PCOD9251213
_publ_section_title
;
Structure prediction by ZEFSAII (Michael W. Deem and Ramdas Pophale) SiO2 
 PCOD9251213
Probable space group: P 21/C
;
_chemical_formula_sum "Si O2"
_cell_formula_units_Z 16
_cell_length_a 9.140646
_cell_length_b 7.863090
_cell_length_c 15.593084
_cell_angle_alpha 90.000000
_cell_angle_beta 149.293986
_cell_angle_gamma 90.000000
_cell_volume 572.283436
_symmetry_space_group_name_H-M "P 21/C"
_symmetry_group_IT_number 14
_symmetry_cell_setting 'monoclinic'
loop_
_space_group_symop_operation_xyz
x,y,z
-x,1/2+y,1/2-z
-x,-y,-z
x,1/2-y,1/2+z
loop_
_atom_site_type_symbol
_atom_site_label
_atom_site_fract_x
_atom_site_fract_y
_atom_site_fract_z
Si Si1 0.149303 0.754923 0.410228
Si Si2 0.331413 0.951480 0.654419
Si Si3 0.863467 0.444141 0.341481
Si Si4 0.212606 0.599681 0.273993
O O1 0.316706 0.789776 0.583255
O O2 0.329897 0.679890 0.421607
O O3 0.919974 0.605763 0.310405
O O4 0.984922 0.933675 0.310364
O O5 0.424388 0.939417 0.800862
O O6 0.529069 0.070983 0.697083
O O7 0.000000 0.000000 0.500000
O O8 0.956232 0.265574 0.348707
O O9 0.000000 0.500000 0.500000
#
# Coordination Sequence:
#
# PCOD9251213 Si02
#       4
#     4   4   4   4
#     4  11  24  47  71 113 148 193 247 307 368 447
#     4  10  26  47  73 108 150 191 250 309 361 439
#     4  12  26  48  78 104 147 204 245 305 378 436
#     4  11  24  45  75 106 152 188 249 300 374 436
#
# _framework density 27.958172999999999
#
# number of rings (size 3 to 8) (size 9 to 14) (size 15 to 20)
#    0.000    1.000    5.000    0.000    7.000    1.000 
#    4.500    2.500    0.000    0.000    0.000    0.000 
#    0.000    0.000    0.000    0.000    0.000    0.000 
#
# Total GULP energy -89390.764987 kJ/mol
# GULP energy per Si atom -5586.922812 kJ/mol
# Density = 2.789454 g / cm^3
# Si number density = 27.958173 Si / 1000 Ang^3
#
#
#
# Elastic Constant Matrix: (Units=GPa)
#
#
# Indices 1 2 3 4 5 6 
#
# 1 202.5519 64.5117 28.1785 0.0000 -24.6604 0.0000
# 2 64.5117 231.3272 28.2337 0.0000 -2.7429 0.0000
# 3 28.1785 28.2337 55.3063 0.0000 8.5845 0.0000
# 4 0.0000 0.0000 0.0000 38.3115 0.0000 -7.8085
# 5 -24.6604 -2.7429 8.5845 0.0000 42.4390 0.0000
# 6 0.0000 0.0000 0.0000 -7.8085 0.0000 65.1060
#
#
#
# Elastic Compliance Matrix: (Units=1/GPa)
#
#
# Indices 1 2 3 4 5 6 
#
# 1 0.006319 -0.001321 -0.003202 0.000000 0.004234 0.000000
# 2 -0.001321 0.004913 -0.001822 0.000000 -0.000082 0.000000
# 3 -0.003202 -0.001822 0.021629 0.000000 -0.006354 0.000000
# 4 0.000000 0.000000 0.000000 0.026756 0.000000 0.003209
# 5 0.004234 -0.000082 -0.006354 0.000000 0.027303 0.000000
# 6 0.000000 0.000000 0.000000 0.003209 0.000000 0.015744
#
#
# Mechanical properties :
#
#
# Convention : Reuss Voigt Hill
#
# Bulk Modulus (GPa) = 49.57956 81.22591 65.40273
# Shear Modulus (GPa) = 40.95732 53.72207 47.33969
#
# Velocity S-wave (km/s) = 3.83162 4.38827 4.11936
# Velocity P-wave (km/s) = 6.11122 7.40213 6.78744
#
# Compressibility (1/GPa) = 0.02016960
#
# Stress axis : x y z
#
# Youngs Moduli (GPa) = 158.25953 203.55235 46.23419
#
# Poissons Ratio (x) = 0.26892 0.14805
# Poissons Ratio (y) = 0.20908 0.08425
# Poissons Ratio (z) = 0.50677 0.37091
#
# Static dielectric constant tensor:
#      x y z
#    x 2.238110 0.000000 -0.118420 
#    y 0.000000 2.206140 0.000000 
#    z -0.118420 0.000000 2.300710 
# 
# From -- ./inp_files/55001.got.cif
#   From: 2010.05.17/outbox.cif.g08.bks.cpg/sg14_28_cif.got.tgz:55001.got - 2010.06.03 17:49:19.
