data_PCOD9251396
_publ_section_title
;
Structure prediction by ZEFSAII (Michael W. Deem and Ramdas Pophale) SiO2 
 PCOD9251396
Probable space group: P 21/C
;
_chemical_formula_sum "Si O2"
_cell_formula_units_Z 28
_cell_length_a 9.096067
_cell_length_b 14.247432
_cell_length_c 11.090291
_cell_angle_alpha 90.000000
_cell_angle_beta 52.081281
_cell_angle_gamma 90.000000
_cell_volume 1133.824862
_symmetry_space_group_name_H-M "P 21/C"
_symmetry_group_IT_number 14
_symmetry_cell_setting 'monoclinic'
loop_
_space_group_symop_operation_xyz
x,y,z
-x,1/2+y,1/2-z
-x,-y,-z
x,1/2-y,1/2+z
loop_
_atom_site_type_symbol
_atom_site_label
_atom_site_fract_x
_atom_site_fract_y
_atom_site_fract_z
Si Si1 0.679343 0.510862 0.273816
Si Si2 0.364293 0.630281 0.374017
Si Si3 0.681198 0.345067 0.102435
Si Si4 0.871656 0.683456 0.108244
Si Si5 0.257257 0.577937 0.180281
Si Si6 0.078805 0.228763 0.150864
Si Si7 0.965010 0.425115 0.307897
O O1 0.496062 0.570614 0.395244
O O2 0.626835 0.412526 0.239219
O O3 0.785158 0.581196 0.127435
O O4 0.831441 0.493620 0.299588
O O5 0.400378 0.740721 0.361187
O O6 0.390026 0.594546 0.225778
O O7 0.152296 0.606366 0.517043
O O8 0.648590 0.399455 0.994125
O O9 0.904695 0.327864 0.000158
O O10 0.817780 0.708883 0.274102
O O11 0.821588 0.757543 0.028582
O O12 0.088732 0.654481 0.277005
O O13 0.156387 0.477876 0.236070
O O14 0.993436 0.331499 0.217452
#
# Coordination Sequence:
#
# PCOD9251396 Si02
#       7
#     4   4   4   4   4   4   4
#     4  12  25  44  69 103 131 183 229 275 343 418
#     4  12  26  44  63 103 144 172 217 292 355 390
#     4  11  22  45  71  88 133 186 224 272 344 410
#     4  11  21  42  71 100 129 182 237 279 327 416
#     4  11  22  42  69  92 129 179 225 278 337 407
#     4  11  20  40  72  98 131 170 242 277 329 395
#     4  12  21  42  71  98 130 180 229 274 334 419
#
# _framework density 24.695169
#
# number of rings (size 3 to 8) (size 9 to 14) (size 15 to 20)
#    0.000    0.571    8.571    2.143    0.000    0.571 
#    7.714    0.000    0.000    0.000    0.000    0.000 
#    0.000    0.000    0.000    0.000    0.000    0.000 
#
# Total GULP energy -156677.672646 kJ/mol
# GULP energy per Si atom -5595.631166 kJ/mol
# Density = 2.463896 g / cm^3
# Si number density = 24.695169 Si / 1000 Ang^3
#
#
#
# Elastic Constant Matrix: (Units=GPa)
#
#
# Indices 1 2 3 4 5 6 
#
# 1 80.4011 25.6368 25.9058 0.0000 11.5147 0.0000
# 2 25.6368 112.2647 6.9735 0.0000 -1.0988 0.0000
# 3 25.9058 6.9735 56.2941 0.0000 23.0335 0.0000
# 4 0.0000 0.0000 0.0000 39.4667 0.0000 2.6559
# 5 11.5147 -1.0988 23.0335 0.0000 31.4213 0.0000
# 6 0.0000 0.0000 0.0000 2.6559 0.0000 15.4895
#
#
#
# Elastic Compliance Matrix: (Units=1/GPa)
#
#
# Indices 1 2 3 4 5 6 
#
# 1 0.015666 -0.003198 -0.006312 0.000000 -0.001226 0.000000
# 2 -0.003198 0.009687 -0.000495 0.000000 0.001873 0.000000
# 3 -0.006312 -0.000495 0.028270 0.000000 -0.018427 0.000000
# 4 0.000000 0.000000 0.000000 0.025634 0.000000 -0.004395
# 5 -0.001226 0.001873 -0.018427 0.000000 0.045849 0.000000
# 6 0.000000 0.000000 0.000000 -0.004395 0.000000 0.065313
#
#
# Mechanical properties :
#
#
# Convention : Reuss Voigt Hill
#
# Bulk Modulus (GPa) = 29.74926 40.66581 35.20753
# Shear Modulus (GPa) = 22.55996 29.97178 26.26587
#
# Velocity S-wave (km/s) = 3.02576 3.48756 3.26483
# Velocity P-wave (km/s) = 4.92744 5.72016 5.33854
#
# Compressibility (1/GPa) = 0.03361429
#
# Stress axis : x y z
#
# Youngs Moduli (GPa) = 63.83054 103.23333 35.37379
#
# Poissons Ratio (x) = 0.33009 0.22327
# Poissons Ratio (y) = 0.20410 0.01751
# Poissons Ratio (z) = 0.40288 0.05110
#
# Static dielectric constant tensor:
#      x y z
#    x 1.948280 0.000000 0.021700 
#    y 0.000000 1.934420 0.000000 
#    z 0.021700 0.000000 2.054140 
# 
# From -- ./inp_files/25134.got.cif
#   From: 2010.05.17/outbox.cif.g08.bks.cpg/sg14_13_cif.got.tgz:25134.got - 2010.06.03 17:49:19.
