data_PCOD9251887
_publ_section_title
;
Structure prediction by ZEFSAII (Michael W. Deem and Ramdas Pophale) SiO2 
 PCOD9251887
Probable space group: P 21/C
;
_chemical_formula_sum "Si O2"
_cell_formula_units_Z 20
_cell_length_a 4.894050
_cell_length_b 13.080482
_cell_length_c 11.374022
_cell_angle_alpha 90.000000
_cell_angle_beta 75.268947
_cell_angle_gamma 90.000000
_cell_volume 704.192028
_symmetry_space_group_name_H-M "P 21/C"
_symmetry_group_IT_number 14
_symmetry_cell_setting 'monoclinic'
loop_
_space_group_symop_operation_xyz
x,y,z
-x,1/2+y,1/2-z
-x,-y,-z
x,1/2-y,1/2+z
loop_
_atom_site_type_symbol
_atom_site_label
_atom_site_fract_x
_atom_site_fract_y
_atom_site_fract_z
Si Si1 0.220426 0.153634 0.385757
Si Si2 0.533893 0.648968 0.564009
Si Si3 0.110859 0.615508 0.419405
Si Si4 0.011876 0.689287 0.785799
Si Si5 0.232371 0.974620 0.662125
O O1 0.384323 0.231696 0.453499
O O2 0.158439 0.236450 0.286396
O O3 0.449722 0.062889 0.350947
O O4 0.924031 0.093323 0.419762
O O5 0.842715 0.598250 0.533703
O O6 0.394791 0.606308 0.461236
O O7 0.293610 0.646325 0.689670
O O8 0.109173 0.734349 0.377415
O O9 0.085567 0.556176 0.301101
O O10 0.826010 0.593606 0.847051
#
# Coordination Sequence:
#
# PCOD9251887 Si02
#       5
#     4   4   4   4   4
#     4  11  22  46  65  97 142 174 220 286 324 401
#     4  12  23  44  70  98 138 181 221 283 338 394
#     4  11  24  42  70  97 135 180 229 272 343 399
#     4  11  26  46  72  98 143 178 226 282 342 395
#     4  11  25  42  74  99 137 183 221 279 344 398
#
# _framework density 28.401344999999999
#
# number of rings (size 3 to 8) (size 9 to 14) (size 15 to 20)
#    0.000    0.800    6.000    2.400    2.800    1.600 
#    0.000    6.000    0.000    0.000    0.000    0.000 
#    0.000    0.000    0.000    0.000    0.000    0.000 
#
# Total GULP energy -111982.820983 kJ/mol
# GULP energy per Si atom -5599.141049 kJ/mol
# Density = 2.833670 g / cm^3
# Si number density = 28.401345 Si / 1000 Ang^3
#
#
#
# Elastic Constant Matrix: (Units=GPa)
#
#
# Indices 1 2 3 4 5 6 
#
# 1 176.2535 30.4354 23.3273 0.0000 -4.2412 0.0000
# 2 30.4354 142.1428 14.2847 0.0000 24.7696 0.0000
# 3 23.3273 14.2847 63.7023 0.0000 -10.8336 0.0000
# 4 0.0000 0.0000 0.0000 57.7088 0.0000 6.7818
# 5 -4.2412 24.7696 -10.8336 0.0000 46.2084 0.0000
# 6 0.0000 0.0000 0.0000 6.7818 0.0000 53.3249
#
#
#
# Elastic Compliance Matrix: (Units=1/GPa)
#
#
# Indices 1 2 3 4 5 6 
#
# 1 0.006156 -0.001277 -0.001828 0.000000 0.000821 0.000000
# 2 -0.001277 0.008444 -0.002307 0.000000 -0.005185 0.000000
# 3 -0.001828 -0.002307 0.017775 0.000000 0.005237 0.000000
# 4 0.000000 0.000000 0.000000 0.017591 0.000000 -0.002237
# 5 0.000821 -0.005185 0.005237 0.000000 0.025723 0.000000
# 6 0.000000 0.000000 0.000000 -0.002237 0.000000 0.019037
#
#
# Mechanical properties :
#
#
# Convention : Reuss Voigt Hill
#
# Bulk Modulus (GPa) = 46.40508 57.57705 51.99107
# Shear Modulus (GPa) = 44.35107 52.38517 48.36812
#
# Velocity S-wave (km/s) = 3.95597 4.29938 4.13125
# Velocity P-wave (km/s) = 6.10253 6.70543 6.41107
#
# Compressibility (1/GPa) = 0.02154936
#
# Stress axis : x y z
#
# Youngs Moduli (GPa) = 162.44424 118.42648 56.25732
#
# Poissons Ratio (x) = 0.15129 0.10285
# Poissons Ratio (y) = 0.20752 0.12981
# Poissons Ratio (z) = 0.29697 0.27326
#
# Static dielectric constant tensor:
#      x y z
#    x 2.092390 0.000000 -0.057760 
#    y 0.000000 2.255900 0.000000 
#    z -0.057760 0.000000 2.363290 
# 
# From -- ./inp_files/37108.got.cif
#   From: 2010.05.17/outbox.cif.g08.bks.cpg/sg14_19_cif.got.tgz:37108.got - 2010.06.03 17:49:19.
