data_PCOD9251393
_publ_section_title
;
Structure prediction by ZEFSAII (Michael W. Deem and Ramdas Pophale) SiO2 
 PCOD9251393
Probable space group: P 21/C
;
_chemical_formula_sum "Si O2"
_cell_formula_units_Z 28
_cell_length_a 9.591378
_cell_length_b 11.440619
_cell_length_c 28.510960
_cell_angle_alpha 90.000000
_cell_angle_beta 28.315853
_cell_angle_gamma 90.000000
_cell_volume 1483.968284
_symmetry_space_group_name_H-M "P 21/C"
_symmetry_group_IT_number 14
_symmetry_cell_setting 'monoclinic'
loop_
_space_group_symop_operation_xyz
x,y,z
-x,1/2+y,1/2-z
-x,-y,-z
x,1/2-y,1/2+z
loop_
_atom_site_type_symbol
_atom_site_label
_atom_site_fract_x
_atom_site_fract_y
_atom_site_fract_z
Si Si1 0.209459 0.032165 0.614679
Si Si2 0.774677 0.305329 0.844558
Si Si3 0.617536 0.880608 0.623927
Si Si4 0.839568 0.238819 0.676977
Si Si5 0.449803 0.137499 0.012178
Si Si6 0.271584 0.848672 0.395154
Si Si7 0.633108 0.731563 0.869979
O O1 0.343302 0.099484 0.619367
O O2 0.982602 0.120360 0.657266
O O3 0.500000 0.000000 0.500000
O O4 0.083724 0.908427 0.666635
O O5 0.520730 0.356479 0.886570
O O6 0.030159 0.267016 0.734645
O O7 0.651066 0.203529 0.914306
O O8 0.433852 0.797282 0.714053
O O9 0.961071 0.852211 0.514907
O O10 0.607768 0.017283 0.641907
O O11 0.762544 0.204026 0.646569
O O12 0.113817 0.329204 0.598549
O O13 0.506817 0.193984 0.046579
O O14 0.500000 0.000000 0.000000
O O15 0.479060 0.768743 0.365839
#
# Coordination Sequence:
#
# PCOD9251393 Si02
#       7
#     4   4   4   4   4   4   4
#     4  11  20  40  68  96 129 168 228 276 323 400
#     4  12  22  41  72  96 129 178 227 275 330 407
#     4  11  23  42  69  94 137 175 221 281 340 397
#     4  11  24  44  66 102 136 176 224 279 345 404
#     4  11  25  42  65  98 137 173 219 282 336 398
#     4  11  25  43  66  98 132 177 225 278 337 402
#     4  11  25  39  66  99 126 171 231 268 330 404
#
# _framework density 18.868327000000001
#
# number of rings (size 3 to 8) (size 9 to 14) (size 15 to 20)
#    0.000    0.857    8.571    0.000    6.000    2.286 
#    0.000    0.714    0.000    0.000    0.000    0.000 
#    0.000    0.000    0.000    0.000    0.000    0.000 
#
# Total GULP energy -156137.926937 kJ/mol
# GULP energy per Si atom -5576.354533 kJ/mol
# Density = 1.882538 g / cm^3
# Si number density = 18.868327 Si / 1000 Ang^3
#
#
#
# Elastic Constant Matrix: (Units=GPa)
#
#
# Indices 1 2 3 4 5 6 
#
# 1 124.7215 59.0121 31.9218 0.0000 14.6574 0.0000
# 2 59.0121 181.7399 106.3393 0.0000 25.6303 0.0000
# 3 31.9218 106.3393 160.5492 0.0000 31.6806 0.0000
# 4 0.0000 0.0000 0.0000 30.3643 0.0000 -1.1889
# 5 14.6574 25.6303 31.6806 0.0000 35.1358 0.0000
# 6 0.0000 0.0000 0.0000 -1.1889 0.0000 26.5693
#
#
#
# Elastic Compliance Matrix: (Units=1/GPa)
#
#
# Indices 1 2 3 4 5 6 
#
# 1 0.009626 -0.003180 0.000641 0.000000 -0.002274 0.000000
# 2 -0.003180 0.010095 -0.005916 0.000000 -0.000704 0.000000
# 3 0.000641 -0.005916 0.011216 0.000000 -0.006065 0.000000
# 4 0.000000 0.000000 0.000000 0.032991 0.000000 0.001476
# 5 -0.002274 -0.000704 -0.006065 0.000000 0.035392 0.000000
# 6 0.000000 0.000000 0.000000 0.001476 0.000000 0.037704
#
#
# Mechanical properties :
#
#
# Convention : Reuss Voigt Hill
#
# Bulk Modulus (GPa) = 71.28386 95.72857 83.50621
# Shear Modulus (GPa) = 31.52408 36.39637 33.96022
#
# Velocity S-wave (km/s) = 4.09190 4.39676 4.24707
# Velocity P-wave (km/s) = 7.75800 8.75332 8.27065
#
# Compressibility (1/GPa) = 0.01402842
#
# Stress axis : x y z
#
# Youngs Moduli (GPa) = 103.88980 99.05441 89.15695
#
# Poissons Ratio (x) = 0.31498 -0.05715
# Poissons Ratio (y) = 0.33036 0.52741
# Poissons Ratio (z) = -0.06660 0.58596
#
# Static dielectric constant tensor:
#      x y z
#    x 1.653040 0.000000 -0.025750 
#    y 0.000000 1.666000 0.000000 
#    z -0.025750 0.000000 1.524280 
# 
# From -- ./inp_files/76648.got.cif
#   From: 2010.05.17/outbox.cif.g08.bks.cpg/sg14_39_cif.got.tgz:76648.got - 2010.06.03 17:49:19.
