data_PCOD9251132
_publ_section_title
;
Structure prediction by ZEFSAII (Michael W. Deem and Ramdas Pophale) SiO2 
 PCOD9251132
Probable space group: P 21/C
;
_chemical_formula_sum "Si O2"
_cell_formula_units_Z 24
_cell_length_a 10.938458
_cell_length_b 4.990437
_cell_length_c 18.366434
_cell_angle_alpha 90.000000
_cell_angle_beta 73.762630
_cell_angle_gamma 90.000000
_cell_volume 962.589682
_symmetry_space_group_name_H-M "P 21/C"
_symmetry_group_IT_number 14
_symmetry_cell_setting 'monoclinic'
loop_
_space_group_symop_operation_xyz
x,y,z
-x,1/2+y,1/2-z
-x,-y,-z
x,1/2-y,1/2+z
loop_
_atom_site_type_symbol
_atom_site_label
_atom_site_fract_x
_atom_site_fract_y
_atom_site_fract_z
Si Si1 0.785866 0.563839 0.395117
Si Si2 0.691288 0.267223 0.284239
Si Si3 0.542769 0.560035 0.911014
Si Si4 0.750376 0.753201 0.176289
Si Si5 0.294551 0.623976 0.433859
Si Si6 0.044816 0.577884 0.412207
O O1 0.796790 0.365642 0.324715
O O2 0.739248 0.407143 0.475626
O O3 0.922763 0.690055 0.391341
O O4 0.574180 0.196598 0.356552
O O5 0.674582 0.773051 0.394698
O O6 0.714451 0.000073 0.235411
O O7 0.687876 0.504862 0.226741
O O8 0.427039 0.733389 0.899386
O O9 0.500000 0.500000 0.000000
O O10 0.701847 0.829739 0.103578
O O11 0.901450 0.815486 0.139313
O O12 0.172178 0.748542 0.410727
O O13 0.000000 0.500000 0.500000
#
# Coordination Sequence:
#
# PCOD9251132 Si02
#       6
#     4   4   4   4   4   4
#     4  11  22  46  79 112 149 213 271 326 397 483
#     4  12  25  48  75 119 155 205 259 338 396 474
#     4  12  25  45  79 116 157 208 274 334 396 484
#     4  10  25  50  73 114 158 206 255 331 407 467
#     4   9  22  48  73 112 155 212 265 324 396 486
#     4   8  20  48  77 110 153 209 267 325 395 484
#
# _framework density 24.932742999999999
#
# number of rings (size 3 to 8) (size 9 to 14) (size 15 to 20)
#    1.000    0.667    3.333    0.500    0.000    2.667 
#    6.000    1.667    0.000    0.000    0.000    0.000 
#    0.000    0.000    0.000    0.000    0.000    0.000 
#
# Total GULP energy -133960.225152 kJ/mol
# GULP energy per Si atom -5581.676048 kJ/mol
# Density = 2.487600 g / cm^3
# Si number density = 24.932743 Si / 1000 Ang^3
#
#
#
# Elastic Constant Matrix: (Units=GPa)
#
#
# Indices 1 2 3 4 5 6 
#
# 1 174.3756 33.2350 -27.9899 0.0000 -0.0092 0.0000
# 2 33.2350 102.9663 17.7739 0.0000 -14.1727 0.0000
# 3 -27.9899 17.7739 86.2382 0.0000 -17.4150 0.0000
# 4 0.0000 0.0000 0.0000 42.1658 0.0000 -2.8229
# 5 -0.0092 -14.1727 -17.4150 0.0000 32.7786 0.0000
# 6 0.0000 0.0000 0.0000 -2.8229 0.0000 26.7919
#
#
#
# Elastic Compliance Matrix: (Units=1/GPa)
#
#
# Indices 1 2 3 4 5 6 
#
# 1 0.006672 -0.002582 0.002770 0.000000 0.000357 0.000000
# 2 -0.002582 0.011473 -0.002466 0.000000 0.003650 0.000000
# 3 0.002770 -0.002466 0.014325 0.000000 0.006545 0.000000
# 4 0.000000 0.000000 0.000000 0.023884 0.000000 0.002517
# 5 0.000357 0.003650 0.006545 0.000000 0.035563 0.000000
# 6 0.000000 0.000000 0.000000 0.002517 0.000000 0.037590
#
#
# Mechanical properties :
#
#
# Convention : Reuss Voigt Hill
#
# Bulk Modulus (GPa) = 35.82609 45.51315 40.66962
# Shear Modulus (GPa) = 34.87515 43.05134 38.96325
#
# Velocity S-wave (km/s) = 3.74407 4.15986 3.95743
# Velocity P-wave (km/s) = 5.75248 6.43169 6.10154
#
# Compressibility (1/GPa) = 0.02791262
#
# Stress axis : x y z
#
# Youngs Moduli (GPa) = 149.89089 87.15739 69.80978
#
# Poissons Ratio (x) = 0.22507 -0.19335
# Poissons Ratio (y) = 0.38708 0.17213
# Poissons Ratio (z) = -0.41514 0.21491
#
# Static dielectric constant tensor:
#      x y z
#    x 2.034370 0.000000 0.001340 
#    y 0.000000 2.043970 0.000000 
#    z 0.001340 0.000000 1.951410 
# 
# From -- ./inp_files/66152.got.cif
#   From: 2010.05.17/outbox.cif.g08.bks.cpg/sg14_34_cif.got.tgz:66152.got - 2010.06.03 17:49:19.
