data_PCOD9251546
_publ_section_title
;
Structure prediction by ZEFSAII (Michael W. Deem and Ramdas Pophale) SiO2 
 PCOD9251546
Probable space group: P 21/C
;
_chemical_formula_sum "Si O2"
_cell_formula_units_Z 28
_cell_length_a 6.882419
_cell_length_b 15.671790
_cell_length_c 11.659785
_cell_angle_alpha 90.000000
_cell_angle_beta 106.342845
_cell_angle_gamma 90.000000
_cell_volume 1206.808323
_symmetry_space_group_name_H-M "P 21/C"
_symmetry_group_IT_number 14
_symmetry_cell_setting 'monoclinic'
loop_
_space_group_symop_operation_xyz
x,y,z
-x,1/2+y,1/2-z
-x,-y,-z
x,1/2-y,1/2+z
loop_
_atom_site_type_symbol
_atom_site_label
_atom_site_fract_x
_atom_site_fract_y
_atom_site_fract_z
Si Si1 0.589158 0.351259 0.780566
Si Si2 0.179054 0.225304 0.166613
Si Si3 0.266417 0.409415 0.110756
Si Si4 0.376380 0.485175 0.361438
Si Si5 0.034933 0.407952 0.452997
Si Si6 0.783646 0.437349 0.034004
Si Si7 0.196107 0.815065 0.264718
O O1 0.351223 0.330420 0.759975
O O2 0.636572 0.418235 0.687158
O O3 0.713783 0.385953 0.909469
O O4 0.667329 0.261526 0.751087
O O5 0.263019 0.307416 0.109825
O O6 0.006423 0.267616 0.218223
O O7 0.093088 0.158991 0.059752
O O8 0.403787 0.439894 0.241023
O O9 0.297818 0.466719 0.001696
O O10 0.028298 0.437370 0.094003
O O11 0.500000 0.500000 0.500000
O O12 0.198187 0.426299 0.381641
O O13 0.000000 0.500000 0.500000
O O14 0.847286 0.370472 0.354535
O O15 0.712162 0.378710 0.126270
#
# Coordination Sequence:
#
# PCOD9251546 Si02
#       7
#     4   4   4   4   4   4   4
#     4  11  24  39  70 100 129 179 227 275 339 407
#     4  11  23  43  66  97 133 173 227 281 335 402
#     4   9  19  39  66  88 130 178 219 271 337 401
#     4  11  21  41  67  95 135 179 219 278 343 390
#     4  12  25  44  67 102 136 177 230 280 340 412
#     4   9  19  39  64  92 126 177 221 263 342 403
#     4  11  23  44  65  97 135 174 222 283 336 400
#
# _framework density 23.201695999999998
#
# number of rings (size 3 to 8) (size 9 to 14) (size 15 to 20)
#    0.000    1.429    4.286    2.571    0.000    3.429 
#    2.571    0.714    0.000    0.000    0.000    0.000 
#    0.000    0.000    0.000    0.000    0.000    0.000 
#
# Total GULP energy -156158.711262 kJ/mol
# GULP energy per Si atom -5577.096831 kJ/mol
# Density = 2.314889 g / cm^3
# Si number density = 23.201696 Si / 1000 Ang^3
#
#
#
# Elastic Constant Matrix: (Units=GPa)
#
#
# Indices 1 2 3 4 5 6 
#
# 1 41.3125 -0.0568 40.0364 0.0000 11.9869 0.0000
# 2 -0.0568 170.0159 85.0192 0.0000 11.7174 0.0000
# 3 40.0364 85.0192 165.7887 0.0000 17.6647 0.0000
# 4 0.0000 0.0000 0.0000 31.8987 0.0000 -10.1457
# 5 11.9869 11.7174 17.6647 0.0000 26.6377 0.0000
# 6 0.0000 0.0000 0.0000 -10.1457 0.0000 19.7367
#
#
#
# Elastic Compliance Matrix: (Units=1/GPa)
#
#
# Indices 1 2 3 4 5 6 
#
# 1 0.039064 0.006633 -0.011461 0.000000 -0.012896 0.000000
# 2 0.006633 0.009055 -0.005921 0.000000 -0.003041 0.000000
# 3 -0.011461 -0.005921 0.011846 0.000000 -0.000094 0.000000
# 4 0.000000 0.000000 0.000000 0.037477 0.000000 0.019265
# 5 -0.012896 -0.003041 -0.000094 0.000000 0.044744 0.000000
# 6 0.000000 0.000000 0.000000 0.019265 0.000000 0.060570
#
#
# Mechanical properties :
#
#
# Convention : Reuss Voigt Hill
#
# Bulk Modulus (GPa) = 25.99696 69.67941 47.83819
# Shear Modulus (GPa) = 21.09042 32.46252 26.77647
#
# Velocity S-wave (km/s) = 3.01824 3.74457 3.40085
# Velocity P-wave (km/s) = 4.83482 6.98520 6.00701
#
# Compressibility (1/GPa) = 0.03846604
#
# Stress axis : x y z
#
# Youngs Moduli (GPa) = 25.59929 110.44145 84.41732
#
# Poissons Ratio (x) = -0.73257 0.96750
# Poissons Ratio (y) = -0.16980 0.49985
# Poissons Ratio (z) = 0.29339 0.65394
#
# Static dielectric constant tensor:
#      x y z
#    x 2.070660 0.000000 0.003800 
#    y 0.000000 1.811620 0.000000 
#    z 0.003800 0.000000 1.863720 
# 
# From -- ./inp_files/25380.got.cif
#   From: 2010.05.17/outbox.cif.g08.bks.cpg/sg14_13_cif.got.tgz:25380.got - 2010.06.03 17:49:19.
