data_PCOD9251185
_publ_section_title
;
Structure prediction by ZEFSAII (Michael W. Deem and Ramdas Pophale) SiO2 
 PCOD9251185
Probable space group: P 21/C
;
_chemical_formula_sum "Si O2"
_cell_formula_units_Z 20
_cell_length_a 19.773041
_cell_length_b 4.905665
_cell_length_c 10.378643
_cell_angle_alpha 90.000000
_cell_angle_beta 131.357524
_cell_angle_gamma 90.000000
_cell_volume 755.650786
_symmetry_space_group_name_H-M "P 21/C"
_symmetry_group_IT_number 14
_symmetry_cell_setting 'monoclinic'
loop_
_space_group_symop_operation_xyz
x,y,z
-x,1/2+y,1/2-z
-x,-y,-z
x,1/2-y,1/2+z
loop_
_atom_site_type_symbol
_atom_site_label
_atom_site_fract_x
_atom_site_fract_y
_atom_site_fract_z
Si Si1 0.641427 0.098357 0.688145
Si Si2 0.486148 0.285565 0.320323
Si Si3 0.061374 0.750869 0.536292
Si Si4 0.190522 0.519725 0.041589
Si Si5 0.215592 0.114329 0.305163
O O1 0.601122 0.868718 0.731579
O O2 0.560915 0.224526 0.027021
O O3 0.721682 0.284746 0.845881
O O4 0.684791 0.951001 0.617690
O O5 0.519905 0.083202 0.248442
O O6 0.156543 0.661323 0.719847
O O7 0.000000 0.500000 0.500000
O O8 0.097866 0.806995 0.436722
O O9 0.000000 0.000000 0.500000
O O10 0.184433 0.329535 0.160177
O O11 0.201158 0.317821 0.934735
#
# Coordination Sequence:
#
# PCOD9251185 Si02
#       5
#     4   4   4   4   4
#     4  10  26  45  71 108 156 203 259 316 389 461
#     4  11  26  45  75 107 149 201 263 326 386 451
#     4  11  24  51  74 110 148 197 248 310 372 449
#     4  11  26  48  76 118 153 208 250 318 384 463
#     4  11  26  46  80 112 159 201 256 312 388 463
#
# _framework density 26.467255000000002
#
# number of rings (size 3 to 8) (size 9 to 14) (size 15 to 20)
#    0.000    1.200    2.000    1.200    8.400    9.600 
#    0.000    0.000    0.000    0.000    0.000    0.000 
#    0.000    0.000    0.000    0.000    0.000    0.000 
#
# Total GULP energy -111907.878615 kJ/mol
# GULP energy per Si atom -5595.393931 kJ/mol
# Density = 2.640701 g / cm^3
# Si number density = 26.467255 Si / 1000 Ang^3
#
#
#
# Elastic Constant Matrix: (Units=GPa)
#
#
# Indices 1 2 3 4 5 6 
#
# 1 212.6083 45.5137 51.1719 0.0000 -11.7907 0.0000
# 2 45.5137 133.5541 19.7699 0.0000 -11.9790 0.0000
# 3 51.1719 19.7699 46.7454 0.0000 -15.8645 0.0000
# 4 0.0000 0.0000 0.0000 39.0261 0.0000 -3.5561
# 5 -11.7907 -11.9790 -15.8645 0.0000 49.8229 0.0000
# 6 0.0000 0.0000 0.0000 -3.5561 0.0000 47.2808
#
#
#
# Elastic Compliance Matrix: (Units=1/GPa)
#
#
# Indices 1 2 3 4 5 6 
#
# 1 0.006620 -0.001304 -0.007030 0.000000 -0.000985 0.000000
# 2 -0.001304 0.008285 -0.001688 0.000000 0.001146 0.000000
# 3 -0.007030 -0.001688 0.032625 0.000000 0.008319 0.000000
# 4 0.000000 0.000000 0.000000 0.025801 0.000000 0.001941
# 5 -0.000985 0.001146 0.008319 0.000000 0.022762 0.000000
# 6 0.000000 0.000000 0.000000 0.001941 0.000000 0.021296
#
#
# Mechanical properties :
#
#
# Convention : Reuss Voigt Hill
#
# Bulk Modulus (GPa) = 36.38070 69.53542 52.95806
# Shear Modulus (GPa) = 34.10800 45.65611 39.88206
#
# Velocity S-wave (km/s) = 3.59372 4.15782 3.88602
# Velocity P-wave (km/s) = 5.56733 7.02704 6.33934
#
# Compressibility (1/GPa) = 0.02748710
#
# Stress axis : x y z
#
# Youngs Moduli (GPa) = 151.05950 120.70725 30.65142
#
# Poissons Ratio (x) = 0.15737 0.21547
# Poissons Ratio (y) = 0.19694 0.05173
# Poissons Ratio (z) = 1.06191 0.20371
#
# Static dielectric constant tensor:
#      x y z
#    x 2.198840 0.000000 -0.022830 
#    y 0.000000 2.155690 0.000000 
#    z -0.022830 0.000000 2.197180 
# 
# From -- ./inp_files/33282.got.cif
#   From: 2010.05.17/outbox.cif.g08.bks.cpg/sg14_17_cif.got.tgz:33282.got - 2010.06.03 17:49:19.
