data_PCOD9251400
_publ_section_title
;
Structure prediction by ZEFSAII (Michael W. Deem and Ramdas Pophale) SiO2 
 PCOD9251400
Probable space group: P 21/C
;
_chemical_formula_sum "Si O2"
_cell_formula_units_Z 28
_cell_length_a 23.178376
_cell_length_b 7.921950
_cell_length_c 16.119410
_cell_angle_alpha 90.000000
_cell_angle_beta 26.455740
_cell_angle_gamma 90.000000
_cell_volume 1318.615418
_symmetry_space_group_name_H-M "P 21/C"
_symmetry_group_IT_number 14
_symmetry_cell_setting 'monoclinic'
loop_
_space_group_symop_operation_xyz
x,y,z
-x,1/2+y,1/2-z
-x,-y,-z
x,1/2-y,1/2+z
loop_
_atom_site_type_symbol
_atom_site_label
_atom_site_fract_x
_atom_site_fract_y
_atom_site_fract_z
Si Si1 0.957329 0.731861 0.868447
Si Si2 0.349471 0.959188 0.485441
Si Si3 0.983551 0.075628 0.431884
Si Si4 0.216699 0.239753 0.063378
Si Si5 0.879830 0.978939 0.092936
Si Si6 0.818734 0.256715 0.536524
Si Si7 0.369886 0.613000 0.353397
O O1 0.841537 0.730397 0.952494
O O2 0.022247 0.558137 0.812564
O O3 0.081660 0.812133 0.661973
O O4 0.898623 0.795083 0.030396
O O5 0.296840 0.096518 0.486842
O O6 0.485146 0.040311 0.339713
O O7 0.246598 0.967954 0.693111
O O8 0.360720 0.770180 0.431213
O O9 0.089724 0.221907 0.284588
O O10 0.839305 0.129746 0.587937
O O11 0.000000 0.000000 0.500000
O O12 0.291439 0.060714 0.974742
O O13 0.875138 0.078290 0.010501
O O14 0.000000 0.000000 0.000000
O O15 0.689035 0.307663 0.655955
#
# Coordination Sequence:
#
# PCOD9251400 Si02
#       7
#     4   4   4   4   4   4   4
#     4  11  20  41  66  97 139 174 219 285 352 413
#     4  12  27  45  75  99 138 188 242 293 347 424
#     4  11  22  37  67 104 138 172 228 294 350 414
#     4  11  23  45  67  99 137 186 235 283 355 424
#     4  12  24  41  67 107 137 173 237 294 350 412
#     4  11  22  40  65  98 139 180 222 280 353 421
#     4  12  24  47  70  96 138 192 238 285 358 427
#
# _framework density 21.234396
#
# number of rings (size 3 to 8) (size 9 to 14) (size 15 to 20)
#    0.000    0.571    4.286    6.000    2.000    0.571 
#    0.000    0.000    0.000    3.429    0.000    0.000 
#    0.000    0.000    0.000    0.000    0.000    0.000 
#
# Total GULP energy -155918.132794 kJ/mol
# GULP energy per Si atom -5568.504743 kJ/mol
# Density = 2.118607 g / cm^3
# Si number density = 21.234396 Si / 1000 Ang^3
#
#
#
# Elastic Constant Matrix: (Units=GPa)
#
#
# Indices 1 2 3 4 5 6 
#
# 1 152.0836 39.6488 59.8736 0.0000 -7.8609 0.0000
# 2 39.6488 95.0861 37.9820 0.0000 4.2993 0.0000
# 3 59.8736 37.9820 108.7320 0.0000 -14.1529 0.0000
# 4 0.0000 0.0000 0.0000 33.1154 0.0000 -2.8087
# 5 -7.8609 4.2993 -14.1529 0.0000 30.0840 0.0000
# 6 0.0000 0.0000 0.0000 -2.8087 0.0000 44.6085
#
#
#
# Elastic Compliance Matrix: (Units=1/GPa)
#
#
# Indices 1 2 3 4 5 6 
#
# 1 0.008722 -0.002076 -0.003986 0.000000 0.000700 0.000000
# 2 -0.002076 0.013186 -0.004025 0.000000 -0.004320 0.000000
# 3 -0.003986 -0.004025 0.013568 0.000000 0.005917 0.000000
# 4 0.000000 0.000000 0.000000 0.030360 0.000000 0.001912
# 5 0.000700 -0.004320 0.005917 0.000000 0.036824 0.000000
# 6 0.000000 0.000000 0.000000 0.001912 0.000000 0.022538
#
#
# Mechanical properties :
#
#
# Convention : Reuss Voigt Hill
#
# Bulk Modulus (GPa) = 65.35701 70.10117 67.72909
# Shear Modulus (GPa) = 33.22845 36.12138 34.67491
#
# Velocity S-wave (km/s) = 3.96010 4.12889 4.04537
# Velocity P-wave (km/s) = 7.19413 7.47094 7.33384
#
# Compressibility (1/GPa) = 0.01530058
#
# Stress axis : x y z
#
# Youngs Moduli (GPa) = 114.64920 75.83973 73.70136
#
# Poissons Ratio (x) = 0.15746 0.29381
# Poissons Ratio (y) = 0.23804 0.29665
# Poissons Ratio (z) = 0.45705 0.30526
#
# Static dielectric constant tensor:
#      x y z
#    x 1.801940 0.000000 0.008200 
#    y 0.000000 2.111860 0.000000 
#    z 0.008200 0.000000 1.770160 
# 
# From -- ./inp_files/46717.got.cif
#   From: 2010.05.17/outbox.cif.g08.bks.cpg/sg14_24_cif.got.tgz:46717.got - 2010.06.03 17:49:19.
