data_PCOD9251139
_publ_section_title
;
Structure prediction by ZEFSAII (Michael W. Deem and Ramdas Pophale) SiO2 
 PCOD9251139
Probable space group: P 21/C
;
_chemical_formula_sum "Si O2"
_cell_formula_units_Z 20
_cell_length_a 10.407486
_cell_length_b 12.338736
_cell_length_c 7.501063
_cell_angle_alpha 90.000000
_cell_angle_beta 48.471190
_cell_angle_gamma 90.000000
_cell_volume 721.111069
_symmetry_space_group_name_H-M "P 21/C"
_symmetry_group_IT_number 14
_symmetry_cell_setting 'monoclinic'
loop_
_space_group_symop_operation_xyz
x,y,z
-x,1/2+y,1/2-z
-x,-y,-z
x,1/2-y,1/2+z
loop_
_atom_site_type_symbol
_atom_site_label
_atom_site_fract_x
_atom_site_fract_y
_atom_site_fract_z
Si Si1 0.437022 0.381133 0.123484
Si Si2 0.110548 0.891238 0.858196
Si Si3 0.520642 0.357079 0.452296
Si Si4 0.245287 0.444289 0.987781
Si Si5 0.887654 0.150237 0.745745
O O1 0.429656 0.377943 0.344793
O O2 0.270341 0.370714 0.146271
O O3 0.500000 0.500000 0.000000
O O4 0.531981 0.270996 0.983129
O O5 0.054577 0.774151 0.839597
O O6 0.228967 0.937137 0.591936
O O7 0.178723 0.864797 0.991422
O O8 0.000000 0.000000 0.000000
O O9 0.721196 0.388285 0.289922
O O10 0.598101 0.588894 0.285453
O O11 0.064262 0.415192 0.065586
#
# Coordination Sequence:
#
# PCOD9251139 Si02
#       5
#     4   4   4   4   4
#     4  12  28  53  85 126 168 216 285 347 424 512
#     4  10  25  51  82 124 169 223 283 357 420 510
#     4  12  27  54  85 120 169 227 271 359 425 501
#     4  11  28  54  85 123 169 223 287 345 427 514
#     4  11  26  53  83 120 176 217 282 353 424 505
#
# _framework density 27.734977000000001
#
# number of rings (size 3 to 8) (size 9 to 14) (size 15 to 20)
#    0.000    0.800    2.000    2.400    8.400    0.800 
#    3.600    9.000    0.000    0.000    0.000    0.000 
#    0.000    0.000    0.000    0.000    0.000    0.000 
#
# Total GULP energy -111781.189613 kJ/mol
# GULP energy per Si atom -5589.059481 kJ/mol
# Density = 2.767185 g / cm^3
# Si number density = 27.734977 Si / 1000 Ang^3
#
#
#
# Elastic Constant Matrix: (Units=GPa)
#
#
# Indices 1 2 3 4 5 6 
#
# 1 178.2300 60.9893 91.4624 0.0000 17.1035 0.0000
# 2 60.9893 179.4842 59.9715 0.0000 14.4471 0.0000
# 3 91.4624 59.9715 214.6450 0.0000 35.9744 0.0000
# 4 0.0000 0.0000 0.0000 56.7538 0.0000 12.7263
# 5 17.1035 14.4471 35.9744 0.0000 70.9503 0.0000
# 6 0.0000 0.0000 0.0000 12.7263 0.0000 45.1740
#
#
#
# Elastic Compliance Matrix: (Units=1/GPa)
#
#
# Indices 1 2 3 4 5 6 
#
# 1 0.007603 -0.001653 -0.002762 0.000000 -0.000096 0.000000
# 2 -0.001653 0.006516 -0.001050 0.000000 -0.000396 0.000000
# 3 -0.002762 -0.001050 0.006537 0.000000 -0.002435 0.000000
# 4 0.000000 0.000000 0.000000 0.018808 0.000000 -0.005299
# 5 -0.000096 -0.000396 -0.002435 0.000000 0.015433 0.000000
# 6 0.000000 0.000000 0.000000 -0.005299 0.000000 0.023629
#
#
# Mechanical properties :
#
#
# Convention : Reuss Voigt Hill
#
# Bulk Modulus (GPa) = 102.80924 110.80062 106.80493
# Shear Modulus (GPa) = 53.93912 58.57136 56.25524
#
# Velocity S-wave (km/s) = 4.41478 4.60044 4.50857
# Velocity P-wave (km/s) = 7.94581 8.26168 8.10528
#
# Compressibility (1/GPa) = 0.00972675
#
# Stress axis : x y z
#
# Youngs Moduli (GPa) = 131.53058 153.47193 152.97358
#
# Poissons Ratio (x) = 0.25368 0.42247
# Poissons Ratio (y) = 0.21741 0.16059
# Poissons Ratio (z) = 0.36325 0.16112
#
# Static dielectric constant tensor:
#      x y z
#    x 2.501280 0.000000 -0.197090 
#    y 0.000000 2.204560 0.000000 
#    z -0.197090 0.000000 2.378260 
# 
# From -- ./inp_files/12170.got.cif
#   From: 2010.05.17/outbox.cif.g08.bks.cpg/sg14_7_cif.got.tgz:12170.got - 2010.06.03 17:49:19.
