data_PCOD9251194
_publ_section_title
;
Structure prediction by ZEFSAII (Michael W. Deem and Ramdas Pophale) SiO2 
 PCOD9251194
Probable space group: P 21/C
;
_chemical_formula_sum "Si O2"
_cell_formula_units_Z 22
_cell_length_a 12.273308
_cell_length_b 7.400414
_cell_length_c 10.152044
_cell_angle_alpha 90.000000
_cell_angle_beta 74.745658
_cell_angle_gamma 90.000000
_cell_volume 889.597912
_symmetry_space_group_name_H-M "P 21/C"
_symmetry_group_IT_number 14
_symmetry_cell_setting 'monoclinic'
loop_
_space_group_symop_operation_xyz
x,y,z
-x,1/2+y,1/2-z
-x,-y,-z
x,1/2-y,1/2+z
loop_
_atom_site_type_symbol
_atom_site_label
_atom_site_fract_x
_atom_site_fract_y
_atom_site_fract_z
Si Si1 0.208041 0.539769 0.563098
Si Si2 0.351673 0.752389 0.337216
Si Si3 0.294678 0.292483 0.176123
Si Si4 0.000000 0.500000 0.500000
Si Si5 0.576098 0.843502 0.622235
Si Si6 0.143968 0.859266 0.733538
O O1 0.323242 0.628029 0.472386
O O2 0.231346 0.394588 0.666442
O O3 0.134452 0.446814 0.472316
O O4 0.127080 0.713493 0.621594
O O5 0.448248 0.677739 0.210678
O O6 0.234174 0.747550 0.295519
O O7 0.385576 0.951566 0.367624
O O8 0.349814 0.279913 0.302180
O O9 0.211818 0.460011 0.172293
O O10 0.395829 0.296510 0.036528
O O11 0.031159 0.599241 0.348366
#
# Coordination Sequence:
#
# PCOD9251194 Si02
#       6
#     4   4   4   2   4   4
#     4  11  24  47  71 101 140 184 239 299 357 425
#     4  11  24  44  68 105 150 186 241 285 351 422
#     4  12  26  46  72 108 146 190 236 288 356 426
#     4  10  26  46  68 104 132 180 240 308 352 418
#     4  12  25  42  73 107 149 196 230 289 350 425
#     4  11  24  47  71 101 140 184 239 299 357 425
#
# _framework density 24.730274000000001
#
# number of rings (size 3 to 8) (size 9 to 14) (size 15 to 20)
#    0.000    0.727    3.636    4.364    5.091    2.909 
#    0.000    1.818    0.000    0.000    0.000    0.000 
#    0.000    0.000    0.000    0.000    0.000    0.000 
#
# Total GULP energy -122686.752241 kJ/mol
# GULP energy per Si atom -5576.670556 kJ/mol
# Density = 2.467399 g / cm^3
# Si number density = 24.730274 Si / 1000 Ang^3
#
#
#
# Elastic Constant Matrix: (Units=GPa)
#
#
# Indices 1 2 3 4 5 6 
#
# 1 71.7906 1.9725 6.7061 0.0000 -27.7612 0.0000
# 2 1.9725 125.6364 25.3583 0.0000 -18.0586 0.0000
# 3 6.7061 25.3583 104.2037 0.0000 -36.0590 0.0000
# 4 0.0000 0.0000 0.0000 43.9059 0.0000 -6.7367
# 5 -27.7612 -18.0586 -36.0590 0.0000 51.5062 0.0000
# 6 0.0000 0.0000 0.0000 -6.7367 0.0000 21.1551
#
#
#
# Elastic Compliance Matrix: (Units=1/GPa)
#
#
# Indices 1 2 3 4 5 6 
#
# 1 0.018349 0.000894 0.002814 0.000000 0.012174 0.000000
# 2 0.000894 0.008572 -0.001236 0.000000 0.002621 0.000000
# 3 0.002814 -0.001236 0.013318 0.000000 0.010407 0.000000
# 4 0.000000 0.000000 0.000000 0.023946 0.000000 0.007625
# 5 0.012174 0.002621 0.010407 0.000000 0.034181 0.000000
# 6 0.000000 0.000000 0.000000 0.007625 0.000000 0.049698
#
#
# Mechanical properties :
#
#
# Convention : Reuss Voigt Hill
#
# Bulk Modulus (GPa) = 22.13267 41.07827 31.60547
# Shear Modulus (GPa) = 31.60919 41.15304 36.38112
#
# Velocity S-wave (km/s) = 3.57901 4.08373 3.83967
# Velocity P-wave (km/s) = 5.10374 6.23558 5.69783
#
# Compressibility (1/GPa) = 0.04518207
#
# Stress axis : x y z
#
# Youngs Moduli (GPa) = 54.49740 116.66167 75.08881
#
# Poissons Ratio (x) = -0.10426 -0.21132
# Poissons Ratio (y) = -0.04870 0.09284
# Poissons Ratio (z) = -0.15337 0.14423
#
# Static dielectric constant tensor:
#      x y z
#    x 2.212110 0.000000 0.380920 
#    y 0.000000 1.884610 0.000000 
#    z 0.380920 0.000000 2.445810 
# 
# From -- ./inp_files/27813.got.cif
#   From: 2010.05.17/outbox.cif.g08.bks.cpg/sg14_14_cif.got.tgz:27813.got - 2010.06.03 17:49:19.
