data_PCOD9251797
_publ_section_title
;
Structure prediction by ZEFSAII (Michael W. Deem and Ramdas Pophale) SiO2 
 PCOD9251797
Probable space group: P 21/C
;
_chemical_formula_sum "Si O2"
_cell_formula_units_Z 32
_cell_length_a 10.391382
_cell_length_b 12.438335
_cell_length_c 11.516425
_cell_angle_alpha 90.000000
_cell_angle_beta 71.383648
_cell_angle_gamma 90.000000
_cell_volume 1410.632029
_symmetry_space_group_name_H-M "P 21/C"
_symmetry_group_IT_number 14
_symmetry_cell_setting 'monoclinic'
loop_
_space_group_symop_operation_xyz
x,y,z
-x,1/2+y,1/2-z
-x,-y,-z
x,1/2-y,1/2+z
loop_
_atom_site_type_symbol
_atom_site_label
_atom_site_fract_x
_atom_site_fract_y
_atom_site_fract_z
Si Si1 0.584400 0.892435 0.002739
Si Si2 0.734400 0.380135 0.149779
Si Si3 0.168738 0.444908 0.721610
Si Si4 0.689846 0.921396 0.218959
Si Si5 0.500456 0.662438 0.961149
Si Si6 0.069625 0.673914 0.090685
Si Si7 0.695223 0.152712 0.286341
Si Si8 0.997933 0.912632 0.103312
O O1 0.600941 0.878208 0.137009
O O2 0.736847 0.897612 0.906727
O O3 0.515078 0.791045 0.960737
O O4 0.500000 0.000000 0.000000
O O5 0.730266 0.485429 0.228580
O O6 0.620286 0.377653 0.085443
O O7 0.711871 0.269781 0.226239
O O8 0.879099 0.380894 0.042099
O O9 0.076560 0.363245 0.820969
O O10 0.065068 0.529169 0.693548
O O11 0.630186 0.889728 0.361954
O O12 0.842627 0.880905 0.167941
O O13 0.701267 0.050426 0.201088
O O14 0.448080 0.637902 0.105272
O O15 0.179226 0.646106 0.159297
O O16 0.075810 0.801090 0.062041
O O17 0.000000 0.000000 0.000000
#
# Coordination Sequence:
#
# PCOD9251797 Si02
#       8
#     4   4   4   4   4   4   4   4
#     4  12  26  43  72 101 140 186 242 301 362 443
#     4  11  24  43  72  96 143 191 240 293 367 438
#     4  12  24  46  68 107 144 186 242 305 363 437
#     4  12  24  44  69 100 141 185 233 301 363 430
#     4  11  25  44  65 105 138 187 238 301 365 428
#     4  11  25  42  68 106 140 185 236 299 358 437
#     4  11  22  42  70  99 137 189 237 290 362 446
#     4  12  24  43  72 104 143 189 240 291 368 434
#
# _framework density 22.684868000000002
#
# number of rings (size 3 to 8) (size 9 to 14) (size 15 to 20)
#    0.000    0.500    3.750    5.250    1.750    0.000 
#    2.250    3.750    0.000    0.000    0.000    0.000 
#    0.000    0.000    0.000    0.000    0.000    0.000 
#
# Total GULP energy -178957.093533 kJ/mol
# GULP energy per Si atom -5592.409173 kJ/mol
# Density = 2.263324 g / cm^3
# Si number density = 22.684868 Si / 1000 Ang^3
#
#
#
# Elastic Constant Matrix: (Units=GPa)
#
#
# Indices 1 2 3 4 5 6 
#
# 1 63.9773 -0.6420 5.7180 0.0000 -8.1802 0.0000
# 2 -0.6420 80.9917 -5.5150 0.0000 -2.0035 0.0000
# 3 5.7180 -5.5150 68.0171 0.0000 -27.9461 0.0000
# 4 0.0000 0.0000 0.0000 39.3978 0.0000 3.8939
# 5 -8.1802 -2.0035 -27.9461 0.0000 38.3915 0.0000
# 6 0.0000 0.0000 0.0000 3.8939 0.0000 28.2067
#
#
#
# Elastic Compliance Matrix: (Units=1/GPa)
#
#
# Indices 1 2 3 4 5 6 
#
# 1 0.016073 0.000222 0.000112 0.000000 0.003518 0.000000
# 2 0.000222 0.012524 0.001833 0.000000 0.002035 0.000000
# 3 0.000112 0.001833 0.021244 0.000000 0.015584 0.000000
# 4 0.000000 0.000000 0.000000 0.025733 0.000000 -0.003552
# 5 0.003518 0.002035 0.015584 0.000000 0.038247 0.000000
# 6 0.000000 0.000000 0.000000 -0.003552 0.000000 0.035943
#
#
# Mechanical properties :
#
#
# Convention : Reuss Voigt Hill
#
# Bulk Modulus (GPa) = 18.45863 23.56756 21.01309
# Shear Modulus (GPa) = 30.58332 35.42754 33.00543
#
# Velocity S-wave (km/s) = 3.67574 3.95615 3.81852
# Velocity P-wave (km/s) = 5.11561 5.59284 5.35954
#
# Compressibility (1/GPa) = 0.05417521
#
# Stress axis : x y z
#
# Youngs Moduli (GPa) = 62.21794 79.84762 47.07149
#
# Poissons Ratio (x) = -0.01773 -0.00528
# Poissons Ratio (y) = -0.01382 -0.08628
# Poissons Ratio (z) = -0.00698 -0.14636
#
# Static dielectric constant tensor:
#      x y z
#    x 1.834560 0.000000 -0.035180 
#    y 0.000000 1.824740 0.000000 
#    z -0.035180 0.000000 1.895000 
# 
# From -- ./inp_files/29354.got.cif
#   From: 2010.05.17/outbox.cif.g08.bks.cpg/sg14_15_cif.got.tgz:29354.got - 2010.06.03 17:49:19.
