data_PCOD9251340
_publ_section_title
;
Structure prediction by ZEFSAII (Michael W. Deem and Ramdas Pophale) SiO2 
 PCOD9251340
Probable space group: P 21/C
;
_chemical_formula_sum "Si O2"
_cell_formula_units_Z 26
_cell_length_a 18.521152
_cell_length_b 6.831999
_cell_length_c 7.357580
_cell_angle_alpha 90.000000
_cell_angle_beta 105.138602
_cell_angle_gamma 90.000000
_cell_volume 898.693696
_symmetry_space_group_name_H-M "P 21/C"
_symmetry_group_IT_number 14
_symmetry_cell_setting 'monoclinic'
loop_
_space_group_symop_operation_xyz
x,y,z
-x,1/2+y,1/2-z
-x,-y,-z
x,1/2-y,1/2+z
loop_
_atom_site_type_symbol
_atom_site_label
_atom_site_fract_x
_atom_site_fract_y
_atom_site_fract_z
Si Si1 0.720853 0.004436 0.988234
Si Si2 0.112314 0.472721 0.342340
Si Si3 0.743010 0.034979 0.577006
Si Si4 0.406055 0.483739 0.134446
Si Si5 0.909616 0.072412 0.573602
Si Si6 0.000000 0.500000 0.500000
Si Si7 0.429520 0.575430 0.727064
O O1 0.734139 0.986652 0.781440
O O2 0.630242 0.965078 0.943459
O O3 0.799596 0.923996 0.117726
O O4 0.727837 0.231783 0.053447
O O5 0.092101 0.684192 0.433513
O O6 0.066471 0.348000 0.455369
O O7 0.079106 0.512963 0.124921
O O8 0.680811 0.921920 0.415600
O O9 0.825447 0.010688 0.564120
O O10 0.483108 0.403753 0.267884
O O11 0.404130 0.701388 0.214018
O O12 0.421352 0.493298 0.926021
O O13 0.957781 0.011021 0.775439
#
# Coordination Sequence:
#
# PCOD9251340 Si02
#       7
#     4   4   4   4   4   2   4
#     4   9  15  28  49  74 105 135 175 229 278 323
#     4  11  20  35  56  82 111 141 181 233 279 328
#     4   9  15  28  49  74 105 135 175 229 278 323
#     4   9  18  31  50  79 109 145 182 228 275 322
#     4  11  20  35  56  82 111 141 181 233 279 328
#     4  12  22  36  56  84 106 144 176 228 286 332
#     4   9  18  31  50  79 109 145 182 228 275 322
#
# _framework density 28.930879999999998
#
# number of rings (size 3 to 8) (size 9 to 14) (size 15 to 20)
#    0.000    2.154    3.077    3.231    0.000    1.846 
#    0.000    0.000    0.000    1.846    0.000    0.000 
#    0.000    0.000    0.000    0.000    0.000    0.000 
#
# Total GULP energy -145021.094329 kJ/mol
# GULP energy per Si atom -5577.734397 kJ/mol
# Density = 2.886503 g / cm^3
# Si number density = 28.930880 Si / 1000 Ang^3
#
#
#
# Elastic Constant Matrix: (Units=GPa)
#
#
# Indices 1 2 3 4 5 6 
#
# 1 152.6117 -11.4092 65.8555 0.0000 29.5660 0.0000
# 2 -11.4092 86.4406 33.4350 0.0000 -16.0854 0.0000
# 3 65.8555 33.4350 167.9644 0.0000 32.8471 0.0000
# 4 0.0000 0.0000 0.0000 -3.6324 0.0000 -1.2553
# 5 29.5660 -16.0854 32.8471 0.0000 61.2487 0.0000
# 6 0.0000 0.0000 0.0000 -1.2553 0.0000 12.9572
#
#
#
# Elastic Compliance Matrix: (Units=1/GPa)
#
#
# Indices 1 2 3 4 5 6 
#
# 1 0.008525 0.002134 -0.003432 0.000000 -0.001714 0.000000
# 2 0.002134 0.014729 -0.004830 0.000000 0.005428 0.000000
# 3 -0.003432 -0.004830 0.009144 0.000000 -0.004516 0.000000
# 4 0.000000 0.000000 0.000000 -0.266384 0.000000 -0.025807
# 5 -0.001714 0.005428 -0.004516 0.000000 0.021002 0.000000
# 6 0.000000 0.000000 0.000000 -0.025807 0.000000 0.074677
#
#
# Mechanical properties :
#
#
# Convention : Reuss Voigt Hill
#
# Bulk Modulus (GPa) = 49.65011 64.75324 57.20167
# Shear Modulus (GPa) = -41.89828 35.39039 -3.25394
#
# Velocity S-wave (km/s) = -3.80968 3.50133 -1.06168
# Velocity P-wave (km/s) = 1.46719 6.22707 4.27924
#
# Compressibility (1/GPa) = 0.02014094
#
# Stress axis : x y z
#
# Youngs Moduli (GPa) = 117.29885 67.89467 109.36355
#
# Poissons Ratio (x) = -0.14487 0.37534
# Poissons Ratio (y) = -0.25028 0.52823
# Poissons Ratio (z) = 0.40258 0.32794
#
# Static dielectric constant tensor:
#      x y z
#    x 1.985660 0.000000 0.168590 
#    y 0.000000 2.091460 0.000000 
#    z 0.168590 0.000000 2.128820 
# 
# From -- ./inp_files/17701.got.cif
#   From: 2010.05.17/outbox.cif.g08.bks.cpg/sg14_9_cif.got.tgz:17701.got - 2010.06.03 17:49:19.
