data_PCOD9251344
_publ_section_title
;
Structure prediction by ZEFSAII (Michael W. Deem and Ramdas Pophale) SiO2 
 PCOD9251344
Probable space group: P 21/C
;
_chemical_formula_sum "Si O2"
_cell_formula_units_Z 20
_cell_length_a 9.369020
_cell_length_b 5.094938
_cell_length_c 31.645809
_cell_angle_alpha 90.000000
_cell_angle_beta 29.400637
_cell_angle_gamma 90.000000
_cell_volume 741.573486
_symmetry_space_group_name_H-M "P 21/C"
_symmetry_group_IT_number 14
_symmetry_cell_setting 'monoclinic'
loop_
_space_group_symop_operation_xyz
x,y,z
-x,1/2+y,1/2-z
-x,-y,-z
x,1/2-y,1/2+z
loop_
_atom_site_type_symbol
_atom_site_label
_atom_site_fract_x
_atom_site_fract_y
_atom_site_fract_z
Si Si1 0.942129 0.279882 0.549825
Si Si2 0.570776 0.332263 0.888611
Si Si3 0.882946 0.662915 0.637368
Si Si4 0.605770 0.469960 0.790198
Si Si5 0.506005 0.310149 0.539650
O O1 0.958496 0.398616 0.592692
O O2 0.000000 0.500000 0.500000
O O3 0.224902 0.102707 0.469517
O O4 0.612052 0.189279 0.636092
O O5 0.719068 0.341926 0.804171
O O6 0.666558 0.554473 0.897844
O O7 0.555773 0.035080 0.909342
O O8 0.825836 0.599407 0.700619
O O9 0.603930 0.787762 0.685455
O O10 0.175593 0.818498 0.552344
O O11 0.500000 0.500000 0.500000
#
# Coordination Sequence:
#
# PCOD9251344 Si02
#       5
#     4   4   4   4   4
#     4  11  20  35  59  92 133 166 207 254 333 403
#     4  11  23  39  67  92 125 171 217 270 318 396
#     4  11  23  36  62  95 133 169 202 275 331 398
#     4  12  21  37  59  98 131 162 207 271 351 384
#     4  11  25  46  65  89 124 178 229 264 313 390
#
# _framework density 26.969681999999999
#
# number of rings (size 3 to 8) (size 9 to 14) (size 15 to 20)
#    0.000    0.800    6.000    3.600    0.000    0.000 
#    0.000    2.000    0.000    0.000    0.000    0.000 
#    0.000    0.000    0.000    0.000    0.000    0.000 
#
# Total GULP energy -111522.707246 kJ/mol
# GULP energy per Si atom -5576.135362 kJ/mol
# Density = 2.690830 g / cm^3
# Si number density = 26.969682 Si / 1000 Ang^3
#
#
#
# Elastic Constant Matrix: (Units=GPa)
#
#
# Indices 1 2 3 4 5 6 
#
# 1 61.1563 24.7650 31.5260 0.0001 29.1219 0.0001
# 2 24.7650 105.4102 70.1592 0.0003 29.3931 0.0001
# 3 31.5260 70.1592 216.2894 0.0038 51.3420 0.0006
# 4 0.0001 0.0003 0.0038 41.6855 -0.0005 10.5958
# 5 29.1219 29.3931 51.3420 -0.0005 53.2242 -0.0001
# 6 0.0001 0.0001 0.0006 10.5958 -0.0001 34.9801
#
#
#
# Elastic Compliance Matrix: (Units=1/GPa)
#
#
# Indices 1 2 3 4 5 6 
#
# 1 0.022536 -0.002240 0.000097 0.000000 -0.011188 0.000000
# 2 -0.002240 0.012929 -0.003195 0.000000 -0.002833 0.000000
# 3 0.000097 -0.003195 0.006796 -0.000001 -0.004844 0.000000
# 4 0.000000 0.000000 -0.000001 0.025990 0.000001 -0.007873
# 5 -0.011188 -0.002833 -0.004844 0.000001 0.031147 0.000000
# 6 0.000000 0.000000 0.000000 -0.007873 0.000000 0.030972
#
#
# Mechanical properties :
#
#
# Convention : Reuss Voigt Hill
#
# Bulk Modulus (GPa) = 31.65989 70.63958 51.14974
# Shear Modulus (GPa) = 32.98726 43.07167 38.02947
#
# Velocity S-wave (km/s) = 3.50111 4.00063 3.75918
# Velocity P-wave (km/s) = 5.30172 6.89849 6.15213
#
# Compressibility (1/GPa) = 0.03158571
#
# Stress axis : x y z
#
# Youngs Moduli (GPa) = 44.37409 77.34276 147.15596
#
# Poissons Ratio (x) = 0.17323 -0.01434
# Poissons Ratio (y) = 0.09939 0.47018
# Poissons Ratio (z) = -0.00432 0.24712
#
# Static dielectric constant tensor:
#      x y z
#    x 2.311200 0.000000 0.042320 
#    y 0.000000 2.170890 0.000000 
#    z 0.042320 0.000000 1.928280 
# 
# From -- ./inp_files/72595.got.cif
#   From: 2010.05.17/outbox.cif.g08.bks.cpg/sg14_37_cif.got.tgz:72595.got - 2010.06.03 17:49:19.
