data_PCOD9251949
_publ_section_title
;
Structure prediction by ZEFSAII (Michael W. Deem and Ramdas Pophale) SiO2 
 PCOD9251949
Probable space group: P 21/C
;
_chemical_formula_sum "Si O2"
_cell_formula_units_Z 20
_cell_length_a 10.150908
_cell_length_b 6.474892
_cell_length_c 17.483356
_cell_angle_alpha 90.000000
_cell_angle_beta 44.538447
_cell_angle_gamma 90.000000
_cell_volume 805.972785
_symmetry_space_group_name_H-M "P 21/C"
_symmetry_group_IT_number 14
_symmetry_cell_setting 'monoclinic'
loop_
_space_group_symop_operation_xyz
x,y,z
-x,1/2+y,1/2-z
-x,-y,-z
x,1/2-y,1/2+z
loop_
_atom_site_type_symbol
_atom_site_label
_atom_site_fract_x
_atom_site_fract_y
_atom_site_fract_z
Si Si1 0.174824 0.462709 0.851757
Si Si2 0.236518 0.855781 0.906233
Si Si3 0.741942 0.240902 0.318009
Si Si4 0.513157 0.993728 0.665260
Si Si5 0.951000 0.083106 0.871044
O O1 0.104010 0.669314 0.927396
O O2 0.274967 0.582568 0.739685
O O3 0.324419 0.384316 0.852458
O O4 0.054517 0.291751 0.858203
O O5 0.332161 0.970489 0.795728
O O6 0.403260 0.721360 0.876665
O O7 0.140380 0.988181 0.011290
O O8 0.552378 0.108881 0.385900
O O9 0.794765 0.344883 0.375442
O O10 0.914972 0.083992 0.225257
#
# Coordination Sequence:
#
# PCOD9251949 Si02
#       5
#     4   4   4   4   4
#     4   9  21  42  61  91 121 168 205 259 293 373
#     4   9  21  39  66  89 116 169 206 256 302 365
#     4  11  23  39  64  93 128 163 198 261 308 363
#     4   9  20  42  61  86 124 157 214 247 300 362
#     4  12  22  40  63  94 129 157 209 252 314 361
#
# _framework density 24.814734999999999
#
# number of rings (size 3 to 8) (size 9 to 14) (size 15 to 20)
#    1.200    0.800    2.000    1.800    0.000    4.000 
#    3.600    1.000    0.000    0.000    0.000    0.000 
#    0.000    0.000    0.000    0.000    0.000    0.000 
#
# Total GULP energy -111449.480761 kJ/mol
# GULP energy per Si atom -5572.474038 kJ/mol
# Density = 2.475826 g / cm^3
# Si number density = 24.814735 Si / 1000 Ang^3
#
#
#
# Elastic Constant Matrix: (Units=GPa)
#
#
# Indices 1 2 3 4 5 6 
#
# 1 154.2162 33.0627 4.4888 0.0000 24.5873 0.0000
# 2 33.0627 80.2711 12.3171 0.0000 -7.4381 0.0000
# 3 4.4888 12.3171 48.8229 0.0000 13.0691 0.0000
# 4 0.0000 0.0000 0.0000 23.2203 0.0000 1.3381
# 5 24.5873 -7.4381 13.0691 0.0000 29.0248 0.0000
# 6 0.0000 0.0000 0.0000 1.3381 0.0000 35.3947
#
#
#
# Elastic Compliance Matrix: (Units=1/GPa)
#
#
# Indices 1 2 3 4 5 6 
#
# 1 0.009228 -0.005305 0.003350 0.000000 -0.010685 0.000000
# 2 -0.005305 0.016815 -0.006948 0.000000 0.011931 0.000000
# 3 0.003350 -0.006948 0.026338 0.000000 -0.016478 0.000000
# 4 0.000000 0.000000 0.000000 0.043160 0.000000 -0.001632
# 5 -0.010685 0.011931 -0.016478 0.000000 0.053982 0.000000
# 6 0.000000 0.000000 0.000000 -0.001632 0.000000 0.028315
#
#
# Mechanical properties :
#
#
# Convention : Reuss Voigt Hill
#
# Bulk Modulus (GPa) = 28.92321 42.56081 35.74201
# Shear Modulus (GPa) = 24.13514 33.09072 28.61293
#
# Velocity S-wave (km/s) = 3.12206 3.65569 3.39936
# Velocity P-wave (km/s) = 4.96762 5.91671 5.46282
#
# Compressibility (1/GPa) = 0.03457430
#
# Stress axis : x y z
#
# Youngs Moduli (GPa) = 108.36862 59.47221 37.96815
#
# Poissons Ratio (x) = 0.31550 -0.12720
# Poissons Ratio (y) = 0.57489 0.26381
# Poissons Ratio (z) = -0.36305 0.41322
#
# Static dielectric constant tensor:
#      x y z
#    x 1.996490 0.000000 -0.078180 
#    y 0.000000 1.999990 0.000000 
#    z -0.078180 0.000000 2.047310 
# 
# From -- ./inp_files/56675.got.cif
#   From: 2010.05.17/outbox.cif.g08.bks.cpg/sg14_29_cif.got.tgz:56675.got - 2010.06.03 17:49:19.
