data_PCOD9251830
_publ_section_title
;
Structure prediction by ZEFSAII (Michael W. Deem and Ramdas Pophale) SiO2 
 PCOD9251830
Probable space group: P 21/C
;
_chemical_formula_sum "Si O2"
_cell_formula_units_Z 24
_cell_length_a 10.059252
_cell_length_b 16.029312
_cell_length_c 9.942942
_cell_angle_alpha 90.000000
_cell_angle_beta 44.842555
_cell_angle_gamma 90.000000
_cell_volume 1130.534397
_symmetry_space_group_name_H-M "P 21/C"
_symmetry_group_IT_number 14
_symmetry_cell_setting 'monoclinic'
loop_
_space_group_symop_operation_xyz
x,y,z
-x,1/2+y,1/2-z
-x,-y,-z
x,1/2-y,1/2+z
loop_
_atom_site_type_symbol
_atom_site_label
_atom_site_fract_x
_atom_site_fract_y
_atom_site_fract_z
Si Si1 0.314283 0.587052 0.498727
Si Si2 0.096029 0.378259 0.315632
Si Si3 0.676797 0.121328 0.698011
Si Si4 0.259914 0.401920 0.471933
Si Si5 0.060123 0.187397 0.349922
Si Si6 0.720725 0.572939 0.095598
O O1 0.324159 0.626520 0.639380
O O2 0.299269 0.486619 0.526408
O O3 0.506288 0.600940 0.279102
O O4 0.124047 0.613073 0.560916
O O5 0.162087 0.424433 0.402432
O O6 0.131379 0.280763 0.318248
O O7 0.211104 0.409605 0.103968
O O8 0.835512 0.180713 0.524215
O O9 0.730258 0.025998 0.619226
O O10 0.465072 0.137534 0.800391
O O11 0.129138 0.343946 0.655648
O O12 0.146305 0.125340 0.399739
#
# Coordination Sequence:
#
# PCOD9251830 Si02
#       6
#     4   4   4   4   4   4
#     4  11  22  44  70  94 123 171 222 260 307 382
#     4  12  27  38  62 101 137 162 202 273 332 365
#     4  11  22  43  74  91 118 177 228 250 304 391
#     4  11  24  43  65  98 126 167 218 271 307 369
#     4  12  23  41  66  93 132 173 211 253 326 389
#     4  11  22  44  71  92 125 173 219 261 308 380
#
# _framework density 21.228899999999999
#
# number of rings (size 3 to 8) (size 9 to 14) (size 15 to 20)
#    0.000    0.667    5.000    4.000    0.000    6.667 
#    0.000    0.000    0.000    0.000    0.000    0.000 
#    0.000    0.000    0.000    0.000    0.000    0.000 
#
# Total GULP energy -134317.429350 kJ/mol
# GULP energy per Si atom -5596.559556 kJ/mol
# Density = 2.118058 g / cm^3
# Si number density = 21.228900 Si / 1000 Ang^3
#
#
#
# Elastic Constant Matrix: (Units=GPa)
#
#
# Indices 1 2 3 4 5 6 
#
# 1 101.8423 -8.4383 31.9889 0.0000 -9.5076 0.0000
# 2 -8.4383 22.5743 20.0254 0.0000 5.9736 0.0000
# 3 31.9889 20.0254 92.0667 0.0000 -11.6973 0.0000
# 4 0.0000 0.0000 0.0000 -9.8738 0.0000 9.8176
# 5 -9.5076 5.9736 -11.6973 0.0000 36.6616 0.0000
# 6 0.0000 0.0000 0.0000 9.8176 0.0000 5.7276
#
#
#
# Elastic Compliance Matrix: (Units=1/GPa)
#
#
# Indices 1 2 3 4 5 6 
#
# 1 0.012884 0.011227 -0.007010 0.000000 -0.000725 0.000000
# 2 0.011227 0.071679 -0.021476 0.000000 -0.015620 0.000000
# 3 -0.007010 -0.021476 0.018951 0.000000 0.007728 0.000000
# 4 0.000000 0.000000 0.000000 -0.037451 0.000000 0.064193
# 5 -0.000725 -0.015620 0.007728 0.000000 0.032099 0.000000
# 6 0.000000 0.000000 0.000000 0.064193 0.000000 0.064561
#
#
# Mechanical properties :
#
#
# Convention : Reuss Voigt Hill
#
# Bulk Modulus (GPa) = 14.49416 33.73726 24.11571
# Shear Modulus (GPa) = 22.70239 18.03022 20.36631
#
# Velocity S-wave (km/s) = 3.27373 2.91748 3.10073
# Velocity P-wave (km/s) = 4.59697 5.22260 4.91974
#
# Compressibility (1/GPa) = 0.06899330
#
# Stress axis : x y z
#
# Youngs Moduli (GPa) = 77.61789 13.95104 52.76875
#
# Poissons Ratio (x) = -0.15662 0.36993
# Poissons Ratio (y) = -0.87138 1.13327
# Poissons Ratio (z) = 0.54414 0.29962
#
# Static dielectric constant tensor:
#      x y z
#    x 1.756130 0.000000 -0.011650 
#    y 0.000000 1.781650 0.000000 
#    z -0.011650 0.000000 1.739360 
# 
# From -- ./inp_files/10132.got.cif
#   From: 2010.05.17/outbox.cif.g08.bks.cpg/sg14_6_cif.got.tgz:10132.got - 2010.06.03 17:49:19.
