data_PCOD9251203
_publ_section_title
;
Structure prediction by ZEFSAII (Michael W. Deem and Ramdas Pophale) SiO2 
 PCOD9251203
Probable space group: P 21/C
;
_chemical_formula_sum "Si O2"
_cell_formula_units_Z 18
_cell_length_a 18.809892
_cell_length_b 7.651181
_cell_length_c 12.400792
_cell_angle_alpha 90.000000
_cell_angle_beta 157.666174
_cell_angle_gamma 90.000000
_cell_volume 678.188533
_symmetry_space_group_name_H-M "P 21/C"
_symmetry_group_IT_number 14
_symmetry_cell_setting 'monoclinic'
loop_
_space_group_symop_operation_xyz
x,y,z
-x,1/2+y,1/2-z
-x,-y,-z
x,1/2-y,1/2+z
loop_
_atom_site_type_symbol
_atom_site_label
_atom_site_fract_x
_atom_site_fract_y
_atom_site_fract_z
Si Si1 0.500000 0.000000 0.500000
Si Si2 0.445141 0.133778 0.016939
Si Si3 0.018119 0.585317 0.407657
Si Si4 0.165593 0.758599 0.428511
Si Si5 0.771542 0.928431 0.081173
O O1 0.394362 0.176628 0.400883
O O2 0.403884 0.043501 0.244966
O O3 0.643937 0.167913 0.353192
O O4 0.299544 0.063505 0.896962
O O5 0.500000 0.000000 0.000000
O O6 0.965698 0.424189 0.257023
O O7 0.000000 0.500000 0.500000
O O8 0.197373 0.672257 0.594086
O O9 0.872690 0.744775 0.202782
O O10 0.102742 0.600059 0.265541
#
# Coordination Sequence:
#
# PCOD9251203 Si02
#       5
#     2   4   4   4   4
#     4  10  26  46  74 104 150 186 254 318 370 454
#     4  11  27  44  77 106 147 193 262 317 381 449
#     4  12  28  48  74 107 156 201 251 314 387 473
#     4  11  27  48  70 110 149 198 256 306 391 459
#     4  11  27  48  75 110 149 201 254 319 389 455
#
# _framework density 26.541293
#
# number of rings (size 3 to 8) (size 9 to 14) (size 15 to 20)
#    0.000    0.889    2.222    1.333   21.778    2.667 
#    0.000    0.000    0.000    0.000    0.000    0.000 
#    0.000    0.000    0.000    0.000    0.000    0.000 
#
# Total GULP energy -100223.193410 kJ/mol
# GULP energy per Si atom -5567.955189 kJ/mol
# Density = 2.648088 g / cm^3
# Si number density = 26.541293 Si / 1000 Ang^3
#
#
#
# Elastic Constant Matrix: (Units=GPa)
#
#
# Indices 1 2 3 4 5 6 
#
# 1 183.2516 66.8944 6.0665 0.0000 -0.1283 0.0000
# 2 66.8944 200.0476 21.0535 0.0000 -5.2959 0.0000
# 3 6.0665 21.0535 58.3108 0.0000 -4.9655 0.0000
# 4 0.0000 0.0000 0.0000 42.1785 0.0000 -8.4289
# 5 -0.1283 -5.2959 -4.9655 0.0000 24.4638 0.0000
# 6 0.0000 0.0000 0.0000 -8.4289 0.0000 37.2177
#
#
#
# Elastic Compliance Matrix: (Units=1/GPa)
#
#
# Indices 1 2 3 4 5 6 
#
# 1 0.006220 -0.002099 0.000076 0.000000 -0.000406 0.000000
# 2 -0.002099 0.005918 -0.001842 0.000000 0.000896 0.000000
# 3 0.000076 -0.001842 0.018085 0.000000 0.003272 0.000000
# 4 0.000000 0.000000 0.000000 0.024833 0.000000 0.005624
# 5 -0.000406 0.000896 0.003272 0.000000 0.041733 0.000000
# 6 0.000000 0.000000 0.000000 0.005624 0.000000 0.028143
#
#
# Mechanical properties :
#
#
# Convention : Reuss Voigt Hill
#
# Bulk Modulus (GPa) = 44.45602 69.95986 57.20794
# Shear Modulus (GPa) = 35.67354 43.94503 39.80928
#
# Velocity S-wave (km/s) = 3.67014 4.07347 3.87706
# Velocity P-wave (km/s) = 5.89458 6.96709 6.45315
#
# Compressibility (1/GPa) = 0.02249414
#
# Stress axis : x y z
#
# Youngs Moduli (GPa) = 160.76343 168.96951 55.29330
#
# Poissons Ratio (x) = 0.35463 -0.00420
# Poissons Ratio (y) = 0.33741 0.10186
# Poissons Ratio (z) = -0.01222 0.31126
#
# Static dielectric constant tensor:
#      x y z
#    x 2.423330 0.000000 0.790350 
#    y 0.000000 1.919280 0.000000 
#    z 0.790350 0.000000 3.800170 
# 
# From -- ./inp_files/33632.got.cif
#   From: 2010.05.17/outbox.cif.g08.bks.cpg/sg14_17_cif.got.tgz:33632.got - 2010.06.03 17:49:19.
