data_PCOD9251698
_publ_section_title
;
Structure prediction by ZEFSAII (Michael W. Deem and Ramdas Pophale) SiO2 
 PCOD9251698
Probable space group: P 21/C
;
_chemical_formula_sum "Si O2"
_cell_formula_units_Z 24
_cell_length_a 16.563596
_cell_length_b 11.663123
_cell_length_c 19.080076
_cell_angle_alpha 90.000000
_cell_angle_beta 14.294596
_cell_angle_gamma 90.000000
_cell_volume 910.089433
_symmetry_space_group_name_H-M "P 21/C"
_symmetry_group_IT_number 14
_symmetry_cell_setting 'monoclinic'
loop_
_space_group_symop_operation_xyz
x,y,z
-x,1/2+y,1/2-z
-x,-y,-z
x,1/2-y,1/2+z
loop_
_atom_site_type_symbol
_atom_site_label
_atom_site_fract_x
_atom_site_fract_y
_atom_site_fract_z
Si Si1 0.512392 0.899274 0.291505
Si Si2 0.150692 0.914647 0.447721
Si Si3 0.892556 0.888560 0.330481
Si Si4 0.165985 0.935507 0.794054
Si Si5 0.425555 0.278123 0.514202
Si Si6 0.641265 0.650423 0.196940
O O1 0.314842 0.886921 0.385688
O O2 0.564678 0.778791 0.286899
O O3 0.311470 0.994657 0.501546
O O4 0.882925 0.942892 0.974587
O O5 0.408627 0.871090 0.174813
O O6 0.124368 0.052878 0.467940
O O7 0.813580 0.842969 0.731020
O O8 0.791968 0.804538 0.352435
O O9 0.768328 0.836831 0.509836
O O10 0.279831 0.904283 0.005789
O O11 0.284968 0.804028 0.702051
O O12 0.500000 0.000000 0.500000
O O13 0.000000 0.000000 0.000000
#
# Coordination Sequence:
#
# PCOD9251698 Si02
#       6
#     4   4   4   4   4   4
#     4  11  24  44  68 100 136 174 232 283 335 413
#     4  11  24  41  69  96 133 180 226 280 337 402
#     4  11  22  38  67  99 133 168 224 285 334 391
#     4  12  28  43  68 104 141 180 221 286 358 406
#     4  12  22  45  63  99 137 175 220 279 350 397
#     4  11  24  40  65 103 127 176 231 279 336 399
#
# _framework density 26.371034000000002
#
# number of rings (size 3 to 8) (size 9 to 14) (size 15 to 20)
#    0.000    0.667    5.000    3.000    4.667    2.667 
#    0.000    1.667    0.000    0.000    0.000    0.000 
#    0.000    0.000    0.000    0.000    0.000    0.000 
#
# Total GULP energy -134518.651395 kJ/mol
# GULP energy per Si atom -5604.943808 kJ/mol
# Density = 2.631101 g / cm^3
# Si number density = 26.371034 Si / 1000 Ang^3
#
#
#
# Elastic Constant Matrix: (Units=GPa)
#
#
# Indices 1 2 3 4 5 6 
#
# 1 43.1757 14.3539 26.5365 0.0000 -7.9897 0.0000
# 2 14.3539 158.4126 19.9827 0.0000 -5.7249 0.0000
# 3 26.5365 19.9827 152.2374 0.0000 -7.4946 0.0000
# 4 0.0000 0.0000 0.0000 47.5098 0.0000 0.6094
# 5 -7.9897 -5.7249 -7.4946 0.0000 41.9253 0.0000
# 6 0.0000 0.0000 0.0000 0.6094 0.0000 32.7814
#
#
#
# Elastic Compliance Matrix: (Units=1/GPa)
#
#
# Indices 1 2 3 4 5 6 
#
# 1 0.027161 -0.001768 -0.004297 0.000000 0.004166 0.000000
# 2 -0.001768 0.006556 -0.000530 0.000000 0.000464 0.000000
# 3 -0.004297 -0.000530 0.007409 0.000000 0.000433 0.000000
# 4 0.000000 0.000000 0.000000 0.021053 0.000000 -0.000391
# 5 0.004166 0.000464 0.000433 0.000000 0.024787 0.000000
# 6 0.000000 0.000000 0.000000 -0.000391 0.000000 0.030512
#
#
# Mechanical properties :
#
#
# Convention : Reuss Voigt Hill
#
# Bulk Modulus (GPa) = 35.79636 52.84134 44.31885
# Shear Modulus (GPa) = 35.71914 43.97347 39.84630
#
# Velocity S-wave (km/s) = 3.68432 4.08792 3.89136
# Velocity P-wave (km/s) = 5.63050 6.50866 6.08544
#
# Compressibility (1/GPa) = 0.02793580
#
# Stress axis : x y z
#
# Youngs Moduli (GPa) = 36.81716 152.52230 134.97883
#
# Poissons Ratio (x) = 0.26973 0.58004
# Poissons Ratio (y) = 0.06511 0.07147
# Poissons Ratio (z) = 0.15821 0.08076
#
# Static dielectric constant tensor:
#      x y z
#    x 2.112230 0.000000 -0.020620 
#    y 0.000000 -4.647710 0.000000 
#    z -0.020620 0.000000 1.959250 
# 
# From -- ./inp_files/78170.got.cif
#   From: 2010.05.17/outbox.cif.g08.bks.cpg/sg14_40_cif.got.tgz:78170.got - 2010.06.03 17:49:19.
