data_PCOD9251807
_publ_section_title
;
Structure prediction by ZEFSAII (Michael W. Deem and Ramdas Pophale) SiO2 
 PCOD9251807
Probable space group: P 21/C
;
_chemical_formula_sum "Si O2"
_cell_formula_units_Z 28
_cell_length_a 11.926587
_cell_length_b 14.354539
_cell_length_c 7.826586
_cell_angle_alpha 90.000000
_cell_angle_beta 68.275585
_cell_angle_gamma 90.000000
_cell_volume 1244.748999
_symmetry_space_group_name_H-M "P 21/C"
_symmetry_group_IT_number 14
_symmetry_cell_setting 'monoclinic'
loop_
_space_group_symop_operation_xyz
x,y,z
-x,1/2+y,1/2-z
-x,-y,-z
x,1/2-y,1/2+z
loop_
_atom_site_type_symbol
_atom_site_label
_atom_site_fract_x
_atom_site_fract_y
_atom_site_fract_z
Si Si1 0.883235 0.454056 0.354454
Si Si2 0.665071 0.931316 0.850720
Si Si3 0.966881 0.697861 0.845296
Si Si4 0.563223 0.900158 0.253172
Si Si5 0.086626 0.608487 0.278105
Si Si6 0.224757 0.233940 0.777154
Si Si7 0.334319 0.528939 0.009182
O O1 0.753790 0.489799 0.372986
O O2 0.883317 0.399893 0.535583
O O3 0.943527 0.386592 0.181273
O O4 0.970474 0.542813 0.320642
O O5 0.733037 0.831709 0.824950
O O6 0.648561 0.956163 0.659739
O O7 0.561021 0.922582 0.052693
O O8 0.856024 0.662443 0.787405
O O9 0.047222 0.787348 0.748704
O O10 0.881873 0.736185 0.038845
O O11 0.654525 0.814700 0.227660
O O12 0.429672 0.890387 0.404187
O O13 0.622278 0.981059 0.338632
O O14 0.200966 0.568371 0.111381
#
# Coordination Sequence:
#
# PCOD9251807 Si02
#       7
#     4   4   4   4   4   4   4
#     4  11  23  40  68  99 145 177 218 293 351 408
#     4  12  24  43  74 104 133 182 238 285 347 416
#     4  12  24  38  68 102 136 181 225 281 356 416
#     4  11  24  48  66  97 138 182 233 290 334 407
#     4  11  22  43  63 102 142 180 220 283 357 410
#     4  12  22  41  68 100 133 171 238 286 329 417
#     4  11  26  43  70  96 139 185 228 284 348 412
#
# _framework density 22.494492999999999
#
# number of rings (size 3 to 8) (size 9 to 14) (size 15 to 20)
#    0.000    0.571    5.714    3.000    2.000    1.143 
#    0.000    4.286    0.000    0.000    0.000    0.000 
#    0.000    0.000    0.000    0.000    0.000    0.000 
#
# Total GULP energy -156251.967227 kJ/mol
# GULP energy per Si atom -5580.427401 kJ/mol
# Density = 2.244329 g / cm^3
# Si number density = 22.494493 Si / 1000 Ang^3
#
#
#
# Elastic Constant Matrix: (Units=GPa)
#
#
# Indices 1 2 3 4 5 6 
#
# 1 55.8667 5.3351 2.1081 0.0000 5.9543 0.0000
# 2 5.3351 76.6406 2.4034 0.0000 0.7945 0.0000
# 3 2.1081 2.4034 113.0989 0.0000 -12.6127 0.0000
# 4 0.0000 0.0000 0.0000 -31.1985 0.0000 18.3707
# 5 5.9543 0.7945 -12.6127 0.0000 19.7625 0.0000
# 6 0.0000 0.0000 0.0000 18.3707 0.0000 32.6495
#
#
#
# Elastic Compliance Matrix: (Units=1/GPa)
#
#
# Indices 1 2 3 4 5 6 
#
# 1 0.018719 -0.001206 -0.001019 0.000000 -0.006242 0.000000
# 2 -0.001206 0.013145 -0.000296 0.000000 -0.000354 0.000000
# 3 -0.001019 -0.000296 0.009585 0.000000 0.006436 0.000000
# 4 0.000000 0.000000 0.000000 -0.024076 0.000000 0.013547
# 5 -0.006242 -0.000354 0.006436 0.000000 0.056603 0.000000
# 6 0.000000 0.000000 0.000000 0.013547 0.000000 0.023006
#
#
# Mechanical properties :
#
#
# Convention : Reuss Voigt Hill
#
# Bulk Modulus (GPa) = 27.46928 29.47770 28.47349
# Shear Modulus (GPa) = 43.79787 19.96001 31.87894
#
# Velocity S-wave (km/s) = 4.41732 2.98204 3.76864
# Velocity P-wave (km/s) = 6.18507 4.99896 5.62337
#
# Compressibility (1/GPa) = 0.03640430
#
# Stress axis : x y z
#
# Youngs Moduli (GPa) = 53.42252 76.07535 104.33098
#
# Poissons Ratio (x) = 0.09177 0.10635
# Poissons Ratio (y) = 0.06445 0.03092
# Poissons Ratio (z) = 0.05446 0.02254
#
# Static dielectric constant tensor:
#      x y z
#    x 1.843210 0.000000 0.093720 
#    y 0.000000 1.818280 0.000000 
#    z 0.093720 0.000000 1.960680 
# 
# From -- ./inp_files/12979.got.cif
#   From: 2010.05.17/outbox.cif.g08.bks.cpg/sg14_7_cif.got.tgz:12979.got - 2010.06.03 17:49:19.
