data_PCOD9251186
_publ_section_title
;
Structure prediction by ZEFSAII (Michael W. Deem and Ramdas Pophale) SiO2 
 PCOD9251186
Probable space group: P 21/C
;
_chemical_formula_sum "Si O2"
_cell_formula_units_Z 24
_cell_length_a 9.372278
_cell_length_b 5.036250
_cell_length_c 22.930032
_cell_angle_alpha 90.000000
_cell_angle_beta 58.341916
_cell_angle_gamma 90.000000
_cell_volume 921.268711
_symmetry_space_group_name_H-M "P 21/C"
_symmetry_group_IT_number 14
_symmetry_cell_setting 'monoclinic'
loop_
_space_group_symop_operation_xyz
x,y,z
-x,1/2+y,1/2-z
-x,-y,-z
x,1/2-y,1/2+z
loop_
_atom_site_type_symbol
_atom_site_label
_atom_site_fract_x
_atom_site_fract_y
_atom_site_fract_z
Si Si1 0.622967 0.141909 0.852969
Si Si2 0.601741 0.615559 0.245143
Si Si3 0.083999 0.564733 0.261614
Si Si4 0.229921 0.078202 0.949495
Si Si5 0.891192 0.063436 0.595830
Si Si6 0.874623 0.166889 0.905790
O O1 0.639072 0.891696 0.805924
O O2 0.725667 0.357023 0.792854
O O3 0.425613 0.156991 0.905936
O O4 0.723921 0.147808 0.891671
O O5 0.457662 0.395362 0.266443
O O6 0.755565 0.506334 0.174847
O O7 0.970960 0.973017 0.162208
O O8 0.982642 0.830079 0.265615
O O9 0.171497 0.838428 0.919455
O O10 0.134906 0.339141 0.948431
O O11 0.180404 0.983782 0.024396
O O12 0.065003 0.963068 0.588952
#
# Coordination Sequence:
#
# PCOD9251186 Si02
#       6
#     4   4   4   4   4   4
#     4  11  26  48  80 112 153 201 273 328 397 462
#     4  12  25  47  76 108 151 204 264 328 391 478
#     4  10  26  45  71 113 157 198 255 334 409 461
#     4  12  27  52  75 110 157 215 263 317 403 490
#     4  12  27  48  76 109 156 212 258 323 399 484
#     4  11  28  48  79 115 160 202 265 335 404 473
#
# _framework density 26.051030999999998
#
# number of rings (size 3 to 8) (size 9 to 14) (size 15 to 20)
#    0.000    0.667    3.333    1.500   14.000    5.333 
#    0.000    2.500    0.000    0.000    0.000    0.000 
#    0.000    0.000    0.000    0.000    0.000    0.000 
#
# Total GULP energy -134494.461359 kJ/mol
# GULP energy per Si atom -5603.935890 kJ/mol
# Density = 2.599174 g / cm^3
# Si number density = 26.051031 Si / 1000 Ang^3
#
#
#
# Elastic Constant Matrix: (Units=GPa)
#
#
# Indices 1 2 3 4 5 6 
#
# 1 219.5168 85.2089 86.3861 0.0000 7.6911 0.0000
# 2 85.2089 169.1923 27.9246 0.0000 -8.1631 0.0000
# 3 86.3861 27.9246 161.6433 0.0000 0.3382 0.0000
# 4 0.0000 0.0000 0.0000 41.9993 0.0000 14.5522
# 5 7.6911 -8.1631 0.3382 0.0000 59.2550 0.0000
# 6 0.0000 0.0000 0.0000 14.5522 0.0000 33.7246
#
#
#
# Elastic Compliance Matrix: (Units=1/GPa)
#
#
# Indices 1 2 3 4 5 6 
#
# 1 0.007081 -0.003094 -0.003247 0.000000 -0.001327 0.000000
# 2 -0.003094 0.007478 0.000359 0.000000 0.001430 0.000000
# 3 -0.003247 0.000359 0.007859 0.000000 0.000426 0.000000
# 4 0.000000 0.000000 0.000000 0.027996 0.000000 -0.012080
# 5 -0.001327 0.001430 0.000426 0.000000 0.017243 0.000000
# 6 0.000000 0.000000 0.000000 -0.012080 0.000000 0.034865
#
#
# Mechanical properties :
#
#
# Convention : Reuss Voigt Hill
#
# Bulk Modulus (GPa) = 95.66260 105.48795 100.57528
# Shear Modulus (GPa) = 42.38366 50.38462 46.38414
#
# Velocity S-wave (km/s) = 4.03792 4.40258 4.22419
# Velocity P-wave (km/s) = 7.65119 8.15011 7.90459
#
# Compressibility (1/GPa) = 0.01045341
#
# Stress axis : x y z
#
# Youngs Moduli (GPa) = 141.22927 133.71673 127.24625
#
# Poissons Ratio (x) = 0.41374 0.41314
# Poissons Ratio (y) = 0.43698 -0.04564
# Poissons Ratio (z) = 0.45854 -0.04796
#
# Static dielectric constant tensor:
#      x y z
#    x 2.094160 0.000000 -0.011520 
#    y 0.000000 2.072670 0.000000 
#    z -0.011520 0.000000 2.075780 
# 
# From -- ./inp_files/71600.got.cif
#   From: 2010.05.17/outbox.cif.g08.bks.cpg/sg14_36_cif.got.tgz:71600.got - 2010.06.03 17:49:19.
