data_PCOD9251475
_publ_section_title
;
Structure prediction by ZEFSAII (Michael W. Deem and Ramdas Pophale) SiO2 
 PCOD9251475
Probable space group: P 21/C
;
_chemical_formula_sum "Si O2"
_cell_formula_units_Z 24
_cell_length_a 17.131580
_cell_length_b 7.993751
_cell_length_c 20.785306
_cell_angle_alpha 90.000000
_cell_angle_beta 160.056095
_cell_angle_gamma 90.000000
_cell_volume 970.926047
_symmetry_space_group_name_H-M "P 21/C"
_symmetry_group_IT_number 14
_symmetry_cell_setting 'monoclinic'
loop_
_space_group_symop_operation_xyz
x,y,z
-x,1/2+y,1/2-z
-x,-y,-z
x,1/2-y,1/2+z
loop_
_atom_site_type_symbol
_atom_site_label
_atom_site_fract_x
_atom_site_fract_y
_atom_site_fract_z
Si Si1 0.162141 0.322809 0.962001
Si Si2 0.160410 0.260291 0.643143
Si Si3 0.534750 0.038531 0.372590
Si Si4 0.982694 0.893702 0.245314
Si Si5 0.644164 0.800679 0.574343
Si Si6 0.195935 0.880503 0.707447
O O1 0.117111 0.135459 0.903416
O O2 0.021076 0.412457 0.793903
O O3 0.026466 0.381717 0.918844
O O4 0.412740 0.400082 0.142353
O O5 0.303556 0.357785 0.699477
O O6 0.217558 0.346931 0.754936
O O7 0.894012 0.240949 0.419224
O O8 0.239902 0.066782 0.715744
O O9 0.577665 0.948814 0.474727
O O10 0.753992 0.160300 0.536931
O O11 0.800967 0.824536 0.155009
O O12 0.410124 0.701755 0.408182
#
# Coordination Sequence:
#
# PCOD9251475 Si02
#       6
#     4   4   4   4   4   4
#     4   9  19  38  56  88 120 156 209 244 304 366
#     4  11  22  39  60  89 122 157 203 253 309 364
#     4   9  21  37  61  88 122 162 207 253 303 367
#     4   9  19  35  62  87 119 158 205 250 298 363
#     4  11  21  38  64  89 122 162 202 254 309 364
#     4  11  24  37  63  92 122 160 204 253 306 374
#
# _framework density 24.718671000000001
#
# number of rings (size 3 to 8) (size 9 to 14) (size 15 to 20)
#    1.000    1.000    1.667    2.000    2.333    0.667 
#    0.000   10.000    0.000    0.000    0.000    0.000 
#    0.000    0.000    0.000    0.000    0.000    0.000 
#
# Total GULP energy -133715.143583 kJ/mol
# GULP energy per Si atom -5571.464316 kJ/mol
# Density = 2.466241 g / cm^3
# Si number density = 24.718671 Si / 1000 Ang^3
#
#
#
# Elastic Constant Matrix: (Units=GPa)
#
#
# Indices 1 2 3 4 5 6 
#
# 1 72.9230 2.6725 15.8042 0.0000 11.5447 0.0000
# 2 2.6725 30.5036 20.1235 0.0000 5.4890 0.0000
# 3 15.8042 20.1235 63.7036 0.0000 -5.9213 0.0000
# 4 0.0000 0.0000 0.0000 42.2123 0.0000 3.5773
# 5 11.5447 5.4890 -5.9213 0.0000 25.9204 0.0000
# 6 0.0000 0.0000 0.0000 3.5773 0.0000 17.9257
#
#
#
# Elastic Compliance Matrix: (Units=1/GPa)
#
#
# Indices 1 2 3 4 5 6 
#
# 1 0.016491 0.004566 -0.006443 0.000000 -0.009784 0.000000
# 2 0.004566 0.046695 -0.017360 0.000000 -0.015888 0.000000
# 3 -0.006443 -0.017360 0.023896 0.000000 0.012005 0.000000
# 4 0.000000 0.000000 0.000000 0.024097 0.000000 -0.004809
# 5 -0.009784 -0.015888 0.012005 0.000000 0.049044 0.000000
# 6 0.000000 0.000000 0.000000 -0.004809 0.000000 0.056745
#
#
# Mechanical properties :
#
#
# Convention : Reuss Voigt Hill
#
# Bulk Modulus (GPa) = 20.57284 27.14784 23.86034
# Shear Modulus (GPa) = 18.40637 25.78035 22.09336
#
# Velocity S-wave (km/s) = 2.73176 3.23298 2.99288
# Velocity P-wave (km/s) = 4.27678 4.99427 4.64939
#
# Compressibility (1/GPa) = 0.04860778
#
# Stress axis : x y z
#
# Youngs Moduli (GPa) = 60.63894 21.41574 41.84798
#
# Poissons Ratio (x) = -0.09779 0.26963
# Poissons Ratio (y) = -0.27690 0.72649
# Poissons Ratio (z) = 0.39071 0.37178
#
# Static dielectric constant tensor:
#      x y z
#    x 2.055910 0.000000 -0.049720 
#    y 0.000000 2.034390 0.000000 
#    z -0.049720 0.000000 1.983720 
# 
# From -- ./inp_files/74332.got.cif
#   From: 2010.05.17/outbox.cif.g08.bks.cpg/sg14_38_cif.got.tgz:74332.got - 2010.06.03 17:49:19.
