data_PCOD9251580
_publ_section_title
;
Structure prediction by ZEFSAII (Michael W. Deem and Ramdas Pophale) SiO2 
 PCOD9251580
Probable space group: P 21/C
;
_chemical_formula_sum "Si O2"
_cell_formula_units_Z 28
_cell_length_a 11.313204
_cell_length_b 9.275330
_cell_length_c 14.129934
_cell_angle_alpha 90.000000
_cell_angle_beta 117.033117
_cell_angle_gamma 90.000000
_cell_volume 1320.711660
_symmetry_space_group_name_H-M "P 21/C"
_symmetry_group_IT_number 14
_symmetry_cell_setting 'monoclinic'
loop_
_space_group_symop_operation_xyz
x,y,z
-x,1/2+y,1/2-z
-x,-y,-z
x,1/2-y,1/2+z
loop_
_atom_site_type_symbol
_atom_site_label
_atom_site_fract_x
_atom_site_fract_y
_atom_site_fract_z
Si Si1 0.723419 0.740559 0.875746
Si Si2 0.634565 0.661503 0.151312
Si Si3 0.060717 0.072448 0.616948
Si Si4 0.459222 0.366492 0.550204
Si Si5 0.642814 0.066269 0.427793
Si Si6 0.271567 0.672857 0.232516
Si Si7 0.184055 0.917405 0.332052
O O1 0.643868 0.743048 0.748404
O O2 0.874714 0.722066 0.896534
O O3 0.663977 0.866858 0.919640
O O4 0.698411 0.590504 0.921238
O O5 0.514767 0.551272 0.126317
O O6 0.770811 0.575872 0.185407
O O7 0.588605 0.749526 0.043910
O O8 0.951112 0.088269 0.658061
O O9 0.175883 0.967788 0.700896
O O10 0.000000 0.000000 0.500000
O O11 0.500000 0.500000 0.500000
O O12 0.590618 0.337567 0.660011
O O13 0.687113 0.176974 0.362447
O O14 0.703538 0.117443 0.548270
O O15 0.193595 0.806688 0.249205
#
# Coordination Sequence:
#
# PCOD9251580 Si02
#       7
#     4   4   4   4   4   4   4
#     4  11  24  41  66  97 132 178 223 273 355 412
#     4  12  24  39  71 100 134 176 226 286 357 409
#     4  11  23  46  67  90 136 189 227 278 338 417
#     4  12  23  41  65 104 138 169 223 293 349 412
#     4  11  21  43  65  95 132 178 220 282 351 410
#     4  11  24  41  66  97 131 178 231 284 341 415
#     4  12  24  43  70  96 133 185 239 280 343 427
#
# _framework density 21.200690999999999
#
# number of rings (size 3 to 8) (size 9 to 14) (size 15 to 20)
#    0.000    0.571    7.143    3.000    2.000    0.000 
#    2.571    0.000    0.000    2.571    0.000    0.000 
#    0.000    0.000    0.000    0.000    0.000    0.000 
#
# Total GULP energy -156197.256848 kJ/mol
# GULP energy per Si atom -5578.473459 kJ/mol
# Density = 2.115244 g / cm^3
# Si number density = 21.200691 Si / 1000 Ang^3
#
#
#
# Elastic Constant Matrix: (Units=GPa)
#
#
# Indices 1 2 3 4 5 6 
#
# 1 146.3331 41.0208 8.0323 0.0000 -17.5175 0.0000
# 2 41.0208 66.7255 25.1384 0.0000 -15.5343 0.0000
# 3 8.0323 25.1384 89.2896 0.0000 -23.3328 0.0000
# 4 0.0000 0.0000 0.0000 38.4319 0.0000 -8.6375
# 5 -17.5175 -15.5343 -23.3328 0.0000 30.4325 0.0000
# 6 0.0000 0.0000 0.0000 -8.6375 0.0000 37.4420
#
#
#
# Elastic Compliance Matrix: (Units=1/GPa)
#
#
# Indices 1 2 3 4 5 6 
#
# 1 0.008589 -0.005043 0.001584 0.000000 0.003584 0.000000
# 2 -0.005043 0.020708 -0.004218 0.000000 0.004434 0.000000
# 3 0.001584 -0.004218 0.014907 0.000000 0.010188 0.000000
# 4 0.000000 0.000000 0.000000 0.027443 0.000000 0.006331
# 5 0.003584 0.004434 0.010188 0.000000 0.044997 0.000000
# 6 0.000000 0.000000 0.000000 0.006331 0.000000 0.028168
#
#
# Mechanical properties :
#
#
# Convention : Reuss Voigt Hill
#
# Bulk Modulus (GPa) = 34.66120 50.08125 42.37122
# Shear Modulus (GPa) = 29.44926 36.47174 32.96050
#
# Velocity S-wave (km/s) = 3.73107 4.15216 3.94723
# Velocity P-wave (km/s) = 5.91149 6.83089 6.38775
#
# Compressibility (1/GPa) = 0.02885071
#
# Stress axis : x y z
#
# Youngs Moduli (GPa) = 116.42140 48.29002 67.08367
#
# Poissons Ratio (x) = 0.24351 -0.10624
# Poissons Ratio (y) = 0.58708 0.28295
# Poissons Ratio (z) = -0.18438 0.20368
#
# Static dielectric constant tensor:
#      x y z
#    x 1.835330 0.000000 -0.011650 
#    y 0.000000 1.807450 0.000000 
#    z -0.011650 0.000000 1.745440 
# 
# From -- ./inp_files/43462.got.cif
#   From: 2010.05.17/outbox.cif.g08.bks.cpg/sg14_22_cif.got.tgz:43462.got - 2010.06.03 17:49:19.
