data_PCOD9251728
_publ_section_title
;
Structure prediction by ZEFSAII (Michael W. Deem and Ramdas Pophale) SiO2 
 PCOD9251728
Probable space group: P 21/C
;
_chemical_formula_sum "Si O2"
_cell_formula_units_Z 16
_cell_length_a 7.013476
_cell_length_b 13.903824
_cell_length_c 6.834186
_cell_angle_alpha 90.000000
_cell_angle_beta 69.886059
_cell_angle_gamma 90.000000
_cell_volume 625.784597
_symmetry_space_group_name_H-M "P 21/C"
_symmetry_group_IT_number 14
_symmetry_cell_setting 'monoclinic'
loop_
_space_group_symop_operation_xyz
x,y,z
-x,1/2+y,1/2-z
-x,-y,-z
x,1/2-y,1/2+z
loop_
_atom_site_type_symbol
_atom_site_label
_atom_site_fract_x
_atom_site_fract_y
_atom_site_fract_z
Si Si1 0.110140 0.904146 0.877470
Si Si2 0.557954 0.878524 0.893434
Si Si3 0.274796 0.485170 0.995694
Si Si4 0.246521 0.321916 0.303666
O O1 0.328189 0.887588 0.900628
O O2 0.149323 0.926852 0.633495
O O3 0.957907 0.819617 0.993689
O O4 0.000000 0.000000 0.000000
O O5 0.695281 0.960101 0.740671
O O6 0.648621 0.776757 0.790624
O O7 0.593712 0.877038 0.111451
O O8 0.203257 0.387828 0.130758
O O9 0.500000 0.500000 0.000000
#
# Coordination Sequence:
#
# PCOD9251728 Si02
#       4
#     4   4   4   4
#     4   9  22  41  62  91 125 158 208 255 304 376
#     4  11  22  40  65  90 127 162 205 261 308 360
#     4   9  20  41  60  89 125 156 202 256 302 367
#     4  11  22  40  63  93 123 164 206 255 312 360
#
# _framework density 25.567903999999999
#
# number of rings (size 3 to 8) (size 9 to 14) (size 15 to 20)
#    0.000    2.000    2.500    0.000    0.000   12.000 
#    0.000    0.000    0.000    0.000    0.000    0.000 
#    0.000    0.000    0.000    0.000    0.000    0.000 
#
# Total GULP energy -89479.971555 kJ/mol
# GULP energy per Si atom -5592.498222 kJ/mol
# Density = 2.550971 g / cm^3
# Si number density = 25.567904 Si / 1000 Ang^3
#
#
#
# Elastic Constant Matrix: (Units=GPa)
#
#
# Indices 1 2 3 4 5 6 
#
# 1 150.1048 32.8516 19.4182 0.0000 -24.8661 0.0000
# 2 32.8516 88.2291 55.6518 0.0000 -13.9259 0.0000
# 3 19.4182 55.6518 72.5885 0.0000 1.0291 0.0000
# 4 0.0000 0.0000 0.0000 69.2801 0.0000 -15.0240
# 5 -24.8661 -13.9259 1.0291 0.0000 51.8210 0.0000
# 6 0.0000 0.0000 0.0000 -15.0240 0.0000 36.2202
#
#
#
# Elastic Compliance Matrix: (Units=1/GPa)
#
#
# Indices 1 2 3 4 5 6 
#
# 1 0.007699 -0.002014 -0.000561 0.000000 0.003165 0.000000
# 2 -0.002014 0.024691 -0.018477 0.000000 0.006036 0.000000
# 3 -0.000561 -0.018477 0.028174 0.000000 -0.005794 0.000000
# 4 0.000000 0.000000 0.000000 0.015861 0.000000 0.006579
# 5 0.003165 0.006036 -0.005794 0.000000 0.022553 0.000000
# 6 0.000000 0.000000 0.000000 0.006579 0.000000 0.030338
#
#
# Mechanical properties :
#
#
# Convention : Reuss Voigt Hill
#
# Bulk Modulus (GPa) = 54.16488 58.52953 56.34720
# Shear Modulus (GPa) = 28.15726 44.99763 36.57745
#
# Velocity S-wave (km/s) = 3.32214 4.19970 3.78643
# Velocity P-wave (km/s) = 5.99552 6.81602 6.41889
#
# Compressibility (1/GPa) = 0.01846215
#
# Stress axis : x y z
#
# Youngs Moduli (GPa) = 129.87860 40.49996 35.49321
#
# Poissons Ratio (x) = 0.08155 0.01990
# Poissons Ratio (y) = 0.26154 0.65581
# Poissons Ratio (z) = 0.07282 0.74832
#
# Static dielectric constant tensor:
#      x y z
#    x 2.010570 0.000000 -0.000330 
#    y 0.000000 2.091180 0.000000 
#    z -0.000330 0.000000 2.068230 
# 
# From -- ./inp_files/5116.got.cif
#   From: 2010.05.17/outbox.cif.g08.bks.cpg/sg14_3_cif.got.tgz:5116.got - 2010.06.03 17:49:19.
