data_PCOD9251920
_publ_section_title
;
Structure prediction by ZEFSAII (Michael W. Deem and Ramdas Pophale) SiO2 
 PCOD9251920
Probable space group: P 21/C
;
_chemical_formula_sum "Si O2"
_cell_formula_units_Z 32
_cell_length_a 18.059338
_cell_length_b 14.959335
_cell_length_c 12.745832
_cell_angle_alpha 90.000000
_cell_angle_beta 156.427899
_cell_angle_gamma 90.000000
_cell_volume 1377.008841
_symmetry_space_group_name_H-M "P 21/C"
_symmetry_group_IT_number 14
_symmetry_cell_setting 'monoclinic'
loop_
_space_group_symop_operation_xyz
x,y,z
-x,1/2+y,1/2-z
-x,-y,-z
x,1/2-y,1/2+z
loop_
_atom_site_type_symbol
_atom_site_label
_atom_site_fract_x
_atom_site_fract_y
_atom_site_fract_z
Si Si1 0.460805 0.378509 0.227711
Si Si2 0.905324 0.260191 0.586324
Si Si3 0.277191 0.046921 0.291361
Si Si4 0.878887 0.578010 0.060235
Si Si5 0.597330 0.304244 0.814783
Si Si6 0.133599 0.417438 0.399801
Si Si7 0.105835 0.635968 0.634232
Si Si8 0.693148 0.538063 0.596267
O O1 0.280918 0.391951 0.066919
O O2 0.495367 0.275115 0.245368
O O3 0.619293 0.436438 0.491350
O O4 0.429118 0.425772 0.073497
O O5 0.694203 0.234540 0.336846
O O6 0.922485 0.288783 0.488692
O O7 0.046069 0.179794 0.788933
O O8 0.968615 0.343806 0.739917
O O9 0.221244 0.944238 0.231220
O O10 0.300608 0.071932 0.199956
O O11 0.093199 0.101195 0.087818
O O12 0.796773 0.557545 0.839418
O O13 0.976646 0.488740 0.229258
O O14 0.474182 0.390304 0.629899
O O15 0.771673 0.331501 0.111271
O O16 0.186813 0.442736 0.351008
#
# Coordination Sequence:
#
# PCOD9251920 Si02
#       8
#     4   4   4   4   4   4   4   4
#     4  12  26  47  71 103 142 182 227 299 355 403
#     4  12  26  44  74 101 137 187 240 281 346 423
#     4  11  22  48  76  98 137 187 243 291 339 419
#     4  12  26  49  70 101 140 191 232 280 351 432
#     4  12  28  44  68 109 142 181 229 296 355 408
#     4  12  26  45  75 101 137 189 237 285 341 427
#     4  11  23  46  74 101 137 185 245 285 343 421
#     4  12  29  46  66 107 147 180 227 292 362 412
#
# _framework density 23.238776000000001
#
# number of rings (size 3 to 8) (size 9 to 14) (size 15 to 20)
#    0.000    0.250    5.000    3.750    7.000    1.500 
#    0.000    0.000    0.000    0.000    0.000    0.000 
#    0.000    0.000    0.000    0.000    0.000    0.000 
#
# Total GULP energy -179323.015717 kJ/mol
# GULP energy per Si atom -5603.844241 kJ/mol
# Density = 2.318588 g / cm^3
# Si number density = 23.238776 Si / 1000 Ang^3
#
#
#
# Elastic Constant Matrix: (Units=GPa)
#
#
# Indices 1 2 3 4 5 6 
#
# 1 84.4318 -6.2549 2.2054 0.0000 -8.4248 0.0000
# 2 -6.2549 75.7987 -10.9426 0.0000 1.4521 0.0000
# 3 2.2054 -10.9426 46.7291 0.0000 -13.4433 0.0000
# 4 0.0000 0.0000 0.0000 40.7904 0.0000 -18.7956
# 5 -8.4248 1.4521 -13.4433 0.0000 30.2965 0.0000
# 6 0.0000 0.0000 0.0000 -18.7956 0.0000 103.1181
#
#
#
# Elastic Compliance Matrix: (Units=1/GPa)
#
#
# Indices 1 2 3 4 5 6 
#
# 1 0.012270 0.001047 0.000726 0.000000 0.003684 0.000000
# 2 0.001047 0.013764 0.003517 0.000000 0.001192 0.000000
# 3 0.000726 0.003517 0.025447 0.000000 0.011325 0.000000
# 4 0.000000 0.000000 0.000000 0.026763 0.000000 0.004878
# 5 0.003684 0.001192 0.011325 0.000000 0.039000 0.000000
# 6 0.000000 0.000000 0.000000 0.004878 0.000000 0.010587
#
#
# Mechanical properties :
#
#
# Convention : Reuss Voigt Hill
#
# Bulk Modulus (GPa) = 16.11354 19.66394 17.88874
# Shear Modulus (GPa) = 36.24786 49.63778 42.94282
#
# Velocity S-wave (km/s) = 3.95372 4.62669 4.30338
# Velocity P-wave (km/s) = 5.27176 6.08455 5.69268
#
# Compressibility (1/GPa) = 0.06205960
#
# Stress axis : x y z
#
# Youngs Moduli (GPa) = 81.49924 72.65305 39.29710
#
# Poissons Ratio (x) = -0.07605 -0.02852
# Poissons Ratio (y) = -0.08531 -0.13819
# Poissons Ratio (z) = -0.05916 -0.25549
#
# Static dielectric constant tensor:
#      x y z
#    x 1.898520 0.000000 0.014730 
#    y 0.000000 1.845950 0.000000 
#    z 0.014730 0.000000 1.852930 
# 
# From -- ./inp_files/34228.got.cif
#   From: 2010.05.17/outbox.cif.g08.bks.cpg/sg14_18_cif.got.tgz:34228.got - 2010.06.03 17:49:19.
