data_PCOD9251788
_publ_section_title
;
Structure prediction by ZEFSAII (Michael W. Deem and Ramdas Pophale) SiO2 
 PCOD9251788
Probable space group: P 21/C
;
_chemical_formula_sum "Si O2"
_cell_formula_units_Z 24
_cell_length_a 9.040262
_cell_length_b 7.776605
_cell_length_c 29.971822
_cell_angle_alpha 90.000000
_cell_angle_beta 31.873151
_cell_angle_gamma 90.000000
_cell_volume 1112.631602
_symmetry_space_group_name_H-M "P 21/C"
_symmetry_group_IT_number 14
_symmetry_cell_setting 'monoclinic'
loop_
_space_group_symop_operation_xyz
x,y,z
-x,1/2+y,1/2-z
-x,-y,-z
x,1/2-y,1/2+z
loop_
_atom_site_type_symbol
_atom_site_label
_atom_site_fract_x
_atom_site_fract_y
_atom_site_fract_z
Si Si1 0.911571 0.656517 0.641342
Si Si2 0.802682 0.384790 0.519034
Si Si3 0.733859 0.077331 0.867081
Si Si4 0.229047 0.811830 0.728818
Si Si5 0.256294 0.576683 0.906246
Si Si6 0.300037 0.737270 0.307154
O O1 0.815971 0.456459 0.660842
O O2 0.635620 0.757419 0.727169
O O3 0.018063 0.707994 0.565325
O O4 0.152535 0.663470 0.616805
O O5 0.578478 0.503543 0.551343
O O6 0.654286 0.245966 0.588670
O O7 0.000000 0.500000 0.500000
O O8 0.750927 0.202561 0.820698
O O9 0.946092 0.920970 0.803372
O O10 0.245865 0.703133 0.770278
O O11 0.488996 0.944527 0.663177
O O12 0.174495 0.645202 0.878172
O O13 0.000000 0.500000 0.000000
#
# Coordination Sequence:
#
# PCOD9251788 Si02
#       6
#     4   4   4   4   4   4
#     4  11  24  42  68 101 133 178 227 281 340 410
#     4  12  24  41  70  97 135 182 227 282 345 405
#     4  11  24  43  66  97 141 174 229 282 344 402
#     4  11  25  44  69  98 137 183 225 280 342 409
#     4  12  24  43  66 102 135 173 238 281 334 408
#     4  11  22  42  68  96 129 173 232 271 336 402
#
# _framework density 21.570481999999998
#
# number of rings (size 3 to 8) (size 9 to 14) (size 15 to 20)
#    0.000    0.667    5.000    4.500    0.000    0.000 
#    0.000    0.833    0.000    0.000    0.000    0.000 
#    0.000    0.000    0.000    0.000    0.000    0.000 
#
# Total GULP energy -134310.168309 kJ/mol
# GULP energy per Si atom -5596.257013 kJ/mol
# Density = 2.152139 g / cm^3
# Si number density = 21.570482 Si / 1000 Ang^3
#
#
#
# Elastic Constant Matrix: (Units=GPa)
#
#
# Indices 1 2 3 4 5 6 
#
# 1 147.7083 52.5461 41.9727 0.0000 17.0979 0.0000
# 2 52.5461 44.7160 16.3283 0.0000 9.1675 0.0000
# 3 41.9727 16.3283 93.0687 0.0000 12.8777 0.0000
# 4 0.0000 0.0000 0.0000 37.8552 0.0000 3.3055
# 5 17.0979 9.1675 12.8777 0.0000 50.3093 0.0000
# 6 0.0000 0.0000 0.0000 3.3055 0.0000 37.1603
#
#
#
# Elastic Compliance Matrix: (Units=1/GPa)
#
#
# Indices 1 2 3 4 5 6 
#
# 1 0.012548 -0.013380 -0.003171 0.000000 -0.001015 0.000000
# 2 -0.013380 0.038735 -0.000429 0.000000 -0.002401 0.000000
# 3 -0.003171 -0.000429 0.012534 0.000000 -0.002052 0.000000
# 4 0.000000 0.000000 0.000000 0.026623 0.000000 -0.002368
# 5 -0.001015 -0.002401 -0.002052 0.000000 0.021185 0.000000
# 6 0.000000 0.000000 0.000000 -0.002368 0.000000 0.027121
#
#
# Mechanical properties :
#
#
# Convention : Reuss Voigt Hill
#
# Bulk Modulus (GPa) = 33.49327 56.35413 44.92370
# Shear Modulus (GPa) = 27.37318 36.70802 32.04060
#
# Velocity S-wave (km/s) = 3.56618 4.12973 3.85826
# Velocity P-wave (km/s) = 5.70245 6.99441 6.38121
#
# Compressibility (1/GPa) = 0.02985674
#
# Stress axis : x y z
#
# Youngs Moduli (GPa) = 79.69090 25.81635 79.78088
#
# Poissons Ratio (x) = 0.34542 0.25302
# Poissons Ratio (y) = 1.06624 0.03426
# Poissons Ratio (z) = 0.25273 0.01109
#
# Static dielectric constant tensor:
#      x y z
#    x 1.782480 0.000000 0.010450 
#    y 0.000000 1.790220 0.000000 
#    z 0.010450 0.000000 1.774390 
# 
# From -- ./inp_files/79431.got.cif
#   From: 2010.05.17/outbox.cif.g08.bks.cpg/sg14_40_cif.got.tgz:79431.got - 2010.06.03 17:49:19.
