data_PCOD9251230
_publ_section_title
;
Structure prediction by ZEFSAII (Michael W. Deem and Ramdas Pophale) SiO2 
 PCOD9251230
Probable space group: P 21/C
;
_chemical_formula_sum "Si O2"
_cell_formula_units_Z 28
_cell_length_a 11.287087
_cell_length_b 8.661153
_cell_length_c 26.771101
_cell_angle_alpha 90.000000
_cell_angle_beta 149.126772
_cell_angle_gamma 90.000000
_cell_volume 1342.950184
_symmetry_space_group_name_H-M "P 21/C"
_symmetry_group_IT_number 14
_symmetry_cell_setting 'monoclinic'
loop_
_space_group_symop_operation_xyz
x,y,z
-x,1/2+y,1/2-z
-x,-y,-z
x,1/2-y,1/2+z
loop_
_atom_site_type_symbol
_atom_site_label
_atom_site_fract_x
_atom_site_fract_y
_atom_site_fract_z
Si Si1 0.860760 0.017228 0.398290
Si Si2 0.073263 0.728908 0.662681
Si Si3 0.045899 0.254583 0.202970
Si Si4 0.623647 0.979249 0.990230
Si Si5 0.568161 0.961674 0.689014
Si Si6 0.767067 0.180346 0.515131
Si Si7 0.163006 0.569042 0.286862
O O1 0.898708 0.167055 0.377027
O O2 0.600455 0.028294 0.324224
O O3 0.000000 0.000000 0.500000
O O4 0.979412 0.873265 0.412626
O O5 0.287272 0.619554 0.755559
O O6 0.047447 0.847774 0.698629
O O7 0.851568 0.621082 0.577677
O O8 0.244490 0.176301 0.241565
O O9 0.150982 0.387274 0.274865
O O10 0.823447 0.328341 0.094702
O O11 0.960799 0.118917 0.207770
O O12 0.432240 0.891520 0.888375
O O13 0.691462 0.139917 0.986925
O O14 0.500000 0.000000 0.000000
O O15 0.415225 0.921350 0.583284
#
# Coordination Sequence:
#
# PCOD9251230 Si02
#       7
#     4   4   4   4   4   4   4
#     4  10  26  49  70 102 142 186 246 299 354 426
#     4  12  27  44  73 109 139 191 244 296 361 439
#     4  12  23  45  70 108 145 194 239 296 369 436
#     4  12  24  46  69 104 149 186 238 299 361 436
#     4  11  25  45  74 101 142 190 244 298 362 422
#     4  11  23  46  70 100 143 189 240 299 357 431
#     4  12  26  42  71 106 150 186 238 296 367 435
#
# _framework density 20.849619000000001
#
# number of rings (size 3 to 8) (size 9 to 14) (size 15 to 20)
#    0.000    0.571    5.714    1.714    6.000    0.000 
#    0.000    5.714    0.000    0.000    0.000    0.000 
#    0.000    0.000    0.000    0.000    0.000    0.000 
#
# Total GULP energy -155938.275322 kJ/mol
# GULP energy per Si atom -5569.224119 kJ/mol
# Density = 2.080216 g / cm^3
# Si number density = 20.849619 Si / 1000 Ang^3
#
#
#
# Elastic Constant Matrix: (Units=GPa)
#
#
# Indices 1 2 3 4 5 6 
#
# 1 79.5100 52.5096 29.4253 0.0000 11.6427 0.0000
# 2 52.5096 87.2593 47.8608 0.0000 10.5906 0.0000
# 3 29.4253 47.8608 114.2951 0.0000 3.9119 0.0000
# 4 0.0000 0.0000 0.0000 47.7255 0.0000 -7.2068
# 5 11.6427 10.5906 3.9119 0.0000 36.1004 0.0000
# 6 0.0000 0.0000 0.0000 -7.2068 0.0000 34.9184
#
#
#
# Elastic Compliance Matrix: (Units=1/GPa)
#
#
# Indices 1 2 3 4 5 6 
#
# 1 0.021229 -0.012263 -0.000220 0.000000 -0.003225 0.000000
# 2 -0.012263 0.022471 -0.006185 0.000000 -0.001967 0.000000
# 3 -0.000220 -0.006185 0.011374 0.000000 0.000653 0.000000
# 4 0.000000 0.000000 0.000000 0.021627 0.000000 0.004464
# 5 -0.003225 -0.001967 0.000653 0.000000 0.029247 0.000000
# 6 0.000000 0.000000 0.000000 0.004464 0.000000 0.029559
#
#
# Mechanical properties :
#
#
# Convention : Reuss Voigt Hill
#
# Bulk Modulus (GPa) = 56.37793 60.07285 58.22539
# Shear Modulus (GPa) = 27.97106 33.83344 30.90225
#
# Velocity S-wave (km/s) = 3.66671 4.03269 3.85405
# Velocity P-wave (km/s) = 6.71009 7.11045 6.91317
#
# Compressibility (1/GPa) = 0.01773744
#
# Stress axis : x y z
#
# Youngs Moduli (GPa) = 47.10443 44.50227 87.92299
#
# Poissons Ratio (x) = 0.54573 0.01935
# Poissons Ratio (y) = 0.57764 0.54382
# Poissons Ratio (z) = 0.01036 0.27525
#
# Static dielectric constant tensor:
#      x y z
#    x 1.786760 0.000000 -0.025980 
#    y 0.000000 1.763080 0.000000 
#    z -0.025980 0.000000 1.898850 
# 
# From -- ./inp_files/77146.got.cif
#   From: 2010.05.17/outbox.cif.g08.bks.cpg/sg14_39_cif.got.tgz:77146.got - 2010.06.03 17:49:19.
