data_PCOD9251790
_publ_section_title
;
Structure prediction by ZEFSAII (Michael W. Deem and Ramdas Pophale) SiO2 
 PCOD9251790
Probable space group: P 21/C
;
_chemical_formula_sum "Si O2"
_cell_formula_units_Z 32
_cell_length_a 11.522810
_cell_length_b 10.814573
_cell_length_c 22.813877
_cell_angle_alpha 90.000000
_cell_angle_beta 33.667356
_cell_angle_gamma 90.000000
_cell_volume 1576.038622
_symmetry_space_group_name_H-M "P 21/C"
_symmetry_group_IT_number 14
_symmetry_cell_setting 'monoclinic'
loop_
_space_group_symop_operation_xyz
x,y,z
-x,1/2+y,1/2-z
-x,-y,-z
x,1/2-y,1/2+z
loop_
_atom_site_type_symbol
_atom_site_label
_atom_site_fract_x
_atom_site_fract_y
_atom_site_fract_z
Si Si1 0.570961 0.641052 0.804089
Si Si2 0.131008 0.758932 0.007607
Si Si3 0.276826 0.293559 0.385007
Si Si4 0.719626 0.917467 0.886691
Si Si5 0.376009 0.631665 0.202567
Si Si6 0.086058 0.045248 0.067274
Si Si7 0.030127 0.226029 0.306824
Si Si8 0.637458 0.314410 0.403630
O O1 0.644773 0.632016 0.705205
O O2 0.535860 0.505756 0.845670
O O3 0.763410 0.701521 0.758633
O O4 0.364469 0.725186 0.891518
O O5 0.945622 0.733089 0.039699
O O6 0.079005 0.682330 0.087979
O O7 0.102295 0.903551 0.038043
O O8 0.460221 0.199155 0.323826
O O9 0.221545 0.376974 0.464112
O O10 0.821878 0.945287 0.906386
O O11 0.896152 0.878059 0.767829
O O12 0.617604 0.038401 0.899602
O O13 0.553766 0.806630 0.969340
O O14 0.365804 0.719729 0.149085
O O15 0.147907 0.603358 0.327436
O O16 0.857878 0.301778 0.343528
#
# Coordination Sequence:
#
# PCOD9251790 Si02
#       8
#     4   4   4   4   4   4   4   4
#     4  11  26  45  69 101 137 176 236 285 336 415
#     4  11  24  47  69  96 137 184 228 279 346 412
#     4  11  25  42  72 101 129 187 229 283 341 404
#     4  11  23  42  69  98 136 181 231 270 339 421
#     4  12  24  45  68 103 140 175 231 286 343 403
#     4  12  22  45  72  98 140 182 229 280 345 414
#     4  11  22  42  68  99 132 180 220 281 345 402
#     4  11  23  42  66  98 137 178 221 281 337 406
#
# _framework density 20.304071
#
# number of rings (size 3 to 8) (size 9 to 14) (size 15 to 20)
#    0.000    0.750    6.250    1.875    3.500    0.500 
#    6.750    1.250    0.000    0.000    0.000    0.000 
#    0.000    0.000    0.000    0.000    0.000    0.000 
#
# Total GULP energy -178479.708610 kJ/mol
# GULP energy per Si atom -5577.490894 kJ/mol
# Density = 2.025786 g / cm^3
# Si number density = 20.304071 Si / 1000 Ang^3
#
#
#
# Elastic Constant Matrix: (Units=GPa)
#
#
# Indices 1 2 3 4 5 6 
#
# 1 95.7524 36.1954 12.4196 0.0000 -12.6754 0.0000
# 2 36.1954 55.3156 32.6511 0.0000 -5.0034 0.0000
# 3 12.4196 32.6511 82.2937 0.0000 -11.1035 0.0000
# 4 0.0000 0.0000 0.0000 35.1759 0.0000 -8.9266
# 5 -12.6754 -5.0034 -11.1035 0.0000 42.2534 0.0000
# 6 0.0000 0.0000 0.0000 -8.9266 0.0000 12.1303
#
#
#
# Elastic Compliance Matrix: (Units=1/GPa)
#
#
# Indices 1 2 3 4 5 6 
#
# 1 0.014692 -0.010791 0.002578 0.000000 0.003807 0.000000
# 2 -0.010791 0.031537 -0.011215 0.000000 -0.002450 0.000000
# 3 0.002578 -0.011215 0.016731 0.000000 0.003842 0.000000
# 4 0.000000 0.000000 0.000000 0.034957 0.000000 0.025724
# 5 0.003807 -0.002450 0.003842 0.000000 0.025528 0.000000
# 6 0.000000 0.000000 0.000000 0.025724 0.000000 0.101369
#
#
# Mechanical properties :
#
#
# Convention : Reuss Voigt Hill
#
# Bulk Modulus (GPa) = 41.48673 43.98819 42.73746
# Shear Modulus (GPa) = 18.40232 28.05164 23.22698
#
# Velocity S-wave (km/s) = 3.01381 3.72099 3.38591
# Velocity P-wave (km/s) = 5.70857 6.33820 6.03161
#
# Compressibility (1/GPa) = 0.02410409
#
# Stress axis : x y z
#
# Youngs Moduli (GPa) = 68.06255 31.70841 59.77090
#
# Poissons Ratio (x) = 0.34217 -0.15408
# Poissons Ratio (y) = 0.73447 0.67032
# Poissons Ratio (z) = -0.17546 0.35560
#
# Static dielectric constant tensor:
#      x y z
#    x 1.742620 0.000000 -0.020900 
#    y 0.000000 1.735330 0.000000 
#    z -0.020900 0.000000 1.776340 
# 
# From -- ./inp_files/73288.got.cif
#   From: 2010.05.17/outbox.cif.g08.bks.cpg/sg14_37_cif.got.tgz:73288.got - 2010.06.03 17:49:19.
