data_PCOD9251493
_publ_section_title
;
Structure prediction by ZEFSAII (Michael W. Deem and Ramdas Pophale) SiO2 
 PCOD9251493
Probable space group: P 21/C
;
_chemical_formula_sum "Si O2"
_cell_formula_units_Z 28
_cell_length_a 7.081756
_cell_length_b 18.271851
_cell_length_c 10.162785
_cell_angle_alpha 90.000000
_cell_angle_beta 115.847728
_cell_angle_gamma 90.000000
_cell_volume 1183.470601
_symmetry_space_group_name_H-M "P 21/C"
_symmetry_group_IT_number 14
_symmetry_cell_setting 'monoclinic'
loop_
_space_group_symop_operation_xyz
x,y,z
-x,1/2+y,1/2-z
-x,-y,-z
x,1/2-y,1/2+z
loop_
_atom_site_type_symbol
_atom_site_label
_atom_site_fract_x
_atom_site_fract_y
_atom_site_fract_z
Si Si1 0.127656 0.401243 0.497486
Si Si2 0.466776 0.633530 0.789121
Si Si3 0.009662 0.536355 0.294574
Si Si4 0.260262 0.952951 0.464320
Si Si5 0.455851 0.516409 0.302094
Si Si6 0.050352 0.328043 0.058794
Si Si7 0.063924 0.729372 0.699277
O O1 0.992225 0.460270 0.373305
O O2 0.357468 0.434527 0.586250
O O3 0.034467 0.400006 0.615897
O O4 0.109487 0.326032 0.415327
O O5 0.395337 0.592971 0.901402
O O6 0.478825 0.569199 0.682716
O O7 0.286654 0.694673 0.721742
O O8 0.699091 0.666666 0.865125
O O9 0.243437 0.533331 0.313701
O O10 0.835708 0.526036 0.129829
O O11 0.395770 0.965222 0.634148
O O12 0.054692 0.905438 0.437469
O O13 0.969062 0.275634 0.153808
O O14 0.968882 0.303445 0.891040
#
# Coordination Sequence:
#
# PCOD9251493 Si02
#       7
#     4   4   4   4   4   4   4
#     4  11  22  40  63  95 138 173 219 273 336 401
#     4  11  22  43  69  92 134 176 215 277 340 388
#     4  11  21  39  63  97 137 173 216 273 336 400
#     4  11  23  42  65 104 136 170 225 273 339 406
#     4  12  23  36  70 103 135 172 213 273 348 401
#     4  11  26  46  70  91 134 182 230 280 329 396
#     4  11  26  47  65  98 133 179 234 278 326 411
#
# _framework density 23.659227999999999
#
# number of rings (size 3 to 8) (size 9 to 14) (size 15 to 20)
#    0.000    0.857    5.714    2.143    0.000    6.857 
#    0.000    0.000    0.000    0.000    0.000    0.000 
#    0.000    0.000    0.000    0.000    0.000    0.000 
#
# Total GULP energy -156772.208866 kJ/mol
# GULP energy per Si atom -5599.007459 kJ/mol
# Density = 2.360538 g / cm^3
# Si number density = 23.659228 Si / 1000 Ang^3
#
#
#
# Elastic Constant Matrix: (Units=GPa)
#
#
# Indices 1 2 3 4 5 6 
#
# 1 150.1301 13.4230 25.0350 0.0000 21.4948 0.0000
# 2 13.4230 27.7694 4.2844 0.0000 7.0219 0.0000
# 3 25.0350 4.2844 101.5748 0.0000 5.1022 0.0000
# 4 0.0000 0.0000 0.0000 42.0428 0.0000 -0.3786
# 5 21.4948 7.0219 5.1022 0.0000 49.8396 0.0000
# 6 0.0000 0.0000 0.0000 -0.3786 0.0000 17.9893
#
#
#
# Elastic Compliance Matrix: (Units=1/GPa)
#
#
# Indices 1 2 3 4 5 6 
#
# 1 0.007561 -0.002720 -0.001613 0.000000 -0.002713 0.000000
# 2 -0.002720 0.038496 -0.000744 0.000000 -0.004174 0.000000
# 3 -0.001613 -0.000744 0.010286 0.000000 -0.000253 0.000000
# 4 0.000000 0.000000 0.000000 0.023790 0.000000 0.000501
# 5 -0.002713 -0.004174 -0.000253 0.000000 0.021848 0.000000
# 6 0.000000 0.000000 0.000000 0.000501 0.000000 0.055599
#
#
# Mechanical properties :
#
#
# Convention : Reuss Voigt Hill
#
# Bulk Modulus (GPa) = 21.64926 40.55101 31.10014
# Shear Modulus (GPa) = 27.30285 37.75648 32.52967
#
# Velocity S-wave (km/s) = 3.40075 3.99914 3.71202
# Velocity P-wave (km/s) = 4.95888 6.20491 5.61656
#
# Compressibility (1/GPa) = 0.04619095
#
# Stress axis : x y z
#
# Youngs Moduli (GPa) = 132.25032 25.97670 97.21484
#
# Poissons Ratio (x) = 0.07066 0.15677
# Poissons Ratio (y) = 0.35975 0.07229
# Poissons Ratio (z) = 0.21327 0.01932
#
# Static dielectric constant tensor:
#      x y z
#    x 1.907040 0.000000 -0.047360 
#    y 0.000000 1.927750 0.000000 
#    z -0.047360 0.000000 1.930990 
# 
# From -- ./inp_files/21889.got.cif
#   From: 2010.05.17/outbox.cif.g08.bks.cpg/sg14_11_cif.got.tgz:21889.got - 2010.06.03 17:49:19.
