data_PCOD9251765
_publ_section_title
;
Structure prediction by ZEFSAII (Michael W. Deem and Ramdas Pophale) SiO2 
 PCOD9251765
Probable space group: P 21/C
;
_chemical_formula_sum "Si O2"
_cell_formula_units_Z 28
_cell_length_a 11.477098
_cell_length_b 8.197344
_cell_length_c 14.824559
_cell_angle_alpha 90.000000
_cell_angle_beta 58.108634
_cell_angle_gamma 90.000000
_cell_volume 1184.188855
_symmetry_space_group_name_H-M "P 21/C"
_symmetry_group_IT_number 14
_symmetry_cell_setting 'monoclinic'
loop_
_space_group_symop_operation_xyz
x,y,z
-x,1/2+y,1/2-z
-x,-y,-z
x,1/2-y,1/2+z
loop_
_atom_site_type_symbol
_atom_site_label
_atom_site_fract_x
_atom_site_fract_y
_atom_site_fract_z
Si Si1 0.996399 0.420298 0.901924
Si Si2 0.767142 0.277198 0.559040
Si Si3 0.513634 0.030492 0.099584
Si Si4 0.727545 0.730087 0.227671
Si Si5 0.768605 0.973003 0.363614
Si Si6 0.649677 0.206853 0.292008
Si Si7 0.633186 0.918716 0.590851
O O1 0.149685 0.397382 0.804865
O O2 0.907309 0.516675 0.864526
O O3 0.000000 0.500000 0.000000
O O4 0.915250 0.249375 0.953571
O O5 0.667776 0.417417 0.561918
O O6 0.763557 0.294748 0.668387
O O7 0.696940 0.098340 0.574921
O O8 0.438624 0.872426 0.172701
O O9 0.416536 0.176473 0.172073
O O10 0.500000 0.000000 0.000000
O O11 0.775710 0.886026 0.264234
O O12 0.705193 0.709417 0.129203
O O13 0.662339 0.881498 0.474028
O O14 0.713335 0.153657 0.361186
O O15 0.527487 0.077923 0.322435
#
# Coordination Sequence:
#
# PCOD9251765 Si02
#       7
#     4   4   4   4   4   4   4
#     4  11  23  47  70  96 146 196 241 295 375 438
#     4  11  22  41  70 100 137 191 235 289 365 431
#     4  12  24  40  68 107 139 176 239 307 353 423
#     4  12  24  45  73  98 144 195 239 294 373 430
#     4  11  26  42  71 104 135 195 246 292 368 454
#     4  12  22  41  69 105 142 176 236 303 362 431
#     4  11  22  45  68  97 145 185 233 292 370 431
#
# _framework density 23.644876
#
# number of rings (size 3 to 8) (size 9 to 14) (size 15 to 20)
#    0.000    0.571    5.714    3.857    2.000    3.429 
#    0.000    0.714    0.000    0.000    0.000    0.000 
#    0.000    0.000    0.000    0.000    0.000    0.000 
#
# Total GULP energy -156375.303154 kJ/mol
# GULP energy per Si atom -5584.832256 kJ/mol
# Density = 2.359106 g / cm^3
# Si number density = 23.644876 Si / 1000 Ang^3
#
#
#
# Elastic Constant Matrix: (Units=GPa)
#
#
# Indices 1 2 3 4 5 6 
#
# 1 103.9175 21.7672 7.5717 0.0000 17.3108 0.0000
# 2 21.7672 69.4877 7.2393 0.0000 26.0483 0.0000
# 3 7.5717 7.2393 73.1124 0.0000 21.5061 0.0000
# 4 0.0000 0.0000 0.0000 39.2258 0.0000 7.5818
# 5 17.3108 26.0483 21.5061 0.0000 42.6606 0.0000
# 6 0.0000 0.0000 0.0000 7.5818 0.0000 41.6832
#
#
#
# Elastic Compliance Matrix: (Units=1/GPa)
#
#
# Indices 1 2 3 4 5 6 
#
# 1 0.010576 -0.002212 -0.000013 0.000000 -0.002935 0.000000
# 2 -0.002212 0.019321 0.001787 0.000000 -0.011801 0.000000
# 3 -0.000013 0.001787 0.016228 0.000000 -0.009267 0.000000
# 4 0.000000 0.000000 0.000000 0.026422 0.000000 -0.004806
# 5 -0.002935 -0.011801 -0.009267 0.000000 0.036509 0.000000
# 6 0.000000 0.000000 0.000000 -0.004806 0.000000 0.024865
#
#
# Mechanical properties :
#
#
# Convention : Reuss Voigt Hill
#
# Bulk Modulus (GPa) = 22.09926 35.51933 28.80929
# Shear Modulus (GPa) = 33.36017 38.70989 36.03503
#
# Velocity S-wave (km/s) = 3.76025 4.05054 3.90809
# Velocity P-wave (km/s) = 5.31218 6.07705 5.70744
#
# Compressibility (1/GPa) = 0.04525038
#
# Stress axis : x y z
#
# Youngs Moduli (GPa) = 94.55308 51.75618 61.62267
#
# Poissons Ratio (x) = 0.11446 0.00081
# Poissons Ratio (y) = 0.20911 -0.11013
# Poissons Ratio (z) = 0.00124 -0.09250
#
# Static dielectric constant tensor:
#      x y z
#    x 1.915750 0.000000 0.011110 
#    y 0.000000 2.018610 0.000000 
#    z 0.011110 0.000000 1.930120 
# 
# From -- ./inp_files/43597.got.cif
#   From: 2010.05.17/outbox.cif.g08.bks.cpg/sg14_22_cif.got.tgz:43597.got - 2010.06.03 17:49:19.
