data_PCOD9251946
_publ_section_title
;
Structure prediction by ZEFSAII (Michael W. Deem and Ramdas Pophale) SiO2 
 PCOD9251946
Probable space group: P 21/C
;
_chemical_formula_sum "Si O2"
_cell_formula_units_Z 24
_cell_length_a 19.935027
_cell_length_b 11.313807
_cell_length_c 20.762000
_cell_angle_alpha 90.000000
_cell_angle_beta 166.611642
_cell_angle_gamma 90.000000
_cell_volume 1084.276424
_symmetry_space_group_name_H-M "P 21/C"
_symmetry_group_IT_number 14
_symmetry_cell_setting 'monoclinic'
loop_
_space_group_symop_operation_xyz
x,y,z
-x,1/2+y,1/2-z
-x,-y,-z
x,1/2-y,1/2+z
loop_
_atom_site_type_symbol
_atom_site_label
_atom_site_fract_x
_atom_site_fract_y
_atom_site_fract_z
Si Si1 0.078063 0.584584 0.292518
Si Si2 0.907216 0.360135 0.339728
Si Si3 0.499246 0.725429 0.143100
Si Si4 0.112853 0.869888 0.029137
Si Si5 0.451851 0.574494 0.226964
Si Si6 0.701869 0.723312 0.040799
O O1 0.328808 0.650891 0.487093
O O2 0.268249 0.508887 0.520579
O O3 0.842914 0.499418 0.039589
O O4 0.886688 0.679001 0.152602
O O5 0.880818 0.332990 0.390344
O O6 0.616340 0.340654 0.028092
O O7 0.994464 0.497112 0.414702
O O8 0.155581 0.278201 0.539980
O O9 0.416500 0.655333 0.130849
O O10 0.913424 0.784696 0.799321
O O11 0.439428 0.865473 0.308822
O O12 0.548203 0.655036 0.377244
#
# Coordination Sequence:
#
# PCOD9251946 Si02
#       6
#     4   4   4   4   4   4
#     4  12  24  39  62  92 125 160 200 251 309 366
#     4  11  23  39  62  90 121 158 200 250 304 360
#     4  12  23  39  62  89 123 158 197 248 306 363
#     4  11  23  39  62  90 121 158 200 250 304 360
#     4  12  24  39  62  92 125 160 200 251 309 366
#     4  12  23  39  62  89 123 158 197 248 306 363
#
# _framework density 22.134577
#
# number of rings (size 3 to 8) (size 9 to 14) (size 15 to 20)
#    0.000    0.333    0.000   13.000    0.000    2.667 
#    0.000    0.000    0.000   20.000    0.000    0.000 
#    0.000    0.000    0.000    0.000    0.000    0.000 
#
# Total GULP energy -134358.359192 kJ/mol
# GULP energy per Si atom -5598.264966 kJ/mol
# Density = 2.208420 g / cm^3
# Si number density = 22.134577 Si / 1000 Ang^3
#
#
#
# Elastic Constant Matrix: (Units=GPa)
#
#
# Indices 1 2 3 4 5 6 
#
# 1 66.8635 14.6132 13.8038 0.0000 -18.7763 0.0000
# 2 14.6132 55.5890 35.9096 0.0000 -4.5619 0.0000
# 3 13.8038 35.9096 123.7713 0.0000 -19.5216 0.0000
# 4 0.0000 0.0000 0.0000 61.5855 0.0000 -0.3512
# 5 -18.7763 -4.5619 -19.5216 0.0000 35.1695 0.0000
# 6 0.0000 0.0000 0.0000 -0.3512 0.0000 20.8617
#
#
#
# Elastic Compliance Matrix: (Units=1/GPa)
#
#
# Indices 1 2 3 4 5 6 
#
# 1 0.018529 -0.004589 0.000801 0.000000 0.009742 0.000000
# 2 -0.004589 0.023293 -0.006747 0.000000 -0.003174 0.000000
# 3 0.000801 -0.006747 0.010825 0.000000 0.005561 0.000000
# 4 0.000000 0.000000 0.000000 0.016239 0.000000 0.000273
# 5 0.009742 -0.003174 0.005561 0.000000 0.036310 0.000000
# 6 0.000000 0.000000 0.000000 0.000273 0.000000 0.047939
#
#
# Mechanical properties :
#
#
# Convention : Reuss Voigt Hill
#
# Bulk Modulus (GPa) = 31.66757 41.65301 36.66029
# Shear Modulus (GPa) = 27.06647 35.64983 31.35815
#
# Velocity S-wave (km/s) = 3.50067 4.01758 3.76800
# Velocity P-wave (km/s) = 5.53872 6.35454 5.96060
#
# Compressibility (1/GPa) = 0.03157804
#
# Stress axis : x y z
#
# Youngs Moduli (GPa) = 53.96943 42.93051 92.38219
#
# Poissons Ratio (x) = 0.19702 -0.07404
# Poissons Ratio (y) = 0.24768 0.62329
# Poissons Ratio (z) = -0.04326 0.28964
#
# Static dielectric constant tensor:
#      x y z
#    x 1.792870 0.000000 -0.002970 
#    y 0.000000 1.879270 0.000000 
#    z -0.002970 0.000000 1.796930 
# 
# From -- ./inp_files/74968.got.cif
#   From: 2010.05.17/outbox.cif.g08.bks.cpg/sg14_38_cif.got.tgz:74968.got - 2010.06.03 17:49:19.
