data_PCOD9251715
_publ_section_title
;
Structure prediction by ZEFSAII (Michael W. Deem and Ramdas Pophale) SiO2 
 PCOD9251715
Probable space group: P 21/C
;
_chemical_formula_sum "Si O2"
_cell_formula_units_Z 16
_cell_length_a 13.860699
_cell_length_b 4.968604
_cell_length_c 21.576136
_cell_angle_alpha 90.000000
_cell_angle_beta 26.114023
_cell_angle_gamma 90.000000
_cell_volume 654.037608
_symmetry_space_group_name_H-M "P 21/C"
_symmetry_group_IT_number 14
_symmetry_cell_setting 'monoclinic'
loop_
_space_group_symop_operation_xyz
x,y,z
-x,1/2+y,1/2-z
-x,-y,-z
x,1/2-y,1/2+z
loop_
_atom_site_type_symbol
_atom_site_label
_atom_site_fract_x
_atom_site_fract_y
_atom_site_fract_z
Si Si1 0.349201 0.438281 0.425073
Si Si2 0.104329 0.162637 0.808155
Si Si3 0.203797 0.297642 0.880481
Si Si4 0.375712 0.676493 0.622807
O O1 0.561999 0.589825 0.276801
O O2 0.252511 0.284417 0.422367
O O3 0.445245 0.271757 0.426785
O O4 0.149383 0.626882 0.561699
O O5 0.143198 0.093684 0.859206
O O6 0.187310 0.466519 0.753192
O O7 0.252415 0.957156 0.682674
O O8 0.000000 0.500000 0.000000
O O9 0.500000 0.500000 0.500000
#
# Coordination Sequence:
#
# PCOD9251715 Si02
#       4
#     4   4   4   4
#     4  11  22  39  67  94 135 176 213 276 341 395
#     4  11  24  42  66  97 130 172 223 276 337 405
#     4  11  22  40  66 104 139 176 224 276 344 426
#     4  11  26  45  66  95 130 174 231 280 329 400
#
# _framework density 24.463424
#
# number of rings (size 3 to 8) (size 9 to 14) (size 15 to 20)
#    0.000    1.000    0.000    7.500    0.000    8.000 
#    0.000    0.000    0.000    0.000    0.000    0.000 
#    0.000    0.000    0.000    0.000    0.000    0.000 
#
# Total GULP energy -89477.234882 kJ/mol
# GULP energy per Si atom -5592.327180 kJ/mol
# Density = 2.440774 g / cm^3
# Si number density = 24.463424 Si / 1000 Ang^3
#
#
#
# Elastic Constant Matrix: (Units=GPa)
#
#
# Indices 1 2 3 4 5 6 
#
# 1 26.1976 1.2429 38.5247 0.0000 -17.3214 0.0000
# 2 1.2429 72.8522 28.7231 0.0000 -18.0668 0.0000
# 3 38.5247 28.7231 155.6737 0.0000 -36.8534 0.0000
# 4 0.0000 0.0000 0.0000 38.4645 0.0000 5.8658
# 5 -17.3214 -18.0668 -36.8534 0.0000 52.6962 0.0000
# 6 0.0000 0.0000 0.0000 5.8658 0.0000 30.6348
#
#
#
# Elastic Compliance Matrix: (Units=1/GPa)
#
#
# Indices 1 2 3 4 5 6 
#
# 1 0.070658 0.008705 -0.015444 0.000000 0.015409 0.000000
# 2 0.008705 0.016537 -0.003818 0.000000 0.005861 0.000000
# 3 -0.015444 -0.003818 0.011311 0.000000 0.001525 0.000000
# 4 0.000000 0.000000 0.000000 0.026780 0.000000 -0.005128
# 5 0.015409 0.005861 0.001525 0.000000 0.027118 0.000000
# 6 0.000000 0.000000 0.000000 -0.005128 0.000000 0.033624
#
#
# Mechanical properties :
#
#
# Convention : Reuss Voigt Hill
#
# Bulk Modulus (GPa) = 12.92131 43.52276 28.22203
# Shear Modulus (GPa) = 21.46487 36.77462 29.11974
#
# Velocity S-wave (km/s) = 2.96535 3.88138 3.45387
# Velocity P-wave (km/s) = 4.12526 6.15763 5.24091
#
# Compressibility (1/GPa) = 0.07739155
#
# Stress axis : x y z
#
# Youngs Moduli (GPa) = 14.15272 60.47181 88.40861
#
# Poissons Ratio (x) = -0.52640 1.36539
# Poissons Ratio (y) = -0.12320 0.33754
# Poissons Ratio (z) = 0.21858 0.23088
#
# Static dielectric constant tensor:
#      x y z
#    x 1.971600 0.000000 0.091260 
#    y 0.000000 2.054360 0.000000 
#    z 0.091260 0.000000 1.972070 
# 
# From -- ./inp_files/27244.got.cif
#   From: 2010.05.17/outbox.cif.g08.bks.cpg/sg14_14_cif.got.tgz:27244.got - 2010.06.03 17:49:19.
