data_PCOD9251137
_publ_section_title
;
Structure prediction by ZEFSAII (Michael W. Deem and Ramdas Pophale) SiO2 
 PCOD9251137
Probable space group: P 21/C
;
_chemical_formula_sum "Si O2"
_cell_formula_units_Z 32
_cell_length_a 8.895111
_cell_length_b 19.563683
_cell_length_c 14.005350
_cell_angle_alpha 90.000000
_cell_angle_beta 31.767766
_cell_angle_gamma 90.000000
_cell_volume 1283.145278
_symmetry_space_group_name_H-M "P 21/C"
_symmetry_group_IT_number 14
_symmetry_cell_setting 'monoclinic'
loop_
_space_group_symop_operation_xyz
x,y,z
-x,1/2+y,1/2-z
-x,-y,-z
x,1/2-y,1/2+z
loop_
_atom_site_type_symbol
_atom_site_label
_atom_site_fract_x
_atom_site_fract_y
_atom_site_fract_z
Si Si1 0.640315 0.292290 0.892858
Si Si2 0.831410 0.891694 0.389949
Si Si3 0.843906 0.282822 0.566103
Si Si4 0.626900 0.351783 0.501381
Si Si5 0.221147 0.099642 0.881500
Si Si6 0.009218 0.407425 0.800753
Si Si7 0.167468 0.622946 0.904119
Si Si8 0.755643 0.025714 0.264207
O O1 0.320307 0.320913 0.060291
O O2 0.751547 0.292551 0.724873
O O3 0.644860 0.216286 0.928667
O O4 0.836040 0.342245 0.851141
O O5 0.551476 0.939790 0.550901
O O6 0.098686 0.896564 0.173759
O O7 0.971563 0.887566 0.418802
O O8 0.640121 0.323029 0.602386
O O9 0.859498 0.201655 0.545598
O O10 0.141198 0.323626 0.393454
O O11 0.340469 0.390749 0.630402
O O12 0.501652 0.105860 0.794978
O O13 0.284660 0.048813 0.759588
O O14 0.950105 0.067651 0.083101
O O15 0.915109 0.421849 0.959553
O O16 0.930002 0.465573 0.768144
#
# Coordination Sequence:
#
# PCOD9251137 Si02
#       8
#     4   4   4   4   4   4   4   4
#     4  11  23  42  64  99 149 185 223 283 359 420
#     4  11  24  43  67 102 135 186 233 289 341 416
#     4  12  26  41  70 105 145 178 229 290 361 420
#     4  12  25  40  68 104 146 183 229 291 355 412
#     4  11  26  48  75 100 137 197 228 291 354 411
#     4  11  24  44  65 105 140 189 234 286 346 422
#     4  12  27  39  74 108 145 178 236 292 359 415
#     4  10  25  51  74  94 142 187 250 278 345 424
#
# _framework density 24.93872
#
# number of rings (size 3 to 8) (size 9 to 14) (size 15 to 20)
#    0.000    0.750    5.000    2.250    7.000    1.000 
#    0.000    0.625    0.000    0.000    0.000    0.000 
#    0.000    0.000    0.000    0.000    0.000    0.000 
#
# Total GULP energy -179335.250194 kJ/mol
# GULP energy per Si atom -5604.226569 kJ/mol
# Density = 2.488196 g / cm^3
# Si number density = 24.938720 Si / 1000 Ang^3
#
#
#
# Elastic Constant Matrix: (Units=GPa)
#
#
# Indices 1 2 3 4 5 6 
#
# 1 159.8363 13.0805 36.1099 0.0000 -14.3032 0.0000
# 2 13.0805 78.9600 21.8954 0.0000 -15.2460 0.0000
# 3 36.1099 21.8954 87.0091 0.0000 -23.8308 0.0000
# 4 0.0000 0.0000 0.0000 25.7737 0.0000 0.9045
# 5 -14.3032 -15.2460 -23.8308 0.0000 54.6042 0.0000
# 6 0.0000 0.0000 0.0000 0.9045 0.0000 28.3404
#
#
#
# Elastic Compliance Matrix: (Units=1/GPa)
#
#
# Indices 1 2 3 4 5 6 
#
# 1 0.006930 -0.000304 -0.002641 0.000000 0.000578 0.000000
# 2 -0.000304 0.013966 -0.002660 0.000000 0.002659 0.000000
# 3 -0.002641 -0.002660 0.014612 0.000000 0.004943 0.000000
# 4 0.000000 0.000000 0.000000 0.038843 0.000000 -0.001240
# 5 0.000578 0.002659 0.004943 0.000000 0.021364 0.000000
# 6 0.000000 0.000000 0.000000 -0.001240 0.000000 0.035325
#
#
# Mechanical properties :
#
#
# Convention : Reuss Voigt Hill
#
# Bulk Modulus (GPa) = 41.15665 51.99744 46.57705
# Shear Modulus (GPa) = 33.25576 38.72495 35.99035
#
# Velocity S-wave (km/s) = 3.65567 3.94484 3.80300
# Velocity P-wave (km/s) = 5.86153 6.45324 6.16449
#
# Compressibility (1/GPa) = 0.02429741
#
# Stress axis : x y z
#
# Youngs Moduli (GPa) = 144.30719 71.60231 68.43545
#
# Poissons Ratio (x) = 0.02177 0.18075
# Poissons Ratio (y) = 0.04388 0.18204
# Poissons Ratio (z) = 0.38114 0.19047
#
# Static dielectric constant tensor:
#      x y z
#    x 1.939030 0.000000 0.024900 
#    y 0.000000 2.067070 0.000000 
#    z 0.024900 0.000000 1.970750 
# 
# From -- ./inp_files/42237.got.cif
#   From: 2010.05.17/outbox.cif.g08.bks.cpg/sg14_22_cif.got.tgz:42237.got - 2010.06.03 17:49:19.
