data_PCOD9251784
_publ_section_title
;
Structure prediction by ZEFSAII (Michael W. Deem and Ramdas Pophale) SiO2 
 PCOD9251784
Probable space group: P 21/C
;
_chemical_formula_sum "Si O2"
_cell_formula_units_Z 32
_cell_length_a 9.168973
_cell_length_b 9.868584
_cell_length_c 19.889147
_cell_angle_alpha 90.000000
_cell_angle_beta 44.265934
_cell_angle_gamma 90.000000
_cell_volume 1256.147587
_symmetry_space_group_name_H-M "P 21/C"
_symmetry_group_IT_number 14
_symmetry_cell_setting 'monoclinic'
loop_
_space_group_symop_operation_xyz
x,y,z
-x,1/2+y,1/2-z
-x,-y,-z
x,1/2-y,1/2+z
loop_
_atom_site_type_symbol
_atom_site_label
_atom_site_fract_x
_atom_site_fract_y
_atom_site_fract_z
Si Si1 0.128612 0.321409 0.201447
Si Si2 0.952897 0.689101 0.090321
Si Si3 0.994132 0.025259 0.883095
Si Si4 0.568466 0.545274 0.581072
Si Si5 0.117382 0.453267 0.755509
Si Si6 0.379233 0.155067 0.395401
Si Si7 0.330729 0.844842 0.830577
Si Si8 0.588946 0.140806 0.577573
O O1 0.030304 0.172512 0.240044
O O2 0.376853 0.298512 0.117898
O O3 0.071703 0.411932 0.286636
O O4 0.033200 0.421007 0.178095
O O5 0.828700 0.623644 0.193117
O O6 0.857441 0.634022 0.053158
O O7 0.937047 0.850830 0.091015
O O8 0.192628 0.663794 0.030809
O O9 0.109867 0.890422 0.870681
O O10 0.745676 0.010285 0.972596
O O11 0.325362 0.511855 0.653011
O O12 0.596576 0.706133 0.573550
O O13 0.618449 0.467675 0.634827
O O14 0.517472 0.169444 0.282632
O O15 0.450512 0.018594 0.406760
O O16 0.360653 0.710736 0.866647
#
# Coordination Sequence:
#
# PCOD9251784 Si02
#       8
#     4   4   4   4   4   4   4   4
#     4  11  25  47  67  95 130 177 229 275 323 385
#     4  11  22  42  67  98 134 175 215 269 338 392
#     4  11  22  42  71  96 130 175 220 270 327 402
#     4  12  23  43  68  99 131 175 222 266 334 397
#     4  11  26  45  69  94 130 178 229 274 323 389
#     4  12  24  38  65 105 138 166 213 271 336 403
#     4  12  20  40  70  96 135 173 208 267 337 399
#     4  12  24  42  63  99 139 168 215 277 332 390
#
# _framework density 25.474713999999999
#
# number of rings (size 3 to 8) (size 9 to 14) (size 15 to 20)
#    0.000    0.500    6.250    3.000    1.750    1.000 
#    2.250    0.000    0.000    0.000    0.000    0.000 
#    0.000    0.000    0.000    0.000    0.000    0.000 
#
# Total GULP energy -178983.269214 kJ/mol
# GULP energy per Si atom -5593.227163 kJ/mol
# Density = 2.541673 g / cm^3
# Si number density = 25.474714 Si / 1000 Ang^3
#
#
#
# Elastic Constant Matrix: (Units=GPa)
#
#
# Indices 1 2 3 4 5 6 
#
# 1 34.3051 11.1270 14.7025 0.0000 -10.5528 0.0000
# 2 11.1270 147.6642 5.3825 0.0000 -11.2069 0.0000
# 3 14.7025 5.3825 109.2395 0.0000 -31.3993 0.0000
# 4 0.0000 0.0000 0.0000 33.9360 0.0000 -7.1619
# 5 -10.5528 -11.2069 -31.3993 0.0000 25.3228 0.0000
# 6 0.0000 0.0000 0.0000 -7.1619 0.0000 28.8717
#
#
#
# Elastic Compliance Matrix: (Units=1/GPa)
#
#
# Indices 1 2 3 4 5 6 
#
# 1 0.033832 -0.001589 -0.000971 0.000000 0.012192 0.000000
# 2 -0.001589 0.007133 0.000900 0.000000 0.003611 0.000000
# 3 -0.000971 0.000900 0.014355 0.000000 0.017794 0.000000
# 4 0.000000 0.000000 0.000000 0.031095 0.000000 0.007713
# 5 0.012192 0.003611 0.017794 0.000000 0.068232 0.000000
# 6 0.000000 0.000000 0.000000 0.007713 0.000000 0.036549
#
#
# Mechanical properties :
#
#
# Convention : Reuss Voigt Hill
#
# Bulk Modulus (GPa) = 19.23002 39.29253 29.26128
# Shear Modulus (GPa) = 23.60170 34.95922 29.28046
#
# Velocity S-wave (km/s) = 3.04711 3.70849 3.39395
# Velocity P-wave (km/s) = 4.46597 5.81333 5.18361
#
# Compressibility (1/GPa) = 0.05200202
#
# Stress axis : x y z
#
# Youngs Moduli (GPa) = 29.55778 140.19193 69.66216
#
# Poissons Ratio (x) = 0.22272 0.06762
# Poissons Ratio (y) = 0.04696 -0.06272
# Poissons Ratio (z) = 0.02869 -0.12622
#
# Static dielectric constant tensor:
#      x y z
#    x 2.089090 0.000000 -0.012190 
#    y 0.000000 2.005270 0.000000 
#    z -0.012190 0.000000 2.026390 
# 
# From -- ./inp_files/79944.got.cif
#   From: 2010.05.17/outbox.cif.g08.bks.cpg/sg14_40_cif.got.tgz:79944.got - 2010.06.03 17:49:19.
