data_PCOD9251682
_publ_section_title
;
Structure prediction by ZEFSAII (Michael W. Deem and Ramdas Pophale) SiO2 
 PCOD9251682
Probable space group: P 21/C
;
_chemical_formula_sum "Si O2"
_cell_formula_units_Z 32
_cell_length_a 11.913711
_cell_length_b 7.246087
_cell_length_c 20.124441
_cell_angle_alpha 90.000000
_cell_angle_beta 53.047567
_cell_angle_gamma 90.000000
_cell_volume 1388.335752
_symmetry_space_group_name_H-M "P 21/C"
_symmetry_group_IT_number 14
_symmetry_cell_setting 'monoclinic'
loop_
_space_group_symop_operation_xyz
x,y,z
-x,1/2+y,1/2-z
-x,-y,-z
x,1/2-y,1/2+z
loop_
_atom_site_type_symbol
_atom_site_label
_atom_site_fract_x
_atom_site_fract_y
_atom_site_fract_z
Si Si1 0.351003 0.300303 0.265303
Si Si2 0.707747 0.664868 0.500191
Si Si3 0.878979 0.865440 0.065613
Si Si4 0.614358 0.310800 0.354512
Si Si5 0.671055 0.369637 0.187377
Si Si6 0.104159 0.625787 0.005046
Si Si7 0.640485 0.754487 0.881519
Si Si8 0.680112 0.226756 0.473166
O O1 0.260513 0.424800 0.346954
O O2 0.516608 0.331736 0.212924
O O3 0.306388 0.332326 0.205385
O O4 0.320372 0.091070 0.301680
O O5 0.819256 0.714472 0.517139
O O6 0.553490 0.721964 0.582174
O O7 0.722581 0.749741 0.421476
O O8 0.707675 0.440160 0.488203
O O9 0.977168 0.748966 0.080619
O O10 0.000000 0.000000 0.000000
O O11 0.673109 0.280838 0.260191
O O12 0.626908 0.528412 0.367630
O O13 0.687847 0.213646 0.390803
O O14 0.788529 0.312872 0.092395
O O15 0.212370 0.598756 0.025981
O O16 0.000000 0.500000 0.000000
O O17 0.481766 0.687177 0.951595
#
# Coordination Sequence:
#
# PCOD9251682 Si02
#       8
#     4   4   4   4   4   4   4   4
#     4  11  22  38  62  93 118 157 214 261 313 374
#     4   9  16  33  58  90 112 148 203 255 304 362
#     4  12  24  37  60  89 126 169 207 252 313 386
#     4   8  16  31  60  88 110 145 209 257 294 358
#     4  11  22  38  63  90 119 158 209 263 313 376
#     4  12  24  39  56  87 131 167 198 253 326 380
#     4   8  16  31  60  87 112 146 201 263 299 346
#     4   9  16  33  59  87 112 155 202 250 306 363
#
# _framework density 23.049177
#
# number of rings (size 3 to 8) (size 9 to 14) (size 15 to 20)
#    0.000    2.000    5.000    1.500    1.750    0.000 
#    0.000    1.250    2.750    3.000    0.000    0.000 
#    0.000    0.000    0.000    0.000    0.000    0.000 
#
# Total GULP energy -178453.963323 kJ/mol
# GULP energy per Si atom -5576.686354 kJ/mol
# Density = 2.299672 g / cm^3
# Si number density = 23.049177 Si / 1000 Ang^3
#
#
#
# Elastic Constant Matrix: (Units=GPa)
#
#
# Indices 1 2 3 4 5 6 
#
# 1 178.9134 30.9361 83.5293 0.0000 26.3266 0.0000
# 2 30.9361 50.2562 15.8661 0.0000 4.0295 0.0000
# 3 83.5293 15.8661 125.0177 0.0000 17.6287 0.0000
# 4 0.0000 0.0000 0.0000 22.5210 0.0000 -0.8710
# 5 26.3266 4.0295 17.6287 0.0000 43.9449 0.0000
# 6 0.0000 0.0000 0.0000 -0.8710 0.0000 37.3006
#
#
#
# Elastic Compliance Matrix: (Units=1/GPa)
#
#
# Indices 1 2 3 4 5 6 
#
# 1 0.009096 -0.003722 -0.005178 0.000000 -0.003031 0.000000
# 2 -0.003722 0.022285 -0.000390 0.000000 0.000343 0.000000
# 3 -0.005178 -0.000390 0.011729 0.000000 -0.001567 0.000000
# 4 0.000000 0.000000 0.000000 0.044443 0.000000 0.001038
# 5 -0.003031 0.000343 -0.001567 0.000000 0.025169 0.000000
# 6 0.000000 0.000000 0.000000 0.001038 0.000000 0.026833
#
#
# Mechanical properties :
#
#
# Convention : Reuss Voigt Hill
#
# Bulk Modulus (GPa) = 40.76483 68.31670 54.54076
# Shear Modulus (GPa) = 30.06420 35.67703 32.87062
#
# Velocity S-wave (km/s) = 3.61550 3.93856 3.78048
# Velocity P-wave (km/s) = 5.92904 7.09837 6.53989
#
# Compressibility (1/GPa) = 0.02453095
#
# Stress axis : x y z
#
# Youngs Moduli (GPa) = 109.93646 44.87412 85.25979
#
# Poissons Ratio (x) = 0.16700 0.44146
# Poissons Ratio (y) = 0.40914 0.03324
# Poissons Ratio (z) = 0.56923 0.01750
#
# Static dielectric constant tensor:
#      x y z
#    x 1.769260 0.000000 0.029320 
#    y 0.000000 1.206780 0.000000 
#    z 0.029320 0.000000 1.801260 
# 
# From -- ./inp_files/67028.got.cif
#   From: 2010.05.17/outbox.cif.g08.bks.cpg/sg14_34_cif.got.tgz:67028.got - 2010.06.03 17:49:19.
