data_PCOD9251929
_publ_section_title
;
Structure prediction by ZEFSAII (Michael W. Deem and Ramdas Pophale) SiO2 
 PCOD9251929
Probable space group: P 21/C
;
_chemical_formula_sum "Si O2"
_cell_formula_units_Z 32
_cell_length_a 9.330339
_cell_length_b 7.587843
_cell_length_c 29.622792
_cell_angle_alpha 90.000000
_cell_angle_beta 39.811388
_cell_angle_gamma 90.000000
_cell_volume 1342.764157
_symmetry_space_group_name_H-M "P 21/C"
_symmetry_group_IT_number 14
_symmetry_cell_setting 'monoclinic'
loop_
_space_group_symop_operation_xyz
x,y,z
-x,1/2+y,1/2-z
-x,-y,-z
x,1/2-y,1/2+z
loop_
_atom_site_type_symbol
_atom_site_label
_atom_site_fract_x
_atom_site_fract_y
_atom_site_fract_z
Si Si1 0.200349 0.690721 0.944648
Si Si2 0.108931 0.139564 0.057315
Si Si3 0.597079 0.842162 0.297034
Si Si4 0.563723 0.938279 0.092984
Si Si5 0.940507 0.217312 0.690417
Si Si6 0.126277 0.267594 0.405687
Si Si7 0.090618 0.426609 0.735724
Si Si8 0.483732 0.649782 0.245611
O O1 0.410232 0.578758 0.875781
O O2 0.040560 0.748656 0.942102
O O3 0.328731 0.867152 0.930140
O O4 0.046033 0.644246 0.024669
O O5 0.087570 0.220245 0.112316
O O6 0.354738 0.133780 0.975233
O O7 0.002253 0.941735 0.081384
O O8 0.807325 0.757078 0.270026
O O9 0.485890 0.673021 0.298416
O O10 0.621806 0.974021 0.249520
O O11 0.693865 0.832173 0.100437
O O12 0.301763 0.960460 0.165662
O O13 0.688967 0.205117 0.732196
O O14 0.944148 0.364656 0.729067
O O15 0.008198 0.036528 0.698727
O O16 0.266497 0.170606 0.333462
#
# Coordination Sequence:
#
# PCOD9251929 Si02
#       8
#     4   4   4   4   4   4   4   4
#     4   8  16  32  57  86 117 145 186 241 288 338
#     4   9  17  33  61  87 112 152 196 238 284 346
#     4  11  23  37  58  86 118 150 194 238 288 346
#     4   8  16  34  58  85 115 149 190 237 287 350
#     4  12  23  37  58  83 117 154 198 239 286 344
#     4   9  17  33  58  90 117 148 189 241 288 338
#     4  11  24  41  57  84 118 156 194 240 296 344
#     4  12  22  35  59  88 117 155 194 237 286 345
#
# _framework density 23.831440000000001
#
# number of rings (size 3 to 8) (size 9 to 14) (size 15 to 20)
#    0.000    2.000    2.500    3.750    1.750    1.000 
#    0.000    0.000    0.000    0.750    0.000    0.000 
#    0.000    0.000    0.000    0.000    0.000    0.000 
#
# Total GULP energy -178781.151671 kJ/mol
# GULP energy per Si atom -5586.910990 kJ/mol
# Density = 2.377720 g / cm^3
# Si number density = 23.831440 Si / 1000 Ang^3
#
#
#
# Elastic Constant Matrix: (Units=GPa)
#
#
# Indices 1 2 3 4 5 6 
#
# 1 88.9087 5.2590 9.4906 0.0000 13.7339 0.0000
# 2 5.2590 66.2299 22.4306 0.0000 6.4644 0.0000
# 3 9.4906 22.4306 137.7249 0.0000 21.7765 0.0000
# 4 0.0000 0.0000 0.0000 34.5870 0.0000 6.0395
# 5 13.7339 6.4644 21.7765 0.0000 21.4069 0.0000
# 6 0.0000 0.0000 0.0000 6.0395 0.0000 22.3543
#
#
#
# Elastic Compliance Matrix: (Units=1/GPa)
#
#
# Indices 1 2 3 4 5 6 
#
# 1 0.012519 -0.000348 0.000533 0.000000 -0.008469 0.000000
# 2 -0.000348 0.016112 -0.002224 0.000000 -0.002380 0.000000
# 3 0.000533 -0.002224 0.008978 0.000000 -0.008804 0.000000
# 4 0.000000 0.000000 0.000000 0.030344 0.000000 -0.008198
# 5 -0.008469 -0.002380 -0.008804 0.000000 0.061822 0.000000
# 6 0.000000 0.000000 0.000000 -0.008198 0.000000 0.046949
#
#
# Mechanical properties :
#
#
# Convention : Reuss Voigt Hill
#
# Bulk Modulus (GPa) = 29.82199 40.80266 35.31232
# Shear Modulus (GPa) = 26.04442 32.71519 29.37981
#
# Velocity S-wave (km/s) = 3.30943 3.70912 3.51496
# Velocity P-wave (km/s) = 5.20999 5.95835 5.59669
#
# Compressibility (1/GPa) = 0.03353231
#
# Stress axis : x y z
#
# Youngs Moduli (GPa) = 79.87590 62.06554 111.37944
#
# Poissons Ratio (x) = 0.02160 -0.05937
# Poissons Ratio (y) = 0.02780 0.24768
# Poissons Ratio (z) = -0.04258 0.13802
#
# Static dielectric constant tensor:
#      x y z
#    x 1.859730 0.000000 -0.024500 
#    y 0.000000 2.049810 0.000000 
#    z -0.024500 0.000000 1.941640 
# 
# From -- ./inp_files/76367.got.cif
#   From: 2010.05.17/outbox.cif.g08.bks.cpg/sg14_39_cif.got.tgz:76367.got - 2010.06.03 17:49:19.
