data_PCOD9251473
_publ_section_title
;
Structure prediction by ZEFSAII (Michael W. Deem and Ramdas Pophale) SiO2 
 PCOD9251473
Probable space group: P 21/C
;
_chemical_formula_sum "Si O2"
_cell_formula_units_Z 24
_cell_length_a 7.972784
_cell_length_b 24.549582
_cell_length_c 7.598993
_cell_angle_alpha 90.000000
_cell_angle_beta 37.060369
_cell_angle_gamma 90.000000
_cell_volume 896.354382
_symmetry_space_group_name_H-M "P 21/C"
_symmetry_group_IT_number 14
_symmetry_cell_setting 'monoclinic'
loop_
_space_group_symop_operation_xyz
x,y,z
-x,1/2+y,1/2-z
-x,-y,-z
x,1/2-y,1/2+z
loop_
_atom_site_type_symbol
_atom_site_label
_atom_site_fract_x
_atom_site_fract_y
_atom_site_fract_z
Si Si1 0.912414 0.472755 0.808010
Si Si2 0.710827 0.672856 0.606564
Si Si3 0.691675 0.163098 0.980354
Si Si4 0.838762 0.892701 0.639682
Si Si5 0.675720 0.566517 0.822451
Si Si6 0.749008 0.276038 0.802249
O O1 0.797389 0.534451 0.888809
O O2 0.003602 0.445602 0.914422
O O3 0.181320 0.466983 0.458618
O O4 0.653722 0.439241 0.937078
O O5 0.780507 0.640971 0.370884
O O6 0.773514 0.627631 0.706131
O O7 0.920941 0.723492 0.440889
O O8 0.402850 0.690098 0.917972
O O9 0.619151 0.216343 0.921990
O O10 0.958569 0.138991 0.660201
O O11 0.471947 0.113882 0.177329
O O12 0.711087 0.191966 0.152949
#
# Coordination Sequence:
#
# PCOD9251473 Si02
#       6
#     4   4   4   4   4   4
#     4   9  17  31  55  88 119 148 188 237 284 335
#     4  11  21  38  62  88 116 150 194 242 289 340
#     4  12  25  41  59  83 116 154 196 241 294 350
#     4  11  21  38  62  88 116 150 194 242 289 340
#     4   9  17  31  55  88 119 148 188 237 284 335
#     4  12  25  41  59  83 116 154 196 241 294 350
#
# _framework density 26.775124000000002
#
# number of rings (size 3 to 8) (size 9 to 14) (size 15 to 20)
#    0.000    1.333    0.000    9.000    0.000    0.000 
#    0.000    0.000    0.000    6.000    0.000    0.000 
#    0.000    0.000    0.000    0.000    0.000    0.000 
#
# Total GULP energy -134242.080931 kJ/mol
# GULP energy per Si atom -5593.420039 kJ/mol
# Density = 2.671418 g / cm^3
# Si number density = 26.775124 Si / 1000 Ang^3
#
#
#
# Elastic Constant Matrix: (Units=GPa)
#
#
# Indices 1 2 3 4 5 6 
#
# 1 69.1009 -8.7321 25.3040 0.0000 22.9916 0.0000
# 2 -8.7321 104.1574 24.7591 0.0000 5.6197 0.0000
# 3 25.3040 24.7591 171.6196 0.0000 7.6517 0.0000
# 4 0.0000 0.0000 0.0000 40.9358 0.0000 0.6354
# 5 22.9916 5.6197 7.6517 0.0000 43.1626 0.0000
# 6 0.0000 0.0000 0.0000 0.6354 0.0000 40.7536
#
#
#
# Elastic Compliance Matrix: (Units=1/GPa)
#
#
# Indices 1 2 3 4 5 6 
#
# 1 0.019212 0.002819 -0.002789 0.000000 -0.010106 0.000000
# 2 0.002819 0.010403 -0.001803 0.000000 -0.002536 0.000000
# 3 -0.002789 -0.001803 0.006473 0.000000 0.000573 0.000000
# 4 0.000000 0.000000 0.000000 0.024434 0.000000 -0.000381
# 5 -0.010106 -0.002536 0.000573 0.000000 0.028780 0.000000
# 6 0.000000 0.000000 0.000000 -0.000381 0.000000 0.024544
#
#
# Mechanical properties :
#
#
# Convention : Reuss Voigt Hill
#
# Bulk Modulus (GPa) = 30.73103 47.50445 39.11774
# Shear Modulus (GPa) = 38.98995 45.20686 42.09840
#
# Velocity S-wave (km/s) = 3.82016 4.11346 3.96952
# Velocity P-wave (km/s) = 5.56422 6.35148 5.97084
#
# Compressibility (1/GPa) = 0.03254040
#
# Stress axis : x y z
#
# Youngs Moduli (GPa) = 52.05213 96.12924 154.49685
#
# Poissons Ratio (x) = -0.27096 0.43084
# Poissons Ratio (y) = -0.14672 0.27860
# Poissons Ratio (z) = 0.14516 0.17335
#
# Static dielectric constant tensor:
#      x y z
#    x 2.268140 0.000000 0.009390 
#    y 0.000000 2.151440 0.000000 
#    z 0.009390 0.000000 1.958650 
# 
# From -- ./inp_files/6448.got.cif
#   From: 2010.05.17/outbox.cif.g08.bks.cpg/sg14_4_cif.got.tgz:6448.got - 2010.06.03 17:49:19.
