data_PCOD9251854
_publ_section_title
;
Structure prediction by ZEFSAII (Michael W. Deem and Ramdas Pophale) SiO2 
 PCOD9251854
Probable space group: P 21/C
;
_chemical_formula_sum "Si O2"
_cell_formula_units_Z 20
_cell_length_a 6.600829
_cell_length_b 8.881253
_cell_length_c 13.678952
_cell_angle_alpha 90.000000
_cell_angle_beta 76.407524
_cell_angle_gamma 90.000000
_cell_volume 779.449858
_symmetry_space_group_name_H-M "P 21/C"
_symmetry_group_IT_number 14
_symmetry_cell_setting 'monoclinic'
loop_
_space_group_symop_operation_xyz
x,y,z
-x,1/2+y,1/2-z
-x,-y,-z
x,1/2-y,1/2+z
loop_
_atom_site_type_symbol
_atom_site_label
_atom_site_fract_x
_atom_site_fract_y
_atom_site_fract_z
Si Si1 0.177462 0.604952 0.933512
Si Si2 0.032655 0.408538 0.246483
Si Si3 0.272830 0.353424 0.677409
Si Si4 0.553674 0.097459 0.319480
Si Si5 0.454435 0.677354 0.515263
O O1 0.384905 0.506145 0.893463
O O2 0.250869 0.749446 0.987116
O O3 0.094607 0.641906 0.835012
O O4 0.000000 0.500000 0.000000
O O5 0.143906 0.255138 0.265378
O O6 0.221020 0.522190 0.201248
O O7 0.870438 0.503058 0.328702
O O8 0.477299 0.392438 0.716630
O O9 0.347046 0.267280 0.572605
O O10 0.545405 0.255671 0.376596
O O11 0.500000 0.500000 0.500000
#
# Coordination Sequence:
#
# PCOD9251854 Si02
#       5
#     4   4   4   4   4
#     4  11  22  44  74  99 136 201 245 298 377 461
#     4  11  25  45  74 102 148 194 258 294 381 449
#     4  11  28  44  74 107 146 196 246 314 368 450
#     4  11  25  47  72 102 147 200 244 300 380 456
#     4  12  27  44  73 111 151 187 253 323 371 436
#
# _framework density 25.659123000000001
#
# number of rings (size 3 to 8) (size 9 to 14) (size 15 to 20)
#    0.000    0.800    4.000    1.800    8.400    0.000 
#    0.000    3.000    0.000    0.000    0.000    0.000 
#    0.000    0.000    0.000    0.000    0.000    0.000 
#
# Total GULP energy -111963.948335 kJ/mol
# GULP energy per Si atom -5598.197417 kJ/mol
# Density = 2.560072 g / cm^3
# Si number density = 25.659123 Si / 1000 Ang^3
#
#
#
# Elastic Constant Matrix: (Units=GPa)
#
#
# Indices 1 2 3 4 5 6 
#
# 1 135.1957 47.8312 25.8030 0.0000 -10.9657 0.0000
# 2 47.8312 127.8924 6.1630 0.0000 -2.2476 0.0000
# 3 25.8030 6.1630 56.7807 0.0000 -6.5552 0.0000
# 4 0.0000 0.0000 0.0000 40.5251 0.0000 -7.7554
# 5 -10.9657 -2.2476 -6.5552 0.0000 35.9137 0.0000
# 6 0.0000 0.0000 0.0000 -7.7554 0.0000 46.5960
#
#
#
# Elastic Compliance Matrix: (Units=1/GPa)
#
#
# Indices 1 2 3 4 5 6 
#
# 1 0.009438 -0.003316 -0.003698 0.000000 0.001999 0.000000
# 2 -0.003316 0.009030 0.000486 0.000000 -0.000359 0.000000
# 3 -0.003698 0.000486 0.019524 0.000000 0.002465 0.000000
# 4 0.000000 0.000000 0.000000 0.025488 0.000000 0.004242
# 5 0.001999 -0.000359 0.002465 0.000000 0.028882 0.000000
# 6 0.000000 0.000000 0.000000 0.004242 0.000000 0.022167
#
#
# Mechanical properties :
#
#
# Convention : Reuss Voigt Hill
#
# Bulk Modulus (GPa) = 40.10635 53.27367 46.69001
# Shear Modulus (GPa) = 36.79219 40.61172 38.70196
#
# Velocity S-wave (km/s) = 3.79077 3.98268 3.88791
# Velocity P-wave (km/s) = 5.90121 6.47736 6.19599
#
# Compressibility (1/GPa) = 0.02493371
#
# Stress axis : x y z
#
# Youngs Moduli (GPa) = 105.95484 110.74575 51.21888
#
# Poissons Ratio (x) = 0.36728 0.18942
# Poissons Ratio (y) = 0.35139 -0.02487
# Poissons Ratio (z) = 0.39184 -0.05378
#
# Static dielectric constant tensor:
#      x y z
#    x 2.031410 0.000000 -0.050560 
#    y 0.000000 2.102880 0.000000 
#    z -0.050560 0.000000 2.071040 
# 
# From -- ./inp_files/52650.got.cif
#   From: 2010.05.17/outbox.cif.g08.bks.cpg/sg14_27_cif.got.tgz:52650.got - 2010.06.03 17:49:19.
