data_PCOD9251419
_publ_section_title
;
Structure prediction by ZEFSAII (Michael W. Deem and Ramdas Pophale) SiO2 
 PCOD9251419
Probable space group: P 21/C
;
_chemical_formula_sum "Si O2"
_cell_formula_units_Z 30
_cell_length_a 10.682474
_cell_length_b 9.078373
_cell_length_c 17.278098
_cell_angle_alpha 90.000000
_cell_angle_beta 68.674632
_cell_angle_gamma 90.000000
_cell_volume 1560.891760
_symmetry_space_group_name_H-M "P 21/C"
_symmetry_group_IT_number 14
_symmetry_cell_setting 'monoclinic'
loop_
_space_group_symop_operation_xyz
x,y,z
-x,1/2+y,1/2-z
-x,-y,-z
x,1/2-y,1/2+z
loop_
_atom_site_type_symbol
_atom_site_label
_atom_site_fract_x
_atom_site_fract_y
_atom_site_fract_z
Si Si1 0.528247 0.668898 0.320340
Si Si2 0.000000 0.000000 0.000000
Si Si3 0.309243 0.738804 0.093512
Si Si4 0.160475 0.003998 0.557437
Si Si5 0.404728 0.280137 0.029141
Si Si6 0.642672 0.134580 0.748058
Si Si7 0.899908 0.321671 0.084564
Si Si8 0.301726 0.507628 0.470326
O O1 0.596825 0.747380 0.378708
O O2 0.480587 0.787912 0.268721
O O3 0.617261 0.539660 0.263172
O O4 0.396689 0.586748 0.386119
O O5 0.052834 0.839377 0.952859
O O6 0.159253 0.049620 0.972592
O O7 0.192876 0.617624 0.115193
O O8 0.339467 0.798114 0.171107
O O9 0.273423 0.873071 0.044289
O O10 0.446220 0.669147 0.028121
O O11 0.286249 0.113857 0.529426
O O12 0.024455 0.094963 0.596397
O O13 0.145568 0.913389 0.481071
O O14 0.384170 0.124670 0.990416
O O15 0.774452 0.174050 0.669895
#
# Coordination Sequence:
#
# PCOD9251419 Si02
#       8
#     4   2   4   4   4   4   4   4
#     4  11  24  41  63  95 133 161 214 262 330 379
#     4  12  20  44  70  86 124 174 222 260 310 404
#     4  11  22  41  64  94 129 165 214 264 317 378
#     4  11  24  42  64  95 124 168 221 265 306 383
#     4  11  21  41  70  91 123 174 219 255 313 395
#     4  12  25  42  62  98 134 165 204 275 331 379
#     4  11  25  43  65  94 130 166 222 267 319 379
#     4  11  20  43  68  92 118 181 220 250 306 403
#
# _framework density 19.219783
#
# number of rings (size 3 to 8) (size 9 to 14) (size 15 to 20)
#    0.000    0.800    6.667    2.000    3.733    0.000 
#    4.800    0.000    0.000    0.000    0.000    0.000 
#    0.000    0.000    0.000    0.000    0.000    0.000 
#
# Total GULP energy -167093.341096 kJ/mol
# GULP energy per Si atom -5569.778037 kJ/mol
# Density = 1.917604 g / cm^3
# Si number density = 19.219783 Si / 1000 Ang^3
#
#
#
# Elastic Constant Matrix: (Units=GPa)
#
#
# Indices 1 2 3 4 5 6 
#
# 1 96.1677 43.0792 13.6123 0.0000 -1.5655 0.0000
# 2 43.0792 87.1113 26.6121 0.0000 -7.8784 0.0000
# 3 13.6123 26.6121 36.5485 0.0000 -7.6454 0.0000
# 4 0.0000 0.0000 0.0000 10.8828 0.0000 -0.6675
# 5 -1.5655 -7.8784 -7.6454 0.0000 18.1738 0.0000
# 6 0.0000 0.0000 0.0000 -0.6675 0.0000 33.7441
#
#
#
# Elastic Compliance Matrix: (Units=1/GPa)
#
#
# Indices 1 2 3 4 5 6 
#
# 1 0.013422 -0.006640 -0.000575 0.000000 -0.001964 0.000000
# 2 -0.006640 0.018119 -0.010084 0.000000 0.003040 0.000000
# 3 -0.000575 -0.010084 0.037273 0.000000 0.011259 0.000000
# 4 0.000000 0.000000 0.000000 0.092000 0.000000 0.001820
# 5 -0.001964 0.003040 0.011259 0.000000 0.060910 0.000000
# 6 0.000000 0.000000 0.000000 0.001820 0.000000 0.029671
#
#
# Mechanical properties :
#
#
# Convention : Reuss Voigt Hill
#
# Bulk Modulus (GPa) = 29.22615 42.93720 36.08168
# Shear Modulus (GPa) = 16.81255 21.66172 19.23714
#
# Velocity S-wave (km/s) = 2.96083 3.36080 3.16714
# Velocity P-wave (km/s) = 5.18922 6.11953 5.67347
#
# Compressibility (1/GPa) = 0.03421593
#
# Stress axis : x y z
#
# Youngs Moduli (GPa) = 74.50324 55.19201 26.82923
#
# Poissons Ratio (x) = 0.36645 0.01544
# Poissons Ratio (y) = 0.49467 0.27054
# Poissons Ratio (z) = 0.04287 0.55655
#
# Static dielectric constant tensor:
#      x y z
#    x 1.678150 0.000000 0.015190 
#    y 0.000000 1.687180 0.000000 
#    z 0.015190 0.000000 1.642110 
# 
# From -- ./inp_files/43400.got.cif
#   From: 2010.05.17/outbox.cif.g08.bks.cpg/sg14_22_cif.got.tgz:43400.got - 2010.06.03 17:49:19.
