data_PCOD9251511
_publ_section_title
;
Structure prediction by ZEFSAII (Michael W. Deem and Ramdas Pophale) SiO2 
 PCOD9251511
Probable space group: P 21/C
;
_chemical_formula_sum "Si O2"
_cell_formula_units_Z 32
_cell_length_a 10.815735
_cell_length_b 9.223938
_cell_length_c 25.779568
_cell_angle_alpha 90.000000
_cell_angle_beta 36.634431
_cell_angle_gamma 90.000000
_cell_volume 1534.649960
_symmetry_space_group_name_H-M "P 21/C"
_symmetry_group_IT_number 14
_symmetry_cell_setting 'monoclinic'
loop_
_space_group_symop_operation_xyz
x,y,z
-x,1/2+y,1/2-z
-x,-y,-z
x,1/2-y,1/2+z
loop_
_atom_site_type_symbol
_atom_site_label
_atom_site_fract_x
_atom_site_fract_y
_atom_site_fract_z
Si Si1 0.022583 0.909422 0.440724
Si Si2 0.184846 0.181499 0.333308
Si Si3 0.412982 0.375164 0.961390
Si Si4 0.173968 0.073302 0.907606
Si Si5 0.882169 0.874046 0.755764
Si Si6 0.262486 0.400001 0.130574
Si Si7 0.413189 0.644580 0.667744
Si Si8 0.332945 0.812386 0.798175
O O1 0.188863 0.782280 0.384447
O O2 0.795135 0.860892 0.501674
O O3 0.108836 0.019361 0.368493
O O4 0.000000 0.000000 0.500000
O O5 0.088912 0.282366 0.409655
O O6 0.117775 0.216367 0.298000
O O7 0.430273 0.191790 0.262002
O O8 0.536905 0.525439 0.909745
O O9 0.553010 0.242355 0.894507
O O10 0.339472 0.373489 0.045706
O O11 0.252615 0.974658 0.833191
O O12 0.370340 0.100465 0.878301
O O13 0.000000 0.000000 0.000000
O O14 0.824941 0.751531 0.817408
O O15 0.707828 0.998611 0.806131
O O16 0.088794 0.972168 0.692045
O O17 0.314800 0.746769 0.746365
#
# Coordination Sequence:
#
# PCOD9251511 Si02
#       8
#     4   4   4   4   4   4   4   4
#     4  12  23  40  70  98 143 178 215 282 356 406
#     4  11  22  40  65  96 135 177 222 270 332 417
#     4  11  25  47  66 102 137 179 226 294 344 399
#     4  11  23  38  59 105 137 173 215 270 346 408
#     4  12  24  49  69 100 128 190 236 286 338 408
#     4  11  27  46  73  96 136 179 239 286 343 404
#     4  11  23  42  69  94 138 175 227 281 337 412
#     4  11  21  40  63  99 137 175 217 270 337 418
#
# _framework density 20.851661
#
# number of rings (size 3 to 8) (size 9 to 14) (size 15 to 20)
#    0.000    0.750    3.750    4.500    3.500    1.500 
#    2.250    0.000    0.000    0.000    0.000    0.000 
#    0.000    0.000    0.000    0.000    0.000    0.000 
#
# Total GULP energy -178698.609381 kJ/mol
# GULP energy per Si atom -5584.331543 kJ/mol
# Density = 2.080420 g / cm^3
# Si number density = 20.851661 Si / 1000 Ang^3
#
#
#
# Elastic Constant Matrix: (Units=GPa)
#
#
# Indices 1 2 3 4 5 6 
#
# 1 33.6091 18.4530 34.2405 0.0000 5.5338 0.0000
# 2 18.4530 106.6605 53.1485 0.0000 7.9086 0.0000
# 3 34.2405 53.1485 98.2123 0.0000 8.0675 0.0000
# 4 0.0000 0.0000 0.0000 57.4692 0.0000 4.6354
# 5 5.5338 7.9086 8.0675 0.0000 23.0602 0.0000
# 6 0.0000 0.0000 0.0000 4.6354 0.0000 30.1532
#
#
#
# Elastic Compliance Matrix: (Units=1/GPa)
#
#
# Indices 1 2 3 4 5 6 
#
# 1 0.046865 0.000307 -0.016034 0.000000 -0.005742 0.000000
# 2 0.000307 0.012932 -0.006934 0.000000 -0.002083 0.000000
# 3 -0.016034 -0.006934 0.019576 0.000000 -0.000623 0.000000
# 4 0.000000 0.000000 0.000000 0.017619 0.000000 -0.002709
# 5 -0.005742 -0.002083 -0.000623 0.000000 0.045675 0.000000
# 6 0.000000 0.000000 0.000000 -0.002709 0.000000 0.033580
#
#
# Mechanical properties :
#
#
# Convention : Reuss Voigt Hill
#
# Bulk Modulus (GPa) = 29.36705 50.01844 39.69274
# Shear Modulus (GPa) = 21.46660 30.97917 26.22288
#
# Velocity S-wave (km/s) = 3.21205 3.85865 3.55010
# Velocity P-wave (km/s) = 5.27927 6.62511 5.99011
#
# Compressibility (1/GPa) = 0.03405177
#
# Stress axis : x y z
#
# Youngs Moduli (GPa) = 21.33770 77.32623 51.08371
#
# Poissons Ratio (x) = -0.02376 0.81905
# Poissons Ratio (y) = -0.00656 0.35424
# Poissons Ratio (z) = 0.34212 0.53621
#
# Static dielectric constant tensor:
#      x y z
#    x 1.760470 0.000000 0.023190 
#    y 0.000000 1.605360 0.000000 
#    z 0.023190 0.000000 1.774750 
# 
# From -- ./inp_files/79960.got.cif
#   From: 2010.05.17/outbox.cif.g08.bks.cpg/sg14_40_cif.got.tgz:79960.got - 2010.06.03 17:49:19.
