data_PCOD9251588
_publ_section_title
;
Structure prediction by ZEFSAII (Michael W. Deem and Ramdas Pophale) SiO2 
 PCOD9251588
Probable space group: P 21/C
;
_chemical_formula_sum "Si O2"
_cell_formula_units_Z 24
_cell_length_a 18.168032
_cell_length_b 9.435759
_cell_length_c 14.078441
_cell_angle_alpha 90.000000
_cell_angle_beta 22.701663
_cell_angle_gamma 90.000000
_cell_volume 931.431675
_symmetry_space_group_name_H-M "P 21/C"
_symmetry_group_IT_number 14
_symmetry_cell_setting 'monoclinic'
loop_
_space_group_symop_operation_xyz
x,y,z
-x,1/2+y,1/2-z
-x,-y,-z
x,1/2-y,1/2+z
loop_
_atom_site_type_symbol
_atom_site_label
_atom_site_fract_x
_atom_site_fract_y
_atom_site_fract_z
Si Si1 0.398244 0.960344 0.469020
Si Si2 0.090090 0.323961 0.076088
Si Si3 0.295971 0.716511 0.703515
Si Si4 0.209812 0.894076 0.508152
Si Si5 0.843617 0.731715 0.705852
Si Si6 0.280392 0.988733 0.050986
O O1 0.417068 0.855416 0.534780
O O2 0.318204 0.864738 0.476897
O O3 0.241824 0.078131 0.676523
O O4 0.586927 0.025539 0.198905
O O5 0.990354 0.189456 0.243430
O O6 0.922761 0.424114 0.233932
O O7 0.196126 0.435254 0.016773
O O8 0.196234 0.274854 0.855649
O O9 0.308183 0.661891 0.795918
O O10 0.345156 0.594768 0.568572
O O11 0.072048 0.758899 0.952218
O O12 0.746174 0.848551 0.888297
#
# Coordination Sequence:
#
# PCOD9251588 Si02
#       6
#     4   4   4   4   4   4
#     4  12  26  40  70 102 135 176 224 280 336 394
#     4  11  24  43  69  96 133 180 226 273 326 403
#     4  11  22  45  66  95 135 178 224 275 328 401
#     4  12  24  42  70 104 130 175 237 270 324 408
#     4  11  21  43  69  92 131 184 220 264 338 399
#     4  11  22  46  64  94 140 179 212 280 345 378
#
# _framework density 25.766787000000001
#
# number of rings (size 3 to 8) (size 9 to 14) (size 15 to 20)
#    0.000    0.667    6.667    3.500    2.333    0.667 
#    0.000    0.833    0.000    0.000    0.000    0.000 
#    0.000    0.000    0.000    0.000    0.000    0.000 
#
# Total GULP energy -134624.113347 kJ/mol
# GULP energy per Si atom -5609.338056 kJ/mol
# Density = 2.570814 g / cm^3
# Si number density = 25.766787 Si / 1000 Ang^3
#
#
#
# Elastic Constant Matrix: (Units=GPa)
#
#
# Indices 1 2 3 4 5 6 
#
# 1 47.4562 25.4979 6.3329 0.0000 2.9372 0.0000
# 2 25.4979 115.8272 37.0885 0.0000 5.2963 0.0000
# 3 6.3329 37.0885 100.7517 0.0000 1.8468 0.0000
# 4 0.0000 0.0000 0.0000 45.2352 0.0000 18.2605
# 5 2.9372 5.2963 1.8468 0.0000 25.5170 0.0000
# 6 0.0000 0.0000 0.0000 18.2605 0.0000 30.0865
#
#
#
# Elastic Compliance Matrix: (Units=1/GPa)
#
#
# Indices 1 2 3 4 5 6 
#
# 1 0.023992 -0.005364 0.000497 0.000000 -0.001684 0.000000
# 2 -0.005364 0.011067 -0.003711 0.000000 -0.001411 0.000000
# 3 0.000497 -0.003711 0.011262 0.000000 -0.000102 0.000000
# 4 0.000000 0.000000 0.000000 0.029281 0.000000 -0.017771
# 5 -0.001684 -0.001411 -0.000102 0.000000 0.039684 0.000000
# 6 0.000000 0.000000 0.000000 -0.017771 0.000000 0.044024
#
#
# Mechanical properties :
#
#
# Convention : Reuss Voigt Hill
#
# Bulk Modulus (GPa) = 34.28623 44.65264 39.46943
# Shear Modulus (GPa) = 26.85487 33.17544 30.01515
#
# Velocity S-wave (km/s) = 3.23186 3.59211 3.41673
# Velocity P-wave (km/s) = 5.22128 5.87975 5.56027
#
# Compressibility (1/GPa) = 0.02916623
#
# Stress axis : x y z
#
# Youngs Moduli (GPa) = 41.68081 90.35775 88.79347
#
# Poissons Ratio (x) = 0.48466 -0.04416
# Poissons Ratio (y) = 0.22356 0.32951
# Poissons Ratio (z) = -0.02073 0.33532
#
# Static dielectric constant tensor:
#      x y z
#    x 2.016010 0.000000 -0.064870 
#    y 0.000000 2.005050 0.000000 
#    z -0.064870 0.000000 2.016270 
# 
# From -- ./inp_files/62215.got.cif
#   From: 2010.05.17/outbox.cif.g08.bks.cpg/sg14_32_cif.got.tgz:62215.got - 2010.06.03 17:49:19.
