data_PCOD9251720
_publ_section_title
;
Structure prediction by ZEFSAII (Michael W. Deem and Ramdas Pophale) SiO2 
 PCOD9251720
Probable space group: P 21/C
;
_chemical_formula_sum "Si O2"
_cell_formula_units_Z 24
_cell_length_a 16.726883
_cell_length_b 4.965343
_cell_length_c 21.072418
_cell_angle_alpha 90.000000
_cell_angle_beta 31.744332
_cell_angle_gamma 90.000000
_cell_volume 920.813222
_symmetry_space_group_name_H-M "P 21/C"
_symmetry_group_IT_number 14
_symmetry_cell_setting 'monoclinic'
loop_
_space_group_symop_operation_xyz
x,y,z
-x,1/2+y,1/2-z
-x,-y,-z
x,1/2-y,1/2+z
loop_
_atom_site_type_symbol
_atom_site_label
_atom_site_fract_x
_atom_site_fract_y
_atom_site_fract_z
Si Si1 0.366327 0.006722 0.672235
Si Si2 0.512400 0.015457 0.221031
Si Si3 0.327960 0.255137 0.996853
Si Si4 0.202573 0.811248 0.905946
Si Si5 0.917510 0.674483 0.943856
Si Si6 0.256079 0.974343 0.176792
O O1 0.537347 0.968016 0.582046
O O2 0.245699 0.893704 0.805912
O O3 0.353727 0.795403 0.622172
O O4 0.317204 0.301999 0.684725
O O5 0.599992 0.775718 0.204096
O O6 0.585139 0.968056 0.103637
O O7 0.372913 0.763086 0.320469
O O8 0.195815 0.365198 0.040157
O O9 0.269603 0.116069 0.099594
O O10 0.890386 0.971417 0.990495
O O11 0.114817 0.536736 0.978242
O O12 0.084535 0.615346 0.805268
#
# Coordination Sequence:
#
# PCOD9251720 Si02
#       6
#     4   4   4   4   4   4
#     4  12  27  45  77 104 153 187 241 305 364 437
#     4  11  22  39  69 105 136 171 242 308 361 399
#     4  11  27  47  78 105 145 191 250 304 357 436
#     4  11  24  43  75 108 141 188 248 303 366 416
#     4  11  27  47  75 105 144 195 248 301 356 436
#     4  12  29  49  68 110 152 197 232 287 379 447
#
# _framework density 26.063915999999999
#
# number of rings (size 3 to 8) (size 9 to 14) (size 15 to 20)
#    0.000    0.667    1.667    5.000    2.333   13.333 
#    0.000    0.000    0.000    0.000    0.000    0.000 
#    0.000    0.000    0.000    0.000    0.000    0.000 
#
# Total GULP energy -134440.622967 kJ/mol
# GULP energy per Si atom -5601.692624 kJ/mol
# Density = 2.600459 g / cm^3
# Si number density = 26.063916 Si / 1000 Ang^3
#
#
#
# Elastic Constant Matrix: (Units=GPa)
#
#
# Indices 1 2 3 4 5 6 
#
# 1 139.5338 40.1216 68.2749 0.0000 -15.2958 0.0000
# 2 40.1216 189.4395 36.9979 0.0000 -13.2866 0.0000
# 3 68.2749 36.9979 120.4458 0.0000 -0.8807 0.0000
# 4 0.0000 0.0000 0.0000 45.5428 0.0000 7.0505
# 5 -15.2958 -13.2866 -0.8807 0.0000 51.8957 0.0000
# 6 0.0000 0.0000 0.0000 7.0505 0.0000 35.4761
#
#
#
# Elastic Compliance Matrix: (Units=1/GPa)
#
#
# Indices 1 2 3 4 5 6 
#
# 1 0.010499 -0.000927 -0.005646 0.000000 0.002761 0.000000
# 2 -0.000927 0.005802 -0.001248 0.000000 0.001191 0.000000
# 3 -0.005646 -0.001248 0.011873 0.000000 -0.001782 0.000000
# 4 0.000000 0.000000 0.000000 0.022654 0.000000 -0.004502
# 5 0.002761 0.001191 -0.001782 0.000000 0.020358 0.000000
# 6 0.000000 0.000000 0.000000 -0.004502 0.000000 0.029083
#
#
# Mechanical properties :
#
#
# Convention : Reuss Voigt Hill
#
# Bulk Modulus (GPa) = 79.79829 82.24532 81.02180
# Shear Modulus (GPa) = 41.63547 46.85123 44.24335
#
# Velocity S-wave (km/s) = 4.00113 4.24435 4.12454
# Velocity P-wave (km/s) = 7.21306 7.45943 7.33728
#
# Compressibility (1/GPa) = 0.01253160
#
# Stress axis : x y z
#
# Youngs Moduli (GPa) = 95.24929 172.34290 84.22169
#
# Poissons Ratio (x) = 0.15979 0.47554
# Poissons Ratio (y) = 0.08831 0.10512
# Poissons Ratio (z) = 0.53780 0.21510
#
# Static dielectric constant tensor:
#      x y z
#    x 2.125750 0.000000 -0.013350 
#    y 0.000000 2.028780 0.000000 
#    z -0.013350 0.000000 2.087780 
# 
# From -- ./inp_files/67810.got.cif
#   From: 2010.05.17/outbox.cif.g08.bks.cpg/sg14_34_cif.got.tgz:67810.got - 2010.06.03 17:49:19.
