data_PCOD9251711
_publ_section_title
;
Structure prediction by ZEFSAII (Michael W. Deem and Ramdas Pophale) SiO2 
 PCOD9251711
Probable space group: P 21/C
;
_chemical_formula_sum "Si O2"
_cell_formula_units_Z 32
_cell_length_a 14.402544
_cell_length_b 8.069368
_cell_length_c 21.875596
_cell_angle_alpha 90.000000
_cell_angle_beta 29.616025
_cell_angle_gamma 90.000000
_cell_volume 1256.400836
_symmetry_space_group_name_H-M "P 21/C"
_symmetry_group_IT_number 14
_symmetry_cell_setting 'monoclinic'
loop_
_space_group_symop_operation_xyz
x,y,z
-x,1/2+y,1/2-z
-x,-y,-z
x,1/2-y,1/2+z
loop_
_atom_site_type_symbol
_atom_site_label
_atom_site_fract_x
_atom_site_fract_y
_atom_site_fract_z
Si Si1 0.744906 0.345859 0.164879
Si Si2 0.370152 0.142784 0.689926
Si Si3 0.281214 0.716291 0.446153
Si Si4 0.181474 0.222224 0.411271
Si Si5 0.051984 0.173570 0.298930
Si Si6 0.818898 0.847459 0.960083
Si Si7 0.151562 0.804357 0.203067
Si Si8 0.475626 0.724719 0.092009
O O1 0.649942 0.254956 0.161503
O O2 0.756189 0.542587 0.148315
O O3 0.639385 0.315950 0.288308
O O4 0.955869 0.275182 0.044870
O O5 0.551604 0.249925 0.602988
O O6 0.255211 0.142102 0.820425
O O7 0.227940 0.224237 0.723198
O O8 0.448856 0.968237 0.621786
O O9 0.104059 0.838476 0.558210
O O10 0.207708 0.533045 0.501181
O O11 0.243413 0.242125 0.445661
O O12 0.934791 0.264743 0.313043
O O13 0.110323 0.992971 0.243831
O O14 0.685940 0.791520 0.980050
O O15 0.030273 0.810423 0.818640
O O16 0.369277 0.765687 0.090099
#
# Coordination Sequence:
#
# PCOD9251711 Si02
#       8
#     4   4   4   4   4   4   4   4
#     4  11  22  39  66  98 135 175 215 265 326 390
#     4  12  25  43  68  99 134 174 218 268 326 388
#     4  12  25  43  68  99 134 174 218 268 326 388
#     4  11  22  39  66  98 135 175 215 265 326 390
#     4  12  26  47  70  97 130 170 220 272 326 386
#     4  12  25  43  68  99 134 174 218 268 326 388
#     4  12  26  47  70  97 130 170 220 272 326 386
#     4  12  25  43  68  99 134 174 218 268 326 388
#
# _framework density 25.469580000000001
#
# number of rings (size 3 to 8) (size 9 to 14) (size 15 to 20)
#    0.000    0.250    2.500    8.250    0.000    2.000 
#    0.000    5.000    0.000    0.000    0.000    0.000 
#    0.000    0.000    0.000    0.000    0.000    0.000 
#
# Total GULP energy -179635.648834 kJ/mol
# GULP energy per Si atom -5613.614026 kJ/mol
# Density = 2.541161 g / cm^3
# Si number density = 25.469580 Si / 1000 Ang^3
#
#
#
# Elastic Constant Matrix: (Units=GPa)
#
#
# Indices 1 2 3 4 5 6 
#
# 1 147.4300 9.5304 11.2191 0.0000 -20.6248 0.0000
# 2 9.5304 70.3095 0.6081 0.0000 -6.9702 0.0000
# 3 11.2191 0.6081 62.0028 0.0000 -5.2491 0.0000
# 4 0.0000 0.0000 0.0000 32.9844 0.0000 0.9187
# 5 -20.6248 -6.9702 -5.2491 0.0000 38.2250 0.0000
# 6 0.0000 0.0000 0.0000 0.9187 0.0000 35.9616
#
#
#
# Elastic Compliance Matrix: (Units=1/GPa)
#
#
# Indices 1 2 3 4 5 6 
#
# 1 0.007426 -0.000626 -0.001020 0.000000 0.003753 0.000000
# 2 -0.000626 0.014538 0.000168 0.000000 0.002336 0.000000
# 3 -0.001020 0.000168 0.016459 0.000000 0.001741 0.000000
# 4 0.000000 0.000000 0.000000 0.030339 0.000000 -0.000775
# 5 0.003753 0.002336 0.001741 0.000000 0.028851 0.000000
# 6 0.000000 0.000000 0.000000 -0.000775 0.000000 0.027827
#
#
# Mechanical properties :
#
#
# Convention : Reuss Voigt Hill
#
# Bulk Modulus (GPa) = 28.19446 35.82861 32.01154
# Shear Modulus (GPa) = 35.65923 38.65984 37.15953
#
# Velocity S-wave (km/s) = 3.74581 3.90023 3.82380
# Velocity P-wave (km/s) = 5.45912 5.86346 5.66490
#
# Compressibility (1/GPa) = 0.03546796
#
# Stress axis : x y z
#
# Youngs Moduli (GPa) = 134.66368 68.78616 60.75869
#
# Poissons Ratio (x) = 0.04304 0.06197
# Poissons Ratio (y) = 0.08426 -0.01023
# Poissons Ratio (z) = 0.13734 -0.01159
#
# Static dielectric constant tensor:
#      x y z
#    x 2.055310 0.000000 0.013650 
#    y 0.000000 1.943180 0.000000 
#    z 0.013650 0.000000 1.998800 
# 
# From -- ./inp_files/73733.got.cif
#   From: 2010.05.17/outbox.cif.g08.bks.cpg/sg14_37_cif.got.tgz:73733.got - 2010.06.03 17:49:19.
