data_PCOD9251808
_publ_section_title
;
Structure prediction by ZEFSAII (Michael W. Deem and Ramdas Pophale) SiO2 
 PCOD9251808
Probable space group: P 21/C
;
_chemical_formula_sum "Si O2"
_cell_formula_units_Z 26
_cell_length_a 8.545004
_cell_length_b 8.445052
_cell_length_c 16.579445
_cell_angle_alpha 90.000000
_cell_angle_beta 114.495054
_cell_angle_gamma 90.000000
_cell_volume 1088.741002
_symmetry_space_group_name_H-M "P 21/C"
_symmetry_group_IT_number 14
_symmetry_cell_setting 'monoclinic'
loop_
_space_group_symop_operation_xyz
x,y,z
-x,1/2+y,1/2-z
-x,-y,-z
x,1/2-y,1/2+z
loop_
_atom_site_type_symbol
_atom_site_label
_atom_site_fract_x
_atom_site_fract_y
_atom_site_fract_z
Si Si1 0.702096 0.876928 0.790397
Si Si2 0.165128 0.935206 0.489406
Si Si3 0.978499 0.173929 0.704274
Si Si4 0.258474 0.560594 0.294093
Si Si5 0.809530 0.430737 0.458521
Si Si6 0.581551 0.942434 0.338521
Si Si7 0.500000 0.500000 0.500000
O O1 0.590454 0.739553 0.811471
O O2 0.882803 0.795030 0.806709
O O3 0.734165 0.022395 0.856463
O O4 0.592033 0.954547 0.695405
O O5 0.116501 0.926251 0.385675
O O6 0.197307 0.755147 0.524332
O O7 0.322378 0.038894 0.555891
O O8 0.000000 0.000000 0.500000
O O9 0.831784 0.270037 0.718076
O O10 0.103443 0.061835 0.780927
O O11 0.314345 0.523180 0.214182
O O12 0.408897 0.533072 0.390369
O O13 0.690540 0.508957 0.500442
O O14 0.000000 0.500000 0.500000
#
# Coordination Sequence:
#
# PCOD9251808 Si02
#       7
#     4   4   4   4   4   4   2
#     4  11  22  43  64 103 130 185 236 284 361 440
#     4  12  22  44  71 101 139 190 241 301 367 446
#     4  11  25  45  66 100 139 184 243 300 376 444
#     4  11  24  45  68 100 142 182 237 309 373 435
#     4  12  23  42  75 101 139 193 240 300 374 446
#     4  11  24  40  71  96 139 178 239 298 357 443
#     4  12  24  44  70 106 144 184 246 306 362 440
#
# _framework density 23.880794999999999
#
# number of rings (size 3 to 8) (size 9 to 14) (size 15 to 20)
#    0.000    0.615    7.692    0.923    2.154    3.692 
#    2.769    0.000    0.000    4.615    0.000    0.000 
#    0.000    0.000    0.000    0.000    0.000    0.000 
#
# Total GULP energy -144945.772800 kJ/mol
# GULP energy per Si atom -5574.837415 kJ/mol
# Density = 2.382644 g / cm^3
# Si number density = 23.880795 Si / 1000 Ang^3
#
#
#
# Elastic Constant Matrix: (Units=GPa)
#
#
# Indices 1 2 3 4 5 6 
#
# 1 91.0000 14.4521 41.8055 0.0000 0.3447 0.0000
# 2 14.4521 58.8943 23.0923 0.0000 14.5539 0.0000
# 3 41.8055 23.0923 117.7843 0.0000 30.3911 0.0000
# 4 0.0000 0.0000 0.0000 32.2191 0.0000 3.9438
# 5 0.3447 14.5539 30.3911 0.0000 30.2506 0.0000
# 6 0.0000 0.0000 0.0000 3.9438 0.0000 33.9785
#
#
#
# Elastic Compliance Matrix: (Units=1/GPa)
#
#
# Indices 1 2 3 4 5 6 
#
# 1 0.014444 -0.002902 -0.006581 0.000000 0.007844 0.000000
# 2 -0.002902 0.020164 -0.000579 0.000000 -0.009087 0.000000
# 3 -0.006581 -0.000579 0.014644 0.000000 -0.014359 0.000000
# 4 0.000000 0.000000 0.000000 0.031485 0.000000 -0.003654
# 5 0.007844 -0.009087 -0.014359 0.000000 0.051765 0.000000
# 6 0.000000 0.000000 0.000000 -0.003654 0.000000 0.029855
#
#
# Mechanical properties :
#
#
# Convention : Reuss Voigt Hill
#
# Bulk Modulus (GPa) = 34.33122 47.37539 40.85331
# Shear Modulus (GPa) = 26.01584 31.84488 28.93036
#
# Velocity S-wave (km/s) = 3.30419 3.65566 3.48436
# Velocity P-wave (km/s) = 5.38184 6.14002 5.77339
#
# Compressibility (1/GPa) = 0.02912801
#
# Stress axis : x y z
#
# Youngs Moduli (GPa) = 69.23436 49.59299 68.28514
#
# Poissons Ratio (x) = 0.14392 0.44941
# Poissons Ratio (y) = 0.20093 0.03951
# Poissons Ratio (z) = 0.45566 0.02870
#
# Static dielectric constant tensor:
#      x y z
#    x 1.953500 0.000000 0.017060 
#    y 0.000000 1.945270 0.000000 
#    z 0.017060 0.000000 1.916080 
# 
# From -- ./inp_files/64645.got.cif
#   From: 2010.05.17/outbox.cif.g08.bks.cpg/sg14_33_cif.got.tgz:64645.got - 2010.06.03 17:49:19.
