data_PCOD9251028
_publ_section_title
;
Structure prediction by ZEFSAII (Michael W. Deem and Ramdas Pophale) SiO2 
 PCOD9251028
Probable space group: P 21/C
;
_chemical_formula_sum "Si O2"
_cell_formula_units_Z 20
_cell_length_a 6.989475
_cell_length_b 20.226475
_cell_length_c 8.167099
_cell_angle_alpha 90.000000
_cell_angle_beta 39.985689
_cell_angle_gamma 90.000000
_cell_volume 741.943383
_symmetry_space_group_name_H-M "P 21/C"
_symmetry_group_IT_number 14
_symmetry_cell_setting 'monoclinic'
loop_
_space_group_symop_operation_xyz
x,y,z
-x,1/2+y,1/2-z
-x,-y,-z
x,1/2-y,1/2+z
loop_
_atom_site_type_symbol
_atom_site_label
_atom_site_fract_x
_atom_site_fract_y
_atom_site_fract_z
Si Si1 0.949629 0.834253 0.176280
Si Si2 0.360045 0.502681 0.272591
Si Si3 0.232199 0.123016 0.033385
Si Si4 0.503352 0.231894 0.062869
Si Si5 0.200659 0.112959 0.407913
O O1 0.995952 0.857281 0.960381
O O2 0.619441 0.804165 0.381716
O O3 0.971942 0.887546 0.307214
O O4 0.165717 0.775324 0.088547
O O5 0.423695 0.436902 0.335973
O O6 0.518580 0.564688 0.254545
O O7 0.000000 0.500000 0.500000
O O8 0.500000 0.500000 0.000000
O O9 0.442543 0.184948 0.945136
O O10 0.081558 0.100226 0.303047
O O11 0.305593 0.189367 0.320968
#
# Coordination Sequence:
#
# PCOD9251028 Si02
#       5
#     4   4   4   4   4
#     4  12  23  51  68 109 146 193 246 311 374 450
#     4  12  25  47  78 108 152 202 250 319 381 454
#     4  10  25  46  71 108 142 195 245 311 368 453
#     4  10  27  43  75 104 146 192 250 301 380 452
#     4  10  25  45  71 106 142 193 248 301 375 450
#
# _framework density 26.956232
#
# number of rings (size 3 to 8) (size 9 to 14) (size 15 to 20)
#    1.200    0.000    2.000    3.000    0.000    9.600 
#    3.600    3.000    0.000    0.000    0.000    0.000 
#    0.000    0.000    0.000    0.000    0.000    0.000 
#
# Total GULP energy -111801.815054 kJ/mol
# GULP energy per Si atom -5590.090753 kJ/mol
# Density = 2.689488 g / cm^3
# Si number density = 26.956232 Si / 1000 Ang^3
#
#
#
# Elastic Constant Matrix: (Units=GPa)
#
#
# Indices 1 2 3 4 5 6 
#
# 1 185.7602 34.0432 78.6353 0.0000 48.3713 0.0000
# 2 34.0432 59.8601 9.3281 0.0000 8.6185 0.0000
# 3 78.6353 9.3281 136.9139 0.0000 29.4272 0.0000
# 4 0.0000 0.0000 0.0000 25.4157 0.0000 5.2484
# 5 48.3713 8.6185 29.4272 0.0000 54.8805 0.0000
# 6 0.0000 0.0000 0.0000 5.2484 0.0000 42.3435
#
#
#
# Elastic Compliance Matrix: (Units=1/GPa)
#
#
# Indices 1 2 3 4 5 6 
#
# 1 0.009091 -0.003803 -0.003807 0.000000 -0.005374 0.000000
# 2 -0.003803 0.018737 0.000927 0.000000 -0.000087 0.000000
# 3 -0.003807 0.000927 0.009876 0.000000 -0.002085 0.000000
# 4 0.000000 0.000000 0.000000 0.040379 0.000000 -0.005005
# 5 -0.005374 -0.000087 -0.002085 0.000000 0.024090 0.000000
# 6 0.000000 0.000000 0.000000 -0.005005 0.000000 0.024237
#
#
# Mechanical properties :
#
#
# Convention : Reuss Voigt Hill
#
# Bulk Modulus (GPa) = 41.09215 69.61639 55.35427
# Shear Modulus (GPa) = 33.80891 41.89647 37.85269
#
# Velocity S-wave (km/s) = 3.54533 3.94666 3.75137
# Velocity P-wave (km/s) = 5.66006 6.83008 6.27241
#
# Compressibility (1/GPa) = 0.02433555
#
# Stress axis : x y z
#
# Youngs Moduli (GPa) = 109.99311 53.37103 101.25964
#
# Poissons Ratio (x) = 0.20299 0.38553
# Poissons Ratio (y) = 0.41834 -0.09382
# Poissons Ratio (z) = 0.41878 -0.04945
#
# Static dielectric constant tensor:
#      x y z
#    x 2.106170 0.000000 0.056390 
#    y 0.000000 2.143270 0.000000 
#    z 0.056390 0.000000 2.158510 
# 
# From -- ./inp_files/6472.got.cif
#   From: 2010.05.17/outbox.cif.g08.bks.cpg/sg14_4_cif.got.tgz:6472.got - 2010.06.03 17:49:19.
