data_PCOD9251369
_publ_section_title
;
Structure prediction by ZEFSAII (Michael W. Deem and Ramdas Pophale) SiO2 
 PCOD9251369
Probable space group: P 21/C
;
_chemical_formula_sum "Si O2"
_cell_formula_units_Z 32
_cell_length_a 21.767749
_cell_length_b 11.806723
_cell_length_c 21.021691
_cell_angle_alpha 90.000000
_cell_angle_beta 13.298622
_cell_angle_gamma 90.000000
_cell_volume 1242.762376
_symmetry_space_group_name_H-M "P 21/C"
_symmetry_group_IT_number 14
_symmetry_cell_setting 'monoclinic'
loop_
_space_group_symop_operation_xyz
x,y,z
-x,1/2+y,1/2-z
-x,-y,-z
x,1/2-y,1/2+z
loop_
_atom_site_type_symbol
_atom_site_label
_atom_site_fract_x
_atom_site_fract_y
_atom_site_fract_z
Si Si1 0.774448 0.828358 0.957060
Si Si2 0.172343 0.375904 0.459727
Si Si3 0.296861 0.942957 0.647354
Si Si4 0.947104 0.247577 0.518492
Si Si5 0.169508 0.372685 0.915346
Si Si6 0.292960 0.674768 0.435458
Si Si7 0.459741 0.179458 0.448702
Si Si8 0.309324 0.525462 0.543660
O O1 0.040731 0.755920 0.678294
O O2 0.653202 0.899952 0.021119
O O3 0.820123 0.902510 0.973865
O O4 0.538840 0.746329 0.214800
O O5 0.095397 0.243548 0.527744
O O6 0.945629 0.455894 0.658892
O O7 0.454767 0.383466 0.138601
O O8 0.137897 0.861163 0.856173
O O9 0.412291 0.069377 0.542559
O O10 0.659203 0.227002 0.777385
O O11 0.097710 0.164776 0.415660
O O12 0.161099 0.275005 0.249015
O O13 0.456856 0.416768 0.650019
O O14 0.959719 0.468812 0.144894
O O15 0.411964 0.636975 0.246546
O O16 0.246497 0.591063 0.540905
#
# Coordination Sequence:
#
# PCOD9251369 Si02
#       8
#     4   4   4   4   4   4   4   4
#     4  12  25  41  67  97 137 174 221 276 348 399
#     4  11  20  38  61  94 134 167 212 272 329 401
#     4  11  22  36  64  97 132 174 222 265 330 410
#     4  11  23  40  65  94 132 182 223 277 325 395
#     4  11  22  41  66  93 127 168 226 270 322 391
#     4  12  25  44  65 100 139 175 218 276 340 420
#     4  12  24  41  62  94 140 177 220 267 346 402
#     4  12  23  43  69  97 129 173 222 279 337 399
#
# _framework density 25.749091
#
# number of rings (size 3 to 8) (size 9 to 14) (size 15 to 20)
#    0.000    0.500    2.500    8.250    0.000    2.000 
#    0.000    0.000    0.000   15.000    0.000    0.000 
#    0.000    0.000    0.000    0.000    0.000    0.000 
#
# Total GULP energy -178839.035386 kJ/mol
# GULP energy per Si atom -5588.719856 kJ/mol
# Density = 2.569049 g / cm^3
# Si number density = 25.749091 Si / 1000 Ang^3
#
#
#
# Elastic Constant Matrix: (Units=GPa)
#
#
# Indices 1 2 3 4 5 6 
#
# 1 117.7868 21.4564 32.9302 0.0000 1.9199 0.0000
# 2 21.4564 34.1988 -10.2324 0.0000 8.1682 0.0000
# 3 32.9302 -10.2324 127.1777 0.0000 14.0180 0.0000
# 4 0.0000 0.0000 0.0000 21.5164 0.0000 5.7905
# 5 1.9199 8.1682 14.0180 0.0000 48.6966 0.0000
# 6 0.0000 0.0000 0.0000 5.7905 0.0000 46.1328
#
#
#
# Elastic Compliance Matrix: (Units=1/GPa)
#
#
# Indices 1 2 3 4 5 6 
#
# 1 0.011079 -0.008586 -0.003790 0.000000 0.002094 0.000000
# 2 -0.008586 0.038356 0.006177 0.000000 -0.007873 0.000000
# 3 -0.003790 0.006177 0.009748 0.000000 -0.003693 0.000000
# 4 0.000000 0.000000 0.000000 0.048101 0.000000 -0.006038
# 5 0.002094 -0.007873 -0.003693 0.000000 0.022836 0.000000
# 6 0.000000 0.000000 0.000000 -0.006038 0.000000 0.022434
#
#
# Mechanical properties :
#
#
# Convention : Reuss Voigt Hill
#
# Bulk Modulus (GPa) = 21.37402 40.83019 31.10211
# Shear Modulus (GPa) = 27.69324 38.93642 33.31483
#
# Velocity S-wave (km/s) = 3.28304 3.89285 3.60088
# Velocity P-wave (km/s) = 4.76341 6.00809 5.42159
#
# Compressibility (1/GPa) = 0.04678577
#
# Stress axis : x y z
#
# Youngs Moduli (GPa) = 90.25698 26.07147 102.57993
#
# Poissons Ratio (x) = 0.22384 0.38882
# Poissons Ratio (y) = 0.77491 -0.63363
# Poissons Ratio (z) = 0.34211 -0.16104
#
# Static dielectric constant tensor:
#      x y z
#    x 2.154070 0.000000 -0.055530 
#    y 0.000000 2.068520 0.000000 
#    z -0.055530 0.000000 1.903250 
# 
# From -- ./inp_files/75019.got.cif
#   From: 2010.05.17/outbox.cif.g08.bks.cpg/sg14_38_cif.got.tgz:75019.got - 2010.06.03 17:49:19.
