data_PCOD9251889
_publ_section_title
;
Structure prediction by ZEFSAII (Michael W. Deem and Ramdas Pophale) SiO2 
 PCOD9251889
Probable space group: P 21/C
;
_chemical_formula_sum "Si O2"
_cell_formula_units_Z 22
_cell_length_a 7.234195
_cell_length_b 22.348617
_cell_length_c 8.125853
_cell_angle_alpha 90.000000
_cell_angle_beta 38.428478
_cell_angle_gamma 90.000000
_cell_volume 816.539072
_symmetry_space_group_name_H-M "P 21/C"
_symmetry_group_IT_number 14
_symmetry_cell_setting 'monoclinic'
loop_
_space_group_symop_operation_xyz
x,y,z
-x,1/2+y,1/2-z
-x,-y,-z
x,1/2-y,1/2+z
loop_
_atom_site_type_symbol
_atom_site_label
_atom_site_fract_x
_atom_site_fract_y
_atom_site_fract_z
Si Si1 0.939699 0.134957 0.367916
Si Si2 0.500000 0.500000 0.000000
Si Si3 0.744444 0.268427 0.409280
Si Si4 0.275873 0.396438 0.305962
Si Si5 0.639347 0.803022 0.544469
Si Si6 0.690976 0.964622 0.728649
O O1 0.845492 0.204417 0.413617
O O2 0.196124 0.102300 0.296514
O O3 0.623644 0.101933 0.623641
O O4 0.050501 0.118642 0.106065
O O5 0.772925 0.540559 0.743028
O O6 0.467055 0.467202 0.837290
O O7 0.617087 0.309963 0.642333
O O8 0.477262 0.256126 0.470749
O O9 0.033263 0.292061 0.115037
O O10 0.300430 0.348557 0.143600
O O11 0.000000 0.000000 0.500000
O O12 0.500000 0.000000 0.000000
#
# Coordination Sequence:
#
# PCOD9251889 Si02
#       6
#     4   2   4   4   4   4
#     4  11  22  46  67  96 142 193 227 299 370 428
#     4  12  26  44  76 106 138 200 242 300 358 432
#     4  11  23  41  70  95 140 184 230 290 371 414
#     4  11  24  43  69  99 139 185 247 293 358 432
#     4  11  23  42  65 101 136 181 232 300 345 439
#     4  12  25  45  69 104 146 182 243 297 355 428
#
# _framework density 26.942986000000001
#
# number of rings (size 3 to 8) (size 9 to 14) (size 15 to 20)
#    0.000    0.727    3.636    5.455    0.000    5.818 
#    0.000    0.000    0.000    0.000    0.000    0.000 
#    0.000    0.000    0.000    0.000    0.000    0.000 
#
# Total GULP energy -122554.141798 kJ/mol
# GULP energy per Si atom -5570.642809 kJ/mol
# Density = 2.688166 g / cm^3
# Si number density = 26.942986 Si / 1000 Ang^3
#
#
#
# Elastic Constant Matrix: (Units=GPa)
#
#
# Indices 1 2 3 4 5 6 
#
# 1 73.4782 -24.0352 -4.5395 0.0000 -3.9741 0.0000
# 2 -24.0352 65.1160 70.3900 0.0000 9.8659 0.0000
# 3 -4.5395 70.3900 418.3066 0.0000 37.1561 0.0000
# 4 0.0000 0.0000 0.0000 31.9783 0.0000 -10.7030
# 5 -3.9741 9.8659 37.1561 0.0000 56.1216 0.0000
# 6 0.0000 0.0000 0.0000 -10.7030 0.0000 21.3839
#
#
#
# Elastic Compliance Matrix: (Units=1/GPa)
#
#
# Indices 1 2 3 4 5 6 
#
# 1 0.015826 0.006873 -0.001038 0.000000 0.000600 0.000000
# 2 0.006873 0.021844 -0.003510 0.000000 -0.001030 0.000000
# 3 -0.001038 -0.003510 0.003104 0.000000 -0.001512 0.000000
# 4 0.000000 0.000000 0.000000 0.037564 0.000000 0.018801
# 5 0.000600 -0.001030 -0.001512 0.000000 0.019043 0.000000
# 6 0.000000 0.000000 0.000000 0.018801 0.000000 0.056175
#
#
# Mechanical properties :
#
#
# Convention : Reuss Voigt Hill
#
# Bulk Modulus (GPa) = 22.01465 71.17013 46.59239
# Shear Modulus (GPa) = 30.47908 56.23578 43.35743
#
# Velocity S-wave (km/s) = 3.36705 4.57356 4.01587
# Velocity P-wave (km/s) = 4.82748 7.37308 6.23165
#
# Compressibility (1/GPa) = 0.04542429
#
# Stress axis : x y z
#
# Youngs Moduli (GPa) = 63.18743 45.77900 322.14452
#
# Poissons Ratio (x) = -0.31463 0.33440
# Poissons Ratio (y) = -0.43428 1.13064
# Poissons Ratio (z) = 0.06559 0.16067
#
# Static dielectric constant tensor:
#      x y z
#    x 2.715670 0.000000 1.030390 
#    y 0.000000 2.744690 0.000000 
#    z 1.030390 0.000000 4.119590 
# 
# From -- ./inp_files/10604.got.cif
#   From: 2010.05.17/outbox.cif.g08.bks.cpg/sg14_6_cif.got.tgz:10604.got - 2010.06.03 17:49:19.
