data_PCOD9251300
_publ_section_title
;
Structure prediction by ZEFSAII (Michael W. Deem and Ramdas Pophale) SiO2 
 PCOD9251300
Probable space group: P 21/C
;
_chemical_formula_sum "Si O2"
_cell_formula_units_Z 24
_cell_length_a 20.544101
_cell_length_b 5.426675
_cell_length_c 18.396045
_cell_angle_alpha 90.000000
_cell_angle_beta 153.616328
_cell_angle_gamma 90.000000
_cell_volume 911.380701
_symmetry_space_group_name_H-M "P 21/C"
_symmetry_group_IT_number 14
_symmetry_cell_setting 'monoclinic'
loop_
_space_group_symop_operation_xyz
x,y,z
-x,1/2+y,1/2-z
-x,-y,-z
x,1/2-y,1/2+z
loop_
_atom_site_type_symbol
_atom_site_label
_atom_site_fract_x
_atom_site_fract_y
_atom_site_fract_z
Si Si1 0.060419 0.251366 0.096707
Si Si2 0.639720 0.678565 0.931624
Si Si3 0.885487 0.011653 0.041397
Si Si4 0.423053 0.168780 0.292984
Si Si5 0.669738 0.017697 0.086889
Si Si6 0.846736 0.262849 0.660682
O O1 0.236889 0.309775 0.278516
O O2 0.984145 0.215131 0.099383
O O3 0.000000 0.500000 0.000000
O O4 0.000000 0.000000 0.000000
O O5 0.585501 0.702414 0.795289
O O6 0.521887 0.566262 0.870594
O O7 0.773668 0.496085 0.064274
O O8 0.677023 0.931556 0.008986
O O9 0.843743 0.100165 0.079570
O O10 0.982514 0.771171 0.150716
O O11 0.737627 0.932850 0.850927
O O12 0.510848 0.353174 0.435526
O O13 0.783985 0.231566 0.182762
#
# Coordination Sequence:
#
# PCOD9251300 Si02
#       6
#     4   4   4   4   4   4
#     4  12  29  53  74  96 141 211 268 310 365 436
#     4  11  19  38  62 104 151 181 205 276 396 481
#     4  12  23  42  69 111 140 184 252 319 366 460
#     4  11  22  36  67 110 146 182 228 297 393 464
#     4  11  23  45  69 100 146 192 228 301 381 469
#     4  11  22  38  69 106 147 177 228 299 399 441
#
# _framework density 26.333673000000001
#
# number of rings (size 3 to 8) (size 9 to 14) (size 15 to 20)
#    0.000    0.667    5.000    4.000    2.333    1.333 
#    0.000    1.667    0.000    0.000    0.000    0.000 
#    0.000    0.000    0.000    0.000    0.000    0.000 
#
# Total GULP energy -133669.040514 kJ/mol
# GULP energy per Si atom -5569.543355 kJ/mol
# Density = 2.627374 g / cm^3
# Si number density = 26.333673 Si / 1000 Ang^3
#
#
#
# Elastic Constant Matrix: (Units=GPa)
#
#
# Indices 1 2 3 4 5 6 
#
# 1 51.4028 43.0800 46.6552 0.0000 6.8641 0.0000
# 2 43.0800 186.2236 100.2971 0.0000 19.3931 0.0000
# 3 46.6552 100.2971 192.1462 0.0000 31.6073 0.0000
# 4 0.0000 0.0000 0.0000 462.0500 0.0000 29.6777
# 5 6.8641 19.3931 31.6073 0.0000 45.2370 0.0000
# 6 0.0000 0.0000 0.0000 29.6777 0.0000 41.1288
#
#
#
# Elastic Compliance Matrix: (Units=1/GPa)
#
#
# Indices 1 2 3 4 5 6 
#
# 1 0.026725 -0.003756 -0.004662 0.000000 0.000813 0.000000
# 2 -0.003756 0.008010 -0.003161 0.000000 -0.000655 0.000000
# 3 -0.004662 -0.003161 0.008640 0.000000 -0.003974 0.000000
# 4 0.000000 0.000000 0.000000 0.002269 0.000000 -0.001638
# 5 0.000813 -0.000655 -0.003974 0.000000 0.025040 0.000000
# 6 0.000000 0.000000 0.000000 -0.001638 0.000000 0.025496
#
#
# Mechanical properties :
#
#
# Convention : Reuss Voigt Hill
#
# Bulk Modulus (GPa) = 49.46524 89.98192 69.72358
# Shear Modulus (GPa) = 39.65808 125.66584 82.66196
#
# Velocity S-wave (km/s) = 3.88491 6.91550 5.60878
# Velocity P-wave (km/s) = 6.24085 9.89998 8.27520
#
# Compressibility (1/GPa) = 0.02021621
#
# Stress axis : x y z
#
# Youngs Moduli (GPa) = 37.41776 124.85142 115.73814
#
# Poissons Ratio (x) = 0.46896 0.53960
# Poissons Ratio (y) = 0.14055 0.36585
# Poissons Ratio (z) = 0.17445 0.39466
#
# Static dielectric constant tensor:
#      x y z
#    x 1.917020 0.000000 -0.335140 
#    y 0.000000 2.029800 0.000000 
#    z -0.335140 0.000000 1.851520 
# 
# From -- ./inp_files/75147.got.cif
#   From: 2010.05.17/outbox.cif.g08.bks.cpg/sg14_38_cif.got.tgz:75147.got - 2010.06.03 17:49:19.
