data_PCOD9251593
_publ_section_title
;
Structure prediction by ZEFSAII (Michael W. Deem and Ramdas Pophale) SiO2 
 PCOD9251593
Probable space group: P 21/C
;
_chemical_formula_sum "Si O2"
_cell_formula_units_Z 20
_cell_length_a 8.672685
_cell_length_b 17.343429
_cell_length_c 8.923699
_cell_angle_alpha 90.000000
_cell_angle_beta 50.594397
_cell_angle_gamma 90.000000
_cell_volume 1037.118414
_symmetry_space_group_name_H-M "P 21/C"
_symmetry_group_IT_number 14
_symmetry_cell_setting 'monoclinic'
loop_
_space_group_symop_operation_xyz
x,y,z
-x,1/2+y,1/2-z
-x,-y,-z
x,1/2-y,1/2+z
loop_
_atom_site_type_symbol
_atom_site_label
_atom_site_fract_x
_atom_site_fract_y
_atom_site_fract_z
Si Si1 0.912716 0.526865 0.210193
Si Si2 0.294976 0.325545 0.786722
Si Si3 0.839518 0.667756 0.780617
Si Si4 0.273619 0.605234 0.501520
Si Si5 0.720562 0.500867 0.794582
O O1 0.819689 0.609898 0.239514
O O2 0.753298 0.461991 0.358191
O O3 0.098359 0.525336 0.209663
O O4 0.000000 0.500000 0.000000
O O5 0.234726 0.242729 0.759986
O O6 0.527083 0.344996 0.619616
O O7 0.238543 0.333395 0.998444
O O8 0.765517 0.591005 0.740068
O O9 0.078889 0.658950 0.634951
O O10 0.273434 0.555226 0.349834
O O11 0.500000 0.500000 0.000000
#
# Coordination Sequence:
#
# PCOD9251593 Si02
#       5
#     4   4   4   4   4
#     4  11  21  43  70  98 129 172 228 273 318 402
#     4  12  26  44  66 100 134 174 224 273 335 391
#     4  11  26  43  64  99 137 170 221 274 333 393
#     4  11  24  46  70  95 133 181 219 273 334 389
#     4  11  22  44  71  97 131 177 224 270 329 397
#
# _framework density 19.284200999999999
#
# number of rings (size 3 to 8) (size 9 to 14) (size 15 to 20)
#    0.000    0.800    6.000    3.000    5.600    3.200 
#    0.000    0.000    0.000    0.000    0.000    0.000 
#    0.000    0.000    0.000    0.000    0.000    0.000 
#
# Total GULP energy -111742.316172 kJ/mol
# GULP energy per Si atom -5587.115809 kJ/mol
# Density = 1.924031 g / cm^3
# Si number density = 19.284201 Si / 1000 Ang^3
#
#
#
# Elastic Constant Matrix: (Units=GPa)
#
#
# Indices 1 2 3 4 5 6 
#
# 1 67.8941 80.2456 42.9151 0.0000 -26.3260 0.0000
# 2 80.2456 132.7918 32.8817 0.0000 -15.9690 0.0000
# 3 42.9151 32.8817 124.5878 0.0000 -22.4269 0.0000
# 4 0.0000 0.0000 0.0000 23.7131 0.0000 -0.0502
# 5 -26.3260 -15.9690 -22.4269 0.0000 41.1806 0.0000
# 6 0.0000 0.0000 0.0000 -0.0502 0.0000 30.3788
#
#
#
# Elastic Compliance Matrix: (Units=1/GPa)
#
#
# Indices 1 2 3 4 5 6 
#
# 1 0.098280 -0.051722 -0.013862 0.000000 0.035223 0.000000
# 2 -0.051722 0.035458 0.005522 0.000000 -0.016308 0.000000
# 3 -0.013862 0.005522 0.011236 0.000000 -0.000601 0.000000
# 4 0.000000 0.000000 0.000000 0.042171 0.000000 0.000070
# 5 0.035223 -0.016308 -0.000601 0.000000 0.040149 0.000000
# 6 0.000000 0.000000 0.000000 0.000070 0.000000 0.032918
#
#
# Mechanical properties :
#
#
# Convention : Reuss Voigt Hill
#
# Bulk Modulus (GPa) = 40.24219 70.81761 55.52990
# Shear Modulus (GPa) = 12.86607 30.33658 21.60132
#
# Velocity S-wave (km/s) = 2.58579 3.97057 3.35051
# Velocity P-wave (km/s) = 5.46153 7.60417 6.62011
#
# Compressibility (1/GPa) = 0.02484954
#
# Stress axis : x y z
#
# Youngs Moduli (GPa) = 10.17496 28.20267 89.00250
#
# Poissons Ratio (x) = 1.45871 1.23377
# Poissons Ratio (y) = 0.52627 -0.49151
# Poissons Ratio (z) = 0.14105 -0.15575
#
# Static dielectric constant tensor:
#      x y z
#    x 1.656530 0.000000 -0.009610 
#    y 0.000000 1.649650 0.000000 
#    z -0.009610 0.000000 1.682000 
# 
# From -- ./inp_files/9266.got.cif
#   From: 2010.05.17/outbox.cif.g08.bks.cpg/sg14_5_cif.got.tgz:9266.got - 2010.06.03 17:49:19.
