data_PCOD9251956
_publ_section_title
;
Structure prediction by ZEFSAII (Michael W. Deem and Ramdas Pophale) SiO2 
 PCOD9251956
Probable space group: P 21/C
;
_chemical_formula_sum "Si O2"
_cell_formula_units_Z 20
_cell_length_a 8.153106
_cell_length_b 5.218616
_cell_length_c 20.399860
_cell_angle_alpha 90.000000
_cell_angle_beta 116.913507
_cell_angle_gamma 90.000000
_cell_volume 773.962513
_symmetry_space_group_name_H-M "P 21/C"
_symmetry_group_IT_number 14
_symmetry_cell_setting 'monoclinic'
loop_
_space_group_symop_operation_xyz
x,y,z
-x,1/2+y,1/2-z
-x,-y,-z
x,1/2-y,1/2+z
loop_
_atom_site_type_symbol
_atom_site_label
_atom_site_fract_x
_atom_site_fract_y
_atom_site_fract_z
Si Si1 0.454634 0.181756 0.350814
Si Si2 0.725870 0.180749 0.789829
Si Si3 0.070389 0.208613 0.931906
Si Si4 0.217478 0.705660 0.999709
Si Si5 0.881144 0.954385 0.231361
O O1 0.587483 0.335701 0.324956
O O2 0.594409 0.107884 0.433221
O O3 0.283493 0.352152 0.343412
O O4 0.363440 0.962045 0.288465
O O5 0.771105 0.474934 0.778565
O O6 0.926481 0.098275 0.852716
O O7 0.152977 0.491067 0.936417
O O8 0.221381 0.993344 0.973501
O O9 0.938032 0.259627 0.971390
O O10 0.977538 0.223581 0.234349
#
# Coordination Sequence:
#
# PCOD9251956 Si02
#       5
#     4   4   4   4   4
#     4  11  23  39  70 100 129 165 226 272 315 376
#     4  11  23  39  70 100 129 165 226 272 315 376
#     4   9  20  35  57  91 131 164 200 262 329 377
#     4   9  20  35  57  91 131 164 200 262 329 377
#     4  12  26  42  62  96 134 172 210 270 334 382
#
# _framework density 25.841045999999999
#
# number of rings (size 3 to 8) (size 9 to 14) (size 15 to 20)
#    0.000    1.600    4.000    0.000    5.600    1.600 
#    0.000    0.000    0.000    7.200    0.000    0.000 
#    0.000    0.000    0.000    0.000    0.000    0.000 
#
# Total GULP energy -111713.309998 kJ/mol
# GULP energy per Si atom -5585.665500 kJ/mol
# Density = 2.578223 g / cm^3
# Si number density = 25.841046 Si / 1000 Ang^3
#
#
#
# Elastic Constant Matrix: (Units=GPa)
#
#
# Indices 1 2 3 4 5 6 
#
# 1 67.9440 27.6024 27.1579 0.0000 21.7000 0.0000
# 2 27.6024 136.9556 57.9338 0.0000 17.4090 0.0000
# 3 27.1579 57.9338 141.2311 0.0000 29.6273 0.0000
# 4 0.0000 0.0000 0.0000 45.9257 0.0000 2.7995
# 5 21.7000 17.4090 29.6273 0.0000 47.9419 0.0000
# 6 0.0000 0.0000 0.0000 2.7995 0.0000 39.8451
#
#
#
# Elastic Compliance Matrix: (Units=1/GPa)
#
#
# Indices 1 2 3 4 5 6 
#
# 1 0.018272 -0.002346 -0.001143 0.000000 -0.006712 0.000000
# 2 -0.002346 0.009188 -0.003264 0.000000 -0.000258 0.000000
# 3 -0.001143 -0.003264 0.009516 0.000000 -0.004178 0.000000
# 4 0.000000 0.000000 0.000000 0.021868 0.000000 -0.001536
# 5 -0.006712 -0.000258 -0.004178 0.000000 0.026572 0.000000
# 6 0.000000 0.000000 0.000000 -0.001536 0.000000 0.025205
#
#
# Mechanical properties :
#
#
# Convention : Reuss Voigt Hill
#
# Bulk Modulus (GPa) = 42.60831 63.50210 53.05521
# Shear Modulus (GPa) = 37.89346 42.30498 40.09922
#
# Velocity S-wave (km/s) = 3.83352 4.05053 3.94352
# Velocity P-wave (km/s) = 6.00990 6.81932 6.42737
#
# Compressibility (1/GPa) = 0.02346960
#
# Stress axis : x y z
#
# Youngs Moduli (GPa) = 54.72966 108.84056 105.08962
#
# Poissons Ratio (x) = 0.25531 0.12015
# Poissons Ratio (y) = 0.12838 0.34299
# Poissons Ratio (z) = 0.06257 0.35523
#
# Static dielectric constant tensor:
#      x y z
#    x 2.178110 0.000000 -0.067110 
#    y 0.000000 1.988150 0.000000 
#    z -0.067110 0.000000 2.043700 
# 
# From -- ./inp_files/71685.got.cif
#   From: 2010.05.17/outbox.cif.g08.bks.cpg/sg14_36_cif.got.tgz:71685.got - 2010.06.03 17:49:19.
