data_PCOD9251773
_publ_section_title
;
Structure prediction by ZEFSAII (Michael W. Deem and Ramdas Pophale) SiO2 
 PCOD9251773
Probable space group: P 21/C
;
_chemical_formula_sum "Si O2"
_cell_formula_units_Z 28
_cell_length_a 17.169999
_cell_length_b 10.139310
_cell_length_c 9.555829
_cell_angle_alpha 90.000000
_cell_angle_beta 122.581316
_cell_angle_gamma 90.000000
_cell_volume 1401.789975
_symmetry_space_group_name_H-M "P 21/C"
_symmetry_group_IT_number 14
_symmetry_cell_setting 'monoclinic'
loop_
_space_group_symop_operation_xyz
x,y,z
-x,1/2+y,1/2-z
-x,-y,-z
x,1/2-y,1/2+z
loop_
_atom_site_type_symbol
_atom_site_label
_atom_site_fract_x
_atom_site_fract_y
_atom_site_fract_z
Si Si1 0.094343 0.790729 0.362121
Si Si2 0.566627 0.875257 0.543906
Si Si3 0.354713 0.520019 0.436497
Si Si4 0.049382 0.010414 0.897824
Si Si5 0.225548 0.746424 0.727766
Si Si6 0.547394 0.873566 0.201366
Si Si7 0.259497 0.030973 0.123104
O O1 0.061613 0.637621 0.346635
O O2 0.152636 0.821160 0.557752
O O3 0.166216 0.801062 0.303030
O O4 0.011124 0.891195 0.254652
O O5 0.571154 0.845450 0.383931
O O6 0.524532 0.756829 0.592375
O O7 0.500000 0.000000 0.500000
O O8 0.668403 0.898505 0.705526
O O9 0.306683 0.658456 0.355078
O O10 0.371545 0.443400 0.308397
O O11 0.455743 0.537231 0.603287
O O12 0.293097 0.453583 0.496264
O O13 0.152063 0.066591 0.024139
O O14 0.000000 0.000000 0.000000
O O15 0.262478 0.622965 0.673812
#
# Coordination Sequence:
#
# PCOD9251773 Si02
#       7
#     4   4   4   4   4   4   4
#     4  11  23  44  70 100 136 178 230 285 352 405
#     4  12  25  46  70 100 139 181 223 281 344 404
#     4  11  23  44  65 101 131 177 233 279 334 409
#     4  11  23  47  68 101 142 174 231 292 336 421
#     4  11  22  41  72 100 126 179 239 276 332 424
#     4  11  27  42  68  98 141 175 228 283 341 404
#     4  11  23  44  68  96 140 178 226 283 344 404
#
# _framework density 19.974463
#
# number of rings (size 3 to 8) (size 9 to 14) (size 15 to 20)
#    0.000    0.857    7.143    1.714    4.000    0.571 
#    7.714    0.000    0.000    0.000    0.000    0.000 
#    0.000    0.000    0.000    0.000    0.000    0.000 
#
# Total GULP energy -156448.658380 kJ/mol
# GULP energy per Si atom -5587.452085 kJ/mol
# Density = 1.992900 g / cm^3
# Si number density = 19.974463 Si / 1000 Ang^3
#
#
#
# Elastic Constant Matrix: (Units=GPa)
#
#
# Indices 1 2 3 4 5 6 
#
# 1 118.7974 13.2661 34.3620 0.0000 -8.2990 0.0000
# 2 13.2661 39.3817 -5.2071 0.0000 -0.6050 0.0000
# 3 34.3620 -5.2071 97.2853 0.0000 -9.0798 0.0000
# 4 0.0000 0.0000 0.0000 38.3664 0.0000 5.9646
# 5 -8.2990 -0.6050 -9.0798 0.0000 37.5012 0.0000
# 6 0.0000 0.0000 0.0000 5.9646 0.0000 34.9235
#
#
#
# Elastic Compliance Matrix: (Units=1/GPa)
#
#
# Indices 1 2 3 4 5 6 
#
# 1 0.009977 -0.003819 -0.003610 0.000000 0.001272 0.000000
# 2 -0.003819 0.027056 0.002823 0.000000 0.000275 0.000000
# 3 -0.003610 0.002823 0.011904 0.000000 0.002129 0.000000
# 4 0.000000 0.000000 0.000000 0.026775 0.000000 -0.004573
# 5 0.001272 0.000275 0.002129 0.000000 0.027467 0.000000
# 6 0.000000 0.000000 0.000000 -0.004573 0.000000 0.029415
#
#
# Mechanical properties :
#
#
# Convention : Reuss Voigt Hill
#
# Bulk Modulus (GPa) = 25.17253 37.81181 31.49217
# Shear Modulus (GPa) = 32.24808 36.36113 34.30461
#
# Velocity S-wave (km/s) = 4.02240 4.27122 4.14868
# Velocity P-wave (km/s) = 5.84830 6.57994 6.22488
#
# Compressibility (1/GPa) = 0.03972585
#
# Stress axis : x y z
#
# Youngs Moduli (GPa) = 100.22974 36.95999 84.00699
#
# Poissons Ratio (x) = 0.14114 0.30323
# Poissons Ratio (y) = 0.38274 -0.23712
# Poissons Ratio (z) = 0.36179 -0.10432
#
# Static dielectric constant tensor:
#      x y z
#    x 1.700540 0.000000 0.002620 
#    y 0.000000 1.737610 0.000000 
#    z 0.002620 0.000000 1.698860 
# 
# From -- ./inp_files/15630.got.cif
#   From: 2010.05.17/outbox.cif.g08.bks.cpg/sg14_8_cif.got.tgz:15630.got - 2010.06.03 17:49:19.
