data_PCOD9251446
_publ_section_title
;
Structure prediction by ZEFSAII (Michael W. Deem and Ramdas Pophale) SiO2 
 PCOD9251446
Probable space group: P 21/C
;
_chemical_formula_sum "Si O2"
_cell_formula_units_Z 24
_cell_length_a 26.507584
_cell_length_b 4.874183
_cell_length_c 27.089029
_cell_angle_alpha 90.000000
_cell_angle_beta 164.134161
_cell_angle_gamma 90.000000
_cell_volume 956.844363
_symmetry_space_group_name_H-M "P 21/C"
_symmetry_group_IT_number 14
_symmetry_cell_setting 'monoclinic'
loop_
_space_group_symop_operation_xyz
x,y,z
-x,1/2+y,1/2-z
-x,-y,-z
x,1/2-y,1/2+z
loop_
_atom_site_type_symbol
_atom_site_label
_atom_site_fract_x
_atom_site_fract_y
_atom_site_fract_z
Si Si1 0.544266 0.940755 0.731944
Si Si2 0.720094 0.360229 0.251163
Si Si3 0.867777 0.593073 0.733742
Si Si4 0.958073 0.122532 0.879601
Si Si5 0.470316 0.329049 0.385321
Si Si6 0.297249 0.446491 0.519820
O O1 0.587151 0.825319 0.719054
O O2 0.369543 0.756842 0.584287
O O3 0.705017 0.896601 0.923624
O O4 0.463944 0.248509 0.656918
O O5 0.810297 0.304473 0.283062
O O6 0.561606 0.591026 0.104736
O O7 0.880287 0.487136 0.436441
O O8 0.649512 0.081586 0.208713
O O9 0.883644 0.893048 0.771667
O O10 0.671423 0.454081 0.563324
O O11 0.867955 0.597847 0.674217
O O12 0.005530 0.390499 0.892028
#
# Coordination Sequence:
#
# PCOD9251446 Si02
#       6
#     4   4   4   4   4   4
#     4   9  17  31  53  83 115 142 174 224 283 335
#     4  11  24  40  56  78 115 158 189 222 282 346
#     4  11  21  36  60  88 111 140 190 241 276 317
#     4  11  24  40  56  78 115 158 189 222 282 346
#     4  11  21  36  60  88 111 140 190 241 276 317
#     4   9  17  31  53  83 115 142 174 224 283 335
#
# _framework density 25.082446999999998
#
# number of rings (size 3 to 8) (size 9 to 14) (size 15 to 20)
#    0.000    1.667    0.000    7.000    0.000    6.667 
#    0.000    0.000    0.000    4.000    0.000    2.333 
#    0.000    0.000    0.000    0.000    0.000    0.000 
#
# Total GULP energy -134247.713609 kJ/mol
# GULP energy per Si atom -5593.654734 kJ/mol
# Density = 2.502536 g / cm^3
# Si number density = 25.082447 Si / 1000 Ang^3
#
#
#
# Elastic Constant Matrix: (Units=GPa)
#
#
# Indices 1 2 3 4 5 6 
#
# 1 -110.8672 22.3635 32.9076 0.0000 90.8850 0.0000
# 2 22.3635 108.6209 -5.4845 0.0000 -15.9059 0.0000
# 3 32.9076 -5.4845 58.4634 0.0000 -35.1340 0.0000
# 4 0.0000 0.0000 0.0000 171.9980 0.0000 -61.8968
# 5 90.8850 -15.9059 -35.1340 0.0000 -37.1943 0.0000
# 6 0.0000 0.0000 0.0000 -61.8968 0.0000 51.7805
#
#
#
# Elastic Compliance Matrix: (Units=1/GPa)
#
#
# Indices 1 2 3 4 5 6 
#
# 1 0.012567 0.001207 0.007134 0.000000 0.023453 0.000000
# 2 0.001207 0.008855 -0.000224 0.000000 -0.000625 0.000000
# 3 0.007134 -0.000224 0.015055 0.000000 0.003306 0.000000
# 4 0.000000 0.000000 0.000000 0.010203 0.000000 0.012197
# 5 0.023453 -0.000625 0.003306 0.000000 0.027566 0.000000
# 6 0.000000 0.000000 0.000000 0.012197 0.000000 0.033892
#
#
# Mechanical properties :
#
#
# Convention : Reuss Voigt Hill
#
# Bulk Modulus (GPa) = 18.97164 17.31001 18.14083
# Shear Modulus (GPa) = 45.67245 37.74552 41.70898
#
# Velocity S-wave (km/s) = 4.27182 3.88346 4.08226
# Velocity P-wave (km/s) = 5.64902 5.19851 5.42844
#
# Compressibility (1/GPa) = 0.05271026
#
# Stress axis : x y z
#
# Youngs Moduli (GPa) = 79.57310 112.93138 66.42232
#
# Poissons Ratio (x) = -0.13633 -0.47384
# Poissons Ratio (y) = -0.09606 0.01491
# Poissons Ratio (z) = -0.56766 0.02534
#
# Static dielectric constant tensor:
#      x y z
#    x 1.957420 0.000000 -0.021740 
#    y 0.000000 1.896260 0.000000 
#    z -0.021740 0.000000 2.098750 
# 
# From -- ./inp_files/74812.got.cif
#   From: 2010.05.17/outbox.cif.g08.bks.cpg/sg14_38_cif.got.tgz:74812.got - 2010.06.03 17:49:19.
