data_PCOD9251397
_publ_section_title
;
Structure prediction by ZEFSAII (Michael W. Deem and Ramdas Pophale) SiO2 
 PCOD9251397
Probable space group: P 21/C
;
_chemical_formula_sum "Si O2"
_cell_formula_units_Z 32
_cell_length_a 13.809320
_cell_length_b 15.192166
_cell_length_c 14.332756
_cell_angle_alpha 90.000000
_cell_angle_beta 148.387456
_cell_angle_gamma 90.000000
_cell_volume 1576.143732
_symmetry_space_group_name_H-M "P 21/C"
_symmetry_group_IT_number 14
_symmetry_cell_setting 'monoclinic'
loop_
_space_group_symop_operation_xyz
x,y,z
-x,1/2+y,1/2-z
-x,-y,-z
x,1/2-y,1/2+z
loop_
_atom_site_type_symbol
_atom_site_label
_atom_site_fract_x
_atom_site_fract_y
_atom_site_fract_z
Si Si1 0.416651 0.863615 0.171279
Si Si2 0.029329 0.174584 0.717961
Si Si3 0.155326 0.736212 0.607964
Si Si4 0.698040 0.236046 0.581330
Si Si5 0.081650 0.421472 0.507913
Si Si6 0.116103 0.507822 0.346070
Si Si7 0.206715 0.145524 0.413323
Si Si8 0.409316 0.409742 0.895164
O O1 0.300483 0.819079 0.162073
O O2 0.622278 0.876747 0.378944
O O3 0.412519 0.797990 0.080071
O O4 0.303793 0.947422 0.038259
O O5 0.114558 0.076350 0.776204
O O6 0.168566 0.249846 0.872427
O O7 0.953682 0.204123 0.554725
O O8 0.855580 0.192281 0.645452
O O9 0.235275 0.781905 0.767202
O O10 0.016069 0.666460 0.539694
O O11 0.567943 0.160546 0.514103
O O12 0.040902 0.452285 0.371721
O O13 0.297456 0.416312 0.707515
O O14 0.000000 0.500000 0.500000
O O15 0.975795 0.588681 0.210279
O O16 0.266010 0.116755 0.358077
O O17 0.500000 0.500000 0.000000
#
# Coordination Sequence:
#
# PCOD9251397 Si02
#       8
#     4   4   4   4   4   4   4   4
#     4  11  24  42  63  97 139 173 222 284 330 408
#     4  11  24  42  67  98 137 188 218 274 352 406
#     4  11  20  41  62  93 138 171 218 282 335 394
#     4  11  23  40  64  95 135 179 218 276 345 401
#     4  12  19  34  61  95 131 167 208 277 346 394
#     4  12  23  42  66  99 137 175 229 276 339 407
#     4  12  23  44  65  99 140 172 220 283 344 400
#     4  12  22  35  63 103 131 164 215 282 348 400
#
# _framework density 20.302717000000001
#
# number of rings (size 3 to 8) (size 9 to 14) (size 15 to 20)
#    0.000    0.500    8.750    2.250    1.750    0.000 
#    2.250    0.625    0.000    1.500    0.000    0.000 
#    0.000    0.000    0.000    0.000    0.000    0.000 
#
# Total GULP energy -178470.011682 kJ/mol
# GULP energy per Si atom -5577.187865 kJ/mol
# Density = 2.025651 g / cm^3
# Si number density = 20.302717 Si / 1000 Ang^3
#
#
#
# Elastic Constant Matrix: (Units=GPa)
#
#
# Indices 1 2 3 4 5 6 
#
# 1 34.3098 12.8820 15.8960 0.0000 -15.7302 0.0000
# 2 12.8820 83.9305 30.6223 0.0000 -1.2118 0.0000
# 3 15.8960 30.6223 126.4281 0.0000 -12.4470 0.0000
# 4 0.0000 0.0000 0.0000 31.0456 0.0000 -3.6599
# 5 -15.7302 -1.2118 -12.4470 0.0000 34.4189 0.0000
# 6 0.0000 0.0000 0.0000 -3.6599 0.0000 22.2716
#
#
#
# Elastic Compliance Matrix: (Units=1/GPa)
#
#
# Indices 1 2 3 4 5 6 
#
# 1 0.039985 -0.005129 -0.002078 0.000000 0.017342 0.000000
# 2 -0.005129 0.013744 -0.002973 0.000000 -0.002935 0.000000
# 3 -0.002078 -0.002973 0.009112 0.000000 0.002241 0.000000
# 4 0.000000 0.000000 0.000000 0.032847 0.000000 0.005398
# 5 0.017342 -0.002935 0.002241 0.000000 0.037687 0.000000
# 6 0.000000 0.000000 0.000000 0.005398 0.000000 0.045787
#
#
# Mechanical properties :
#
#
# Convention : Reuss Voigt Hill
#
# Bulk Modulus (GPa) = 23.53940 40.38545 31.96242
# Shear Modulus (GPa) = 23.39927 29.89842 26.64885
#
# Velocity S-wave (km/s) = 3.39856 3.84165 3.62688
# Velocity P-wave (km/s) = 5.19804 6.29385 5.77201
#
# Compressibility (1/GPa) = 0.04248197
#
# Stress axis : x y z
#
# Youngs Moduli (GPa) = 25.00913 72.75821 109.75003
#
# Poissons Ratio (x) = 0.37315 0.22804
# Poissons Ratio (y) = 0.12826 0.32630
# Poissons Ratio (z) = 0.05197 0.21632
#
# Static dielectric constant tensor:
#      x y z
#    x 1.709740 0.000000 -0.013510 
#    y 0.000000 1.916110 0.000000 
#    z -0.013510 0.000000 1.775610 
# 
# From -- ./inp_files/47414.got.cif
#   From: 2010.05.17/outbox.cif.g08.bks.cpg/sg14_24_cif.got.tgz:47414.got - 2010.06.03 17:49:19.
