data_PCOD9251125
_publ_section_title
;
Structure prediction by ZEFSAII (Michael W. Deem and Ramdas Pophale) SiO2 
 PCOD9251125
Probable space group: P 21/C
;
_chemical_formula_sum "Si O2"
_cell_formula_units_Z 32
_cell_length_a 23.362478
_cell_length_b 4.902167
_cell_length_c 20.351474
_cell_angle_alpha 90.000000
_cell_angle_beta 33.109488
_cell_angle_gamma 90.000000
_cell_volume 1273.171519
_symmetry_space_group_name_H-M "P 21/C"
_symmetry_group_IT_number 14
_symmetry_cell_setting 'monoclinic'
loop_
_space_group_symop_operation_xyz
x,y,z
-x,1/2+y,1/2-z
-x,-y,-z
x,1/2-y,1/2+z
loop_
_atom_site_type_symbol
_atom_site_label
_atom_site_fract_x
_atom_site_fract_y
_atom_site_fract_z
Si Si1 0.324631 0.475587 0.715746
Si Si2 0.905865 0.302518 0.070806
Si Si3 0.740851 0.966662 0.413900
Si Si4 0.269205 0.008183 0.986687
Si Si5 0.573321 0.338500 0.982376
Si Si6 0.388426 0.515667 0.235909
Si Si7 0.044519 0.485554 0.352123
Si Si8 0.954145 0.788373 0.327894
O O1 0.205487 0.559720 0.821214
O O2 0.390263 0.555172 0.586787
O O3 0.323324 0.175508 0.747701
O O4 0.377537 0.679153 0.718287
O O5 0.907970 0.068766 0.123789
O O6 0.000000 0.500000 0.000000
O O7 0.940935 0.185388 0.967123
O O8 0.746549 0.229946 0.456590
O O9 0.681233 0.033899 0.403972
O O10 0.858338 0.868255 0.282050
O O11 0.684349 0.723958 0.506255
O O12 0.342141 0.981427 0.853043
O O13 0.161389 0.158034 0.066426
O O14 0.500000 0.500000 0.000000
O O15 0.501399 0.371655 0.116651
O O16 0.002545 0.744924 0.353032
O O17 0.027983 0.595984 0.211409
#
# Coordination Sequence:
#
# PCOD9251125 Si02
#       8
#     4   4   4   4   4   4   4   4
#     4  11  24  46  72 104 143 185 234 299 359 429
#     4  11  27  40  70 101 143 188 233 296 358 419
#     4  12  26  46  73 100 146 184 239 292 354 433
#     4  12  26  45  69 106 139 193 233 291 350 419
#     4  10  25  49  77 106 139 189 237 305 371 425
#     4  11  26  46  73 104 141 182 245 296 356 421
#     4  11  25  44  63 104 140 187 232 287 347 425
#     4  12  24  42  68  96 139 188 232 274 343 422
#
# _framework density 25.134084000000001
#
# number of rings (size 3 to 8) (size 9 to 14) (size 15 to 20)
#    0.000    0.750    3.750    1.875    8.750    5.000 
#    0.000    0.000    0.000    0.000    0.000    0.000 
#    0.000    0.000    0.000    0.000    0.000    0.000 
#
# Total GULP energy -178980.205980 kJ/mol
# GULP energy per Si atom -5593.131437 kJ/mol
# Density = 2.507688 g / cm^3
# Si number density = 25.134084 Si / 1000 Ang^3
#
#
#
# Elastic Constant Matrix: (Units=GPa)
#
#
# Indices 1 2 3 4 5 6 
#
# 1 76.3214 13.7155 36.1739 0.0000 9.4635 0.0000
# 2 13.7155 82.8763 18.0011 0.0000 13.6759 0.0000
# 3 36.1739 18.0011 150.6003 0.0000 8.3513 0.0000
# 4 0.0000 0.0000 0.0000 24.7398 0.0000 -1.3545
# 5 9.4635 13.6759 8.3513 0.0000 49.3745 0.0000
# 6 0.0000 0.0000 0.0000 -1.3545 0.0000 39.1835
#
#
#
# Elastic Compliance Matrix: (Units=1/GPa)
#
#
# Indices 1 2 3 4 5 6 
#
# 1 0.015203 -0.001464 -0.003369 0.000000 -0.001938 0.000000
# 2 -0.001464 0.013054 -0.001033 0.000000 -0.003160 0.000000
# 3 -0.003369 -0.001033 0.007592 0.000000 -0.000352 0.000000
# 4 0.000000 0.000000 0.000000 0.040497 0.000000 0.001400
# 5 -0.001938 -0.003160 -0.000352 0.000000 0.021560 0.000000
# 6 0.000000 0.000000 0.000000 0.001400 0.000000 0.025569
#
#
# Mechanical properties :
#
#
# Convention : Reuss Voigt Hill
#
# Bulk Modulus (GPa) = 41.46627 49.50878 45.48753
# Shear Modulus (GPa) = 34.90430 38.78672 36.84551
#
# Velocity S-wave (km/s) = 3.73060 3.93261 3.83294
# Velocity P-wave (km/s) = 5.92371 6.35305 6.14213
#
# Compressibility (1/GPa) = 0.02411598
#
# Stress axis : x y z
#
# Youngs Moduli (GPa) = 65.77705 76.60202 131.71035
#
# Poissons Ratio (x) = 0.11217 0.44376
# Poissons Ratio (y) = 0.09632 0.13611
# Poissons Ratio (z) = 0.22161 0.07916
#
# Static dielectric constant tensor:
#      x y z
#    x 2.014920 0.000000 0.016340 
#    y 0.000000 1.993040 0.000000 
#    z 0.016340 0.000000 2.046810 
# 
# From -- ./inp_files/70096.got.cif
#   From: 2010.05.17/outbox.cif.g08.bks.cpg/sg14_36_cif.got.tgz:70096.got - 2010.06.03 17:49:19.
