data_PCOD9251416
_publ_section_title
;
Structure prediction by ZEFSAII (Michael W. Deem and Ramdas Pophale) SiO2 
 PCOD9251416
Probable space group: P 21/C
;
_chemical_formula_sum "Si O2"
_cell_formula_units_Z 16
_cell_length_a 7.553082
_cell_length_b 16.914065
_cell_length_c 5.674433
_cell_angle_alpha 90.000000
_cell_angle_beta 111.802034
_cell_angle_gamma 90.000000
_cell_volume 673.075495
_symmetry_space_group_name_H-M "P 21/C"
_symmetry_group_IT_number 14
_symmetry_cell_setting 'monoclinic'
loop_
_space_group_symop_operation_xyz
x,y,z
-x,1/2+y,1/2-z
-x,-y,-z
x,1/2-y,1/2+z
loop_
_atom_site_type_symbol
_atom_site_label
_atom_site_fract_x
_atom_site_fract_y
_atom_site_fract_z
Si Si1 0.943429 0.414778 0.369404
Si Si2 0.366516 0.538081 0.133967
Si Si3 0.337491 0.708105 0.606355
Si Si4 0.339769 0.120260 0.916695
O O1 0.133046 0.363869 0.418608
O O2 0.000000 0.500000 0.500000
O O3 0.795519 0.369852 0.464121
O O4 0.826586 0.430064 0.072859
O O5 0.498664 0.606398 0.306362
O O6 0.323431 0.465915 0.287373
O O7 0.500000 0.500000 0.000000
O O8 0.297787 0.744279 0.845850
O O9 0.560107 0.681983 0.707226
#
# Coordination Sequence:
#
# PCOD9251416 Si02
#       4
#     4   4   4   4
#     4  12  24  45  80 114 144 194 259 321 382 447
#     4  11  20  42  72 111 146 178 240 314 373 447
#     4  12  29  50  71 106 156 205 257 314 383 473
#     4  11  24  43  72 103 147 196 239 306 386 444
#
# _framework density 23.771481000000001
#
# number of rings (size 3 to 8) (size 9 to 14) (size 15 to 20)
#    0.000    0.500    5.000    3.750    0.000    4.000 
#    0.000    0.000    0.000    0.000    0.000    0.000 
#    0.000    0.000    0.000    0.000    0.000    0.000 
#
# Total GULP energy -89552.183041 kJ/mol
# GULP energy per Si atom -5597.011440 kJ/mol
# Density = 2.371738 g / cm^3
# Si number density = 23.771481 Si / 1000 Ang^3
#
#
#
# Elastic Constant Matrix: (Units=GPa)
#
#
# Indices 1 2 3 4 5 6 
#
# 1 144.3113 19.6879 27.3736 0.0000 9.8499 0.0000
# 2 19.6879 72.1067 30.2908 0.0000 -4.7387 0.0000
# 3 27.3736 30.2908 129.4157 0.0000 13.2226 0.0000
# 4 0.0000 0.0000 0.0000 31.6641 0.0000 -8.4595
# 5 9.8499 -4.7387 13.2226 0.0000 41.5576 0.0000
# 6 0.0000 0.0000 0.0000 -8.4595 0.0000 48.3645
#
#
#
# Elastic Compliance Matrix: (Units=1/GPa)
#
#
# Indices 1 2 3 4 5 6 
#
# 1 0.007468 -0.001724 -0.001008 0.000000 -0.001646 0.000000
# 2 -0.001724 0.016148 -0.003767 0.000000 0.003449 0.000000
# 3 -0.001008 -0.003767 0.009139 0.000000 -0.003098 0.000000
# 4 0.000000 0.000000 0.000000 0.033130 0.000000 0.005795
# 5 -0.001646 0.003449 -0.003098 0.000000 0.025832 0.000000
# 6 0.000000 0.000000 0.000000 0.005795 0.000000 0.021690
#
#
# Mechanical properties :
#
#
# Convention : Reuss Voigt Hill
#
# Bulk Modulus (GPa) = 50.61589 55.61538 53.11563
# Shear Modulus (GPa) = 37.59661 42.21598 39.90629
#
# Velocity S-wave (km/s) = 3.98123 4.21872 4.10170
# Velocity P-wave (km/s) = 6.51709 6.86854 6.69512
#
# Compressibility (1/GPa) = 0.01975664
#
# Stress axis : x y z
#
# Youngs Moduli (GPa) = 133.90128 61.92623 109.42600
#
# Poissons Ratio (x) = 0.10675 0.11030
# Poissons Ratio (y) = 0.23082 0.41225
# Poissons Ratio (z) = 0.13497 0.23330
#
# Static dielectric constant tensor:
#      x y z
#    x 1.891640 0.000000 -0.026020 
#    y 0.000000 1.995300 0.000000 
#    z -0.026020 0.000000 1.930020 
# 
# From -- ./inp_files/1094.got.cif
#   From: 2010.05.17/outbox.cif.g08.bks.cpg/sg14_1_cif.got.tgz:1094.got - 2010.06.03 17:49:19.
