data_PCOD9251455
_publ_section_title
;
Structure prediction by ZEFSAII (Michael W. Deem and Ramdas Pophale) SiO2 
 PCOD9251455
Probable space group: P 21/C
;
_chemical_formula_sum "Si O2"
_cell_formula_units_Z 32
_cell_length_a 8.570101
_cell_length_b 25.333404
_cell_length_c 13.705768
_cell_angle_alpha 90.000000
_cell_angle_beta 148.387740
_cell_angle_gamma 90.000000
_cell_volume 1559.744594
_symmetry_space_group_name_H-M "P 21/C"
_symmetry_group_IT_number 14
_symmetry_cell_setting 'monoclinic'
loop_
_space_group_symop_operation_xyz
x,y,z
-x,1/2+y,1/2-z
-x,-y,-z
x,1/2-y,1/2+z
loop_
_atom_site_type_symbol
_atom_site_label
_atom_site_fract_x
_atom_site_fract_y
_atom_site_fract_z
Si Si1 0.357505 0.583553 0.456378
Si Si2 0.892027 0.662127 0.779676
Si Si3 0.774471 0.233059 0.324222
Si Si4 0.572068 0.308678 0.061825
Si Si5 0.125295 0.130492 0.431392
Si Si6 0.092272 0.567015 0.002425
Si Si7 0.735490 0.772456 0.793663
Si Si8 0.562362 0.005702 0.176564
O O1 0.054486 0.607990 0.256432
O O2 0.476464 0.547794 0.429893
O O3 0.342182 0.543192 0.539577
O O4 0.595690 0.629503 0.599036
O O5 0.107789 0.618949 0.945814
O O6 0.787689 0.711378 0.789331
O O7 0.095418 0.683150 0.800771
O O8 0.965984 0.184126 0.385383
O O9 0.546050 0.217945 0.287452
O O10 0.978330 0.278626 0.483621
O O11 0.587669 0.256148 0.135012
O O12 0.342138 0.301397 0.849079
O O13 0.450445 0.354037 0.068056
O O14 0.088049 0.088427 0.498314
O O15 0.883669 0.523913 0.839520
O O16 0.392134 0.539347 0.200595
#
# Coordination Sequence:
#
# PCOD9251455 Si02
#       8
#     4   4   4   4   4   4   4   4
#     4   9  19  32  59  86 108 142 195 240 295 351
#     4  11  21  37  57  85 115 156 195 241 286 348
#     4  12  24  40  59  85 120 162 203 240 288 338
#     4  12  25  40  55  85 126 161 195 244 291 334
#     4  11  21  37  57  85 115 156 195 241 286 348
#     4   9  16  34  60  82 112 142 192 238 294 357
#     4  12  24  40  59  85 120 162 203 240 288 338
#     4   8  16  32  58  86 106 140 186 246 294 353
#
# _framework density 20.516179999999999
#
# number of rings (size 3 to 8) (size 9 to 14) (size 15 to 20)
#    0.000    1.500    3.750    1.500    3.500    0.000 
#    0.000    0.000    0.000   28.500    0.000    0.000 
#    0.000    0.000    0.000    0.000    0.000    0.000 
#
# Total GULP energy -178277.134152 kJ/mol
# GULP energy per Si atom -5571.160442 kJ/mol
# Density = 2.046948 g / cm^3
# Si number density = 20.516180 Si / 1000 Ang^3
#
#
#
# Elastic Constant Matrix: (Units=GPa)
#
#
# Indices 1 2 3 4 5 6 
#
# 1 49.9178 13.9358 0.5812 0.0000 -9.8405 0.0000
# 2 13.9358 65.3362 -4.6410 0.0000 -3.1726 0.0000
# 3 0.5812 -4.6410 38.5566 0.0000 -15.2446 0.0000
# 4 0.0000 0.0000 0.0000 31.7891 0.0000 -11.2820
# 5 -9.8405 -3.1726 -15.2446 0.0000 21.6205 0.0000
# 6 0.0000 0.0000 0.0000 -11.2820 0.0000 13.7063
#
#
#
# Elastic Compliance Matrix: (Units=1/GPa)
#
#
# Indices 1 2 3 4 5 6 
#
# 1 0.023754 -0.004106 0.004415 0.000000 0.013322 0.000000
# 2 -0.004106 0.016540 0.003152 0.000000 0.002781 0.000000
# 3 0.004415 0.003152 0.037751 0.000000 0.029090 0.000000
# 4 0.000000 0.000000 0.000000 0.044439 0.000000 0.036579
# 5 0.013322 0.002781 0.029090 0.000000 0.073235 0.000000
# 6 0.000000 0.000000 0.000000 0.036579 0.000000 0.103069
#
#
# Mechanical properties :
#
#
# Convention : Reuss Voigt Hill
#
# Bulk Modulus (GPa) = 11.76922 19.28473 15.52697
# Shear Modulus (GPa) = 15.61581 23.01880 19.31730
#
# Velocity S-wave (km/s) = 2.76188 3.35323 3.07182
# Velocity P-wave (km/s) = 3.98994 4.94089 4.49066
#
# Compressibility (1/GPa) = 0.08496742
#
# Stress axis : x y z
#
# Youngs Moduli (GPa) = 42.09803 60.45873 26.48968
#
# Poissons Ratio (x) = 0.24825 -0.11695
# Poissons Ratio (y) = 0.17286 -0.08350
# Poissons Ratio (z) = -0.18586 -0.19059
#
# Static dielectric constant tensor:
#      x y z
#    x 1.699150 0.000000 -0.071250 
#    y 0.000000 1.756620 0.000000 
#    z -0.071250 0.000000 1.796060 
# 
# From -- ./inp_files/10956.got.cif
#   From: 2010.05.17/outbox.cif.g08.bks.cpg/sg14_6_cif.got.tgz:10956.got - 2010.06.03 17:49:19.
