data_PCOD9251870
_publ_section_title
;
Structure prediction by ZEFSAII (Michael W. Deem and Ramdas Pophale) SiO2 
 PCOD9251870
Probable space group: P 21/C
;
_chemical_formula_sum "Si O2"
_cell_formula_units_Z 30
_cell_length_a 9.398463
_cell_length_b 12.716404
_cell_length_c 12.694153
_cell_angle_alpha 90.000000
_cell_angle_beta 133.065359
_cell_angle_gamma 90.000000
_cell_volume 1108.382951
_symmetry_space_group_name_H-M "P 21/C"
_symmetry_group_IT_number 14
_symmetry_cell_setting 'monoclinic'
loop_
_space_group_symop_operation_xyz
x,y,z
-x,1/2+y,1/2-z
-x,-y,-z
x,1/2-y,1/2+z
loop_
_atom_site_type_symbol
_atom_site_label
_atom_site_fract_x
_atom_site_fract_y
_atom_site_fract_z
Si Si1 0.782778 0.390799 0.555487
Si Si2 0.995729 0.321596 0.225574
Si Si3 0.171500 0.999224 0.501879
Si Si4 0.844333 0.331597 0.361844
Si Si5 0.500000 0.000000 0.000000
Si Si6 0.575788 0.140789 0.242950
Si Si7 0.601824 0.723409 0.671609
Si Si8 0.464924 0.391452 0.041116
O O1 0.871586 0.287404 0.651905
O O2 0.877130 0.391561 0.488257
O O3 0.748442 0.487576 0.614231
O O4 0.543142 0.377716 0.414219
O O5 0.008592 0.339032 0.357159
O O6 0.181319 0.305521 0.245753
O O7 0.877234 0.415961 0.113090
O O8 0.365460 0.958878 0.658273
O O9 0.251728 0.104613 0.487969
O O10 0.000000 0.000000 0.500000
O O11 0.775633 0.211075 0.346350
O O12 0.645690 0.374672 0.209350
O O13 0.494725 0.904954 0.902577
O O14 0.430839 0.215973 0.235608
O O15 0.536512 0.802074 0.547211
O O16 0.500000 0.500000 0.000000
#
# Coordination Sequence:
#
# PCOD9251870 Si02
#       8
#     4   4   4   4   2   4   4   4
#     4  11  24  47  68  99 142 183 226 290 358 425
#     4  12  24  48  69 103 140 184 239 289 359 435
#     4  12  27  42  71 107 136 179 246 299 340 429
#     4  11  22  45  71  93 139 191 220 286 361 428
#     4  12  24  40  76 102 138 184 234 294 354 422
#     4  11  23  46  66 100 143 182 232 287 362 427
#     4  11  25  44  72 100 138 193 228 282 368 431
#     4  12  21  44  72  97 136 180 234 294 350 412
#
# _framework density 27.066455999999999
#
# number of rings (size 3 to 8) (size 9 to 14) (size 15 to 20)
#    0.000    0.533    8.000    0.800    7.467    0.000 
#    2.400    0.667    0.000    0.000    0.000    0.000 
#    0.000    0.000    0.000    0.000    0.000    0.000 
#
# Total GULP energy -167711.245775 kJ/mol
# GULP energy per Si atom -5590.374859 kJ/mol
# Density = 2.700485 g / cm^3
# Si number density = 27.066456 Si / 1000 Ang^3
#
#
#
# Elastic Constant Matrix: (Units=GPa)
#
#
# Indices 1 2 3 4 5 6 
#
# 1 223.6177 32.4562 22.5365 0.0000 -13.0606 0.0000
# 2 32.4562 85.4025 19.8641 0.0000 1.7955 0.0000
# 3 22.5365 19.8641 52.3281 0.0000 -11.8615 0.0000
# 4 0.0000 0.0000 0.0000 40.1936 0.0000 -2.9552
# 5 -13.0606 1.7955 -11.8615 0.0000 53.9747 0.0000
# 6 0.0000 0.0000 0.0000 -2.9552 0.0000 47.3313
#
#
#
# Elastic Compliance Matrix: (Units=1/GPa)
#
#
# Indices 1 2 3 4 5 6 
#
# 1 0.004886 -0.001577 -0.001290 0.000000 0.000951 0.000000
# 2 -0.001577 0.013481 -0.004869 0.000000 -0.001900 0.000000
# 3 -0.001290 -0.004869 0.022606 0.000000 0.004818 0.000000
# 4 0.000000 0.000000 0.000000 0.024994 0.000000 0.001561
# 5 0.000951 -0.001900 0.004818 0.000000 0.019879 0.000000
# 6 0.000000 0.000000 0.000000 0.001561 0.000000 0.021225
#
#
# Mechanical properties :
#
#
# Convention : Reuss Voigt Hill
#
# Bulk Modulus (GPa) = 39.21368 56.78466 47.99917
# Shear Modulus (GPa) = 38.15477 47.39934 42.77706
#
# Velocity S-wave (km/s) = 3.75863 4.18930 3.97979
# Velocity P-wave (km/s) = 5.77545 6.66525 6.23624
#
# Compressibility (1/GPa) = 0.02550131
#
# Stress axis : x y z
#
# Youngs Moduli (GPa) = 204.65030 74.17847 44.23554
#
# Poissons Ratio (x) = 0.11697 0.05707
# Poissons Ratio (y) = 0.32272 0.21538
# Poissons Ratio (z) = 0.26404 0.36118
#
# Static dielectric constant tensor:
#      x y z
#    x 1.868060 0.000000 0.222610 
#    y 0.000000 1.457540 0.000000 
#    z 0.222610 0.000000 1.959950 
# 
# From -- ./inp_files/41308.got.cif
#   From: 2010.05.17/outbox.cif.g08.bks.cpg/sg14_21_cif.got.tgz:41308.got - 2010.06.03 17:49:19.
