data_PCOD9251153
_publ_section_title
;
Structure prediction by ZEFSAII (Michael W. Deem and Ramdas Pophale) SiO2 
 PCOD9251153
Probable space group: P 21/C
;
_chemical_formula_sum "Si O2"
_cell_formula_units_Z 20
_cell_length_a 11.641984
_cell_length_b 7.561735
_cell_length_c 11.770470
_cell_angle_alpha 90.000000
_cell_angle_beta 132.781921
_cell_angle_gamma 90.000000
_cell_volume 760.510666
_symmetry_space_group_name_H-M "P 21/C"
_symmetry_group_IT_number 14
_symmetry_cell_setting 'monoclinic'
loop_
_space_group_symop_operation_xyz
x,y,z
-x,1/2+y,1/2-z
-x,-y,-z
x,1/2-y,1/2+z
loop_
_atom_site_type_symbol
_atom_site_label
_atom_site_fract_x
_atom_site_fract_y
_atom_site_fract_z
Si Si1 0.139956 0.865793 0.057984
Si Si2 0.363158 0.056496 0.049981
Si Si3 0.135554 0.213906 0.726514
Si Si4 0.699034 0.032963 0.303362
Si Si5 0.369766 0.052773 0.501474
O O1 0.046449 0.749378 0.900053
O O2 0.217168 0.711049 0.186054
O O3 0.283250 0.977774 0.106516
O O4 0.000000 0.000000 0.000000
O O5 0.531955 0.971599 0.138697
O O6 0.218894 0.069269 0.864016
O O7 0.412567 0.261030 0.089781
O O8 0.218831 0.392954 0.825402
O O9 0.184755 0.132477 0.637686
O O10 0.660967 0.068242 0.410795
O O11 0.500000 0.000000 0.500000
#
# Coordination Sequence:
#
# PCOD9251153 Si02
#       5
#     4   4   4   4   4
#     4  12  28  44  75 108 152 195 248 310 377 436
#     4  10  26  45  74 104 148 193 252 293 374 443
#     4  10  27  46  72 106 150 192 252 300 379 434
#     4  12  25  48  76 106 150 198 249 308 367 452
#     4  10  26  42  77 105 147 191 251 305 370 439
#
# _framework density 26.298120000000001
#
# number of rings (size 3 to 8) (size 9 to 14) (size 15 to 20)
#    1.200    0.000    0.000    3.600   14.000    1.600 
#    0.000    0.000    0.000    0.000    0.000    0.000 
#    0.000    0.000    0.000    0.000    0.000    0.000 
#
# Total GULP energy -111543.781251 kJ/mol
# GULP energy per Si atom -5577.189063 kJ/mol
# Density = 2.623826 g / cm^3
# Si number density = 26.298120 Si / 1000 Ang^3
#
#
#
# Elastic Constant Matrix: (Units=GPa)
#
#
# Indices 1 2 3 4 5 6 
#
# 1 94.5852 50.0070 38.1576 0.0000 8.9215 0.0000
# 2 50.0070 103.4440 17.5804 0.0000 2.3147 0.0000
# 3 38.1576 17.5804 105.3099 0.0000 14.5378 0.0000
# 4 0.0000 0.0000 0.0000 41.2826 0.0000 3.9479
# 5 8.9215 2.3147 14.5378 0.0000 44.7557 0.0000
# 6 0.0000 0.0000 0.0000 3.9479 0.0000 52.3166
#
#
#
# Elastic Compliance Matrix: (Units=1/GPa)
#
#
# Indices 1 2 3 4 5 6 
#
# 1 0.016262 -0.007062 -0.004519 0.000000 -0.001409 0.000000
# 2 -0.007062 0.013016 0.000298 0.000000 0.000638 0.000000
# 3 -0.004519 0.000298 0.011476 0.000000 -0.002842 0.000000
# 4 0.000000 0.000000 0.000000 0.024399 0.000000 -0.001841
# 5 -0.001409 0.000638 -0.002842 0.000000 0.023515 0.000000
# 6 0.000000 0.000000 0.000000 -0.001841 0.000000 0.019253
#
#
# Mechanical properties :
#
#
# Convention : Reuss Voigt Hill
#
# Bulk Modulus (GPa) = 54.98175 57.20322 56.09248
# Shear Modulus (GPa) = 36.61673 40.84391 38.73032
#
# Velocity S-wave (km/s) = 3.73550 3.94523 3.84179
# Velocity P-wave (km/s) = 6.28949 6.52320 6.40741
#
# Compressibility (1/GPa) = 0.01818785
#
# Stress axis : x y z
#
# Youngs Moduli (GPa) = 61.49325 76.82841 87.13979
#
# Poissons Ratio (x) = 0.54255 0.39378
# Poissons Ratio (y) = 0.43426 -0.02595
# Poissons Ratio (z) = 0.27789 -0.02288
#
# Static dielectric constant tensor:
#      x y z
#    x 2.078540 0.000000 -0.110700 
#    y 0.000000 2.095760 0.000000 
#    z -0.110700 0.000000 2.182690 
# 
# From -- ./inp_files/27899.got.cif
#   From: 2010.05.17/outbox.cif.g08.bks.cpg/sg14_14_cif.got.tgz:27899.got - 2010.06.03 17:49:19.
