data_PCOD9251053
_publ_section_title
;
Structure prediction by ZEFSAII (Michael W. Deem and Ramdas Pophale) SiO2 
 PCOD9251053
Probable space group: P 21/C
;
_chemical_formula_sum "Si O2"
_cell_formula_units_Z 32
_cell_length_a 15.821918
_cell_length_b 8.704051
_cell_length_c 10.896763
_cell_angle_alpha 90.000000
_cell_angle_beta 100.185638
_cell_angle_gamma 90.000000
_cell_volume 1476.995111
_symmetry_space_group_name_H-M "P 21/C"
_symmetry_group_IT_number 14
_symmetry_cell_setting 'monoclinic'
loop_
_space_group_symop_operation_xyz
x,y,z
-x,1/2+y,1/2-z
-x,-y,-z
x,1/2-y,1/2+z
loop_
_atom_site_type_symbol
_atom_site_label
_atom_site_fract_x
_atom_site_fract_y
_atom_site_fract_z
Si Si1 0.316617 0.464649 0.194502
Si Si2 0.022554 0.907063 0.381804
Si Si3 0.359210 0.802999 0.919949
Si Si4 0.216970 0.576882 0.950225
Si Si5 0.395985 0.983041 0.163211
Si Si6 0.050663 0.427237 0.630241
Si Si7 0.238859 0.360824 0.751014
Si Si8 0.520755 0.805143 0.366510
O O1 0.356401 0.576293 0.307224
O O2 0.265785 0.316596 0.236108
O O3 0.392841 0.404824 0.123231
O O4 0.251080 0.560084 0.095656
O O5 0.121784 0.861308 0.420387
O O6 0.968209 0.753200 0.365897
O O7 0.018123 0.995750 0.249937
O O8 0.000000 0.000000 0.500000
O O9 0.279758 0.689162 0.893617
O O10 0.448035 0.704498 0.952795
O O11 0.350985 0.902548 0.039006
O O12 0.218970 0.408865 0.886081
O O13 0.324317 0.048406 0.234788
O O14 0.448108 0.131308 0.133959
O O15 0.461709 0.864669 0.240524
O O16 0.155556 0.427007 0.656553
O O17 0.000000 0.500000 0.500000
#
# Coordination Sequence:
#
# PCOD9251053 Si02
#       8
#     4   4   4   4   4   4   4   4
#     4  11  26  43  68 101 137 186 225 284 339 403
#     4  11  25  47  71 107 143 181 233 292 358 433
#     4  12  25  42  66  99 138 176 234 282 340 400
#     4  11  26  44  70  99 137 180 226 282 342 411
#     4  11  24  43  63  97 132 177 227 281 334 404
#     4  11  25  46  75 105 137 187 231 293 358 428
#     4  10  25  46  68  98 137 175 230 277 348 410
#     4  11  23  41  65  93 132 179 227 272 339 390
#
# _framework density 21.665607999999999
#
# number of rings (size 3 to 8) (size 9 to 14) (size 15 to 20)
#    0.000    1.000    2.500    2.625    5.250    5.500 
#    0.000    0.000    0.000    0.000    0.000    0.000 
#    0.000    0.000    0.000    0.000    0.000    0.000 
#
# Total GULP energy -178643.587880 kJ/mol
# GULP energy per Si atom -5582.612121 kJ/mol
# Density = 2.161630 g / cm^3
# Si number density = 21.665608 Si / 1000 Ang^3
#
#
#
# Elastic Constant Matrix: (Units=GPa)
#
#
# Indices 1 2 3 4 5 6 
#
# 1 74.5502 -0.6173 -22.5017 0.0000 10.2431 0.0000
# 2 -0.6173 67.5200 9.0629 0.0000 1.8101 0.0000
# 3 -22.5017 9.0629 46.6840 0.0000 7.9572 0.0000
# 4 0.0000 0.0000 0.0000 23.4591 0.0000 2.5738
# 5 10.2431 1.8101 7.9572 0.0000 26.4688 0.0000
# 6 0.0000 0.0000 0.0000 2.5738 0.0000 22.5306
#
#
#
# Elastic Compliance Matrix: (Units=1/GPa)
#
#
# Indices 1 2 3 4 5 6 
#
# 1 0.017981 -0.000985 0.010574 0.000000 -0.010070 0.000000
# 2 -0.000985 0.015261 -0.003504 0.000000 0.000391 0.000000
# 3 0.010574 -0.003504 0.029359 0.000000 -0.012678 0.000000
# 4 0.000000 0.000000 0.000000 0.043168 0.000000 -0.004931
# 5 -0.010070 0.000391 -0.012678 0.000000 0.045462 0.000000
# 6 0.000000 0.000000 0.000000 -0.004931 0.000000 0.044947
#
#
# Mechanical properties :
#
#
# Convention : Reuss Voigt Hill
#
# Bulk Modulus (GPa) = 13.37408 17.84911 15.61159
# Shear Modulus (GPa) = 23.93123 28.01239 25.97181
#
# Velocity S-wave (km/s) = 3.32712 3.59965 3.46606
# Velocity P-wave (km/s) = 4.57668 5.05302 4.82073
#
# Compressibility (1/GPa) = 0.07477152
#
# Stress axis : x y z
#
# Youngs Moduli (GPa) = 55.61452 65.52527 34.06137
#
# Poissons Ratio (x) = 0.06454 -0.36018
# Poissons Ratio (y) = 0.05478 0.11936
# Poissons Ratio (z) = -0.58809 0.22961
#
# Static dielectric constant tensor:
#      x y z
#    x 2.518420 0.000000 -0.116890 
#    y 0.000000 1.770340 0.000000 
#    z -0.116890 0.000000 1.781370 
# 
# From -- ./inp_files/31876.got.cif
#   From: 2010.05.17/outbox.cif.g08.bks.cpg/sg14_16_cif.got.tgz:31876.got - 2010.06.03 17:49:19.
