data_PCOD9251245
_publ_section_title
;
Structure prediction by ZEFSAII (Michael W. Deem and Ramdas Pophale) SiO2 
 PCOD9251245
Probable space group: P 21/C
;
_chemical_formula_sum "Si O2"
_cell_formula_units_Z 20
_cell_length_a 8.460106
_cell_length_b 9.759933
_cell_length_c 10.742855
_cell_angle_alpha 90.000000
_cell_angle_beta 83.559728
_cell_angle_gamma 90.000000
_cell_volume 881.440454
_symmetry_space_group_name_H-M "P 21/C"
_symmetry_group_IT_number 14
_symmetry_cell_setting 'monoclinic'
loop_
_space_group_symop_operation_xyz
x,y,z
-x,1/2+y,1/2-z
-x,-y,-z
x,1/2-y,1/2+z
loop_
_atom_site_type_symbol
_atom_site_label
_atom_site_fract_x
_atom_site_fract_y
_atom_site_fract_z
Si Si1 0.813118 0.184765 0.390198
Si Si2 0.171730 0.183221 0.281701
Si Si3 0.824702 0.007582 0.951528
Si Si4 0.379616 0.969431 0.398372
Si Si5 0.331200 0.032817 0.783039
O O1 0.800753 0.347950 0.385702
O O2 0.998673 0.155887 0.353285
O O3 0.748114 0.133477 0.530039
O O4 0.720668 0.100057 0.291968
O O5 0.295521 0.107772 0.361043
O O6 0.211508 0.342477 0.265136
O O7 0.184311 0.113117 0.146618
O O8 0.693006 0.995558 0.070207
O O9 0.000000 0.000000 0.000000
O O10 0.500000 0.000000 0.500000
O O11 0.493887 0.922049 0.276391
#
# Coordination Sequence:
#
# PCOD9251245 Si02
#       5
#     4   4   4   4   4
#     4  11  24  47  75 102 144 188 242 290 360 419
#     4  12  25  45  76 104 142 193 237 295 354 426
#     4  12  26  44  75 109 142 184 242 298 349 430
#     4  10  27  45  71 102 145 188 238 296 356 419
#     4  11  27  49  70 108 149 183 245 291 363 422
#
# _framework density 22.690131000000001
#
# number of rings (size 3 to 8) (size 9 to 14) (size 15 to 20)
#    0.000    0.800    4.000    0.600   11.200    4.000 
#    0.000    0.000    0.000    0.000    0.000    0.000 
#    0.000    0.000    0.000    0.000    0.000    0.000 
#
# Total GULP energy -111967.663066 kJ/mol
# GULP energy per Si atom -5598.383153 kJ/mol
# Density = 2.263849 g / cm^3
# Si number density = 22.690131 Si / 1000 Ang^3
#
#
#
# Elastic Constant Matrix: (Units=GPa)
#
#
# Indices 1 2 3 4 5 6 
#
# 1 84.7250 14.3005 69.9037 0.0000 -26.7770 0.0000
# 2 14.3005 90.1322 20.7924 0.0000 9.7905 0.0000
# 3 69.9037 20.7924 114.0092 0.0000 -27.7359 0.0000
# 4 0.0000 0.0000 0.0000 37.6743 0.0000 8.1649
# 5 -26.7770 9.7905 -27.7359 0.0000 59.6417 0.0000
# 6 0.0000 0.0000 0.0000 8.1649 0.0000 17.0646
#
#
#
# Elastic Compliance Matrix: (Units=1/GPa)
#
#
# Indices 1 2 3 4 5 6 
#
# 1 0.025104 -0.001312 -0.013935 0.000000 0.005006 0.000000
# 2 -0.001312 0.012238 -0.002322 0.000000 -0.003678 0.000000
# 3 -0.013935 -0.002322 0.018390 0.000000 0.002677 0.000000
# 4 0.000000 0.000000 0.000000 0.029614 0.000000 -0.014170
# 5 0.005006 -0.003678 0.002677 0.000000 0.020863 0.000000
# 6 0.000000 0.000000 0.000000 -0.014170 0.000000 0.065381
#
#
# Mechanical properties :
#
#
# Convention : Reuss Voigt Hill
#
# Bulk Modulus (GPa) = 48.55931 55.42883 51.99407
# Shear Modulus (GPa) = 23.40901 35.13410 29.27156
#
# Velocity S-wave (km/s) = 3.21547 3.93928 3.59563
# Velocity P-wave (km/s) = 5.93575 6.72103 6.34056
#
# Compressibility (1/GPa) = 0.02059337
#
# Stress axis : x y z
#
# Youngs Moduli (GPa) = 39.83470 81.71129 54.37691
#
# Poissons Ratio (x) = 0.10721 0.75775
# Poissons Ratio (y) = 0.05227 0.12627
# Poissons Ratio (z) = 0.55510 0.18975
#
# Static dielectric constant tensor:
#      x y z
#    x 1.880950 0.000000 -0.033310 
#    y 0.000000 1.800100 0.000000 
#    z -0.033310 0.000000 1.851270 
# 
# From -- ./inp_files/23008.got.cif
#   From: 2010.05.17/outbox.cif.g08.bks.cpg/sg14_12_cif.got.tgz:23008.got - 2010.06.03 17:49:19.
