data_PCOD9251753
_publ_section_title
;
Structure prediction by ZEFSAII (Michael W. Deem and Ramdas Pophale) SiO2 
 PCOD9251753
Probable space group: P 21/C
;
_chemical_formula_sum "Si O2"
_cell_formula_units_Z 24
_cell_length_a 10.879171
_cell_length_b 21.899775
_cell_length_c 5.127436
_cell_angle_alpha 90.000000
_cell_angle_beta 61.610434
_cell_angle_gamma 90.000000
_cell_volume 1074.701018
_symmetry_space_group_name_H-M "P 21/C"
_symmetry_group_IT_number 14
_symmetry_cell_setting 'monoclinic'
loop_
_space_group_symop_operation_xyz
x,y,z
-x,1/2+y,1/2-z
-x,-y,-z
x,1/2-y,1/2+z
loop_
_atom_site_type_symbol
_atom_site_label
_atom_site_fract_x
_atom_site_fract_y
_atom_site_fract_z
Si Si1 0.179662 0.604205 0.912966
Si Si2 0.342746 0.166523 0.098893
Si Si3 0.367098 0.783690 0.056986
Si Si4 0.031936 0.289477 0.871911
Si Si5 0.394074 0.411761 0.037818
Si Si6 0.287347 0.541544 0.317463
O O1 0.297067 0.654808 0.728135
O O2 0.039566 0.644221 0.043124
O O3 0.203192 0.553402 0.667610
O O4 0.208091 0.575653 0.164436
O O5 0.467363 0.208448 0.079638
O O6 0.331190 0.114971 0.335167
O O7 0.197807 0.200959 0.212045
O O8 0.386671 0.136871 0.779528
O O9 0.326673 0.768778 0.803129
O O10 0.990258 0.247100 0.155876
O O11 0.311712 0.471338 0.218602
O O12 0.555253 0.430592 0.822752
#
# Coordination Sequence:
#
# PCOD9251753 Si02
#       6
#     4   4   4   4   4   4
#     4  12  23  42  64  95 125 169 213 258 319 374
#     4  12  23  42  64  95 125 169 213 258 319 374
#     4  12  22  36  59  90 119 154 212 264 298 360
#     4  12  26  46  65  90 133 176 208 256 322 380
#     4  11  22  41  67  97 128 164 208 266 324 371
#     4  11  22  41  67  97 128 164 208 266 324 371
#
# _framework density 22.331793000000001
#
# number of rings (size 3 to 8) (size 9 to 14) (size 15 to 20)
#    0.000    0.333    3.333    7.000    0.000    2.667 
#    0.000    5.000    0.000    0.000    0.000    0.000 
#    0.000    0.000    0.000    0.000    0.000    0.000 
#
# Total GULP energy -134480.867197 kJ/mol
# GULP energy per Si atom -5603.369467 kJ/mol
# Density = 2.228097 g / cm^3
# Si number density = 22.331793 Si / 1000 Ang^3
#
#
#
# Elastic Constant Matrix: (Units=GPa)
#
#
# Indices 1 2 3 4 5 6 
#
# 1 53.2870 -1.5364 9.1370 0.0000 3.5330 0.0000
# 2 -1.5364 40.2133 3.6591 0.0000 7.9276 0.0000
# 3 9.1370 3.6591 25.7386 0.0000 7.1760 0.0000
# 4 0.0000 0.0000 0.0000 27.9744 0.0000 11.9104
# 5 3.5330 7.9276 7.1760 0.0000 31.3829 0.0000
# 6 0.0000 0.0000 0.0000 11.9104 0.0000 30.3999
#
#
#
# Elastic Compliance Matrix: (Units=1/GPa)
#
#
# Indices 1 2 3 4 5 6 
#
# 1 0.020095 0.001619 -0.007070 0.000000 -0.001055 0.000000
# 2 0.001619 0.026398 -0.002582 0.000000 -0.006260 0.000000
# 3 -0.007070 -0.002582 0.044139 0.000000 -0.008645 0.000000
# 4 0.000000 0.000000 0.000000 0.042904 0.000000 -0.016809
# 5 -0.001055 -0.006260 -0.008645 0.000000 0.035541 0.000000
# 6 0.000000 0.000000 0.000000 -0.016809 0.000000 0.039481
#
#
# Mechanical properties :
#
#
# Convention : Reuss Voigt Hill
#
# Bulk Modulus (GPa) = 13.41084 15.75092 14.58088
# Shear Modulus (GPa) = 20.04172 25.15006 22.59589
#
# Velocity S-wave (km/s) = 2.99900 3.35953 3.18437
# Velocity P-wave (km/s) = 4.24386 4.70288 4.47925
#
# Compressibility (1/GPa) = 0.07456653
#
# Stress axis : x y z
#
# Youngs Moduli (GPa) = 49.76324 37.88115 22.65568
#
# Poissons Ratio (x) = -0.06133 0.16017
# Poissons Ratio (y) = -0.08056 0.05850
# Poissons Ratio (z) = 0.35181 0.09782
#
# Static dielectric constant tensor:
#      x y z
#    x 1.796690 0.000000 -0.028120 
#    y 0.000000 1.825860 0.000000 
#    z -0.028120 0.000000 1.818590 
# 
# From -- ./inp_files/3051.got.cif
#   From: 2010.05.17/outbox.cif.g08.bks.cpg/sg14_2_cif.got.tgz:3051.got - 2010.06.03 17:49:19.
