data_PCOD9251663
_publ_section_title
;
Structure prediction by ZEFSAII (Michael W. Deem and Ramdas Pophale) SiO2 
 PCOD9251663
Probable space group: P 21/C
;
_chemical_formula_sum "Si O2"
_cell_formula_units_Z 24
_cell_length_a 21.054655
_cell_length_b 12.073185
_cell_length_c 20.431888
_cell_angle_alpha 90.000000
_cell_angle_beta 166.599338
_cell_angle_gamma 90.000000
_cell_volume 1203.691962
_symmetry_space_group_name_H-M "P 21/C"
_symmetry_group_IT_number 14
_symmetry_cell_setting 'monoclinic'
loop_
_space_group_symop_operation_xyz
x,y,z
-x,1/2+y,1/2-z
-x,-y,-z
x,1/2-y,1/2+z
loop_
_atom_site_type_symbol
_atom_site_label
_atom_site_fract_x
_atom_site_fract_y
_atom_site_fract_z
Si Si1 0.306772 0.701080 0.955340
Si Si2 0.301871 0.785212 0.160224
Si Si3 0.837480 0.611042 0.414385
Si Si4 0.296368 0.567688 0.074062
Si Si5 0.201228 0.913882 0.928296
Si Si6 0.840677 0.881163 0.766384
O O1 0.579095 0.643911 0.199718
O O2 0.204834 0.629372 0.915634
O O3 0.326309 0.824640 0.003232
O O4 0.074554 0.698767 0.667495
O O5 0.340662 0.660987 0.173407
O O6 0.578674 0.847369 0.460480
O O7 0.174774 0.850389 0.970660
O O8 0.076175 0.790558 0.990672
O O9 0.752393 0.609925 0.253297
O O10 0.996451 0.495009 0.586799
O O11 0.583911 0.511539 0.347723
O O12 0.080970 0.471615 0.874925
#
# Coordination Sequence:
#
# PCOD9251663 Si02
#       6
#     4   4   4   4   4   4
#     4  11  22  37  59  86 116 150 190 238 291 346
#     4  11  22  37  59  86 116 150 190 238 291 346
#     4  11  22  37  59  86 117 151 188 236 292 348
#     4  11  22  37  59  85 115 150 189 238 291 345
#     4  11  22  37  59  85 115 150 189 238 291 345
#     4  11  22  37  59  86 117 151 188 236 292 348
#
# _framework density 19.938655000000001
#
# number of rings (size 3 to 8) (size 9 to 14) (size 15 to 20)
#    0.000    1.000    0.000    9.000    0.000    8.000 
#    0.000    0.000    0.000   20.000    0.000    0.000 
#    0.000    0.000    0.000    0.000    0.000    0.000 
#
# Total GULP energy -134048.284090 kJ/mol
# GULP energy per Si atom -5585.345170 kJ/mol
# Density = 1.989327 g / cm^3
# Si number density = 19.938655 Si / 1000 Ang^3
#
#
#
# Elastic Constant Matrix: (Units=GPa)
#
#
# Indices 1 2 3 4 5 6 
#
# 1 79.0986 47.2297 28.8724 0.0000 4.3071 0.0000
# 2 47.2297 74.1757 21.9017 0.0000 2.7907 0.0000
# 3 28.8724 21.9017 100.7782 0.0000 5.3757 0.0000
# 4 0.0000 0.0000 0.0000 -10.4598 0.0000 -9.8755
# 5 4.3071 2.7907 5.3757 0.0000 31.9087 0.0000
# 6 0.0000 0.0000 0.0000 -9.8755 0.0000 25.1294
#
#
#
# Elastic Compliance Matrix: (Units=1/GPa)
#
#
# Indices 1 2 3 4 5 6 
#
# 1 0.021478 -0.012643 -0.003340 0.000000 -0.001231 0.000000
# 2 -0.012643 0.021866 -0.001129 0.000000 -0.000016 0.000000
# 3 -0.003340 -0.001129 0.011196 0.000000 -0.001337 0.000000
# 4 0.000000 0.000000 0.000000 -0.069731 0.000000 -0.027404
# 5 -0.001231 -0.000016 -0.001337 0.000000 0.031732 0.000000
# 6 0.000000 0.000000 0.000000 -0.027404 0.000000 0.029025
#
#
# Mechanical properties :
#
#
# Convention : Reuss Voigt Hill
#
# Bulk Modulus (GPa) = 49.22282 50.00670 49.61476
# Shear Modulus (GPa) = 57.76295 19.71891 38.74093
#
# Velocity S-wave (km/s) = 5.38825 3.14822 4.41274
# Velocity P-wave (km/s) = 7.96566 6.19272 7.13447
#
# Compressibility (1/GPa) = 0.02031578
#
# Stress axis : x y z
#
# Youngs Moduli (GPa) = 46.55991 45.73401 89.31511
#
# Poissons Ratio (x) = 0.57821 0.29831
# Poissons Ratio (y) = 0.58866 0.10084
# Poissons Ratio (z) = 0.15551 0.05163
#
# Static dielectric constant tensor:
#      x y z
#    x 1.741940 0.000000 -0.019090 
#    y 0.000000 1.736680 0.000000 
#    z -0.019090 0.000000 1.711360 
# 
# From -- ./inp_files/74943.got.cif
#   From: 2010.05.17/outbox.cif.g08.bks.cpg/sg14_38_cif.got.tgz:74943.got - 2010.06.03 17:49:19.
