data_PCOD9251289
_publ_section_title
;
Structure prediction by ZEFSAII (Michael W. Deem and Ramdas Pophale) SiO2 
 PCOD9251289
Probable space group: P 21/C
;
_chemical_formula_sum "Si O2"
_cell_formula_units_Z 32
_cell_length_a 11.778096
_cell_length_b 16.937830
_cell_length_c 9.965820
_cell_angle_alpha 90.000000
_cell_angle_beta 65.081645
_cell_angle_gamma 90.000000
_cell_volume 1803.057811
_symmetry_space_group_name_H-M "P 21/C"
_symmetry_group_IT_number 14
_symmetry_cell_setting 'monoclinic'
loop_
_space_group_symop_operation_xyz
x,y,z
-x,1/2+y,1/2-z
-x,-y,-z
x,1/2-y,1/2+z
loop_
_atom_site_type_symbol
_atom_site_label
_atom_site_fract_x
_atom_site_fract_y
_atom_site_fract_z
Si Si1 0.822972 0.645399 0.391867
Si Si2 0.968658 0.267413 0.108656
Si Si3 0.173661 0.813914 0.063946
Si Si4 0.914632 0.941938 0.454154
Si Si5 0.044208 0.517450 0.628145
Si Si6 0.691291 0.632764 0.179539
Si Si7 0.402426 0.285011 0.375842
Si Si8 0.467032 0.698213 0.411230
O O1 0.879903 0.558481 0.359665
O O2 0.767609 0.664325 0.271954
O O3 0.705606 0.650569 0.552469
O O4 0.928906 0.706158 0.385851
O O5 0.862029 0.278709 0.273790
O O6 0.907348 0.232998 0.005467
O O7 0.032200 0.352851 0.056211
O O8 0.320625 0.808846 0.963321
O O9 0.128442 0.904365 0.085897
O O10 0.933391 0.966220 0.290116
O O11 0.772153 0.937537 0.577783
O O12 0.000000 0.000000 0.500000
O O13 0.000000 0.500000 0.500000
O O14 0.674146 0.701949 0.078651
O O15 0.549980 0.625745 0.307871
O O16 0.476022 0.272598 0.200489
O O17 0.497314 0.293597 0.451327
#
# Coordination Sequence:
#
# PCOD9251289 Si02
#       8
#     4   4   4   4   4   4   4   4
#     4  11  19  36  58  90 115 151 202 245 301 345
#     4  11  22  34  61  86 115 158 192 241 302 362
#     4  11  23  38  59  87 120 156 194 239 306 346
#     4  11  21  37  59  88 117 151 196 240 305 346
#     4  11  24  36  57  90 125 150 186 254 301 347
#     4   9  19  35  61  81 112 157 193 249 279 350
#     4   9  19  33  62  82 109 153 204 242 278 344
#     4   9  19  37  57  84 113 150 201 247 274 346
#
# _framework density 17.747627999999999
#
# number of rings (size 3 to 8) (size 9 to 14) (size 15 to 20)
#    0.750    1.000    3.750    1.500    0.000    1.000 
#    0.000    2.500    2.750    0.750    0.000    0.000 
#    0.000    0.000    0.000    0.000    0.000    0.000 
#
# Total GULP energy -178203.626539 kJ/mol
# GULP energy per Si atom -5568.863329 kJ/mol
# Density = 1.770723 g / cm^3
# Si number density = 17.747628 Si / 1000 Ang^3
#
#
#
# Elastic Constant Matrix: (Units=GPa)
#
#
# Indices 1 2 3 4 5 6 
#
# 1 56.7911 2.7039 19.1145 0.0000 -6.6855 0.0000
# 2 2.7039 63.3105 10.3384 0.0000 5.4073 0.0000
# 3 19.1145 10.3384 65.5358 0.0000 -7.7337 0.0000
# 4 0.0000 0.0000 0.0000 19.2473 0.0000 1.4308
# 5 -6.6855 5.4073 -7.7337 0.0000 26.1512 0.0000
# 6 0.0000 0.0000 0.0000 1.4308 0.0000 13.0771
#
#
#
# Elastic Compliance Matrix: (Units=1/GPa)
#
#
# Indices 1 2 3 4 5 6 
#
# 1 0.019831 -0.000282 -0.005320 0.000000 0.003555 0.000000
# 2 -0.000282 0.016688 -0.003073 0.000000 -0.004431 0.000000
# 3 -0.005320 -0.003073 0.017832 0.000000 0.004549 0.000000
# 4 0.000000 0.000000 0.000000 0.052381 0.000000 -0.005731
# 5 0.003555 -0.004431 0.004549 0.000000 0.041409 0.000000
# 6 0.000000 0.000000 0.000000 -0.005731 0.000000 0.077097
#
#
# Mechanical properties :
#
#
# Convention : Reuss Voigt Hill
#
# Bulk Modulus (GPa) = 27.02677 27.77234 27.39955
# Shear Modulus (GPa) = 19.61387 21.92716 20.77052
#
# Velocity S-wave (km/s) = 3.32799 3.51878 3.42471
# Velocity P-wave (km/s) = 5.47986 5.67376 5.57765
#
# Compressibility (1/GPa) = 0.03700035
#
# Stress axis : x y z
#
# Youngs Moduli (GPa) = 50.42648 59.92494 56.07861
#
# Poissons Ratio (x) = 0.01689 0.29834
# Poissons Ratio (y) = 0.01421 0.17234
# Poissons Ratio (z) = 0.26827 0.18416
#
# Static dielectric constant tensor:
#      x y z
#    x 1.595600 0.000000 -0.015810 
#    y 0.000000 1.604400 0.000000 
#    z -0.015810 0.000000 1.656320 
# 
# From -- ./inp_files/13718.got.cif
#   From: 2010.05.17/outbox.cif.g08.bks.cpg/sg14_7_cif.got.tgz:13718.got - 2010.06.03 17:49:19.
