data_PCOD9251868
_publ_section_title
;
Structure prediction by ZEFSAII (Michael W. Deem and Ramdas Pophale) SiO2 
 PCOD9251868
Probable space group: P 21/C
;
_chemical_formula_sum "Si O2"
_cell_formula_units_Z 28
_cell_length_a 6.473241
_cell_length_b 13.896878
_cell_length_c 16.840243
_cell_angle_alpha 90.000000
_cell_angle_beta 54.157075
_cell_angle_gamma 90.000000
_cell_volume 1228.025985
_symmetry_space_group_name_H-M "P 21/C"
_symmetry_group_IT_number 14
_symmetry_cell_setting 'monoclinic'
loop_
_space_group_symop_operation_xyz
x,y,z
-x,1/2+y,1/2-z
-x,-y,-z
x,1/2-y,1/2+z
loop_
_atom_site_type_symbol
_atom_site_label
_atom_site_fract_x
_atom_site_fract_y
_atom_site_fract_z
Si Si1 0.992156 0.519950 0.408043
Si Si2 0.797793 0.771728 0.979179
Si Si3 0.251967 0.847901 0.129461
Si Si4 0.113091 0.899162 0.327034
Si Si5 0.099721 0.207888 0.365811
Si Si6 0.285492 0.945175 0.596156
Si Si7 0.485936 0.052169 0.292046
O O1 0.914035 0.630934 0.417260
O O2 0.802009 0.447123 0.405461
O O3 0.000000 0.500000 0.500000
O O4 0.276459 0.513224 0.310029
O O5 0.936701 0.681522 0.906436
O O6 0.494833 0.790678 0.040585
O O7 0.858007 0.757743 0.059137
O O8 0.284624 0.861808 0.216078
O O9 0.994832 0.786389 0.174950
O O10 0.287511 0.963613 0.346220
O O11 0.922073 0.976282 0.330813
O O12 0.337719 0.142097 0.286706
O O13 0.866516 0.131812 0.421303
O O14 0.416025 0.907453 0.646254
O O15 0.500000 0.000000 0.500000
#
# Coordination Sequence:
#
# PCOD9251868 Si02
#       7
#     4   4   4   4   4   4   4
#     4  12  26  49  71 102 144 196 239 295 360 435
#     4  12  27  45  74 105 141 191 243 296 364 434
#     4  12  26  47  71 105 147 187 247 298 358 438
#     4  11  26  43  74 106 142 190 235 304 366 424
#     4  11  25  44  71 105 141 185 239 300 355 432
#     4  11  22  45  71 104 145 181 234 295 369 428
#     4  11  25  46  74 105 146 186 241 297 365 434
#
# _framework density 22.800820999999999
#
# number of rings (size 3 to 8) (size 9 to 14) (size 15 to 20)
#    0.000    0.571    2.857    4.714    4.000    3.429 
#    2.571    0.000    0.000    0.000    0.000    0.000 
#    0.000    0.000    0.000    0.000    0.000    0.000 
#
# Total GULP energy -156571.678744 kJ/mol
# GULP energy per Si atom -5591.845669 kJ/mol
# Density = 2.274893 g / cm^3
# Si number density = 22.800821 Si / 1000 Ang^3
#
#
#
# Elastic Constant Matrix: (Units=GPa)
#
#
# Indices 1 2 3 4 5 6 
#
# 1 104.0443 45.4939 28.2323 0.0000 -11.8090 0.0000
# 2 45.4939 121.0356 15.7092 0.0000 -15.4617 0.0000
# 3 28.2323 15.7092 61.8227 0.0000 -11.6955 0.0000
# 4 0.0000 0.0000 0.0000 34.3478 0.0000 0.0954
# 5 -11.8090 -15.4617 -11.6955 0.0000 33.6963 0.0000
# 6 0.0000 0.0000 0.0000 0.0954 0.0000 50.4134
#
#
#
# Elastic Compliance Matrix: (Units=1/GPa)
#
#
# Indices 1 2 3 4 5 6 
#
# 1 0.012752 -0.004068 -0.004600 0.000000 0.001006 0.000000
# 2 -0.004068 0.010219 -0.000130 0.000000 0.003218 0.000000
# 3 -0.004600 -0.000130 0.019257 0.000000 0.005012 0.000000
# 4 0.000000 0.000000 0.000000 0.029114 0.000000 -0.000055
# 5 0.001006 0.003218 0.005012 0.000000 0.033246 0.000000
# 6 0.000000 0.000000 0.000000 -0.000055 0.000000 0.019836
#
#
# Mechanical properties :
#
#
# Convention : Reuss Voigt Hill
#
# Bulk Modulus (GPa) = 40.59551 51.75259 46.17405
# Shear Modulus (GPa) = 33.28223 36.85598 35.06910
#
# Velocity S-wave (km/s) = 3.82474 4.02485 3.92607
# Velocity P-wave (km/s) = 6.11129 6.65929 6.39117
#
# Compressibility (1/GPa) = 0.02463327
#
# Stress axis : x y z
#
# Youngs Moduli (GPa) = 78.41795 97.85704 51.92903
#
# Poissons Ratio (x) = 0.39805 0.23885
# Poissons Ratio (y) = 0.31898 0.00676
# Poissons Ratio (z) = 0.36069 0.01275
#
# Static dielectric constant tensor:
#      x y z
#    x 2.139200 0.000000 0.201260 
#    y 0.000000 1.904370 0.000000 
#    z 0.201260 0.000000 2.004380 
# 
# From -- ./inp_files/53412.got.cif
#   From: 2010.05.17/outbox.cif.g08.bks.cpg/sg14_27_cif.got.tgz:53412.got - 2010.06.03 17:49:19.
