data_PCOD9251329
_publ_section_title
;
Structure prediction by ZEFSAII (Michael W. Deem and Ramdas Pophale) SiO2 
 PCOD9251329
Probable space group: P 21/C
;
_chemical_formula_sum "Si O2"
_cell_formula_units_Z 28
_cell_length_a 12.467796
_cell_length_b 7.797964
_cell_length_c 13.517254
_cell_angle_alpha 90.000000
_cell_angle_beta 113.353157
_cell_angle_gamma 90.000000
_cell_volume 1206.533675
_symmetry_space_group_name_H-M "P 21/C"
_symmetry_group_IT_number 14
_symmetry_cell_setting 'monoclinic'
loop_
_space_group_symop_operation_xyz
x,y,z
-x,1/2+y,1/2-z
-x,-y,-z
x,1/2-y,1/2+z
loop_
_atom_site_type_symbol
_atom_site_label
_atom_site_fract_x
_atom_site_fract_y
_atom_site_fract_z
Si Si1 0.418077 0.678081 0.037493
Si Si2 0.720125 0.326200 0.682490
Si Si3 0.333983 0.204615 0.913079
Si Si4 0.905503 0.304772 0.586673
Si Si5 0.226712 0.957069 0.592240
Si Si6 0.295761 0.493500 0.583789
Si Si7 0.176036 0.197748 0.196691
O O1 0.555788 0.684285 0.079282
O O2 0.344388 0.536159 0.069093
O O3 0.380583 0.851504 0.084297
O O4 0.364692 0.699876 0.908055
O O5 0.664684 0.513903 0.636770
O O6 0.843742 0.302486 0.671347
O O7 0.743153 0.326620 0.806594
O O8 0.214982 0.277517 0.824086
O O9 0.334915 0.162934 0.028687
O O10 0.870652 0.131053 0.513954
O O11 0.831344 0.449960 0.503531
O O12 0.040608 0.345997 0.641160
O O13 0.190204 0.129674 0.634941
O O14 0.269391 0.432526 0.683586
#
# Coordination Sequence:
#
# PCOD9251329 Si02
#       7
#     4   4   4   4   4   4   4
#     4   9  18  35  54  74 101 139 179 209 252 322
#     4   8  16  33  54  73  98 139 179 212 255 310
#     4   9  19  33  53  76 102 138 177 211 259 314
#     4   9  19  35  53  74 102 140 178 209 253 321
#     4   9  19  34  53  77 103 135 170 216 270 308
#     4   9  19  36  54  74 102 140 178 218 256 308
#     4  11  20  32  51  80 107 131 169 221 268 307
#
# _framework density 23.206976000000001
#
# number of rings (size 3 to 8) (size 9 to 14) (size 15 to 20)
#    0.000    3.429    0.000    2.571    0.000    4.571 
#    0.000   12.143    0.000    0.000    0.000    0.000 
#    0.000    0.000    0.000    0.000    0.000    0.000 
#
# Total GULP energy -156195.401295 kJ/mol
# GULP energy per Si atom -5578.407189 kJ/mol
# Density = 2.315416 g / cm^3
# Si number density = 23.206976 Si / 1000 Ang^3
#
#
#
# Elastic Constant Matrix: (Units=GPa)
#
#
# Indices 1 2 3 4 5 6 
#
# 1 102.4373 2.6512 15.5161 0.0000 10.4721 0.0000
# 2 2.6512 56.1152 -11.1730 0.0000 -2.8336 0.0000
# 3 15.5161 -11.1730 33.8098 0.0000 -5.1167 0.0000
# 4 0.0000 0.0000 0.0000 12.1573 0.0000 -8.6716
# 5 10.4721 -2.8336 -5.1167 0.0000 13.3293 0.0000
# 6 0.0000 0.0000 0.0000 -8.6716 0.0000 20.4112
#
#
#
# Elastic Compliance Matrix: (Units=1/GPa)
#
#
# Indices 1 2 3 4 5 6 
#
# 1 0.012626 -0.003082 -0.008933 0.000000 -0.014004 0.000000
# 2 -0.003082 0.020440 0.009761 0.000000 0.010514 0.000000
# 3 -0.008933 0.009761 0.040639 0.000000 0.024693 0.000000
# 4 0.000000 0.000000 0.000000 0.118019 0.000000 0.050140
# 5 -0.014004 0.010514 0.024693 0.000000 0.097739 0.000000
# 6 0.000000 0.000000 0.000000 0.050140 0.000000 0.070294
#
#
# Mechanical properties :
#
#
# Convention : Reuss Voigt Hill
#
# Bulk Modulus (GPa) = 14.45140 22.92787 18.68964
# Shear Modulus (GPa) = 12.90880 21.53742 17.22311
#
# Velocity S-wave (km/s) = 2.36105 3.04971 2.72720
# Velocity P-wave (km/s) = 3.69776 4.72252 4.24120
#
# Compressibility (1/GPa) = 0.06919745
#
# Stress axis : x y z
#
# Youngs Moduli (GPa) = 79.19860 48.92270 24.60686
#
# Poissons Ratio (x) = 0.15079 0.21980
# Poissons Ratio (y) = 0.24411 -0.24018
# Poissons Ratio (z) = 0.70744 -0.47751
#
# Static dielectric constant tensor:
#      x y z
#    x 1.820000 0.000000 -0.042470 
#    y 0.000000 1.983580 0.000000 
#    z -0.042470 0.000000 1.887830 
# 
# From -- ./inp_files/43189.got.cif
#   From: 2010.05.17/outbox.cif.g08.bks.cpg/sg14_22_cif.got.tgz:43189.got - 2010.06.03 17:49:19.
