data_PCOD9251167
_publ_section_title
;
Structure prediction by ZEFSAII (Michael W. Deem and Ramdas Pophale) SiO2 
 PCOD9251167
Probable space group: P 21/C
;
_chemical_formula_sum "Si O2"
_cell_formula_units_Z 22
_cell_length_a 5.036721
_cell_length_b 27.595724
_cell_length_c 8.687657
_cell_angle_alpha 90.000000
_cell_angle_beta 126.406569
_cell_angle_gamma 90.000000
_cell_volume 971.838768
_symmetry_space_group_name_H-M "P 21/C"
_symmetry_group_IT_number 14
_symmetry_cell_setting 'monoclinic'
loop_
_space_group_symop_operation_xyz
x,y,z
-x,1/2+y,1/2-z
-x,-y,-z
x,1/2-y,1/2+z
loop_
_atom_site_type_symbol
_atom_site_label
_atom_site_fract_x
_atom_site_fract_y
_atom_site_fract_z
Si Si1 0.861943 0.217756 0.575829
Si Si2 0.301665 0.888399 0.947821
Si Si3 0.543937 0.630508 0.205123
Si Si4 0.604951 0.195375 0.810643
Si Si5 0.355768 0.976023 0.603469
Si Si6 0.500000 0.000000 0.000000
O O1 0.620805 0.178880 0.413947
O O2 0.838150 0.206583 0.747761
O O3 0.734669 0.271221 0.494102
O O4 0.232372 0.210567 0.644551
O O5 0.521879 0.869293 0.882440
O O6 0.356439 0.945361 0.977564
O O7 0.919431 0.876741 0.782043
O O8 0.391574 0.859850 0.133389
O O9 0.348580 0.582150 0.084681
O O10 0.543628 0.987561 0.826749
O O11 0.500000 0.000000 0.500000
O O12 0.000000 0.000000 0.500000
#
# Coordination Sequence:
#
# PCOD9251167 Si02
#       6
#     4   4   4   4   4   2
#     4  12  25  43  70 100 137 174 228 282 347 424
#     4  11  24  44  68  98 137 182 230 285 353 407
#     4  11  24  44  66  99 136 177 226 292 341 412
#     4  12  25  43  70 100 134 181 222 284 348 421
#     4  11  25  42  69  98 141 184 237 290 348 418
#     4  10  26  44  70 100 146 186 240 294 348 418
#
# _framework density 22.637501
#
# number of rings (size 3 to 8) (size 9 to 14) (size 15 to 20)
#    0.000    0.727    0.000    7.636    5.091    6.545 
#    0.000    0.000    0.000    0.000    0.000    0.000 
#    0.000    0.000    0.000    0.000    0.000    0.000 
#
# Total GULP energy -122682.521182 kJ/mol
# GULP energy per Si atom -5576.478236 kJ/mol
# Density = 2.258598 g / cm^3
# Si number density = 22.637501 Si / 1000 Ang^3
#
#
#
# Elastic Constant Matrix: (Units=GPa)
#
#
# Indices 1 2 3 4 5 6 
#
# 1 81.6643 15.9390 7.9069 0.0000 -10.2615 0.0000
# 2 15.9390 75.7653 22.9176 0.0000 11.7723 0.0000
# 3 7.9069 22.9176 38.1094 0.0000 -10.7546 0.0000
# 4 0.0000 0.0000 0.0000 53.8211 0.0000 -5.4736
# 5 -10.2615 11.7723 -10.7546 0.0000 50.5944 0.0000
# 6 0.0000 0.0000 0.0000 -5.4736 0.0000 23.0861
#
#
#
# Elastic Compliance Matrix: (Units=1/GPa)
#
#
# Indices 1 2 3 4 5 6 
#
# 1 0.013339 -0.003460 0.000323 0.000000 0.003579 0.000000
# 2 -0.003460 0.019083 -0.012988 0.000000 -0.007903 0.000000
# 3 0.000323 -0.012988 0.037079 0.000000 0.010969 0.000000
# 4 0.000000 0.000000 0.000000 0.019039 0.000000 0.004514
# 5 0.003579 -0.007903 0.010969 0.000000 0.024661 0.000000
# 6 0.000000 0.000000 0.000000 0.004514 0.000000 0.044386
#
#
# Mechanical properties :
#
#
# Convention : Reuss Voigt Hill
#
# Bulk Modulus (GPa) = 26.84458 32.11845 29.48151
# Shear Modulus (GPa) = 24.72116 35.41869 30.06993
#
# Velocity S-wave (km/s) = 3.30819 3.95980 3.64857
# Velocity P-wave (km/s) = 5.14552 5.92669 5.54987
#
# Compressibility (1/GPa) = 0.03725147
#
# Stress axis : x y z
#
# Youngs Moduli (GPa) = 74.96796 52.40216 26.96920
#
# Poissons Ratio (x) = 0.18132 -0.00872
# Poissons Ratio (y) = 0.25940 0.35028
# Poissons Ratio (z) = -0.02423 0.68061
#
# Static dielectric constant tensor:
#      x y z
#    x 1.805720 0.000000 0.005650 
#    y 0.000000 1.788620 0.000000 
#    z 0.005650 0.000000 1.863270 
# 
# From -- ./inp_files/6609.got.cif
#   From: 2010.05.17/outbox.cif.g08.bks.cpg/sg14_4_cif.got.tgz:6609.got - 2010.06.03 17:49:19.
