data_PCOD9251362
_publ_section_title
;
Structure prediction by ZEFSAII (Michael W. Deem and Ramdas Pophale) SiO2 
 PCOD9251362
Probable space group: P 21/C
;
_chemical_formula_sum "Si O2"
_cell_formula_units_Z 24
_cell_length_a 7.131092
_cell_length_b 15.649730
_cell_length_c 13.111653
_cell_angle_alpha 90.000000
_cell_angle_beta 135.645883
_cell_angle_gamma 90.000000
_cell_volume 1022.949094
_symmetry_space_group_name_H-M "P 21/C"
_symmetry_group_IT_number 14
_symmetry_cell_setting 'monoclinic'
loop_
_space_group_symop_operation_xyz
x,y,z
-x,1/2+y,1/2-z
-x,-y,-z
x,1/2-y,1/2+z
loop_
_atom_site_type_symbol
_atom_site_label
_atom_site_fract_x
_atom_site_fract_y
_atom_site_fract_z
Si Si1 0.624338 0.256124 0.022173
Si Si2 0.891680 0.512139 0.140942
Si Si3 0.495123 0.608338 0.873709
Si Si4 0.659973 0.580845 0.602533
Si Si5 0.028442 0.904228 0.052142
Si Si6 0.844901 0.827523 0.775422
O O1 0.536525 0.159853 0.963689
O O2 0.464568 0.307563 0.871746
O O3 0.496653 0.297409 0.074407
O O4 0.944995 0.250149 0.163388
O O5 0.687558 0.445498 0.115697
O O6 0.919993 0.590702 0.233426
O O7 0.161705 0.457623 0.236912
O O8 0.772035 0.557376 0.994453
O O9 0.335503 0.609440 0.706473
O O10 0.500000 0.500000 0.500000
O O11 0.861281 0.606406 0.589989
O O12 0.902262 0.847629 0.914763
O O13 0.000000 0.000000 0.000000
#
# Coordination Sequence:
#
# PCOD9251362 Si02
#       6
#     4   4   4   4   4   4
#     4  11  23  39  61  91 120 160 204 251 297 368
#     4   9  17  35  59  86 109 157 200 235 288 370
#     4   9  19  34  60  87 114 152 202 238 296 364
#     4  11  20  37  62  87 117 160 205 242 294 368
#     4  11  20  37  61  89 118 160 195 249 306 355
#     4  11  21  38  62  89 123 156 199 253 306 350
#
# _framework density 23.461579
#
# number of rings (size 3 to 8) (size 9 to 14) (size 15 to 20)
#    0.000    1.667    5.000    2.000    0.000    1.333 
#    0.000    0.000    3.667    2.000    0.000    0.000 
#    0.000    0.000    0.000    0.000    0.000    0.000 
#
# Total GULP energy -133906.204162 kJ/mol
# GULP energy per Si atom -5579.425173 kJ/mol
# Density = 2.340818 g / cm^3
# Si number density = 23.461579 Si / 1000 Ang^3
#
#
#
# Elastic Constant Matrix: (Units=GPa)
#
#
# Indices 1 2 3 4 5 6 
#
# 1 33.8113 -1.9287 14.2009 0.0000 -2.0980 0.0000
# 2 -1.9287 96.2920 37.6115 0.0000 -4.9069 0.0000
# 3 14.2009 37.6115 170.6689 0.0000 -11.1321 0.0000
# 4 0.0000 0.0000 0.0000 50.0424 0.0000 11.6884
# 5 -2.0980 -4.9069 -11.1321 0.0000 31.7330 0.0000
# 6 0.0000 0.0000 0.0000 11.6884 0.0000 19.2137
#
#
#
# Elastic Compliance Matrix: (Units=1/GPa)
#
#
# Indices 1 2 3 4 5 6 
#
# 1 0.030976 0.001817 -0.002892 0.000000 0.001314 0.000000
# 2 0.001817 0.011495 -0.002621 0.000000 0.000978 0.000000
# 3 -0.002892 -0.002621 0.006794 0.000000 0.001787 0.000000
# 4 0.000000 0.000000 0.000000 0.023293 0.000000 -0.014170
# 5 0.001314 0.000978 0.001787 0.000000 0.032378 0.000000
# 6 0.000000 0.000000 0.000000 -0.014170 0.000000 0.060666
#
#
# Mechanical properties :
#
#
# Convention : Reuss Voigt Hill
#
# Bulk Modulus (GPa) = 23.88148 44.50440 34.19294
# Shear Modulus (GPa) = 26.74499 36.92372 31.83435
#
# Velocity S-wave (km/s) = 3.37997 3.97141 3.68757
# Velocity P-wave (km/s) = 5.04315 6.32770 5.72159
#
# Compressibility (1/GPa) = 0.04187346
#
# Stress axis : x y z
#
# Youngs Moduli (GPa) = 32.28323 86.99488 147.18829
#
# Poissons Ratio (x) = -0.15807 0.42569
# Poissons Ratio (y) = -0.05866 0.38572
# Poissons Ratio (z) = 0.09337 0.22798
#
# Static dielectric constant tensor:
#      x y z
#    x 1.929350 0.000000 0.072520 
#    y 0.000000 1.919870 0.000000 
#    z 0.072520 0.000000 1.954340 
# 
# From -- ./inp_files/41062.got.cif
#   From: 2010.05.17/outbox.cif.g08.bks.cpg/sg14_21_cif.got.tgz:41062.got - 2010.06.03 17:49:19.
