data_PCOD9251453
_publ_section_title
;
Structure prediction by ZEFSAII (Michael W. Deem and Ramdas Pophale) SiO2 
 PCOD9251453
Probable space group: P 21/C
;
_chemical_formula_sum "Si O2"
_cell_formula_units_Z 20
_cell_length_a 10.168622
_cell_length_b 9.891266
_cell_length_c 13.575478
_cell_angle_alpha 90.000000
_cell_angle_beta 39.025596
_cell_angle_gamma 90.000000
_cell_volume 859.766259
_symmetry_space_group_name_H-M "P 21/C"
_symmetry_group_IT_number 14
_symmetry_cell_setting 'monoclinic'
loop_
_space_group_symop_operation_xyz
x,y,z
-x,1/2+y,1/2-z
-x,-y,-z
x,1/2-y,1/2+z
loop_
_atom_site_type_symbol
_atom_site_label
_atom_site_fract_x
_atom_site_fract_y
_atom_site_fract_z
Si Si1 0.799668 0.207429 0.662759
Si Si2 0.497626 0.706454 0.834708
Si Si3 0.041157 0.754597 0.642665
Si Si4 0.143189 0.498777 0.319335
Si Si5 0.699771 0.554686 0.325624
O O1 0.577038 0.200150 0.734973
O O2 0.815552 0.342796 0.717367
O O3 0.956883 0.216583 0.478244
O O4 0.822881 0.072473 0.710599
O O5 0.644388 0.583053 0.780280
O O6 0.606300 0.848235 0.795207
O O7 0.281035 0.710607 0.022418
O O8 0.978085 0.597475 0.687289
O O9 0.859393 0.847763 0.791034
O O10 0.000000 0.500000 0.500000
O O11 0.500000 0.500000 0.500000
#
# Coordination Sequence:
#
# PCOD9251453 Si02
#       5
#     4   4   4   4   4
#     4   9  18  33  59  79 106 149 188 225 273 337
#     4   9  19  34  57  77 112 147 192 220 270 342
#     4   8  19  34  57  76 111 149 188 227 271 338
#     4   9  16  32  52  84 104 135 188 240 262 309
#     4  11  21  37  55  85 119 142 181 240 286 322
#
# _framework density 23.262134
#
# number of rings (size 3 to 8) (size 9 to 14) (size 15 to 20)
#    1.200    1.600    0.000    1.800    0.000    0.000 
#    0.000    8.000    0.000    0.000    0.000    0.000 
#    0.000    0.000    0.000    0.000    0.000    0.000 
#
# Total GULP energy -111507.554215 kJ/mol
# GULP energy per Si atom -5575.377711 kJ/mol
# Density = 2.320919 g / cm^3
# Si number density = 23.262134 Si / 1000 Ang^3
#
#
#
# Elastic Constant Matrix: (Units=GPa)
#
#
# Indices 1 2 3 4 5 6 
#
# 1 54.7396 9.9072 26.4957 0.0000 -5.9124 0.0000
# 2 9.9072 132.5089 29.7575 0.0000 -2.5140 0.0000
# 3 26.4957 29.7575 79.1253 0.0000 -25.8825 0.0000
# 4 0.0000 0.0000 0.0000 23.9076 0.0000 -3.9715
# 5 -5.9124 -2.5140 -25.8825 0.0000 35.7627 0.0000
# 6 0.0000 0.0000 0.0000 -3.9715 0.0000 9.1432
#
#
#
# Elastic Compliance Matrix: (Units=1/GPa)
#
#
# Indices 1 2 3 4 5 6 
#
# 1 0.021937 0.000144 -0.008137 0.000000 -0.002252 0.000000
# 2 0.000144 0.008376 -0.003928 0.000000 -0.002230 0.000000
# 3 -0.008137 -0.003928 0.021368 0.000000 0.013844 0.000000
# 4 0.000000 0.000000 0.000000 0.045081 0.000000 0.019582
# 5 -0.002252 -0.002230 0.013844 0.000000 0.037452 0.000000
# 6 0.000000 0.000000 0.000000 0.019582 0.000000 0.117877
#
#
# Mechanical properties :
#
#
# Convention : Reuss Voigt Hill
#
# Bulk Modulus (GPa) = 35.91811 44.29939 40.10875
# Shear Modulus (GPa) = 17.53085 27.11026 22.32056
#
# Velocity S-wave (km/s) = 2.74820 3.41753 3.10098
# Velocity P-wave (km/s) = 5.05413 5.88707 5.48643
#
# Compressibility (1/GPa) = 0.02784111
#
# Stress axis : x y z
#
# Youngs Moduli (GPa) = 45.58417 119.39448 46.79823
#
# Poissons Ratio (x) = -0.01724 0.38079
# Poissons Ratio (y) = -0.00658 0.18381
# Poissons Ratio (z) = 0.37091 0.46894
#
# Static dielectric constant tensor:
#      x y z
#    x 2.016670 0.000000 -0.010670 
#    y 0.000000 1.872290 0.000000 
#    z -0.010670 0.000000 1.865810 
# 
# From -- ./inp_files/46098.got.cif
#   From: 2010.05.17/outbox.cif.g08.bks.cpg/sg14_24_cif.got.tgz:46098.got - 2010.06.03 17:49:19.
