data_PCOD9251982
_publ_section_title
;
Structure prediction by ZEFSAII (Michael W. Deem and Ramdas Pophale) SiO2 
 PCOD9251982
Probable space group: P 21/C
;
_chemical_formula_sum "Si O2"
_cell_formula_units_Z 32
_cell_length_a 30.328192
_cell_length_b 5.663649
_cell_length_c 9.256570
_cell_angle_alpha 90.000000
_cell_angle_beta 67.756000
_cell_angle_gamma 90.000000
_cell_volume 1471.658264
_symmetry_space_group_name_H-M "P 21/C"
_symmetry_group_IT_number 14
_symmetry_cell_setting 'monoclinic'
loop_
_space_group_symop_operation_xyz
x,y,z
-x,1/2+y,1/2-z
-x,-y,-z
x,1/2-y,1/2+z
loop_
_atom_site_type_symbol
_atom_site_label
_atom_site_fract_x
_atom_site_fract_y
_atom_site_fract_z
Si Si1 0.016569 0.286130 0.879790
Si Si2 0.819596 0.499256 0.619329
Si Si3 0.645708 0.757185 0.338018
Si Si4 0.444496 0.528787 0.093316
Si Si5 0.211480 0.504063 0.001484
Si Si6 0.393334 0.631784 0.443691
Si Si7 0.319580 0.005132 0.454129
Si Si8 0.932127 0.998663 0.938191
O O1 0.055927 0.336291 0.711385
O O2 0.043071 0.102474 0.950147
O O3 0.966855 0.219389 0.863368
O O4 0.000000 0.500000 0.000000
O O5 0.802475 0.249343 0.565625
O O6 0.807833 0.503502 0.807147
O O7 0.876604 0.480294 0.529730
O O8 0.802028 0.751742 0.564527
O O9 0.646321 0.509381 0.416605
O O10 0.590883 0.830972 0.427437
O O11 0.680868 0.932656 0.376047
O O12 0.658558 0.729033 0.157367
O O13 0.429596 0.532439 0.279258
O O14 0.500000 0.500000 0.000000
O O15 0.426205 0.752683 0.026024
O O16 0.268409 0.527981 0.950687
O O17 0.360192 0.809458 0.392506
#
# Coordination Sequence:
#
# PCOD9251982 Si02
#       8
#     4   4   4   4   4   4   4   4
#     4  11  23  40  67 100 131 188 235 284 352 408
#     4  12  29  49  76 111 155 194 246 307 385 437
#     4  11  23  43  66  97 128 175 218 282 336 397
#     4  11  26  41  64  97 134 173 217 271 342 420
#     4  12  29  49  77 111 145 203 243 310 382 440
#     4  11  24  42  63  96 127 174 216 274 337 391
#     4  11  25  43  73  93 136 168 240 282 337 428
#     4  11  25  42  70  99 144 181 242 294 348 440
#
# _framework density 21.74418
#
# number of rings (size 3 to 8) (size 9 to 14) (size 15 to 20)
#    0.000    0.750    3.750    2.250    8.750    0.500 
#    0.000    0.000    0.000    0.000    0.000    0.000 
#    0.000    0.000    0.000    0.000    0.000    0.000 
#
# Total GULP energy -178232.038034 kJ/mol
# GULP energy per Si atom -5569.751189 kJ/mol
# Density = 2.169469 g / cm^3
# Si number density = 21.744180 Si / 1000 Ang^3
#
#
#
# Elastic Constant Matrix: (Units=GPa)
#
#
# Indices 1 2 3 4 5 6 
#
# 1 103.3891 14.4020 -10.3140 0.0000 -7.5126 0.0000
# 2 14.4020 66.4066 10.7342 0.0000 15.3599 0.0000
# 3 -10.3140 10.7342 102.5709 0.0000 10.1618 0.0000
# 4 0.0000 0.0000 0.0000 32.9108 0.0000 1.4568
# 5 -7.5126 15.3599 10.1618 0.0000 32.4673 0.0000
# 6 0.0000 0.0000 0.0000 1.4568 0.0000 9.7351
#
#
#
# Elastic Compliance Matrix: (Units=1/GPa)
#
#
# Indices 1 2 3 4 5 6 
#
# 1 0.010500 -0.003292 0.001038 0.000000 0.003662 0.000000
# 2 -0.003292 0.018043 -0.001340 0.000000 -0.008878 0.000000
# 3 0.001038 -0.001340 0.010224 0.000000 -0.002326 0.000000
# 4 0.000000 0.000000 0.000000 0.030588 0.000000 -0.004577
# 5 0.003662 -0.008878 -0.002326 0.000000 0.036576 0.000000
# 6 0.000000 0.000000 0.000000 -0.004577 0.000000 0.103406
#
#
# Mechanical properties :
#
#
# Convention : Reuss Voigt Hill
#
# Bulk Modulus (GPa) = 31.66650 33.55679 32.61164
# Shear Modulus (GPa) = 22.02140 32.19228 27.10684
#
# Velocity S-wave (km/s) = 3.18582 3.85190 3.53459
# Velocity P-wave (km/s) = 5.30353 5.93708 5.62923
#
# Compressibility (1/GPa) = 0.03157911
#
# Stress axis : x y z
#
# Youngs Moduli (GPa) = 95.23422 55.42361 97.80583
#
# Poissons Ratio (x) = 0.18246 -0.10148
# Poissons Ratio (y) = 0.31352 0.13103
# Poissons Ratio (z) = -0.09881 0.07425
#
# Static dielectric constant tensor:
#      x y z
#    x 1.740410 0.000000 -0.027440 
#    y 0.000000 2.271600 0.000000 
#    z -0.027440 0.000000 1.839310 
# 
# From -- ./inp_files/19888.got.cif
#   From: 2010.05.17/outbox.cif.g08.bks.cpg/sg14_10_cif.got.tgz:19888.got - 2010.06.03 17:49:19.
