data_PCOD9251433
_publ_section_title
;
Structure prediction by ZEFSAII (Michael W. Deem and Ramdas Pophale) SiO2 
 PCOD9251433
Probable space group: P 21/C
;
_chemical_formula_sum "Si O2"
_cell_formula_units_Z 16
_cell_length_a 7.621524
_cell_length_b 16.289402
_cell_length_c 7.851878
_cell_angle_alpha 90.000000
_cell_angle_beta 142.680618
_cell_angle_gamma 90.000000
_cell_volume 590.986554
_symmetry_space_group_name_H-M "P 21/C"
_symmetry_group_IT_number 14
_symmetry_cell_setting 'monoclinic'
loop_
_space_group_symop_operation_xyz
x,y,z
-x,1/2+y,1/2-z
-x,-y,-z
x,1/2-y,1/2+z
loop_
_atom_site_type_symbol
_atom_site_label
_atom_site_fract_x
_atom_site_fract_y
_atom_site_fract_z
Si Si1 0.809467 0.459360 0.086902
Si Si2 0.808394 0.599733 0.319112
Si Si3 0.428383 0.265412 0.254398
Si Si4 0.175210 0.660308 0.196034
O O1 0.895657 0.550360 0.216598
O O2 0.894932 0.418007 0.975200
O O3 0.946912 0.404389 0.346596
O O4 0.461910 0.453814 0.817878
O O5 0.667553 0.688825 0.199148
O O6 0.655479 0.222334 0.303930
O O7 0.113557 0.296967 0.961381
O O8 0.591692 0.340251 0.472843
#
# Coordination Sequence:
#
# PCOD9251433 Si02
#       4
#     4   4   4   4
#     4   9  17  31  52  77 102 133 179 224 255 297
#     4   9  17  31  52  77 102 133 179 224 255 297
#     4  11  21  35  55  80 109 140 176 219 266 316
#     4  11  21  35  55  80 109 140 176 219 266 316
#
# _framework density 27.073371999999999
#
# number of rings (size 3 to 8) (size 9 to 14) (size 15 to 20)
#    0.000    2.000    0.000    7.500    0.000    0.000 
#    0.000    0.000    0.000    9.000    0.000    0.000 
#    0.000    0.000    0.000    0.000    0.000    0.000 
#
# Total GULP energy -89442.851126 kJ/mol
# GULP energy per Si atom -5590.178195 kJ/mol
# Density = 2.701175 g / cm^3
# Si number density = 27.073372 Si / 1000 Ang^3
#
#
#
# Elastic Constant Matrix: (Units=GPa)
#
#
# Indices 1 2 3 4 5 6 
#
# 1 126.8314 13.3372 36.9795 0.0000 10.1671 0.0000
# 2 13.3372 122.8469 15.7239 0.0000 4.9960 0.0000
# 3 36.9795 15.7239 130.6009 0.0000 37.3702 0.0000
# 4 0.0000 0.0000 0.0000 46.9914 0.0000 -8.0508
# 5 10.1671 4.9960 37.3702 0.0000 28.9633 0.0000
# 6 0.0000 0.0000 0.0000 -8.0508 0.0000 36.6850
#
#
#
# Elastic Compliance Matrix: (Units=1/GPa)
#
#
# Indices 1 2 3 4 5 6 
#
# 1 0.008643 -0.000636 -0.002432 0.000000 0.000213 0.000000
# 2 -0.000636 0.008315 -0.000752 0.000000 -0.000241 0.000000
# 3 -0.002432 -0.000752 0.012927 0.000000 -0.015696 0.000000
# 4 0.000000 0.000000 0.000000 0.022112 0.000000 0.004853
# 5 0.000213 -0.000241 -0.015696 0.000000 0.054745 0.000000
# 6 0.000000 0.000000 0.000000 0.004853 0.000000 0.028324
#
#
# Mechanical properties :
#
#
# Convention : Reuss Voigt Hill
#
# Bulk Modulus (GPa) = 44.95152 56.92893 50.94023
# Shear Modulus (GPa) = 33.30619 43.47718 38.39168
#
# Velocity S-wave (km/s) = 3.51125 4.01172 3.76980
# Velocity P-wave (km/s) = 5.75136 6.52164 6.14858
#
# Compressibility (1/GPa) = 0.02224619
#
# Stress axis : x y z
#
# Youngs Moduli (GPa) = 115.69689 120.26007 77.35528
#
# Poissons Ratio (x) = 0.07646 0.18811
# Poissons Ratio (y) = 0.07356 0.05819
# Poissons Ratio (z) = 0.28135 0.09047
#
# Static dielectric constant tensor:
#      x y z
#    x 2.180090 0.000000 -0.125260 
#    y 0.000000 2.178740 0.000000 
#    z -0.125260 0.000000 2.025290 
# 
# From -- ./inp_files/5167.got.cif
#   From: 2010.05.17/outbox.cif.g08.bks.cpg/sg14_3_cif.got.tgz:5167.got - 2010.06.03 17:49:19.
