data_PCOD9251805
_publ_section_title
;
Structure prediction by ZEFSAII (Michael W. Deem and Ramdas Pophale) SiO2 
 PCOD9251805
Probable space group: P 21/C
;
_chemical_formula_sum "Si O2"
_cell_formula_units_Z 28
_cell_length_a 5.283052
_cell_length_b 18.898239
_cell_length_c 12.601501
_cell_angle_alpha 90.000000
_cell_angle_beta 67.084394
_cell_angle_gamma 90.000000
_cell_volume 1158.845563
_symmetry_space_group_name_H-M "P 21/C"
_symmetry_group_IT_number 14
_symmetry_cell_setting 'monoclinic'
loop_
_space_group_symop_operation_xyz
x,y,z
-x,1/2+y,1/2-z
-x,-y,-z
x,1/2-y,1/2+z
loop_
_atom_site_type_symbol
_atom_site_label
_atom_site_fract_x
_atom_site_fract_y
_atom_site_fract_z
Si Si1 0.410229 0.802394 0.631505
Si Si2 0.724025 0.346505 0.418440
Si Si3 0.165547 0.291827 0.124214
Si Si4 0.626282 0.660263 0.317516
Si Si5 0.664498 0.613492 0.713732
Si Si6 0.138125 0.924263 0.375961
Si Si7 0.943435 0.435143 0.860662
O O1 0.224599 0.737197 0.617200
O O2 0.673910 0.795480 0.512447
O O3 0.498042 0.798585 0.738676
O O4 0.290385 0.880998 0.636888
O O5 0.600494 0.354041 0.556189
O O6 0.485595 0.367488 0.373236
O O7 0.008461 0.389961 0.362909
O O8 0.150590 0.210697 0.160158
O O9 0.336985 0.330281 0.188917
O O10 0.910569 0.344020 0.153518
O O11 0.787010 0.594422 0.242007
O O12 0.450333 0.555842 0.796042
O O13 0.060838 0.926092 0.511440
O O14 0.941595 0.980312 0.348998
#
# Coordination Sequence:
#
# PCOD9251805 Si02
#       7
#     4   4   4   4   4   4   4
#     4  11  23  41  71 108 145 188 246 317 376 426
#     4  11  27  43  72 107 145 198 244 305 371 447
#     4  11  22  42  73 106 146 194 244 311 375 444
#     4  11  25  44  69 107 151 189 253 312 373 437
#     4  12  23  47  69 103 146 194 246 294 369 448
#     4  11  25  45  74 110 150 198 247 306 386 441
#     4  11  25  44  72 112 148 192 248 318 372 447
#
# _framework density 24.161975000000002
#
# number of rings (size 3 to 8) (size 9 to 14) (size 15 to 20)
#    0.000    0.857    5.714    0.857    2.000    1.714 
#    0.000    1.429    0.000    0.000    0.000    0.000 
#    0.000    0.000    0.000    0.000    0.000    0.000 
#
# Total GULP energy -156322.487994 kJ/mol
# GULP energy per Si atom -5582.946000 kJ/mol
# Density = 2.410698 g / cm^3
# Si number density = 24.161975 Si / 1000 Ang^3
#
#
#
# Elastic Constant Matrix: (Units=GPa)
#
#
# Indices 1 2 3 4 5 6 
#
# 1 116.8263 18.3624 53.6627 0.0000 0.7740 0.0000
# 2 18.3624 61.8633 25.3331 0.0000 -8.4255 0.0000
# 3 53.6627 25.3331 215.3149 0.0000 -6.6862 0.0000
# 4 0.0000 0.0000 0.0000 219.1547 0.0000 -238.8526
# 5 0.7740 -8.4255 -6.6862 0.0000 33.8731 0.0000
# 6 0.0000 0.0000 0.0000 -238.8526 0.0000 318.9825
#
#
#
# Elastic Compliance Matrix: (Units=1/GPa)
#
#
# Indices 1 2 3 4 5 6 
#
# 1 0.009951 -0.002194 -0.002260 0.000000 -0.001219 0.000000
# 2 -0.002194 0.017982 -0.001437 0.000000 0.004239 0.000000
# 3 -0.002260 -0.001437 0.005400 0.000000 0.000760 0.000000
# 4 0.000000 0.000000 0.000000 0.024812 0.000000 0.018579
# 5 -0.001219 0.004239 0.000760 0.000000 0.030754 0.000000
# 6 0.000000 0.000000 0.000000 0.018579 0.000000 0.017047
#
#
# Mechanical properties :
#
#
# Convention : Reuss Voigt Hill
#
# Bulk Modulus (GPa) = 46.40263 65.41344 55.90804
# Shear Modulus (GPa) = 40.02825 134.17848 87.10336
#
# Velocity S-wave (km/s) = 4.07463 7.46013 6.01066
# Velocity P-wave (km/s) = 6.43299 10.06659 8.44747
#
# Compressibility (1/GPa) = 0.02155050
#
# Stress axis : x y z
#
# Youngs Moduli (GPa) = 100.49609 55.61159 185.17728
#
# Poissons Ratio (x) = 0.12203 0.41844
# Poissons Ratio (y) = 0.22052 0.26613
# Poissons Ratio (z) = 0.22709 0.07992
#
# Static dielectric constant tensor:
#      x y z
#    x 1.982990 0.000000 -0.024440 
#    y 0.000000 1.971170 0.000000 
#    z -0.024440 0.000000 1.929160 
# 
# From -- ./inp_files/21751.got.cif
#   From: 2010.05.17/outbox.cif.g08.bks.cpg/sg14_11_cif.got.tgz:21751.got - 2010.06.03 17:49:19.
