data_PCOD9251016
_publ_section_title
;
Structure prediction by ZEFSAII (Michael W. Deem and Ramdas Pophale) SiO2 
 PCOD9251016
Probable space group: P 21/C
;
_chemical_formula_sum "Si O2"
_cell_formula_units_Z 18
_cell_length_a 4.983729
_cell_length_b 7.527402
_cell_length_c 19.050104
_cell_angle_alpha 90.000000
_cell_angle_beta 102.943153
_cell_angle_gamma 90.000000
_cell_volume 696.498310
_symmetry_space_group_name_H-M "P 21/C"
_symmetry_group_IT_number 14
_symmetry_cell_setting 'monoclinic'
loop_
_space_group_symop_operation_xyz
x,y,z
-x,1/2+y,1/2-z
-x,-y,-z
x,1/2-y,1/2+z
loop_
_atom_site_type_symbol
_atom_site_label
_atom_site_fract_x
_atom_site_fract_y
_atom_site_fract_z
Si Si1 0.318683 0.828306 0.580200
Si Si2 0.596130 0.881790 0.740790
Si Si3 0.397288 0.210329 0.547446
Si Si4 0.175617 0.757922 0.312931
Si Si5 0.000000 0.500000 0.500000
O O1 0.456946 0.798182 0.663259
O O2 0.539922 0.812601 0.530744
O O3 0.085085 0.689130 0.545929
O O4 0.246514 0.038679 0.571233
O O5 0.351716 0.892757 0.782836
O O6 0.853347 0.775231 0.788181
O O7 0.727958 0.064901 0.721639
O O8 0.697869 0.227994 0.602145
O O9 0.253519 0.396860 0.551567
#
# Coordination Sequence:
#
# PCOD9251016 Si02
#       5
#     4   4   4   4   2
#     4  10  25  45  67 101 138 180 230 288 347 411
#     4  11  26  45  71 102 142 184 231 289 348 416
#     4  10  25  45  67 101 138 180 230 288 347 411
#     4  11  26  45  71 102 142 184 231 289 348 416
#     4  12  24  40  76 100 136 176 238 284 348 416
#
# _framework density 25.843568999999999
#
# number of rings (size 3 to 8) (size 9 to 14) (size 15 to 20)
#    0.000    1.333    0.000    2.667   12.444    0.000 
#    0.000    0.000    0.000    0.000    0.000    0.000 
#    0.000    0.000    0.000    0.000    0.000    0.000 
#
# Total GULP energy -100371.453959 kJ/mol
# GULP energy per Si atom -5576.191887 kJ/mol
# Density = 2.578475 g / cm^3
# Si number density = 25.843569 Si / 1000 Ang^3
#
#
#
# Elastic Constant Matrix: (Units=GPa)
#
#
# Indices 1 2 3 4 5 6 
#
# 1 88.1768 18.6291 31.8966 0.0000 17.2105 0.0000
# 2 18.6291 62.2344 9.8190 0.0000 5.9862 0.0000
# 3 31.8966 9.8190 120.4025 0.0000 1.1870 0.0000
# 4 0.0000 0.0000 0.0000 41.1837 0.0000 15.0857
# 5 17.2105 5.9862 1.1870 0.0000 39.3070 0.0000
# 6 0.0000 0.0000 0.0000 15.0857 0.0000 25.6228
#
#
#
# Elastic Compliance Matrix: (Units=1/GPa)
#
#
# Indices 1 2 3 4 5 6 
#
# 1 0.014398 -0.003209 -0.003496 0.000000 -0.005710 0.000000
# 2 -0.003209 0.017230 -0.000543 0.000000 -0.001203 0.000000
# 3 -0.003496 -0.000543 0.009263 0.000000 0.001334 0.000000
# 4 0.000000 0.000000 0.000000 0.030958 0.000000 -0.018227
# 5 -0.005710 -0.001203 0.001334 0.000000 0.028084 0.000000
# 6 0.000000 0.000000 0.000000 -0.018227 0.000000 0.049759
#
#
# Mechanical properties :
#
#
# Convention : Reuss Voigt Hill
#
# Bulk Modulus (GPa) = 37.88719 43.50035 40.69377
# Shear Modulus (GPa) = 28.90392 35.25396 32.07894
#
# Velocity S-wave (km/s) = 3.34790 3.69742 3.52699
# Velocity P-wave (km/s) = 5.44395 5.92424 5.68917
#
# Compressibility (1/GPa) = 0.02639415
#
# Stress axis : x y z
#
# Youngs Moduli (GPa) = 69.45400 58.03745 107.95820
#
# Poissons Ratio (x) = 0.18624 0.37745
# Poissons Ratio (y) = 0.22288 0.05864
# Poissons Ratio (z) = 0.24283 0.03152
#
# Static dielectric constant tensor:
#      x y z
#    x 2.001080 0.000000 -0.022690 
#    y 0.000000 2.095510 0.000000 
#    z -0.022690 0.000000 2.004350 
# 
# From -- ./inp_files/62865.got.cif
#   From: 2010.05.17/outbox.cif.g08.bks.cpg/sg14_32_cif.got.tgz:62865.got - 2010.06.03 17:49:19.
