data_PCOD9251332
_publ_section_title
;
Structure prediction by ZEFSAII (Michael W. Deem and Ramdas Pophale) SiO2 
 PCOD9251332
Probable space group: P 21/C
;
_chemical_formula_sum "Si O2"
_cell_formula_units_Z 28
_cell_length_a 21.059272
_cell_length_b 7.848775
_cell_length_c 13.393330
_cell_angle_alpha 90.000000
_cell_angle_beta 32.851514
_cell_angle_gamma 90.000000
_cell_volume 1200.893552
_symmetry_space_group_name_H-M "P 21/C"
_symmetry_group_IT_number 14
_symmetry_cell_setting 'monoclinic'
loop_
_space_group_symop_operation_xyz
x,y,z
-x,1/2+y,1/2-z
-x,-y,-z
x,1/2-y,1/2+z
loop_
_atom_site_type_symbol
_atom_site_label
_atom_site_fract_x
_atom_site_fract_y
_atom_site_fract_z
Si Si1 0.744980 0.438209 0.454856
Si Si2 0.086129 0.830269 0.666747
Si Si3 0.241888 0.712517 0.292082
Si Si4 0.190684 0.152810 0.963784
Si Si5 0.746672 0.994691 0.418314
Si Si6 0.694126 0.833825 0.855009
Si Si7 0.582838 0.316684 0.275757
O O1 0.854960 0.328890 0.350981
O O2 0.757574 0.617542 0.496473
O O3 0.738735 0.494733 0.348790
O O4 0.628837 0.346473 0.650845
O O5 0.135654 0.813469 0.488443
O O6 0.139318 0.987249 0.660966
O O7 0.948169 0.828302 0.852314
O O8 0.224534 0.522714 0.362985
O O9 0.249195 0.654625 0.166743
O O10 0.356552 0.790227 0.196069
O O11 0.250623 0.304576 0.825462
O O12 0.640151 0.031373 0.635240
O O13 0.733337 0.829464 0.368769
O O14 0.554491 0.831988 0.035270
#
# Coordination Sequence:
#
# PCOD9251332 Si02
#       7
#     4   4   4   4   4   4   4
#     4   9  21  37  53  78 110 141 176 220 267 311
#     4   9  19  37  53  75 110 138 174 220 266 315
#     4   8  18  35  55  76 102 141 180 214 260 316
#     4   9  20  34  53  79 104 140 179 213 262 319
#     4   9  19  34  56  77  99 140 181 216 262 314
#     4  11  20  32  55  81 104 137 181 220 261 316
#     4   9  19  36  53  76 109 140 175 220 266 312
#
# _framework density 23.31597
#
# number of rings (size 3 to 8) (size 9 to 14) (size 15 to 20)
#    0.000    3.429    0.000    0.857    0.000   12.571 
#    0.000   10.000    0.000    9.429    0.000    0.000 
#    0.000    0.000    0.000    0.000    0.000    0.000 
#
# Total GULP energy -156237.718213 kJ/mol
# GULP energy per Si atom -5579.918508 kJ/mol
# Density = 2.326290 g / cm^3
# Si number density = 23.315970 Si / 1000 Ang^3
#
#
#
# Elastic Constant Matrix: (Units=GPa)
#
#
# Indices 1 2 3 4 5 6 
#
# 1 90.2694 6.5395 93.6493 0.0000 1.4658 0.0000
# 2 6.5395 69.5272 6.1253 0.0000 -8.7695 0.0000
# 3 93.6493 6.1253 314.2595 0.0000 -72.5016 0.0000
# 4 0.0000 0.0000 0.0000 7.6236 0.0000 13.8899
# 5 1.4658 -8.7695 -72.5016 0.0000 37.5944 0.0000
# 6 0.0000 0.0000 0.0000 13.8899 0.0000 38.2436
#
#
#
# Elastic Compliance Matrix: (Units=1/GPa)
#
#
# Indices 1 2 3 4 5 6 
#
# 1 0.029083 -0.005592 -0.016431 0.000000 -0.034125 0.000000
# 2 -0.005592 0.016042 0.004085 0.000000 0.011838 0.000000
# 3 -0.016431 0.004085 0.015072 0.000000 0.030661 0.000000
# 4 0.000000 0.000000 0.000000 0.387768 0.000000 -0.140835
# 5 -0.034125 0.011838 0.030661 0.000000 0.089822 0.000000
# 6 0.000000 0.000000 0.000000 -0.140835 0.000000 0.077299
#
#
# Mechanical properties :
#
#
# Convention : Reuss Voigt Hill
#
# Bulk Modulus (GPa) = 41.11556 76.29824 58.70690
# Shear Modulus (GPa) = 7.58645 41.20846 24.39745
#
# Velocity S-wave (km/s) = 1.80577 4.20860 3.23830
# Velocity P-wave (km/s) = 4.69256 7.51073 6.26223
#
# Compressibility (1/GPa) = 0.02432169
#
# Stress axis : x y z
#
# Youngs Moduli (GPa) = 34.38435 62.33608 66.34615
#
# Poissons Ratio (x) = 0.34859 1.09011
# Poissons Ratio (y) = 0.19228 -0.27101
# Poissons Ratio (z) = 0.56496 -0.25463
#
# Static dielectric constant tensor:
#      x y z
#    x 1.911240 0.000000 0.070500 
#    y 0.000000 2.006430 0.000000 
#    z 0.070500 0.000000 1.806220 
# 
# From -- ./inp_files/50213.got.cif
#   From: 2010.05.17/outbox.cif.g08.bks.cpg/sg14_26_cif.got.tgz:50213.got - 2010.06.03 17:49:19.
