data_PCOD9251983
_publ_section_title
;
Structure prediction by ZEFSAII (Michael W. Deem and Ramdas Pophale) SiO2 
 PCOD9251983
Probable space group: P 21/C
;
_chemical_formula_sum "Si O2"
_cell_formula_units_Z 32
_cell_length_a 30.004531
_cell_length_b 5.674207
_cell_length_c 9.252211
_cell_angle_alpha 90.000000
_cell_angle_beta 69.520394
_cell_angle_gamma 90.000000
_cell_volume 1475.648556
_symmetry_space_group_name_H-M "P 21/C"
_symmetry_group_IT_number 14
_symmetry_cell_setting 'monoclinic'
loop_
_space_group_symop_operation_xyz
x,y,z
-x,1/2+y,1/2-z
-x,-y,-z
x,1/2-y,1/2+z
loop_
_atom_site_type_symbol
_atom_site_label
_atom_site_fract_x
_atom_site_fract_y
_atom_site_fract_z
Si Si1 0.606365 0.367656 0.567670
Si Si2 0.555428 0.028250 0.412248
Si Si3 0.932074 0.995414 0.721159
Si Si4 0.984242 0.714069 0.417542
Si Si5 0.354435 0.256730 0.146012
Si Si6 0.319869 0.003923 0.434632
Si Si7 0.787875 0.009463 0.531463
Si Si8 0.180906 0.495436 0.663450
O O1 0.573715 0.251870 0.481405
O O2 0.646036 0.509551 0.433104
O O3 0.639298 0.190068 0.622884
O O4 0.570174 0.467989 0.727868
O O5 0.500000 0.000000 0.500000
O O6 0.590769 0.830606 0.436491
O O7 0.956992 0.897744 0.549873
O O8 0.945655 0.834272 0.839501
O O9 0.876357 0.010279 0.766242
O O10 0.965596 0.219995 0.714454
O O11 0.000000 0.500000 0.500000
O O12 0.341226 0.227872 0.325461
O O13 0.319492 0.432743 0.104133
O O14 0.268816 0.966863 0.426158
O O15 0.805683 0.257909 0.436579
O O16 0.800539 0.997810 0.689510
O O17 0.803850 0.756744 0.434043
#
# Coordination Sequence:
#
# PCOD9251983 Si02
#       8
#     4   4   4   4   4   4   4   4
#     4  11  24  43  63  98 127 176 222 278 341 396
#     4  11  26  40  65  97 138 176 218 273 344 425
#     4  11  25  42  71  99 147 181 246 294 353 436
#     4  11  23  40  67 103 130 190 237 289 349 413
#     4  11  23  44  66  98 129 177 223 286 343 399
#     4  11  25  43  73  93 134 169 239 292 339 431
#     4  12  29  49  77 111 145 201 248 308 391 445
#     4  12  29  50  76 111 156 198 244 312 384 449
#
# _framework density 21.685378
#
# number of rings (size 3 to 8) (size 9 to 14) (size 15 to 20)
#    0.000    0.750    3.750    2.250    8.750    0.500 
#    0.000    0.000    0.000    0.000    0.000    0.000 
#    0.000    0.000    0.000    0.000    0.000    0.000 
#
# Total GULP energy -178229.707142 kJ/mol
# GULP energy per Si atom -5569.678348 kJ/mol
# Density = 2.163602 g / cm^3
# Si number density = 21.685378 Si / 1000 Ang^3
#
#
#
# Elastic Constant Matrix: (Units=GPa)
#
#
# Indices 1 2 3 4 5 6 
#
# 1 119.6091 -1.0232 6.4585 0.0000 5.5218 0.0000
# 2 -1.0232 60.9141 23.4236 0.0000 6.9243 0.0000
# 3 6.4585 23.4236 81.8190 0.0000 20.8009 0.0000
# 4 0.0000 0.0000 0.0000 41.8863 0.0000 0.2730
# 5 5.5218 6.9243 20.8009 0.0000 39.5357 0.0000
# 6 0.0000 0.0000 0.0000 0.2730 0.0000 4.2962
#
#
#
# Elastic Compliance Matrix: (Units=1/GPa)
#
#
# Indices 1 2 3 4 5 6 
#
# 1 0.008439 0.000464 -0.000553 0.000000 -0.000969 0.000000
# 2 0.000464 0.018482 -0.005181 0.000000 -0.000576 0.000000
# 3 -0.000553 -0.005181 0.015583 0.000000 -0.007214 0.000000
# 4 0.000000 0.000000 0.000000 0.023884 0.000000 -0.001518
# 5 -0.000969 -0.000576 -0.007214 0.000000 0.029325 0.000000
# 6 0.000000 0.000000 0.000000 -0.001518 0.000000 0.232862
#
#
# Mechanical properties :
#
#
# Convention : Reuss Voigt Hill
#
# Bulk Modulus (GPa) = 31.28416 35.56222 33.42319
# Shear Modulus (GPa) = 14.29510 32.70920 23.50215
#
# Velocity S-wave (km/s) = 2.57028 3.88797 3.29565
# Velocity P-wave (km/s) = 4.82350 6.04895 5.47065
#
# Compressibility (1/GPa) = 0.03196506
#
# Stress axis : x y z
#
# Youngs Moduli (GPa) = 118.49566 54.10591 64.17186
#
# Poissons Ratio (x) = -0.02513 0.03547
# Poissons Ratio (y) = -0.05504 0.33251
# Poissons Ratio (z) = 0.06550 0.28035
#
# Static dielectric constant tensor:
#      x y z
#    x 1.801440 0.000000 0.044370 
#    y 0.000000 2.215420 0.000000 
#    z 0.044370 0.000000 1.771190 
# 
# From -- ./inp_files/19887.got.cif
#   From: 2010.05.17/outbox.cif.g08.bks.cpg/sg14_10_cif.got.tgz:19887.got - 2010.06.03 17:49:19.
