data_PCOD9251496
_publ_section_title
;
Structure prediction by ZEFSAII (Michael W. Deem and Ramdas Pophale) SiO2 
 PCOD9251496
Probable space group: P 21/C
;
_chemical_formula_sum "Si O2"
_cell_formula_units_Z 16
_cell_length_a 10.230576
_cell_length_b 6.393244
_cell_length_c 30.135031
_cell_angle_alpha 90.000000
_cell_angle_beta 24.528759
_cell_angle_gamma 90.000000
_cell_volume 818.272551
_symmetry_space_group_name_H-M "P 21/C"
_symmetry_group_IT_number 14
_symmetry_cell_setting 'monoclinic'
loop_
_space_group_symop_operation_xyz
x,y,z
-x,1/2+y,1/2-z
-x,-y,-z
x,1/2-y,1/2+z
loop_
_atom_site_type_symbol
_atom_site_label
_atom_site_fract_x
_atom_site_fract_y
_atom_site_fract_z
Si Si1 0.435602 0.474928 0.610505
Si Si2 0.158021 0.814658 0.755494
Si Si3 0.310958 0.330956 0.027643
Si Si4 0.725684 0.425550 0.052442
O O1 0.356110 0.620198 0.676432
O O2 0.505019 0.625725 0.547036
O O3 0.701948 0.314011 0.543848
O O4 0.127334 0.347350 0.691032
O O5 0.990168 0.754527 0.852925
O O6 0.395267 0.009427 0.678210
O O7 0.500000 0.500000 0.000000
O O8 0.238570 0.448678 0.004423
O O9 0.000000 0.500000 0.000000
#
# Coordination Sequence:
#
# PCOD9251496 Si02
#       4
#     4   4   4   4
#     4  11  21  40  70  92 137 170 225 281 331 406
#     4  11  21  39  66  97 121 177 222 271 336 406
#     4  11  23  39  67 102 127 172 235 276 328 413
#     4  11  26  44  61  97 138 172 218 289 347 401
#
# _framework density 19.553386
#
# number of rings (size 3 to 8) (size 9 to 14) (size 15 to 20)
#    0.000    1.000    5.000    2.250    0.000    4.000 
#    9.000    0.000    0.000    0.000    0.000    0.000 
#    0.000    0.000    0.000    0.000    0.000    0.000 
#
# Total GULP energy -89246.027189 kJ/mol
# GULP energy per Si atom -5577.876699 kJ/mol
# Density = 1.950888 g / cm^3
# Si number density = 19.553386 Si / 1000 Ang^3
#
#
#
# Elastic Constant Matrix: (Units=GPa)
#
#
# Indices 1 2 3 4 5 6 
#
# 1 120.7871 39.2158 33.7472 0.0000 -9.6623 0.0000
# 2 39.2158 104.4454 28.4021 0.0000 -2.7047 0.0000
# 3 33.7472 28.4021 104.0843 0.0000 24.0933 0.0000
# 4 0.0000 0.0000 0.0000 33.0003 0.0000 6.1920
# 5 -9.6623 -2.7047 24.0933 0.0000 30.0194 0.0000
# 6 0.0000 0.0000 0.0000 6.1920 0.0000 19.4196
#
#
#
# Elastic Compliance Matrix: (Units=1/GPa)
#
#
# Indices 1 2 3 4 5 6 
#
# 1 0.010930 -0.002742 -0.004364 0.000000 0.006773 0.000000
# 2 -0.002742 0.011421 -0.002777 0.000000 0.002375 0.000000
# 3 -0.004364 -0.002777 0.014939 0.000000 -0.013644 0.000000
# 4 0.000000 0.000000 0.000000 0.032231 0.000000 -0.010277
# 5 0.006773 0.002375 -0.013644 0.000000 0.046657 0.000000
# 6 0.000000 0.000000 0.000000 -0.010277 0.000000 0.054771
#
#
# Mechanical properties :
#
#
# Convention : Reuss Voigt Hill
#
# Bulk Modulus (GPa) = 57.06472 59.11635 58.09053
# Shear Modulus (GPa) = 25.43810 31.68462 28.56136
#
# Velocity S-wave (km/s) = 3.61079 4.02981 3.82604
# Velocity P-wave (km/s) = 6.82870 7.20773 7.02077
#
# Compressibility (1/GPa) = 0.01752396
#
# Stress axis : x y z
#
# Youngs Moduli (GPa) = 91.48942 87.56085 66.94059
#
# Poissons Ratio (x) = 0.24009 0.29210
# Poissons Ratio (y) = 0.25086 0.18591
# Poissons Ratio (z) = 0.39922 0.24318
#
# Static dielectric constant tensor:
#      x y z
#    x 1.656560 0.000000 -0.004710 
#    y 0.000000 1.786790 0.000000 
#    z -0.004710 0.000000 1.697420 
# 
# From -- ./inp_files/38369.got.cif
#   From: 2010.05.17/outbox.cif.g08.bks.cpg/sg14_20_cif.got.tgz:38369.got - 2010.06.03 17:49:19.
