data_PCOD9251526
_publ_section_title
;
Structure prediction by ZEFSAII (Michael W. Deem and Ramdas Pophale) SiO2 
 PCOD9251526
Probable space group: P 21/C
;
_chemical_formula_sum "Si O2"
_cell_formula_units_Z 24
_cell_length_a 7.945978
_cell_length_b 5.263781
_cell_length_c 23.838008
_cell_angle_alpha 90.000000
_cell_angle_beta 110.297739
_cell_angle_gamma 90.000000
_cell_volume 935.131923
_symmetry_space_group_name_H-M "P 21/C"
_symmetry_group_IT_number 14
_symmetry_cell_setting 'monoclinic'
loop_
_space_group_symop_operation_xyz
x,y,z
-x,1/2+y,1/2-z
-x,-y,-z
x,1/2-y,1/2+z
loop_
_atom_site_type_symbol
_atom_site_label
_atom_site_fract_x
_atom_site_fract_y
_atom_site_fract_z
Si Si1 0.959850 0.751198 0.030471
Si Si2 0.266491 0.717460 0.252563
Si Si3 0.007766 0.556444 0.316880
Si Si4 0.172219 0.450020 0.134859
Si Si5 0.324670 0.264469 0.412583
Si Si6 0.506159 0.749095 0.388797
O O1 0.099986 0.707009 0.097872
O O2 0.763751 0.750776 0.036258
O O3 0.000000 0.500000 0.000000
O O4 0.000000 0.000000 0.000000
O O5 0.286745 0.531685 0.202529
O O6 0.415365 0.715258 0.316827
O O7 0.088299 0.650467 0.267731
O O8 0.198364 0.978045 0.217276
O O9 0.154869 0.350072 0.354047
O O10 0.993040 0.779889 0.361552
O O11 0.289473 0.303709 0.102824
O O12 0.461840 0.497208 0.418773
O O13 0.414596 0.999843 0.405084
#
# Coordination Sequence:
#
# PCOD9251526 Si02
#       6
#     4   4   4   4   4   4
#     4  12  26  49  77 102 127 183 253 307 344 405
#     4  11  22  37  68  98 147 182 230 267 350 420
#     4  11  21  40  68 103 139 192 233 276 332 427
#     4  12  27  43  69 107 142 186 237 293 346 422
#     4  11  24  49  69 103 141 186 228 293 351 426
#     4  11  28  42  70 106 154 181 217 280 372 435
#
# _framework density 25.664826999999999
#
# number of rings (size 3 to 8) (size 9 to 14) (size 15 to 20)
#    0.000    0.667    3.333    5.000    7.000    0.000 
#    0.000    5.000    0.000    0.000    0.000    0.000 
#    0.000    0.000    0.000    0.000    0.000    0.000 
#
# Total GULP energy -134377.870745 kJ/mol
# GULP energy per Si atom -5599.077948 kJ/mol
# Density = 2.560641 g / cm^3
# Si number density = 25.664827 Si / 1000 Ang^3
#
#
#
# Elastic Constant Matrix: (Units=GPa)
#
#
# Indices 1 2 3 4 5 6 
#
# 1 90.8167 36.6390 37.2588 0.0000 -35.3424 0.0000
# 2 36.6390 155.7823 52.9967 0.0000 -34.8569 0.0000
# 3 37.2588 52.9967 108.3894 0.0000 -37.5954 0.0000
# 4 0.0000 0.0000 0.0000 50.3503 0.0000 -16.2169
# 5 -35.3424 -34.8569 -37.5954 0.0000 51.6740 0.0000
# 6 0.0000 0.0000 0.0000 -16.2169 0.0000 47.3854
#
#
#
# Elastic Compliance Matrix: (Units=1/GPa)
#
#
# Indices 1 2 3 4 5 6 
#
# 1 0.015538 -0.001121 -0.001831 0.000000 0.008538 0.000000
# 2 -0.001121 0.008221 -0.002644 0.000000 0.002855 0.000000
# 3 -0.001831 -0.002644 0.013503 0.000000 0.006788 0.000000
# 4 0.000000 0.000000 0.000000 0.022321 0.000000 0.007639
# 5 0.008538 0.002855 0.006788 0.000000 0.032056 0.000000
# 6 0.000000 0.000000 0.000000 0.007639 0.000000 0.023718
#
#
# Mechanical properties :
#
#
# Convention : Reuss Voigt Hill
#
# Bulk Modulus (GPa) = 38.35987 67.64195 53.00091
# Shear Modulus (GPa) = 36.97151 45.08819 41.02985
#
# Velocity S-wave (km/s) = 3.79958 4.19598 4.00269
# Velocity P-wave (km/s) = 5.85047 7.06315 6.48522
#
# Compressibility (1/GPa) = 0.02606891
#
# Stress axis : x y z
#
# Youngs Moduli (GPa) = 64.36023 121.63625 74.05924
#
# Poissons Ratio (x) = 0.13633 0.13563
# Poissons Ratio (y) = 0.07213 0.19582
# Poissons Ratio (z) = 0.11787 0.32161
#
# Static dielectric constant tensor:
#      x y z
#    x 1.996960 0.000000 0.061520 
#    y 0.000000 2.048840 0.000000 
#    z 0.061520 0.000000 2.116560 
# 
# From -- ./inp_files/71620.got.cif
#   From: 2010.05.17/outbox.cif.g08.bks.cpg/sg14_36_cif.got.tgz:71620.got - 2010.06.03 17:49:19.
