data_PCOD9251070
_publ_section_title
;
Structure prediction by ZEFSAII (Michael W. Deem and Ramdas Pophale) SiO2 
 PCOD9251070
Probable space group: P 21/C
;
_chemical_formula_sum "Si O2"
_cell_formula_units_Z 16
_cell_length_a 16.226087
_cell_length_b 7.304783
_cell_length_c 10.559358
_cell_angle_alpha 90.000000
_cell_angle_beta 29.923522
_cell_angle_gamma 90.000000
_cell_volume 624.342688
_symmetry_space_group_name_H-M "P 21/C"
_symmetry_group_IT_number 14
_symmetry_cell_setting 'monoclinic'
loop_
_space_group_symop_operation_xyz
x,y,z
-x,1/2+y,1/2-z
-x,-y,-z
x,1/2-y,1/2+z
loop_
_atom_site_type_symbol
_atom_site_label
_atom_site_fract_x
_atom_site_fract_y
_atom_site_fract_z
Si Si1 0.271827 0.994921 0.621897
Si Si2 0.855511 0.474311 0.292676
Si Si3 0.547001 0.621603 0.562436
Si Si4 0.022725 0.687756 0.642108
O O1 0.373703 0.169868 0.551331
O O2 0.123874 0.076702 0.733335
O O3 0.399371 0.891706 0.360210
O O4 0.180912 0.856644 0.840743
O O5 0.690407 0.510446 0.441883
O O6 0.889718 0.310227 0.338013
O O7 0.909149 0.632808 0.317645
O O8 0.000000 0.500000 0.000000
O O9 0.500000 0.500000 0.500000
#
# Coordination Sequence:
#
# PCOD9251070 Si02
#       4
#     4   4   4   4
#     4  10  25  47  72 104 145 192 237 300 356 430
#     4  11  26  44  74 106 142 194 241 298 358 427
#     4  11  26  45  73 107 148 187 241 298 365 426
#     4  10  25  46  74 103 145 190 246 290 359 428
#
# _framework density 25.626950000000001
#
# number of rings (size 3 to 8) (size 9 to 14) (size 15 to 20)
#    0.000    1.500    0.000    1.500   21.000    3.000 
#    0.000    0.000    0.000    0.000    0.000    0.000 
#    0.000    0.000    0.000    0.000    0.000    0.000 
#
# Total GULP energy -89095.126671 kJ/mol
# GULP energy per Si atom -5568.445417 kJ/mol
# Density = 2.556862 g / cm^3
# Si number density = 25.626950 Si / 1000 Ang^3
#
#
#
# Elastic Constant Matrix: (Units=GPa)
#
#
# Indices 1 2 3 4 5 6 
#
# 1 186.7524 24.7632 55.4050 0.0000 -35.1647 0.0000
# 2 24.7632 106.4890 15.2244 0.0000 -23.3175 0.0000
# 3 55.4050 15.2244 174.4226 0.0000 -23.5621 0.0000
# 4 0.0000 0.0000 0.0000 22.3354 0.0000 -43.7779
# 5 -35.1647 -23.3175 -23.5621 0.0000 42.7824 0.0000
# 6 0.0000 0.0000 0.0000 -43.7779 0.0000 -61.0985
#
#
#
# Elastic Compliance Matrix: (Units=1/GPa)
#
#
# Indices 1 2 3 4 5 6 
#
# 1 0.006688 -0.000361 -0.001487 0.000000 0.004481 0.000000
# 2 -0.000361 0.010687 -0.000077 0.000000 0.005485 0.000000
# 3 -0.001487 -0.000077 0.006527 0.000000 0.002330 0.000000
# 4 0.000000 0.000000 0.000000 0.018621 0.000000 -0.013342
# 5 0.004481 0.005485 0.002330 0.000000 0.031330 0.000000
# 6 0.000000 0.000000 0.000000 -0.013342 0.000000 -0.006807
#
#
# Mechanical properties :
#
#
# Convention : Reuss Voigt Hill
#
# Bulk Modulus (GPa) = 49.87594 73.16101 61.51848
# Shear Modulus (GPa) = 64.44944 25.62195 45.03569
#
# Velocity S-wave (km/s) = 5.02033 3.16540 4.19663
# Velocity P-wave (km/s) = 7.28762 6.47843 6.89491
#
# Compressibility (1/GPa) = 0.02004975
#
# Stress axis : x y z
#
# Youngs Moduli (GPa) = 149.53069 93.57387 153.20513
#
# Poissons Ratio (x) = 0.03382 0.22789
# Poissons Ratio (y) = 0.05404 0.01180
# Poissons Ratio (z) = 0.22242 0.00721
#
# Static dielectric constant tensor:
#      x y z
#    x 2.874540 0.000000 0.525790 
#    y 0.000000 2.107200 0.000000 
#    z 0.525790 0.000000 2.298130 
# 
# From -- ./inp_files/23155.got.cif
#   From: 2010.05.17/outbox.cif.g08.bks.cpg/sg14_12_cif.got.tgz:23155.got - 2010.06.03 17:49:19.
