data_PCOD9251166
_publ_section_title
;
Structure prediction by ZEFSAII (Michael W. Deem and Ramdas Pophale) SiO2 
 PCOD9251166
Probable space group: P 21/C
;
_chemical_formula_sum "Si O2"
_cell_formula_units_Z 26
_cell_length_a 22.085303
_cell_length_b 8.254652
_cell_length_c 9.461910
_cell_angle_alpha 90.000000
_cell_angle_beta 43.078305
_cell_angle_gamma 90.000000
_cell_volume 1178.148130
_symmetry_space_group_name_H-M "P 21/C"
_symmetry_group_IT_number 14
_symmetry_cell_setting 'monoclinic'
loop_
_space_group_symop_operation_xyz
x,y,z
-x,1/2+y,1/2-z
-x,-y,-z
x,1/2-y,1/2+z
loop_
_atom_site_type_symbol
_atom_site_label
_atom_site_fract_x
_atom_site_fract_y
_atom_site_fract_z
Si Si1 0.790133 0.933883 0.844200
Si Si2 0.444080 0.580970 0.891648
Si Si3 0.609258 0.395151 0.690895
Si Si4 0.857601 0.440535 0.504997
Si Si5 0.829194 0.435711 0.986428
Si Si6 0.000000 0.000000 0.000000
Si Si7 0.713381 0.579405 0.963295
O O1 0.745848 0.759758 0.941194
O O2 0.832069 0.950818 0.618724
O O3 0.711351 0.065142 0.988493
O O4 0.859159 0.974738 0.849362
O O5 0.546351 0.534177 0.732209
O O6 0.421893 0.733119 0.832629
O O7 0.409199 0.609243 0.110405
O O8 0.386956 0.437021 0.917097
O O9 0.841188 0.249459 0.512795
O O10 0.945779 0.473613 0.442316
O O11 0.773821 0.513920 0.731643
O O12 0.906276 0.477382 0.745505
O O13 0.737864 0.470344 0.057834
#
# Coordination Sequence:
#
# PCOD9251166 Si02
#       7
#     4   4   4   4   4   2   4
#     4  12  24  42  70 103 137 185 230 287 343 411
#     4  11  24  45  67 102 145 185 238 284 339 410
#     4  11  25  43  70 102 143 189 232 288 340 407
#     4  11  23  46  69 100 137 176 234 277 349 416
#     4  11  25  44  73  98 136 184 227 283 346 416
#     4  10  26  44  68 102 132 172 222 290 344 410
#     4  11  24  43  67 101 141 183 231 284 343 410
#
# _framework density 22.068532999999999
#
# number of rings (size 3 to 8) (size 9 to 14) (size 15 to 20)
#    0.000    0.923    1.538    5.538    2.154    6.154 
#    0.000    0.000    0.000    0.000    0.000    0.000 
#    0.000    0.000    0.000    0.000    0.000    0.000 
#
# Total GULP energy -145029.832616 kJ/mol
# GULP energy per Si atom -5578.070485 kJ/mol
# Density = 2.201830 g / cm^3
# Si number density = 22.068533 Si / 1000 Ang^3
#
#
#
# Elastic Constant Matrix: (Units=GPa)
#
#
# Indices 1 2 3 4 5 6 
#
# 1 179.2375 39.7503 27.0031 0.0000 23.1111 0.0000
# 2 39.7503 87.3607 -7.3214 0.0000 9.5460 0.0000
# 3 27.0031 -7.3214 37.7095 0.0000 7.8561 0.0000
# 4 0.0000 0.0000 0.0000 8.0865 0.0000 7.9348
# 5 23.1111 9.5460 7.8561 0.0000 33.5608 0.0000
# 6 0.0000 0.0000 0.0000 7.9348 0.0000 4.8701
#
#
#
# Elastic Compliance Matrix: (Units=1/GPa)
#
#
# Indices 1 2 3 4 5 6 
#
# 1 0.007584 -0.003596 -0.005523 0.000000 -0.002907 0.000000
# 2 -0.003596 0.013885 0.005864 0.000000 -0.002846 0.000000
# 3 -0.005523 0.005864 0.032765 0.000000 -0.005534 0.000000
# 4 0.000000 0.000000 0.000000 -0.206537 0.000000 0.336511
# 5 -0.002907 -0.002846 -0.005534 0.000000 0.033903 0.000000
# 6 0.000000 0.000000 0.000000 0.336511 0.000000 -0.342943
#
#
# Mechanical properties :
#
#
# Convention : Reuss Voigt Hill
#
# Bulk Modulus (GPa) = 20.95409 47.01908 33.98658
# Shear Modulus (GPa) = -11.39146 25.62852 7.11853
#
# Velocity S-wave (km/s) = -2.27444 3.41150 1.79796
# Velocity P-wave (km/s) = 1.61809 6.07207 4.44343
#
# Compressibility (1/GPa) = 0.04772339
#
# Stress axis : x y z
#
# Youngs Moduli (GPa) = 131.86492 72.01836 30.52046
#
# Poissons Ratio (x) = 0.25897 0.16857
# Poissons Ratio (y) = 0.47417 -0.17896
# Poissons Ratio (z) = 0.72829 -0.42229
#
# Static dielectric constant tensor:
#      x y z
#    x 1.780980 0.000000 0.017840 
#    y 0.000000 1.830060 0.000000 
#    z 0.017840 0.000000 1.754640 
# 
# From -- ./inp_files/18643.got.cif
#   From: 2010.05.17/outbox.cif.g08.bks.cpg/sg14_10_cif.got.tgz:18643.got - 2010.06.03 17:49:19.
