data_PCOD9251587
_publ_section_title
;
Structure prediction by ZEFSAII (Michael W. Deem and Ramdas Pophale) SiO2 
 PCOD9251587
Probable space group: P 21/C
;
_chemical_formula_sum "Si O2"
_cell_formula_units_Z 16
_cell_length_a 7.090864
_cell_length_b 9.198549
_cell_length_c 14.470110
_cell_angle_alpha 90.000000
_cell_angle_beta 42.011477
_cell_angle_gamma 90.000000
_cell_volume 631.680990
_symmetry_space_group_name_H-M "P 21/C"
_symmetry_group_IT_number 14
_symmetry_cell_setting 'monoclinic'
loop_
_space_group_symop_operation_xyz
x,y,z
-x,1/2+y,1/2-z
-x,-y,-z
x,1/2-y,1/2+z
loop_
_atom_site_type_symbol
_atom_site_label
_atom_site_fract_x
_atom_site_fract_y
_atom_site_fract_z
Si Si1 0.178429 0.671009 0.400065
Si Si2 0.342514 0.155672 0.127505
Si Si3 0.569832 0.761125 0.602399
Si Si4 0.186440 0.482540 0.228155
O O1 0.392956 0.636200 0.402816
O O2 0.350818 0.772117 0.263669
O O3 0.127958 0.526058 0.356750
O O4 0.885642 0.750295 0.525181
O O5 0.223352 0.315785 0.194327
O O6 0.075500 0.050205 0.231850
O O7 0.557345 0.836398 0.015488
O O8 0.469516 0.922454 0.608085
#
# Coordination Sequence:
#
# PCOD9251587 Si02
#       4
#     4   4   4   4
#     4   9  22  37  63  95 128 165 211 263 318 378
#     4  11  21  43  68  91 135 168 209 277 311 380
#     4   9  21  41  62  99 123 169 223 251 323 386
#     4   9  23  40  65 100 122 170 221 255 326 381
#
# _framework density 25.329239000000001
#
# number of rings (size 3 to 8) (size 9 to 14) (size 15 to 20)
#    1.500    1.000    0.000    0.750    3.500    5.000 
#    0.000   10.000    0.000    0.000    0.000    0.000 
#    0.000    0.000    0.000    0.000    0.000    0.000 
#
# Total GULP energy -89581.980483 kJ/mol
# GULP energy per Si atom -5598.873780 kJ/mol
# Density = 2.527159 g / cm^3
# Si number density = 25.329239 Si / 1000 Ang^3
#
#
#
# Elastic Constant Matrix: (Units=GPa)
#
#
# Indices 1 2 3 4 5 6 
#
# 1 203.1682 58.1265 57.0365 0.0000 -43.9683 0.0000
# 2 58.1265 106.4815 75.1781 0.0000 -33.4110 0.0000
# 3 57.0365 75.1781 138.8678 0.0000 -42.8342 0.0000
# 4 0.0000 0.0000 0.0000 46.1401 0.0000 -9.3909
# 5 -43.9683 -33.4110 -42.8342 0.0000 50.3628 0.0000
# 6 0.0000 0.0000 0.0000 -9.3909 0.0000 29.2564
#
#
#
# Elastic Compliance Matrix: (Units=1/GPa)
#
#
# Indices 1 2 3 4 5 6 
#
# 1 0.006465 -0.002053 -0.000303 0.000000 0.004025 0.000000
# 2 -0.002053 0.016532 -0.007153 0.000000 0.003092 0.000000
# 3 -0.000303 -0.007153 0.013086 0.000000 0.006120 0.000000
# 4 0.000000 0.000000 0.000000 0.023188 0.000000 0.007443
# 5 0.004025 0.003092 0.006120 0.000000 0.030626 0.000000
# 6 0.000000 0.000000 0.000000 0.007443 0.000000 0.036570
#
#
# Mechanical properties :
#
#
# Convention : Reuss Voigt Hill
#
# Bulk Modulus (GPa) = 58.59571 92.13330 75.36450
# Shear Modulus (GPa) = 33.07473 42.36360 37.71917
#
# Velocity S-wave (km/s) = 3.61750 4.09408 3.86314
# Velocity P-wave (km/s) = 6.37434 7.66824 7.05103
#
# Compressibility (1/GPa) = 0.01706610
#
# Stress axis : x y z
#
# Youngs Moduli (GPa) = 154.66963 60.48789 76.42000
#
# Poissons Ratio (x) = 0.12416 0.02313
# Poissons Ratio (y) = 0.31748 0.54665
# Poissons Ratio (z) = 0.04681 0.43269
#
# Static dielectric constant tensor:
#      x y z
#    x 1.981480 0.000000 0.073100 
#    y 0.000000 2.024780 0.000000 
#    z 0.073100 0.000000 2.058690 
# 
# From -- ./inp_files/7333.got.cif
#   From: 2010.05.17/outbox.cif.g08.bks.cpg/sg14_4_cif.got.tgz:7333.got - 2010.06.03 17:49:19.
