data_PCOD9251184
_publ_section_title
;
Structure prediction by ZEFSAII (Michael W. Deem and Ramdas Pophale) SiO2 
 PCOD9251184
Probable space group: P 21/C
;
_chemical_formula_sum "Si O2"
_cell_formula_units_Z 20
_cell_length_a 7.079414
_cell_length_b 22.279689
_cell_length_c 7.969553
_cell_angle_alpha 90.000000
_cell_angle_beta 143.515525
_cell_angle_gamma 90.000000
_cell_volume 747.427234
_symmetry_space_group_name_H-M "P 21/C"
_symmetry_group_IT_number 14
_symmetry_cell_setting 'monoclinic'
loop_
_space_group_symop_operation_xyz
x,y,z
-x,1/2+y,1/2-z
-x,-y,-z
x,1/2-y,1/2+z
loop_
_atom_site_type_symbol
_atom_site_label
_atom_site_fract_x
_atom_site_fract_y
_atom_site_fract_z
Si Si1 0.307921 0.729535 0.372813
Si Si2 0.266132 0.192116 0.095459
Si Si3 0.701556 0.443715 0.353591
Si Si4 0.045956 0.108734 0.403594
Si Si5 0.388209 0.572994 0.091862
O O1 0.618635 0.697672 0.513295
O O2 0.470224 0.763899 0.639538
O O3 0.058732 0.675770 0.219016
O O4 0.084436 0.782165 0.132644
O O5 0.358172 0.127300 0.229467
O O6 0.953285 0.434455 0.681407
O O7 0.558841 0.510690 0.257123
O O8 0.766974 0.431880 0.203422
O O9 0.417374 0.398368 0.196720
O O10 0.860080 0.088979 0.438692
#
# Coordination Sequence:
#
# PCOD9251184 Si02
#       5
#     4   4   4   4   4
#     4  11  25  42  67  99 132 183 227 284 352 407
#     4  11  25  43  67  98 139 175 231 287 343 412
#     4  11  25  44  75 101 138 187 228 285 360 406
#     4  11  25  45  70 100 141 180 235 286 350 414
#     4  10  26  45  69 107 139 180 237 289 341 424
#
# _framework density 26.758458999999998
#
# number of rings (size 3 to 8) (size 9 to 14) (size 15 to 20)
#    0.000    1.200    0.000    3.600    8.400   11.200 
#    0.000    0.000    0.000    0.000    0.000    0.000 
#    0.000    0.000    0.000    0.000    0.000    0.000 
#
# Total GULP energy -112153.148017 kJ/mol
# GULP energy per Si atom -5607.657401 kJ/mol
# Density = 2.669756 g / cm^3
# Si number density = 26.758459 Si / 1000 Ang^3
#
#
#
# Elastic Constant Matrix: (Units=GPa)
#
#
# Indices 1 2 3 4 5 6 
#
# 1 119.6003 24.1200 30.1565 0.0000 -8.6562 0.0000
# 2 24.1200 119.0839 12.4951 0.0000 -7.6814 0.0000
# 3 30.1565 12.4951 88.8438 0.0000 13.4520 0.0000
# 4 0.0000 0.0000 0.0000 43.1524 0.0000 -3.8146
# 5 -8.6562 -7.6814 13.4520 0.0000 27.0705 0.0000
# 6 0.0000 0.0000 0.0000 -3.8146 0.0000 -11.8090
#
#
#
# Elastic Compliance Matrix: (Units=1/GPa)
#
#
# Indices 1 2 3 4 5 6 
#
# 1 0.009955 -0.001298 -0.003918 0.000000 0.004762 0.000000
# 2 -0.001298 0.008967 -0.001236 0.000000 0.002743 0.000000
# 3 -0.003918 -0.001236 0.014060 0.000000 -0.008590 0.000000
# 4 0.000000 0.000000 0.000000 0.022530 0.000000 -0.007278
# 5 0.004762 0.002743 -0.008590 0.000000 0.043510 0.000000
# 6 0.000000 0.000000 0.000000 -0.007278 0.000000 -0.082330
#
#
# Mechanical properties :
#
#
# Convention : Reuss Voigt Hill
#
# Bulk Modulus (GPa) = 49.80325 51.23013 50.51669
# Shear Modulus (GPa) = 137.78283 29.06656 83.42470
#
# Velocity S-wave (km/s) = 7.18353 3.29942 5.58969
# Velocity P-wave (km/s) = 9.35183 5.80533 7.78327
#
# Compressibility (1/GPa) = 0.02007901
#
# Stress axis : x y z
#
# Youngs Moduli (GPa) = 100.44765 111.51967 71.12413
#
# Poissons Ratio (x) = 0.14478 0.27864
# Poissons Ratio (y) = 0.13040 0.08790
# Poissons Ratio (z) = 0.39351 0.13782
#
# Static dielectric constant tensor:
#      x y z
#    x 2.133410 0.000000 -0.033530 
#    y 0.000000 2.124560 0.000000 
#    z -0.033530 0.000000 2.003230 
# 
# From -- ./inp_files/6049.got.cif
#   From: 2010.05.17/outbox.cif.g08.bks.cpg/sg14_4_cif.got.tgz:6049.got - 2010.06.03 17:49:19.
