data_PCOD9251890
_publ_section_title
;
Structure prediction by ZEFSAII (Michael W. Deem and Ramdas Pophale) SiO2 
 PCOD9251890
Probable space group: P 21/C
;
_chemical_formula_sum "Si O2"
_cell_formula_units_Z 32
_cell_length_a 5.820775
_cell_length_b 9.885975
_cell_length_c 26.764097
_cell_angle_alpha 90.000000
_cell_angle_beta 93.566316
_cell_angle_gamma 90.000000
_cell_volume 1537.131688
_symmetry_space_group_name_H-M "P 21/C"
_symmetry_group_IT_number 14
_symmetry_cell_setting 'monoclinic'
loop_
_space_group_symop_operation_xyz
x,y,z
-x,1/2+y,1/2-z
-x,-y,-z
x,1/2-y,1/2+z
loop_
_atom_site_type_symbol
_atom_site_label
_atom_site_fract_x
_atom_site_fract_y
_atom_site_fract_z
Si Si1 0.183639 0.131927 0.740072
Si Si2 0.031616 0.595246 0.452649
Si Si3 0.729861 0.572432 0.131404
Si Si4 0.985989 0.087201 0.549911
Si Si5 0.881968 0.161832 0.288692
Si Si6 0.491559 0.079007 0.101505
Si Si7 0.370514 0.358622 0.136151
Si Si8 0.497993 0.313321 0.337079
O O1 0.224575 0.172856 0.683392
O O2 0.369338 0.187179 0.782123
O O3 0.959196 0.213020 0.755262
O O4 0.199156 0.968657 0.743690
O O5 0.273245 0.554570 0.427833
O O6 0.000000 0.500000 0.500000
O O7 0.067954 0.756078 0.463100
O O8 0.773871 0.582862 0.423902
O O9 0.530534 0.482775 0.152476
O O10 0.637843 0.724347 0.123540
O O11 0.810134 0.492058 0.083847
O O12 0.922353 0.589450 0.175665
O O13 0.216456 0.096729 0.586920
O O14 0.000000 0.000000 0.500000
O O15 0.728781 0.233653 0.328543
O O16 0.518684 0.228627 0.124078
O O17 0.480312 0.962949 0.142610
#
# Coordination Sequence:
#
# PCOD9251890 Si02
#       8
#     4   4   4   4   4   4   4   4
#     4  11  26  41  69  96 143 181 237 293 356 431
#     4  11  26  49  73 108 143 189 238 302 368 436
#     4  11  22  46  67  97 143 175 241 291 357 421
#     4  11  25  44  74 104 139 188 236 300 365 428
#     4  11  26  43  66 102 137 188 233 297 355 428
#     4  11  27  46  75 104 146 189 241 296 367 431
#     4  11  24  46  69 102 139 188 235 299 354 433
#     4  11  27  41  68 104 137 189 236 294 361 426
#
# _framework density 20.817995
#
# number of rings (size 3 to 8) (size 9 to 14) (size 15 to 20)
#    0.000    1.000    3.750    0.375   10.500    2.500 
#    0.000    0.000    0.000    0.000    0.000    0.000 
#    0.000    0.000    0.000    0.000    0.000    0.000 
#
# Total GULP energy -178308.996543 kJ/mol
# GULP energy per Si atom -5572.156142 kJ/mol
# Density = 2.077061 g / cm^3
# Si number density = 20.817995 Si / 1000 Ang^3
#
#
#
# Elastic Constant Matrix: (Units=GPa)
#
#
# Indices 1 2 3 4 5 6 
#
# 1 78.3814 25.0941 37.5562 0.0000 -15.0943 0.0000
# 2 25.0941 91.6918 56.2722 0.0000 -1.9878 0.0000
# 3 37.5562 56.2722 89.5664 0.0000 -14.2006 0.0000
# 4 0.0000 0.0000 0.0000 44.6473 0.0000 -6.5847
# 5 -15.0943 -1.9878 -14.2006 0.0000 28.1051 0.0000
# 6 0.0000 0.0000 0.0000 -6.5847 0.0000 33.3334
#
#
#
# Elastic Compliance Matrix: (Units=1/GPa)
#
#
# Indices 1 2 3 4 5 6 
#
# 1 0.016916 -0.001226 -0.005322 0.000000 0.006309 0.000000
# 2 -0.001226 0.018445 -0.011927 0.000000 -0.005381 0.000000
# 3 -0.005322 -0.011927 0.022071 0.000000 0.007450 0.000000
# 4 0.000000 0.000000 0.000000 0.023070 0.000000 0.004557
# 5 0.006309 -0.005381 0.007450 0.000000 0.042353 0.000000
# 6 0.000000 0.000000 0.000000 0.004557 0.000000 0.030900
#
#
# Mechanical properties :
#
#
# Convention : Reuss Voigt Hill
#
# Bulk Modulus (GPa) = 48.82740 55.27606 52.05173
# Shear Modulus (GPa) = 25.31211 30.59828 27.95519
#
# Velocity S-wave (km/s) = 3.49072 3.83796 3.66845
# Velocity P-wave (km/s) = 6.30494 6.80070 6.55751
#
# Compressibility (1/GPa) = 0.02048030
#
# Stress axis : x y z
#
# Youngs Moduli (GPa) = 59.11618 54.21510 45.30757
#
# Poissons Ratio (x) = 0.06649 0.24113
# Poissons Ratio (y) = 0.07250 0.54040
# Poissons Ratio (z) = 0.31463 0.64664
#
# Static dielectric constant tensor:
#      x y z
#    x 1.851080 0.000000 -0.014600 
#    y 0.000000 1.745500 0.000000 
#    z -0.014600 0.000000 1.728370 
# 
# From -- ./inp_files/78714.got.cif
#   From: 2010.05.17/outbox.cif.g08.bks.cpg/sg14_40_cif.got.tgz:78714.got - 2010.06.03 17:49:19.
