data_PCOD9251286
_publ_section_title
;
Structure prediction by ZEFSAII (Michael W. Deem and Ramdas Pophale) SiO2 
 PCOD9251286
Probable space group: P 21/C
;
_chemical_formula_sum "Si O2"
_cell_formula_units_Z 28
_cell_length_a 15.937876
_cell_length_b 16.046520
_cell_length_c 9.678994
_cell_angle_alpha 90.000000
_cell_angle_beta 35.868225
_cell_angle_gamma 90.000000
_cell_volume 1450.380988
_symmetry_space_group_name_H-M "P 21/C"
_symmetry_group_IT_number 14
_symmetry_cell_setting 'monoclinic'
loop_
_space_group_symop_operation_xyz
x,y,z
-x,1/2+y,1/2-z
-x,-y,-z
x,1/2-y,1/2+z
loop_
_atom_site_type_symbol
_atom_site_label
_atom_site_fract_x
_atom_site_fract_y
_atom_site_fract_z
Si Si1 0.342184 0.945871 0.309611
Si Si2 0.851713 0.820961 0.498062
Si Si3 0.048043 0.923199 0.840613
Si Si4 0.252453 0.878004 0.147492
Si Si5 0.003511 0.247230 0.446136
Si Si6 0.035607 0.978681 0.294195
Si Si7 0.543959 0.869948 0.853988
O O1 0.217879 0.923549 0.581142
O O2 0.268764 0.942081 0.254828
O O3 0.408211 0.035965 0.249640
O O4 0.470041 0.880844 0.104756
O O5 0.875087 0.798507 0.626099
O O6 0.688353 0.818241 0.668653
O O7 0.917572 0.913632 0.394779
O O8 0.949731 0.761840 0.272765
O O9 0.012387 0.837836 0.963798
O O10 0.968085 0.942579 0.801749
O O11 0.000000 0.000000 0.000000
O O12 0.184160 0.926779 0.109715
O O13 0.139948 0.806910 0.341546
O O14 0.414581 0.843736 0.925278
O O15 0.000000 0.000000 0.500000
#
# Coordination Sequence:
#
# PCOD9251286 Si02
#       7
#     4   4   4   4   4   4   4
#     4   9  17  34  61  89 111 155 202 239 303 357
#     4  11  22  40  59  89 121 155 201 245 304 362
#     4  12  21  37  61  88 123 157 203 257 298 347
#     4   9  19  35  60  86 117 153 201 245 294 364
#     4  11  24  38  59  90 122 159 200 254 302 360
#     4  11  19  35  63  89 108 155 207 247 291 359
#     4   9  17  37  61  88 117 158 195 250 295 374
#
# _framework density 19.305274000000001
#
# number of rings (size 3 to 8) (size 9 to 14) (size 15 to 20)
#    0.857    0.857    4.286    0.857    2.000    0.000 
#    2.571    0.000    0.000    1.714    0.000    0.000 
#    0.000    0.000    0.000    0.000    0.000    0.000 
#
# Total GULP energy -155884.406659 kJ/mol
# GULP energy per Si atom -5567.300238 kJ/mol
# Density = 1.926133 g / cm^3
# Si number density = 19.305274 Si / 1000 Ang^3
#
#
#
# Elastic Constant Matrix: (Units=GPa)
#
#
# Indices 1 2 3 4 5 6 
#
# 1 85.2487 14.6644 24.4648 0.0000 -22.8023 0.0000
# 2 14.6644 58.0171 6.0612 0.0000 -9.2125 0.0000
# 3 24.4648 6.0612 50.5038 0.0000 -14.2367 0.0000
# 4 0.0000 0.0000 0.0000 26.7351 0.0000 1.6628
# 5 -22.8023 -9.2125 -14.2367 0.0000 42.8933 0.0000
# 6 0.0000 0.0000 0.0000 1.6628 0.0000 26.8010
#
#
#
# Elastic Compliance Matrix: (Units=1/GPa)
#
#
# Indices 1 2 3 4 5 6 
#
# 1 0.015256 -0.002366 -0.005476 0.000000 0.005785 0.000000
# 2 -0.002366 0.018275 -0.000326 0.000000 0.002559 0.000000
# 3 -0.005476 -0.000326 0.023887 0.000000 0.004947 0.000000
# 4 0.000000 0.000000 0.000000 0.037549 0.000000 -0.002330
# 5 0.005785 0.002559 0.004947 0.000000 0.028581 0.000000
# 6 0.000000 0.000000 0.000000 -0.002330 0.000000 0.037457
#
#
# Mechanical properties :
#
#
# Convention : Reuss Voigt Hill
#
# Bulk Modulus (GPa) = 24.34083 31.57226 27.95654
# Shear Modulus (GPa) = 26.17363 29.19116 27.68239
#
# Velocity S-wave (km/s) = 3.68608 3.89277 3.79083
# Velocity P-wave (km/s) = 5.54545 6.04935 5.80287
#
# Compressibility (1/GPa) = 0.04108323
#
# Stress axis : x y z
#
# Youngs Moduli (GPa) = 65.54801 54.72064 41.86426
#
# Poissons Ratio (x) = 0.12944 0.22923
# Poissons Ratio (y) = 0.15505 0.01364
# Poissons Ratio (z) = 0.35892 0.01783
#
# Static dielectric constant tensor:
#      x y z
#    x 1.705940 0.000000 -0.029510 
#    y 0.000000 1.713220 0.000000 
#    z -0.029510 0.000000 1.732030 
# 
# From -- ./inp_files/16641.got.cif
#   From: 2010.05.17/outbox.cif.g08.bks.cpg/sg14_9_cif.got.tgz:16641.got - 2010.06.03 17:49:19.
