data_PCOD9251174
_publ_section_title
;
Structure prediction by ZEFSAII (Michael W. Deem and Ramdas Pophale) SiO2 
 PCOD9251174
Probable space group: P 21/C
;
_chemical_formula_sum "Si O2"
_cell_formula_units_Z 18
_cell_length_a 22.399498
_cell_length_b 5.012464
_cell_length_c 14.553680
_cell_angle_alpha 90.000000
_cell_angle_beta 151.161681
_cell_angle_gamma 90.000000
_cell_volume 788.161693
_symmetry_space_group_name_H-M "P 21/C"
_symmetry_group_IT_number 14
_symmetry_cell_setting 'monoclinic'
loop_
_space_group_symop_operation_xyz
x,y,z
-x,1/2+y,1/2-z
-x,-y,-z
x,1/2-y,1/2+z
loop_
_atom_site_type_symbol
_atom_site_label
_atom_site_fract_x
_atom_site_fract_y
_atom_site_fract_z
Si Si1 0.751896 0.816618 0.857533
Si Si2 0.032875 0.250803 0.982248
Si Si3 0.442901 0.710417 0.217111
Si Si4 0.187705 0.680487 0.945848
Si Si5 0.500000 0.500000 0.500000
O O1 0.610857 0.730066 0.657521
O O2 0.807378 0.619554 0.010123
O O3 0.827748 0.760971 0.866980
O O4 0.774012 0.118980 0.920139
O O5 0.944292 0.247921 0.773867
O O6 0.000000 0.500000 0.000000
O O7 0.000000 0.000000 0.000000
O O8 0.499948 0.500321 0.222617
O O9 0.472483 0.595646 0.357165
O O10 0.293851 0.720279 0.012156
#
# Coordination Sequence:
#
# PCOD9251174 Si02
#       5
#     4   4   4   4   2
#     4  11  24  45  70  99 140 187 231 296 353 445
#     4  12  26  42  70 105 138 185 235 299 358 435
#     4  11  25  42  70 101 142 185 233 299 353 438
#     4  11  24  45  68  99 138 186 238 286 371 421
#     4  10  26  44  72 104 142 188 240 286 372 422
#
# _framework density 22.837954
#
# number of rings (size 3 to 8) (size 9 to 14) (size 15 to 20)
#    0.000    0.889    0.000    6.667    6.222    8.000 
#    0.000    0.000    0.000    0.000    0.000    0.000 
#    0.000    0.000    0.000    0.000    0.000    0.000 
#
# Total GULP energy -100282.193404 kJ/mol
# GULP energy per Si atom -5571.232967 kJ/mol
# Density = 2.278597 g / cm^3
# Si number density = 22.837954 Si / 1000 Ang^3
#
#
#
# Elastic Constant Matrix: (Units=GPa)
#
#
# Indices 1 2 3 4 5 6 
#
# 1 64.3311 17.2446 12.4627 0.0000 18.4676 0.0000
# 2 17.2446 91.5709 -10.7712 0.0000 14.1348 0.0000
# 3 12.4627 -10.7712 60.1286 0.0000 -7.1735 0.0000
# 4 0.0000 0.0000 0.0000 25.9285 0.0000 -1.6383
# 5 18.4676 14.1348 -7.1735 0.0000 33.4586 0.0000
# 6 0.0000 0.0000 0.0000 -1.6383 0.0000 49.5647
#
#
#
# Elastic Compliance Matrix: (Units=1/GPa)
#
#
# Indices 1 2 3 4 5 6 
#
# 1 0.020859 -0.002864 -0.006225 0.000000 -0.011638 0.000000
# 2 -0.002864 0.012217 0.002417 0.000000 -0.003062 0.000000
# 3 -0.006225 0.002417 0.019132 0.000000 0.006517 0.000000
# 4 0.000000 0.000000 0.000000 0.038648 0.000000 0.001277
# 5 -0.011638 -0.003062 0.006517 0.000000 0.039002 0.000000
# 6 0.000000 0.000000 0.000000 0.001277 0.000000 0.020218
#
#
# Mechanical properties :
#
#
# Convention : Reuss Voigt Hill
#
# Bulk Modulus (GPa) = 25.73119 28.21141 26.97130
# Shear Modulus (GPa) = 28.34877 34.93000 31.63938
#
# Velocity S-wave (km/s) = 3.52703 3.91509 3.72612
# Velocity P-wave (km/s) = 5.27995 5.72860 5.50885
#
# Compressibility (1/GPa) = 0.03886334
#
# Stress axis : x y z
#
# Youngs Moduli (GPa) = 47.94058 81.85456 52.26945
#
# Poissons Ratio (x) = 0.23443 0.32537
# Poissons Ratio (y) = 0.13730 -0.12632
# Poissons Ratio (z) = 0.29843 -0.19782
#
# Static dielectric constant tensor:
#      x y z
#    x 1.845130 0.000000 0.015530 
#    y 0.000000 1.797690 0.000000 
#    z 0.015530 0.000000 1.849770 
# 
# From -- ./inp_files/46053.got.cif
#   From: 2010.05.17/outbox.cif.g08.bks.cpg/sg14_24_cif.got.tgz:46053.got - 2010.06.03 17:49:19.
