data_PCOD9251266
_publ_section_title
;
Structure prediction by ZEFSAII (Michael W. Deem and Ramdas Pophale) SiO2 
 PCOD9251266
Probable space group: P 21/C
;
_chemical_formula_sum "Si O2"
_cell_formula_units_Z 32
_cell_length_a 9.904540
_cell_length_b 16.012683
_cell_length_c 8.431251
_cell_angle_alpha 90.000000
_cell_angle_beta 81.231343
_cell_angle_gamma 90.000000
_cell_volume 1321.552649
_symmetry_space_group_name_H-M "P 21/C"
_symmetry_group_IT_number 14
_symmetry_cell_setting 'monoclinic'
loop_
_space_group_symop_operation_xyz
x,y,z
-x,1/2+y,1/2-z
-x,-y,-z
x,1/2-y,1/2+z
loop_
_atom_site_type_symbol
_atom_site_label
_atom_site_fract_x
_atom_site_fract_y
_atom_site_fract_z
Si Si1 0.672232 0.412133 0.177482
Si Si2 0.789049 0.823376 0.291829
Si Si3 0.994730 0.195289 0.377969
Si Si4 0.383051 0.897149 0.959908
Si Si5 0.493179 0.600974 0.115689
Si Si6 0.400242 0.278590 0.444505
Si Si7 0.802215 0.236154 0.152209
Si Si8 0.188544 0.056858 0.451630
O O1 0.638132 0.441407 0.365178
O O2 0.808955 0.459930 0.092386
O O3 0.565870 0.420309 0.048553
O O4 0.700176 0.313524 0.191015
O O5 0.909368 0.771917 0.191002
O O6 0.664480 0.827874 0.190485
O O7 0.724142 0.765453 0.441347
O O8 0.830262 0.910409 0.365586
O O9 0.937060 0.221634 0.556962
O O10 0.086976 0.112781 0.366222
O O11 0.857837 0.190096 0.297563
O O12 0.519338 0.842942 0.962511
O O13 0.259308 0.832723 0.953668
O O14 0.406946 0.935277 0.779443
O O15 0.499369 0.702311 0.119600
O O16 0.651696 0.577537 0.110203
#
# Coordination Sequence:
#
# PCOD9251266 Si02
#       8
#     4   4   4   4   4   4   4   4
#     4  12  26  44  67 103 143 175 219 285 356 401
#     4  11  20  38  66  96 127 169 227 280 329 401
#     4  12  22  42  66  94 126 178 236 273 322 403
#     4  12  22  41  68  99 133 180 225 277 333 406
#     4  11  22  40  67 102 138 171 223 274 347 421
#     4  11  18  35  66  99 126 165 225 281 328 396
#     4  12  24  41  67  95 129 178 237 276 319 403
#     4  11  25  43  67 101 143 173 215 291 355 396
#
# _framework density 24.213944000000001
#
# number of rings (size 3 to 8) (size 9 to 14) (size 15 to 20)
#    0.000    0.500    7.500    3.375    0.000    1.000 
#    0.000    3.125    0.000    0.000    0.000    0.000 
#    0.000    0.000    0.000    0.000    0.000    0.000 
#
# Total GULP energy -178784.405753 kJ/mol
# GULP energy per Si atom -5587.012680 kJ/mol
# Density = 2.415883 g / cm^3
# Si number density = 24.213944 Si / 1000 Ang^3
#
#
#
# Elastic Constant Matrix: (Units=GPa)
#
#
# Indices 1 2 3 4 5 6 
#
# 1 76.8837 22.9550 33.0252 0.0000 19.0874 0.0000
# 2 22.9550 54.7964 6.7501 0.0000 5.5690 0.0000
# 3 33.0252 6.7501 135.6545 0.0000 23.2385 0.0000
# 4 0.0000 0.0000 0.0000 23.1054 0.0000 7.2034
# 5 19.0874 5.5690 23.2385 0.0000 56.1462 0.0000
# 6 0.0000 0.0000 0.0000 7.2034 0.0000 31.9714
#
#
#
# Elastic Compliance Matrix: (Units=1/GPa)
#
#
# Indices 1 2 3 4 5 6 
#
# 1 0.017283 -0.006447 -0.003218 0.000000 -0.003904 0.000000
# 2 -0.006447 0.020893 0.000548 0.000000 -0.000108 0.000000
# 3 -0.003218 0.000548 0.008556 0.000000 -0.002502 0.000000
# 4 0.000000 0.000000 0.000000 0.046550 0.000000 -0.010488
# 5 -0.003904 -0.000108 -0.002502 0.000000 0.020184 0.000000
# 6 0.000000 0.000000 0.000000 -0.010488 0.000000 0.033641
#
#
# Mechanical properties :
#
#
# Convention : Reuss Voigt Hill
#
# Bulk Modulus (GPa) = 35.08805 43.64390 39.36597
# Shear Modulus (GPa) = 28.59745 35.88488 32.24117
#
# Velocity S-wave (km/s) = 3.44034 3.85384 3.65295
# Velocity P-wave (km/s) = 5.50487 6.15355 5.83823
#
# Compressibility (1/GPa) = 0.02849973
#
# Stress axis : x y z
#
# Youngs Moduli (GPa) = 57.86023 47.86181 116.87190
#
# Poissons Ratio (x) = 0.30856 0.37609
# Poissons Ratio (y) = 0.37302 -0.06408
# Poissons Ratio (z) = 0.18619 -0.02624
#
# Static dielectric constant tensor:
#      x y z
#    x 1.939730 0.000000 0.027130 
#    y 0.000000 2.019780 0.000000 
#    z 0.027130 0.000000 2.059360 
# 
# From -- ./inp_files/13321.got.cif
#   From: 2010.05.17/outbox.cif.g08.bks.cpg/sg14_7_cif.got.tgz:13321.got - 2010.06.03 17:49:19.
