data_PCOD9251226
_publ_section_title
;
Structure prediction by ZEFSAII (Michael W. Deem and Ramdas Pophale) SiO2 
 PCOD9251226
Probable space group: P 21/C
;
_chemical_formula_sum "Si O2"
_cell_formula_units_Z 30
_cell_length_a 18.262366
_cell_length_b 10.497363
_cell_length_c 9.118239
_cell_angle_alpha 90.000000
_cell_angle_beta 39.865483
_cell_angle_gamma 90.000000
_cell_volume 1120.463430
_symmetry_space_group_name_H-M "P 21/C"
_symmetry_group_IT_number 14
_symmetry_cell_setting 'monoclinic'
loop_
_space_group_symop_operation_xyz
x,y,z
-x,1/2+y,1/2-z
-x,-y,-z
x,1/2-y,1/2+z
loop_
_atom_site_type_symbol
_atom_site_label
_atom_site_fract_x
_atom_site_fract_y
_atom_site_fract_z
Si Si1 0.754425 0.505643 0.455897
Si Si2 0.654501 0.692171 0.402188
Si Si3 0.833671 0.878224 0.124164
Si Si4 0.015051 0.827227 0.093849
Si Si5 0.906814 0.059712 0.443960
Si Si6 0.500000 0.500000 0.500000
Si Si7 0.570697 0.191220 0.160008
Si Si8 0.248943 0.598789 0.086920
O O1 0.679816 0.626930 0.519983
O O2 0.817762 0.535010 0.507004
O O3 0.847731 0.475932 0.187706
O O4 0.665116 0.390442 0.601964
O O5 0.773833 0.748499 0.171503
O O6 0.611793 0.580996 0.365009
O O7 0.549969 0.789385 0.575502
O O8 0.944061 0.852482 0.053616
O O9 0.750270 0.951873 0.367283
O O10 0.010425 0.682313 0.157492
O O11 0.967080 0.936262 0.276908
O O12 0.147296 0.842819 0.843381
O O13 0.806017 0.106866 0.489714
O O14 0.453670 0.616751 0.453364
O O15 0.630753 0.332127 0.069265
#
# Coordination Sequence:
#
# PCOD9251226 Si02
#       8
#     4   4   4   4   4   2   4   4
#     4  11  27  49  80 120 157 218 271 342 422 495
#     4  11  27  47  78 113 161 216 266 341 409 492
#     4  11  27  49  79 120 169 208 277 342 417 489
#     4  11  27  55  84 119 171 220 275 351 416 509
#     4  11  26  53  85 121 166 223 279 342 423 506
#     4  10  26  48  76 114 158 206 268 334 398 482
#     4  11  26  47  82 115 161 208 276 330 414 493
#     4  11  27  49  82 119 160 220 269 341 412 500
#
# _framework density 26.774633999999999
#
# number of rings (size 3 to 8) (size 9 to 14) (size 15 to 20)
#    0.000    1.067    1.333    2.400   11.200    9.067 
#    2.400    9.333    0.000    0.000    0.000    0.000 
#    0.000    0.000    0.000    0.000    0.000    0.000 
#
# Total GULP energy -167586.351027 kJ/mol
# GULP energy per Si atom -5586.211701 kJ/mol
# Density = 2.671369 g / cm^3
# Si number density = 26.774634 Si / 1000 Ang^3
#
#
#
# Elastic Constant Matrix: (Units=GPa)
#
#
# Indices 1 2 3 4 5 6 
#
# 1 173.4944 50.3883 41.0380 0.0000 -2.7820 0.0000
# 2 50.3883 90.7825 22.1031 0.0000 -2.3499 0.0000
# 3 41.0380 22.1031 105.0345 0.0000 -11.2167 0.0000
# 4 0.0000 0.0000 0.0000 50.4152 0.0000 -23.6974
# 5 -2.7820 -2.3499 -11.2167 0.0000 47.7395 0.0000
# 6 0.0000 0.0000 0.0000 -23.6974 0.0000 19.5474
#
#
#
# Elastic Compliance Matrix: (Units=1/GPa)
#
#
# Indices 1 2 3 4 5 6 
#
# 1 0.007290 -0.003534 -0.002131 0.000000 -0.000250 0.000000
# 2 -0.003534 0.013323 -0.001410 0.000000 0.000119 0.000000
# 3 -0.002131 -0.001410 0.010903 0.000000 0.002368 0.000000
# 4 0.000000 0.000000 0.000000 0.046111 0.000000 0.055901
# 5 -0.000250 0.000119 0.002368 0.000000 0.021495 0.000000
# 6 0.000000 0.000000 0.000000 0.055901 0.000000 0.118927
#
#
# Mechanical properties :
#
#
# Convention : Reuss Voigt Hill
#
# Bulk Modulus (GPa) = 57.58585 66.26336 61.92460
# Shear Modulus (GPa) = 21.00932 40.59254 30.80093
#
# Velocity S-wave (km/s) = 2.80424 3.89791 3.39540
# Velocity P-wave (km/s) = 5.66033 6.71272 6.20886
#
# Compressibility (1/GPa) = 0.01736538
#
# Stress axis : x y z
#
# Youngs Moduli (GPa) = 137.16620 75.05637 91.71679
#
# Poissons Ratio (x) = 0.26525 0.19549
# Poissons Ratio (y) = 0.48475 0.12935
# Poissons Ratio (z) = 0.29236 0.10585
#
# Static dielectric constant tensor:
#      x y z
#    x 1.992660 0.000000 0.043210 
#    y 0.000000 2.210210 0.000000 
#    z 0.043210 0.000000 1.913130 
# 
# From -- ./inp_files/33910.got.cif
#   From: 2010.05.17/outbox.cif.g08.bks.cpg/sg14_17_cif.got.tgz:33910.got - 2010.06.03 17:49:19.
