data_PCOD9251974
_publ_section_title
;
Structure prediction by ZEFSAII (Michael W. Deem and Ramdas Pophale) SiO2 
 PCOD9251974
Probable space group: P 21/C
;
_chemical_formula_sum "Si O2"
_cell_formula_units_Z 24
_cell_length_a 4.859708
_cell_length_b 14.095188
_cell_length_c 13.963677
_cell_angle_alpha 90.000000
_cell_angle_beta 109.739031
_cell_angle_gamma 90.000000
_cell_volume 900.288155
_symmetry_space_group_name_H-M "P 21/C"
_symmetry_group_IT_number 14
_symmetry_cell_setting 'monoclinic'
loop_
_space_group_symop_operation_xyz
x,y,z
-x,1/2+y,1/2-z
-x,-y,-z
x,1/2-y,1/2+z
loop_
_atom_site_type_symbol
_atom_site_label
_atom_site_fract_x
_atom_site_fract_y
_atom_site_fract_z
Si Si1 0.087961 0.063723 0.920251
Si Si2 0.843845 0.376738 0.686425
Si Si3 0.048013 0.314342 0.144003
Si Si4 0.476533 0.377490 0.815055
Si Si5 0.528709 0.565802 0.910185
Si Si6 0.518747 0.316960 0.374520
O O1 0.800934 0.127030 0.871618
O O2 0.365819 0.133617 0.947788
O O3 0.172957 0.981670 0.855906
O O4 0.000000 0.000000 0.000000
O O5 0.566883 0.350424 0.717564
O O6 0.925815 0.292897 0.622577
O O7 0.129537 0.379360 0.788204
O O8 0.216103 0.357607 0.072752
O O9 0.274811 0.318467 0.260727
O O10 0.774704 0.380340 0.137201
O O11 0.589425 0.483615 0.839840
O O12 0.592991 0.294015 0.896132
O O13 0.500000 0.500000 0.000000
#
# Coordination Sequence:
#
# PCOD9251974 Si02
#       6
#     4   4   4   4   4   4
#     4  12  25  40  63  95 130 162 197 255 318 367
#     4  11  23  40  65  91 118 163 214 253 297 361
#     4  11  23  42  65  89 121 164 212 254 298 363
#     4  11  23  40  65  91 118 163 214 253 297 361
#     4  12  25  40  63  95 130 162 197 255 318 367
#     4  11  23  42  65  89 121 164 212 254 298 363
#
# _framework density 26.658131999999998
#
# number of rings (size 3 to 8) (size 9 to 14) (size 15 to 20)
#    0.000    0.667    0.000   11.000    0.000    2.667 
#    0.000    0.000    0.000    0.000    0.000    0.000 
#    0.000    0.000    0.000    0.000    0.000    0.000 
#
# Total GULP energy -134520.349934 kJ/mol
# GULP energy per Si atom -5605.014581 kJ/mol
# Density = 2.659746 g / cm^3
# Si number density = 26.658132 Si / 1000 Ang^3
#
#
#
# Elastic Constant Matrix: (Units=GPa)
#
#
# Indices 1 2 3 4 5 6 
#
# 1 168.3821 59.8323 19.2738 0.0000 -17.4823 0.0000
# 2 59.8323 161.4354 -2.8533 0.0000 3.8464 0.0000
# 3 19.2738 -2.8533 32.6294 0.0000 -14.3163 0.0000
# 4 0.0000 0.0000 0.0000 30.9820 0.0000 -10.2659
# 5 -17.4823 3.8464 -14.3163 0.0000 42.8663 0.0000
# 6 0.0000 0.0000 0.0000 -10.2659 0.0000 57.4355
#
#
#
# Elastic Compliance Matrix: (Units=1/GPa)
#
#
# Indices 1 2 3 4 5 6 
#
# 1 0.007647 -0.002952 -0.003855 0.000000 0.002096 0.000000
# 2 -0.002952 0.007351 0.001838 0.000000 -0.001250 0.000000
# 3 -0.003855 0.001838 0.037873 0.000000 0.010911 0.000000
# 4 0.000000 0.000000 0.000000 0.034309 0.000000 0.006132
# 5 0.002096 -0.001250 0.010911 0.000000 0.027939 0.000000
# 6 0.000000 0.000000 0.000000 0.006132 0.000000 0.018507
#
#
# Mechanical properties :
#
#
# Convention : Reuss Voigt Hill
#
# Bulk Modulus (GPa) = 23.29280 57.21695 40.25487
# Shear Modulus (GPa) = 31.67072 45.33637 38.50354
#
# Velocity S-wave (km/s) = 3.45052 4.12838 3.80458
# Velocity P-wave (km/s) = 4.96300 6.65090 5.86796
#
# Compressibility (1/GPa) = 0.04293173
#
# Stress axis : x y z
#
# Youngs Moduli (GPa) = 130.77348 136.03856 26.40426
#
# Poissons Ratio (x) = 0.40161 0.10180
# Poissons Ratio (y) = 0.38607 -0.04854
# Poissons Ratio (z) = 0.50419 -0.25008
#
# Static dielectric constant tensor:
#      x y z
#    x 1.960200 0.000000 0.026090 
#    y 0.000000 2.066190 0.000000 
#    z 0.026090 0.000000 2.250590 
# 
# From -- ./inp_files/52979.got.cif
#   From: 2010.05.17/outbox.cif.g08.bks.cpg/sg14_27_cif.got.tgz:52979.got - 2010.06.03 17:49:19.
