data_PCOD9251227
_publ_section_title
;
Structure prediction by ZEFSAII (Michael W. Deem and Ramdas Pophale) SiO2 
 PCOD9251227
Probable space group: P 21/C
;
_chemical_formula_sum "Si O2"
_cell_formula_units_Z 24
_cell_length_a 4.809508
_cell_length_b 23.686306
_cell_length_c 7.969776
_cell_angle_alpha 90.000000
_cell_angle_beta 91.053702
_cell_angle_gamma 90.000000
_cell_volume 907.759194
_symmetry_space_group_name_H-M "P 21/C"
_symmetry_group_IT_number 14
_symmetry_cell_setting 'monoclinic'
loop_
_space_group_symop_operation_xyz
x,y,z
-x,1/2+y,1/2-z
-x,-y,-z
x,1/2-y,1/2+z
loop_
_atom_site_type_symbol
_atom_site_label
_atom_site_fract_x
_atom_site_fract_y
_atom_site_fract_z
Si Si1 0.002239 0.865437 0.678421
Si Si2 0.828770 0.024776 0.843412
Si Si3 0.678599 0.480585 0.843672
Si Si4 0.967791 0.356752 0.445107
Si Si5 0.319357 0.324220 0.133441
Si Si6 0.831053 0.264163 0.007697
O O1 0.211531 0.916874 0.649387
O O2 0.907436 0.870661 0.869387
O O3 0.151114 0.804525 0.656225
O O4 0.774457 0.863700 0.525629
O O5 0.787949 0.090537 0.878928
O O6 0.545642 0.992045 0.805390
O O7 0.045225 0.016939 0.691643
O O8 0.000000 0.000000 0.000000
O O9 0.500000 0.500000 0.000000
O O10 0.628258 0.301941 0.118440
O O11 0.784909 0.300423 0.468119
O O12 0.201612 0.346686 0.306332
O O13 0.137369 0.268401 0.090025
#
# Coordination Sequence:
#
# PCOD9251227 Si02
#       6
#     4   4   4   4   4   4
#     4  10  26  48  78 111 153 202 260 312 402 452
#     4  12  28  48  76 118 154 207 273 311 397 472
#     4  12  27  50  78 114 161 211 261 333 389 469
#     4  12  25  51  79 110 160 203 256 333 383 469
#     4  10  26  49  70 114 143 197 258 310 387 474
#     4  10  26  49  72 110 152 197 257 318 395 461
#
# _framework density 26.438731000000001
#
# number of rings (size 3 to 8) (size 9 to 14) (size 15 to 20)
#    1.000    0.000    1.667    3.000    4.667    4.000 
#    3.000    0.000    0.000    0.000    0.000    0.000 
#    0.000    0.000    0.000    0.000    0.000    0.000 
#
# Total GULP energy -134372.175689 kJ/mol
# GULP energy per Si atom -5598.840654 kJ/mol
# Density = 2.637856 g / cm^3
# Si number density = 26.438731 Si / 1000 Ang^3
#
#
#
# Elastic Constant Matrix: (Units=GPa)
#
#
# Indices 1 2 3 4 5 6 
#
# 1 75.2207 8.8743 24.2503 0.0000 0.0480 0.0000
# 2 8.8743 172.7754 18.4903 0.0000 -5.6437 0.0000
# 3 24.2503 18.4903 176.6557 0.0000 -21.6378 0.0000
# 4 0.0000 0.0000 0.0000 36.7372 0.0000 -6.1835
# 5 0.0480 -5.6437 -21.6378 0.0000 31.1309 0.0000
# 6 0.0000 0.0000 0.0000 -6.1835 0.0000 36.6550
#
#
#
# Elastic Compliance Matrix: (Units=1/GPa)
#
#
# Indices 1 2 3 4 5 6 
#
# 1 0.014023 -0.000551 -0.002057 0.000000 -0.001552 0.000000
# 2 -0.000551 0.005889 -0.000448 0.000000 0.000757 0.000000
# 3 -0.002057 -0.000448 0.006537 0.000000 0.004466 0.000000
# 4 0.000000 0.000000 0.000000 0.028016 0.000000 0.004726
# 5 -0.001552 0.000757 0.004466 0.000000 0.035366 0.000000
# 6 0.000000 0.000000 0.000000 0.004726 0.000000 0.028079
#
#
# Mechanical properties :
#
#
# Convention : Reuss Voigt Hill
#
# Bulk Modulus (GPa) = 49.17198 58.65351 53.91275
# Shear Modulus (GPa) = 38.22592 45.77374 41.99983
#
# Velocity S-wave (km/s) = 3.80653 4.16542 3.99001
# Velocity P-wave (km/s) = 6.16104 6.73551 6.45467
#
# Compressibility (1/GPa) = 0.02033678
#
# Stress axis : x y z
#
# Youngs Moduli (GPa) = 71.30897 169.81308 152.97468
#
# Poissons Ratio (x) = 0.09353 0.31474
# Poissons Ratio (y) = 0.03928 0.06854
# Poissons Ratio (z) = 0.14671 0.07608
#
# Static dielectric constant tensor:
#      x y z
#    x 2.004140 0.000000 0.024920 
#    y 0.000000 2.053390 0.000000 
#    z 0.024920 0.000000 2.232400 
# 
# From -- ./inp_files/6430.got.cif
#   From: 2010.05.17/outbox.cif.g08.bks.cpg/sg14_4_cif.got.tgz:6430.got - 2010.06.03 17:49:19.
