data_PCOD9251620
_publ_section_title
;
Structure prediction by ZEFSAII (Michael W. Deem and Ramdas Pophale) SiO2 
 PCOD9251620
Probable space group: P 21/C
;
_chemical_formula_sum "Si O2"
_cell_formula_units_Z 24
_cell_length_a 14.423734
_cell_length_b 12.829787
_cell_length_c 10.291378
_cell_angle_alpha 90.000000
_cell_angle_beta 146.058948
_cell_angle_gamma 90.000000
_cell_volume 1063.332680
_symmetry_space_group_name_H-M "P 21/C"
_symmetry_group_IT_number 14
_symmetry_cell_setting 'monoclinic'
loop_
_space_group_symop_operation_xyz
x,y,z
-x,1/2+y,1/2-z
-x,-y,-z
x,1/2-y,1/2+z
loop_
_atom_site_type_symbol
_atom_site_label
_atom_site_fract_x
_atom_site_fract_y
_atom_site_fract_z
Si Si1 0.276163 0.445271 0.158687
Si Si2 0.308668 0.150566 0.954733
Si Si3 0.066483 0.659656 0.283934
Si Si4 0.909227 0.342057 0.984150
Si Si5 0.289265 0.492724 0.665717
Si Si6 0.607522 0.890831 0.475797
O O1 0.369757 0.409128 0.397215
O O2 0.382743 0.443957 0.152912
O O3 0.186484 0.554337 0.083723
O O4 0.131015 0.359127 0.959509
O O5 0.108133 0.141386 0.714502
O O6 0.365347 0.268954 0.009379
O O7 0.351404 0.097402 0.140547
O O8 0.114466 0.749754 0.440284
O O9 0.136864 0.552083 0.423519
O O10 0.134682 0.680316 0.217904
O O11 0.432855 0.579912 0.837865
O O12 0.259012 0.441256 0.770130
#
# Coordination Sequence:
#
# PCOD9251620 Si02
#       6
#     4   4   4   4   4   4
#     4  11  22  42  68  97 125 171 219 264 326 380
#     4  11  21  45  67  93 132 169 217 268 324 384
#     4  11  23  42  66  98 134 165 215 275 314 381
#     4  11  23  39  69 101 127 171 214 268 330 370
#     4  11  25  46  62  97 139 162 218 277 307 387
#     4  11  26  41  67  94 129 184 212 253 334 386
#
# _framework density 22.570546
#
# number of rings (size 3 to 8) (size 9 to 14) (size 15 to 20)
#    0.000    1.000    5.000    2.000    4.667    2.667 
#    6.000    0.000    0.000    0.000    0.000    0.000 
#    0.000    0.000    0.000    0.000    0.000    0.000 
#
# Total GULP energy -134226.257888 kJ/mol
# GULP energy per Si atom -5592.760745 kJ/mol
# Density = 2.251917 g / cm^3
# Si number density = 22.570546 Si / 1000 Ang^3
#
#
#
# Elastic Constant Matrix: (Units=GPa)
#
#
# Indices 1 2 3 4 5 6 
#
# 1 60.9282 34.8021 12.9576 0.0000 -36.5523 0.0000
# 2 34.8021 111.6566 24.0706 0.0000 -28.3649 0.0000
# 3 12.9576 24.0706 72.1177 0.0000 -35.4553 0.0000
# 4 0.0000 0.0000 0.0000 22.9086 0.0000 -8.0908
# 5 -36.5523 -28.3649 -35.4553 0.0000 46.8441 0.0000
# 6 0.0000 0.0000 0.0000 -8.0908 0.0000 28.9318
#
#
#
# Elastic Compliance Matrix: (Units=1/GPa)
#
#
# Indices 1 2 3 4 5 6 
#
# 1 0.038921 -0.005576 0.012962 0.000000 0.036804 0.000000
# 2 -0.005576 0.011400 -0.002466 0.000000 0.000685 0.000000
# 3 0.012962 -0.002466 0.026436 0.000000 0.028630 0.000000
# 4 0.000000 0.000000 0.000000 0.048435 0.000000 0.013545
# 5 0.036804 0.000685 0.028630 0.000000 0.072150 0.000000
# 6 0.000000 0.000000 0.000000 0.013545 0.000000 0.038352
#
#
# Mechanical properties :
#
#
# Convention : Reuss Voigt Hill
#
# Bulk Modulus (GPa) = 11.54782 43.15144 27.34963
# Shear Modulus (GPa) = 19.62954 31.26173 25.44563
#
# Velocity S-wave (km/s) = 2.95226 3.72569 3.36129
# Velocity P-wave (km/s) = 4.09250 6.13740 5.21614
#
# Compressibility (1/GPa) = 0.08659645
#
# Stress axis : x y z
#
# Youngs Moduli (GPa) = 25.69322 87.72156 37.82784
#
# Poissons Ratio (x) = 0.48912 -0.49033
# Poissons Ratio (y) = 0.14326 0.09329
# Poissons Ratio (z) = -0.33304 0.21633
#
# Static dielectric constant tensor:
#      x y z
#    x 1.855790 0.000000 0.010890 
#    y 0.000000 1.814760 0.000000 
#    z 0.010890 0.000000 1.909820 
# 
# From -- ./inp_files/16334.got.cif
#   From: 2010.05.17/outbox.cif.g08.bks.cpg/sg14_9_cif.got.tgz:16334.got - 2010.06.03 17:49:19.
