data_PCOD9251349
_publ_section_title
;
Structure prediction by ZEFSAII (Michael W. Deem and Ramdas Pophale) SiO2 
 PCOD9251349
Probable space group: P 21/C
;
_chemical_formula_sum "Si O2"
_cell_formula_units_Z 32
_cell_length_a 13.711162
_cell_length_b 22.706414
_cell_length_c 14.341424
_cell_angle_alpha 90.000000
_cell_angle_beta 159.629303
_cell_angle_gamma 90.000000
_cell_volume 1554.210847
_symmetry_space_group_name_H-M "P 21/C"
_symmetry_group_IT_number 14
_symmetry_cell_setting 'monoclinic'
loop_
_space_group_symop_operation_xyz
x,y,z
-x,1/2+y,1/2-z
-x,-y,-z
x,1/2-y,1/2+z
loop_
_atom_site_type_symbol
_atom_site_label
_atom_site_fract_x
_atom_site_fract_y
_atom_site_fract_z
Si Si1 0.952869 0.965094 0.727390
Si Si2 0.608818 0.813676 0.487964
Si Si3 0.022967 0.924410 0.138490
Si Si4 0.120337 0.708592 0.792557
Si Si5 0.528284 0.602965 0.738768
Si Si6 0.691811 0.781400 0.285394
Si Si7 0.615514 0.578652 0.106593
Si Si8 0.096365 0.760232 0.474088
O O1 0.746615 0.948868 0.458417
O O2 0.806827 0.942842 0.692886
O O3 0.004369 0.033421 0.796693
O O4 0.231103 0.927564 0.959917
O O5 0.529938 0.856917 0.333411
O O6 0.581793 0.851826 0.556710
O O7 0.930646 0.794471 0.778026
O O8 0.390204 0.760422 0.280810
O O9 0.067774 0.856128 0.203451
O O10 0.298845 0.944139 0.326907
O O11 0.760228 0.931345 0.835024
O O12 0.871167 0.749943 0.528542
O O13 0.130134 0.699622 0.913640
O O14 0.403478 0.744511 0.021629
O O15 0.618002 0.650877 0.742710
O O16 0.885691 0.778929 0.367210
#
# Coordination Sequence:
#
# PCOD9251349 Si02
#       8
#     4   4   4   4   4   4   4   4
#     4  11  23  36  59  81 119 163 195 246 287 348
#     4  11  20  36  57  84 118 155 189 236 294 356
#     4  12  23  38  55  87 124 156 200 238 302 356
#     4  12  24  40  60  90 124 154 195 247 300 367
#     4  11  21  38  57  82 113 152 202 238 284 346
#     4  12  24  39  62  88 117 156 198 248 299 354
#     4  11  21  35  58  86 118 159 198 237 290 363
#     4  12  22  38  59  86 122 155 194 243 307 350
#
# _framework density 20.589227999999999
#
# number of rings (size 3 to 8) (size 9 to 14) (size 15 to 20)
#    0.000    0.500    2.500    9.750    0.000    0.000 
#    0.000    0.000    0.000    1.500    0.000    0.000 
#    0.000    0.000    0.000    0.000    0.000    0.000 
#
# Total GULP energy -178729.149238 kJ/mol
# GULP energy per Si atom -5585.285914 kJ/mol
# Density = 2.054237 g / cm^3
# Si number density = 20.589228 Si / 1000 Ang^3
#
#
#
# Elastic Constant Matrix: (Units=GPa)
#
#
# Indices 1 2 3 4 5 6 
#
# 1 41.8345 2.8329 -3.7453 0.0000 -3.2142 0.0000
# 2 2.8329 31.4235 -1.8093 0.0000 -8.6743 0.0000
# 3 -3.7453 -1.8093 63.7323 0.0000 -2.8364 0.0000
# 4 0.0000 0.0000 0.0000 19.6856 0.0000 -5.9417
# 5 -3.2142 -8.6743 -2.8364 0.0000 12.3645 0.0000
# 6 0.0000 0.0000 0.0000 -5.9417 0.0000 32.7872
#
#
#
# Elastic Compliance Matrix: (Units=1/GPa)
#
#
# Indices 1 2 3 4 5 6 
#
# 1 0.024584 -0.000302 0.001729 0.000000 0.006576 0.000000
# 2 -0.000302 0.039830 0.002377 0.000000 0.028409 0.000000
# 3 0.001729 0.002377 0.016119 0.000000 0.005815 0.000000
# 4 0.000000 0.000000 0.000000 0.053738 0.000000 0.009738
# 5 0.006576 0.028409 0.005815 0.000000 0.103851 0.000000
# 6 0.000000 0.000000 0.000000 0.009738 0.000000 0.032265
#
#
# Mechanical properties :
#
#
# Convention : Reuss Voigt Hill
#
# Bulk Modulus (GPa) = 11.34541 14.61633 12.98087
# Shear Modulus (GPa) = 17.11408 22.28156 19.69782
#
# Velocity S-wave (km/s) = 2.88621 3.29324 3.09642
# Velocity P-wave (km/s) = 4.07790 4.64489 4.37060
#
# Compressibility (1/GPa) = 0.08814138
#
# Stress axis : x y z
#
# Youngs Moduli (GPa) = 40.67670 25.10691 62.04050
#
# Poissons Ratio (x) = 0.00757 -0.10725
# Poissons Ratio (y) = 0.01227 -0.14749
# Poissons Ratio (z) = -0.07032 -0.05969
#
# Static dielectric constant tensor:
#      x y z
#    x 1.786720 0.000000 0.004220 
#    y 0.000000 1.816170 0.000000 
#    z 0.004220 0.000000 1.727460 
# 
# From -- ./inp_files/47670.got.cif
#   From: 2010.05.17/outbox.cif.g08.bks.cpg/sg14_24_cif.got.tgz:47670.got - 2010.06.03 17:49:19.
