data_PCOD9251442
_publ_section_title
;
Structure prediction by ZEFSAII (Michael W. Deem and Ramdas Pophale) SiO2 
 PCOD9251442
Probable space group: P 21/C
;
_chemical_formula_sum "Si O2"
_cell_formula_units_Z 24
_cell_length_a 9.866637
_cell_length_b 11.845419
_cell_length_c 7.955359
_cell_angle_alpha 90.000000
_cell_angle_beta 83.279070
_cell_angle_gamma 90.000000
_cell_volume 923.388733
_symmetry_space_group_name_H-M "P 21/C"
_symmetry_group_IT_number 14
_symmetry_cell_setting 'monoclinic'
loop_
_space_group_symop_operation_xyz
x,y,z
-x,1/2+y,1/2-z
-x,-y,-z
x,1/2-y,1/2+z
loop_
_atom_site_type_symbol
_atom_site_label
_atom_site_fract_x
_atom_site_fract_y
_atom_site_fract_z
Si Si1 0.521377 0.339768 0.851378
Si Si2 0.185505 0.881631 0.787748
Si Si3 0.128609 0.384460 0.156474
Si Si4 0.473954 0.906542 0.271974
Si Si5 0.177650 0.584399 0.671172
Si Si6 0.119969 0.145934 0.271672
O O1 0.684278 0.327202 0.813904
O O2 0.471600 0.209544 0.828677
O O3 0.498533 0.455926 0.740321
O O4 0.484413 0.379800 0.042884
O O5 0.043055 0.846884 0.726003
O O6 0.195642 0.013831 0.745109
O O7 0.180879 0.860521 0.987163
O O8 0.177633 0.265984 0.218202
O O9 0.964937 0.392165 0.213594
O O10 0.153683 0.390388 0.955035
O O11 0.310955 0.899504 0.263279
O O12 0.169115 0.449807 0.638831
#
# Coordination Sequence:
#
# PCOD9251442 Si02
#       6
#     4   4   4   4   4   4
#     4  11  25  45  68  94 126 166 214 266 320 379
#     4  11  22  38  60  88 122 160 204 253 311 373
#     4  11  21  36  58  87 123 161 204 252 308 371
#     4  11  25  45  68  94 126 166 214 266 320 379
#     4  11  22  38  60  88 122 160 204 253 311 373
#     4  11  21  36  58  87 123 161 204 252 308 371
#
# _framework density 25.991223000000002
#
# number of rings (size 3 to 8) (size 9 to 14) (size 15 to 20)
#    0.000    1.000    0.000   10.000    0.000    4.000 
#    0.000    3.333    0.000    0.000    0.000    0.000 
#    0.000    0.000    0.000    0.000    0.000    0.000 
#
# Total GULP energy -134186.171631 kJ/mol
# GULP energy per Si atom -5591.090485 kJ/mol
# Density = 2.593207 g / cm^3
# Si number density = 25.991223 Si / 1000 Ang^3
#
#
#
# Elastic Constant Matrix: (Units=GPa)
#
#
# Indices 1 2 3 4 5 6 
#
# 1 80.7508 -6.0777 -4.5979 0.0000 12.6398 0.0000
# 2 -6.0777 193.5856 8.6256 0.0000 1.1234 0.0000
# 3 -4.5979 8.6256 101.1128 0.0000 8.2450 0.0000
# 4 0.0000 0.0000 0.0000 45.6030 0.0000 1.6393
# 5 12.6398 1.1234 8.2450 0.0000 15.9346 0.0000
# 6 0.0000 0.0000 0.0000 1.6393 0.0000 35.2487
#
#
#
# Elastic Compliance Matrix: (Units=1/GPa)
#
#
# Indices 1 2 3 4 5 6 
#
# 1 0.014440 0.000453 0.001623 0.000000 -0.012326 0.000000
# 2 0.000453 0.005200 -0.000380 0.000000 -0.000529 0.000000
# 3 0.001623 -0.000380 0.010544 0.000000 -0.006716 0.000000
# 4 0.000000 0.000000 0.000000 0.021965 0.000000 -0.001022
# 5 -0.012326 -0.000529 -0.006716 0.000000 0.076046 0.000000
# 6 0.000000 0.000000 0.000000 -0.001022 0.000000 0.028417
#
#
# Mechanical properties :
#
#
# Convention : Reuss Voigt Hill
#
# Bulk Modulus (GPa) = 29.78429 41.26102 35.52265
# Shear Modulus (GPa) = 30.41145 44.52388 37.46767
#
# Velocity S-wave (km/s) = 3.42433 4.14337 3.80089
# Velocity P-wave (km/s) = 5.20759 6.22892 5.74101
#
# Compressibility (1/GPa) = 0.03357475
#
# Stress axis : x y z
#
# Youngs Moduli (GPa) = 69.25414 192.31222 94.84224
#
# Poissons Ratio (x) = -0.08703 -0.15394
# Poissons Ratio (y) = -0.03134 0.03603
# Poissons Ratio (z) = -0.11240 0.07305
#
# Static dielectric constant tensor:
#      x y z
#    x 2.033270 0.000000 -0.005190 
#    y 0.000000 2.190750 0.000000 
#    z -0.005190 0.000000 1.933150 
# 
# From -- ./inp_files/12446.got.cif
#   From: 2010.05.17/outbox.cif.g08.bks.cpg/sg14_7_cif.got.tgz:12446.got - 2010.06.03 17:49:19.
