data_PCOD9251454
_publ_section_title
;
Structure prediction by ZEFSAII (Michael W. Deem and Ramdas Pophale) SiO2 
 PCOD9251454
Probable space group: P 21/C
;
_chemical_formula_sum "Si O2"
_cell_formula_units_Z 20
_cell_length_a 9.279866
_cell_length_b 10.102799
_cell_length_c 9.191597
_cell_angle_alpha 90.000000
_cell_angle_beta 114.038284
_cell_angle_gamma 90.000000
_cell_volume 787.000918
_symmetry_space_group_name_H-M "P 21/C"
_symmetry_group_IT_number 14
_symmetry_cell_setting 'monoclinic'
loop_
_space_group_symop_operation_xyz
x,y,z
-x,1/2+y,1/2-z
-x,-y,-z
x,1/2-y,1/2+z
loop_
_atom_site_type_symbol
_atom_site_label
_atom_site_fract_x
_atom_site_fract_y
_atom_site_fract_z
Si Si1 0.770573 0.770088 0.520313
Si Si2 0.435976 0.162828 0.300966
Si Si3 0.274676 0.514752 0.182852
Si Si4 0.120415 0.717914 0.667612
Si Si5 0.696824 0.354139 0.514265
O O1 0.643486 0.678193 0.388395
O O2 0.695598 0.841637 0.629267
O O3 0.937134 0.703589 0.623805
O O4 0.794094 0.880378 0.404498
O O5 0.565127 0.048280 0.339252
O O6 0.539117 0.294145 0.380112
O O7 0.152932 0.635826 0.113021
O O8 0.312861 0.530709 0.370190
O O9 0.228526 0.734661 0.854809
O O10 0.188064 0.619067 0.574444
#
# Coordination Sequence:
#
# PCOD9251454 Si02
#       5
#     4   4   4   4   4
#     4  12  21  36  60  84 112 139 194 230 268 322
#     4  11  21  37  57  84 112 147 182 229 274 325
#     4   9  21  37  59  78 113 153 180 215 285 336
#     4   9  19  35  57  80 107 149 182 223 271 324
#     4   9  18  38  54  76 114 148 178 216 283 325
#
# _framework density 25.412932000000001
#
# number of rings (size 3 to 8) (size 9 to 14) (size 15 to 20)
#    1.200    0.800    2.000    2.400    0.000    0.800 
#    0.000    0.000    0.000    2.400    0.000    0.000 
#    0.000    0.000    0.000    0.000    0.000    0.000 
#
# Total GULP energy -111758.071619 kJ/mol
# GULP energy per Si atom -5587.903581 kJ/mol
# Density = 2.535509 g / cm^3
# Si number density = 25.412932 Si / 1000 Ang^3
#
#
#
# Elastic Constant Matrix: (Units=GPa)
#
#
# Indices 1 2 3 4 5 6 
#
# 1 130.2668 3.1463 53.5990 0.0000 -5.4796 0.0000
# 2 3.1463 41.3220 18.2562 0.0000 1.4836 0.0000
# 3 53.5990 18.2562 137.4034 0.0000 -21.5481 0.0000
# 4 0.0000 0.0000 0.0000 32.9451 0.0000 -6.9489
# 5 -5.4796 1.4836 -21.5481 0.0000 36.0012 0.0000
# 6 0.0000 0.0000 0.0000 -6.9489 0.0000 20.8388
#
#
#
# Elastic Compliance Matrix: (Units=1/GPa)
#
#
# Indices 1 2 3 4 5 6 
#
# 1 0.009208 0.001049 -0.003883 0.000000 -0.000966 0.000000
# 2 0.001049 0.026217 -0.004455 0.000000 -0.003587 0.000000
# 3 -0.003883 -0.004455 0.010286 0.000000 0.005749 0.000000
# 4 0.000000 0.000000 0.000000 0.032650 0.000000 0.010887
# 5 -0.000966 -0.003587 0.005749 0.000000 0.031219 0.000000
# 6 0.000000 0.000000 0.000000 0.010887 0.000000 0.051618
#
#
# Mechanical properties :
#
#
# Convention : Reuss Voigt Hill
#
# Bulk Modulus (GPa) = 32.11955 50.99945 41.55950
# Shear Modulus (GPa) = 26.85945 33.55639 30.20792
#
# Velocity S-wave (km/s) = 3.25456 3.63774 3.45147
# Velocity P-wave (km/s) = 5.17584 6.14459 5.68091
#
# Compressibility (1/GPa) = 0.03113369
#
# Stress axis : x y z
#
# Youngs Moduli (GPa) = 108.59892 38.14252 97.21939
#
# Poissons Ratio (x) = -0.04001 0.37748
# Poissons Ratio (y) = -0.11392 0.43313
# Poissons Ratio (z) = 0.42167 0.16993
#
# Static dielectric constant tensor:
#      x y z
#    x 1.982730 0.000000 -0.017600 
#    y 0.000000 2.055810 0.000000 
#    z -0.017600 0.000000 1.981430 
# 
# From -- ./inp_files/7982.got.cif
#   From: 2010.05.17/outbox.cif.g08.bks.cpg/sg14_4_cif.got.tgz:7982.got - 2010.06.03 17:49:19.
