data_PCOD9251260
_publ_section_title
;
Structure prediction by ZEFSAII (Michael W. Deem and Ramdas Pophale) SiO2 
 PCOD9251260
Probable space group: P 21/C
;
_chemical_formula_sum "Si O2"
_cell_formula_units_Z 32
_cell_length_a 19.171932
_cell_length_b 15.430937
_cell_length_c 22.911359
_cell_angle_alpha 90.000000
_cell_angle_beta 17.019082
_cell_angle_gamma 90.000000
_cell_volume 1983.888134
_symmetry_space_group_name_H-M "P 21/C"
_symmetry_group_IT_number 14
_symmetry_cell_setting 'monoclinic'
loop_
_space_group_symop_operation_xyz
x,y,z
-x,1/2+y,1/2-z
-x,-y,-z
x,1/2-y,1/2+z
loop_
_atom_site_type_symbol
_atom_site_label
_atom_site_fract_x
_atom_site_fract_y
_atom_site_fract_z
Si Si1 0.983248 0.163818 0.115955
Si Si2 0.669401 0.235391 0.773406
Si Si3 0.825955 0.296800 0.337022
Si Si4 0.321617 0.984955 0.589192
Si Si5 0.175123 0.327044 0.162439
Si Si6 0.519564 0.397405 0.490218
Si Si7 0.898175 0.764609 0.659019
Si Si8 0.413565 0.163818 0.685637
O O1 0.790066 0.196918 0.222574
O O2 0.971978 0.235694 0.175472
O O3 0.893996 0.073824 0.214119
O O4 0.233972 0.158130 0.883013
O O5 0.858732 0.220652 0.570634
O O6 0.420980 0.276400 0.951538
O O7 0.617580 0.149711 0.853243
O O8 0.695246 0.369307 0.402376
O O9 0.617825 0.235695 0.529625
O O10 0.995802 0.328364 0.252099
O O11 0.461533 0.926176 0.430352
O O12 0.500000 0.000000 0.500000
O O13 0.238437 0.075898 0.630782
O O14 0.069092 0.276399 0.303426
O O15 0.500000 0.500000 0.500000
O O16 0.265713 0.350288 0.705109
O O17 0.739507 0.696917 0.747854
#
# Coordination Sequence:
#
# PCOD9251260 Si02
#       8
#     4   4   4   4   4   4   4   4
#     4   9  18  35  55  73 101 141 178 208 249 314
#     4   9  18  33  55  77 100 138 177 210 257 319
#     4   9  20  36  53  71 103 143 174 216 270 310
#     4  11  18  31  52  85 110 133 171 210 262 322
#     4  11  20  33  51  78 113 137 167 219 274 316
#     4   9  18  36  56  77 100 136 185 226 257 301
#     4   9  18  33  55  77 100 138 177 210 257 319
#     4   9  18  35  55  73 101 141 178 208 249 314
#
# _framework density 16.129942
#
# number of rings (size 3 to 8) (size 9 to 14) (size 15 to 20)
#    0.000    2.500    2.500    1.500    0.000    3.000 
#    9.000    0.000    0.000    0.000    0.000    0.000 
#    0.000    0.000    0.000    0.000    0.000    0.000 
#
# Total GULP energy -178406.939327 kJ/mol
# GULP energy per Si atom -5575.216854 kJ/mol
# Density = 1.609323 g / cm^3
# Si number density = 16.129942 Si / 1000 Ang^3
#
#
#
# Elastic Constant Matrix: (Units=GPa)
#
#
# Indices 1 2 3 4 5 6 
#
# 1 108.8667 69.2201 60.7262 0.0000 -10.7624 0.0000
# 2 69.2201 140.5967 67.2079 0.0000 -0.7658 0.0000
# 3 60.7262 67.2079 137.2033 0.0000 21.5572 0.0000
# 4 0.0000 0.0000 0.0000 6.5664 0.0000 -3.2608
# 5 -10.7624 -0.7658 21.5572 0.0000 22.2510 0.0000
# 6 0.0000 0.0000 0.0000 -3.2608 0.0000 15.1275
#
#
#
# Elastic Compliance Matrix: (Units=1/GPa)
#
#
# Indices 1 2 3 4 5 6 
#
# 1 0.018955 -0.005127 -0.008600 0.000000 0.017324 0.000000
# 2 -0.005127 0.011300 -0.003465 0.000000 0.001266 0.000000
# 3 -0.008600 -0.003465 0.015882 0.000000 -0.019666 0.000000
# 4 0.000000 0.000000 0.000000 0.170546 0.000000 0.036762
# 5 0.017324 0.001266 -0.019666 0.000000 0.072417 0.000000
# 6 0.000000 0.000000 0.000000 0.036762 0.000000 0.074029
#
#
# Mechanical properties :
#
#
# Convention : Reuss Voigt Hill
#
# Bulk Modulus (GPa) = 85.08282 86.77502 85.92892
# Shear Modulus (GPa) = 12.45546 21.42314 16.93930
#
# Velocity S-wave (km/s) = 2.78185 3.64835 3.24416
# Velocity P-wave (km/s) = 7.94866 8.46531 8.21105
#
# Compressibility (1/GPa) = 0.01175325
#
# Stress axis : x y z
#
# Youngs Moduli (GPa) = 52.75645 88.49699 62.96456
#
# Poissons Ratio (x) = 0.45371 0.54150
# Poissons Ratio (y) = 0.27047 0.21817
# Poissons Ratio (z) = 0.45371 0.30663
#
# Static dielectric constant tensor:
#      x y z
#    x 1.525520 0.000000 0.005470 
#    y 0.000000 1.519940 0.000000 
#    z 0.005470 0.000000 1.539860 
# 
# From -- ./inp_files/47534.got.cif
#   From: 2010.05.17/outbox.cif.g08.bks.cpg/sg14_24_cif.got.tgz:47534.got - 2010.06.03 17:49:19.
