data_PCOD9251718
_publ_section_title
;
Structure prediction by ZEFSAII (Michael W. Deem and Ramdas Pophale) SiO2 
 PCOD9251718
Probable space group: P 21/C
;
_chemical_formula_sum "Si O2"
_cell_formula_units_Z 24
_cell_length_a 7.897675
_cell_length_b 8.925233
_cell_length_c 13.206964
_cell_angle_alpha 90.000000
_cell_angle_beta 109.688660
_cell_angle_gamma 90.000000
_cell_volume 876.514931
_symmetry_space_group_name_H-M "P 21/C"
_symmetry_group_IT_number 14
_symmetry_cell_setting 'monoclinic'
loop_
_space_group_symop_operation_xyz
x,y,z
-x,1/2+y,1/2-z
-x,-y,-z
x,1/2-y,1/2+z
loop_
_atom_site_type_symbol
_atom_site_label
_atom_site_fract_x
_atom_site_fract_y
_atom_site_fract_z
Si Si1 0.779317 0.572514 0.419238
Si Si2 0.498914 0.076724 0.310810
Si Si3 0.841656 0.199936 0.047178
Si Si4 0.215498 0.238644 0.864984
Si Si5 0.980755 0.043151 0.685650
Si Si6 0.669580 0.225291 0.711690
O O1 0.619290 0.610173 0.313093
O O2 0.759312 0.397886 0.441915
O O3 0.775915 0.660305 0.524843
O O4 0.836965 0.390998 0.238690
O O5 0.399888 0.171415 0.377957
O O6 0.675141 0.158566 0.305870
O O7 0.490191 0.899872 0.326672
O O8 0.909525 0.371473 0.069458
O O9 0.705077 0.187547 0.113799
O O10 0.031949 0.112965 0.095265
O O11 0.063653 0.369330 0.832563
O O12 0.161880 0.117570 0.767076
#
# Coordination Sequence:
#
# PCOD9251718 Si02
#       6
#     4   4   4   4   4   4
#     4  11  23  40  70  95 127 169 216 267 326 383
#     4  11  23  45  62  94 131 174 215 260 327 384
#     4   9  21  40  63  95 123 163 214 264 318 378
#     4  11  22  39  68  95 127 165 217 269 320 384
#     4   9  20  41  60  94 128 160 212 265 314 375
#     4   9  23  41  62  87 131 170 210 261 317 382
#
# _framework density 27.381164999999999
#
# number of rings (size 3 to 8) (size 9 to 14) (size 15 to 20)
#    1.000    1.000    1.667    1.000    9.333    1.333 
#    0.000    5.000    0.000    0.000    0.000    0.000 
#    0.000    0.000    0.000    0.000    0.000    0.000 
#
# Total GULP energy -134054.824060 kJ/mol
# GULP energy per Si atom -5585.617669 kJ/mol
# Density = 2.731884 g / cm^3
# Si number density = 27.381165 Si / 1000 Ang^3
#
#
#
# Elastic Constant Matrix: (Units=GPa)
#
#
# Indices 1 2 3 4 5 6 
#
# 1 81.2114 33.6978 12.7704 0.0000 -39.9343 0.0000
# 2 33.6978 195.1796 64.2936 0.0000 -14.4601 0.0000
# 3 12.7704 64.2936 88.7896 0.0000 -29.5523 0.0000
# 4 0.0000 0.0000 0.0000 66.4503 0.0000 -6.2791
# 5 -39.9343 -14.4601 -29.5523 0.0000 19.7603 0.0000
# 6 0.0000 0.0000 0.0000 -6.2791 0.0000 42.0569
#
#
#
# Elastic Compliance Matrix: (Units=1/GPa)
#
#
# Indices 1 2 3 4 5 6 
#
# 1 -0.015173 0.005214 -0.020965 0.000000 -0.058203 0.000000
# 2 0.005214 0.005164 0.000548 0.000000 0.015135 0.000000
# 3 -0.020965 0.000548 -0.000174 0.000000 -0.042227 0.000000
# 4 0.000000 0.000000 0.000000 0.015264 0.000000 0.002279
# 5 -0.058203 0.015135 -0.042227 0.000000 -0.119095 0.000000
# 6 0.000000 0.000000 0.000000 0.002279 0.000000 0.024118
#
#
# Mechanical properties :
#
#
# Convention : Reuss Voigt Hill
#
# Bulk Modulus (GPa) = -24.63733 65.18936 20.27601
# Shear Modulus (GPa) = -68.47431 42.61476 -12.92978
#
# Velocity S-wave (km/s) = -5.00621 3.94934 -2.17541
# Velocity P-wave (km/s) = 6.51411 6.68253 1.05419
#
# Compressibility (1/GPa) = -0.04058881
#
# Stress axis : x y z
#
# Youngs Moduli (GPa) = -65.90518 193.64716 -5747.77126
#
# Poissons Ratio (x) = -1.00960 -120.50097
# Poissons Ratio (y) = 0.34360 3.15219
# Poissons Ratio (z) = -1.38169 -0.10620
#
# Static dielectric constant tensor:
#      x y z
#    x 2.330740 0.000000 -0.002360 
#    y 0.000000 2.197020 0.000000 
#    z -0.002360 0.000000 2.134640 
# 
# From -- ./inp_files/43204.got.cif
#   From: 2010.05.17/outbox.cif.g08.bks.cpg/sg14_22_cif.got.tgz:43204.got - 2010.06.03 17:49:19.
