data_PCOD9251594
_publ_section_title
;
Structure prediction by ZEFSAII (Michael W. Deem and Ramdas Pophale) SiO2 
 PCOD9251594
Probable space group: P 21/C
;
_chemical_formula_sum "Si O2"
_cell_formula_units_Z 28
_cell_length_a 20.997329
_cell_length_b 10.507410
_cell_length_c 18.119096
_cell_angle_alpha 90.000000
_cell_angle_beta 19.080236
_cell_angle_gamma 90.000000
_cell_volume 1306.773886
_symmetry_space_group_name_H-M "P 21/C"
_symmetry_group_IT_number 14
_symmetry_cell_setting 'monoclinic'
loop_
_space_group_symop_operation_xyz
x,y,z
-x,1/2+y,1/2-z
-x,-y,-z
x,1/2-y,1/2+z
loop_
_atom_site_type_symbol
_atom_site_label
_atom_site_fract_x
_atom_site_fract_y
_atom_site_fract_z
Si Si1 0.234041 0.750808 0.866631
Si Si2 0.114266 0.115776 0.338181
Si Si3 0.397759 0.308805 0.262518
Si Si4 0.134116 0.466193 0.461090
Si Si5 0.439095 0.205686 0.890887
Si Si6 0.297165 0.025665 0.618245
Si Si7 0.561272 0.642710 0.409749
O O1 0.340593 0.687997 0.820426
O O2 0.400657 0.733194 0.622496
O O3 0.191585 0.896208 0.930160
O O4 0.043019 0.692870 0.037471
O O5 0.229579 0.172185 0.282415
O O6 0.295783 0.099997 0.083497
O O7 0.000000 0.000000 0.500000
O O8 0.192153 0.360475 0.456814
O O9 0.417885 0.295765 0.327183
O O10 0.435882 0.176426 0.178771
O O11 0.545286 0.417536 0.071669
O O12 0.253960 0.455138 0.252669
O O13 0.907622 0.474902 0.689407
O O14 0.362725 0.341543 0.008009
O O15 0.500000 0.500000 0.500000
#
# Coordination Sequence:
#
# PCOD9251594 Si02
#       7
#     4   4   4   4   4   4   4
#     4  11  21  43  71  95 133 177 229 285 331 408
#     4  11  23  44  68 100 136 182 235 282 339 413
#     4  12  26  44  67 104 143 179 224 289 357 409
#     4  11  22  43  77 100 126 176 245 282 324 408
#     4  11  26  42  66 101 145 184 225 282 364 412
#     4  11  23  44  73 101 131 183 238 282 335 420
#     4  11  24  42  70 104 132 178 231 282 345 412
#
# _framework density 21.426812999999999
#
# number of rings (size 3 to 8) (size 9 to 14) (size 15 to 20)
#    0.000    0.857    5.714    2.143    2.000    3.429 
#    2.571    0.000    0.000    0.000    0.000    0.000 
#    0.000    0.000    0.000    0.000    0.000    0.000 
#
# Total GULP energy -156323.519723 kJ/mol
# GULP energy per Si atom -5582.982847 kJ/mol
# Density = 2.137804 g / cm^3
# Si number density = 21.426813 Si / 1000 Ang^3
#
#
#
# Elastic Constant Matrix: (Units=GPa)
#
#
# Indices 1 2 3 4 5 6 
#
# 1 181.5197 30.9009 44.5571 0.0000 -5.9869 0.0000
# 2 30.9009 88.2677 18.5892 0.0000 -2.6290 0.0000
# 3 44.5571 18.5892 60.0388 0.0000 -30.5562 0.0000
# 4 0.0000 0.0000 0.0000 20.3787 0.0000 -2.3456
# 5 -5.9869 -2.6290 -30.5562 0.0000 40.4032 0.0000
# 6 0.0000 0.0000 0.0000 -2.3456 0.0000 24.8311
#
#
#
# Elastic Compliance Matrix: (Units=1/GPa)
#
#
# Indices 1 2 3 4 5 6 
#
# 1 0.007391 -0.001147 -0.007496 0.000000 -0.004648 0.000000
# 2 -0.001147 0.012580 -0.004411 0.000000 -0.002688 0.000000
# 3 -0.007496 -0.004411 0.037186 0.000000 0.026726 0.000000
# 4 0.000000 0.000000 0.000000 0.049610 0.000000 0.004686
# 5 -0.004648 -0.002688 0.026726 0.000000 0.044099 0.000000
# 6 0.000000 0.000000 0.000000 0.004686 0.000000 0.040715
#
#
# Mechanical properties :
#
#
# Convention : Reuss Voigt Hill
#
# Bulk Modulus (GPa) = 32.20770 57.54676 44.87723
# Shear Modulus (GPa) = 21.92609 32.84121 27.38365
#
# Velocity S-wave (km/s) = 3.20238 3.91924 3.57880
# Velocity P-wave (km/s) = 5.36076 6.88449 6.16985
#
# Compressibility (1/GPa) = 0.03104848
#
# Stress axis : x y z
#
# Youngs Moduli (GPa) = 135.30037 79.49247 26.89169
#
# Poissons Ratio (x) = 0.09120 0.20157
# Poissons Ratio (y) = 0.15523 0.11863
# Poissons Ratio (z) = 1.01415 0.35067
#
# Static dielectric constant tensor:
#      x y z
#    x 1.786010 0.000000 -0.048240 
#    y 0.000000 1.829210 0.000000 
#    z -0.048240 0.000000 1.796520 
# 
# From -- ./inp_files/61255.got.cif
#   From: 2010.05.17/outbox.cif.g08.bks.cpg/sg14_31_cif.got.tgz:61255.got - 2010.06.03 17:49:19.
