data_PCOD9251081
_publ_section_title
;
Structure prediction by ZEFSAII (Michael W. Deem and Ramdas Pophale) SiO2 
 PCOD9251081
Probable space group: P 21/C
;
_chemical_formula_sum "Si O2"
_cell_formula_units_Z 20
_cell_length_a 6.853375
_cell_length_b 17.735150
_cell_length_c 10.400608
_cell_angle_alpha 90.000000
_cell_angle_beta 134.395223
_cell_angle_gamma 90.000000
_cell_volume 903.273298
_symmetry_space_group_name_H-M "P 21/C"
_symmetry_group_IT_number 14
_symmetry_cell_setting 'monoclinic'
loop_
_space_group_symop_operation_xyz
x,y,z
-x,1/2+y,1/2-z
-x,-y,-z
x,1/2-y,1/2+z
loop_
_atom_site_type_symbol
_atom_site_label
_atom_site_fract_x
_atom_site_fract_y
_atom_site_fract_z
Si Si1 0.976116 0.396447 0.361580
Si Si2 0.463439 0.621809 0.057374
Si Si3 0.946478 0.435572 0.634018
Si Si4 0.343513 0.249369 0.007233
Si Si5 0.834050 0.159851 0.330330
O O1 0.126216 0.476776 0.410871
O O2 0.893690 0.394751 0.473791
O O3 0.174286 0.327751 0.416918
O O4 0.714193 0.394683 0.149572
O O5 0.725229 0.569744 0.196252
O O6 0.581910 0.706516 0.089253
O O7 0.271163 0.618704 0.092032
O O8 0.825747 0.392897 0.700746
O O9 0.137200 0.306616 0.983217
O O10 0.623160 0.227781 0.205820
#
# Coordination Sequence:
#
# PCOD9251081 Si02
#       5
#     4   4   4   4   4
#     4  11  23  45  70  96 141 182 217 283 340 401
#     4  11  24  44  69  99 134 179 228 280 337 402
#     4  10  25  47  65 101 140 177 227 276 340 410
#     4  11  24  41  67 101 132 177 224 278 338 396
#     4  11  25  43  69 100 136 174 230 285 333 403
#
# _framework density 22.141691000000002
#
# number of rings (size 3 to 8) (size 9 to 14) (size 15 to 20)
#    0.000    1.200    4.000    0.600    5.600    1.600 
#    3.600    0.000    0.000    0.000    0.000    0.000 
#    0.000    0.000    0.000    0.000    0.000    0.000 
#
# Total GULP energy -111829.787279 kJ/mol
# GULP energy per Si atom -5591.489364 kJ/mol
# Density = 2.209130 g / cm^3
# Si number density = 22.141691 Si / 1000 Ang^3
#
#
#
# Elastic Constant Matrix: (Units=GPa)
#
#
# Indices 1 2 3 4 5 6 
#
# 1 124.7225 34.9314 50.6105 0.0000 -14.3508 0.0000
# 2 34.9314 98.3353 13.8703 0.0000 -25.3233 0.0000
# 3 50.6105 13.8703 98.9716 0.0000 -20.0467 0.0000
# 4 0.0000 0.0000 0.0000 19.8319 0.0000 -4.8152
# 5 -14.3508 -25.3233 -20.0467 0.0000 27.3024 0.0000
# 6 0.0000 0.0000 0.0000 -4.8152 0.0000 20.1861
#
#
#
# Elastic Compliance Matrix: (Units=1/GPa)
#
#
# Indices 1 2 3 4 5 6 
#
# 1 0.011052 -0.003537 -0.005455 0.000000 -0.001477 0.000000
# 2 -0.003537 0.014540 0.002497 0.000000 0.013460 0.000000
# 3 -0.005455 0.002497 0.014604 0.000000 0.010172 0.000000
# 4 0.000000 0.000000 0.000000 0.053524 0.000000 0.012767
# 5 -0.001477 0.013460 0.010172 0.000000 0.055804 0.000000
# 6 0.000000 0.000000 0.000000 0.012767 0.000000 0.052585
#
#
# Mechanical properties :
#
#
# Convention : Reuss Voigt Hill
#
# Bulk Modulus (GPa) = 36.75592 57.87264 47.31428
# Shear Modulus (GPa) = 22.30496 28.30523 25.30509
#
# Velocity S-wave (km/s) = 3.17736 3.57931 3.38430
# Velocity P-wave (km/s) = 5.48609 6.57845 6.05695
#
# Compressibility (1/GPa) = 0.02720650
#
# Stress axis : x y z
#
# Youngs Moduli (GPa) = 90.48113 68.77706 68.47580
#
# Poissons Ratio (x) = 0.24325 0.37354
# Poissons Ratio (y) = 0.32001 -0.17101
# Poissons Ratio (z) = 0.49358 -0.17176
#
# Static dielectric constant tensor:
#      x y z
#    x 1.798410 0.000000 0.012830 
#    y 0.000000 1.855370 0.000000 
#    z 0.012830 0.000000 1.790360 
# 
# From -- ./inp_files/6045.got.cif
#   From: 2010.05.17/outbox.cif.g08.bks.cpg/sg14_4_cif.got.tgz:6045.got - 2010.06.03 17:49:19.
