data_PCOD9251000
_publ_section_title
;
Structure prediction by ZEFSAII (Michael W. Deem and Ramdas Pophale) SiO2 
 PCOD9251000
Probable space group: P 21/C
;
_chemical_formula_sum "Si O2"
_cell_formula_units_Z 28
_cell_length_a 5.115803
_cell_length_b 18.236905
_cell_length_c 14.093327
_cell_angle_alpha 90.000000
_cell_angle_beta 61.722544
_cell_angle_gamma 90.000000
_cell_volume 1157.946870
_symmetry_space_group_name_H-M "P 21/C"
_symmetry_group_IT_number 14
_symmetry_cell_setting 'monoclinic'
loop_
_space_group_symop_operation_xyz
x,y,z
-x,1/2+y,1/2-z
-x,-y,-z
x,1/2-y,1/2+z
loop_
_atom_site_type_symbol
_atom_site_label
_atom_site_fract_x
_atom_site_fract_y
_atom_site_fract_z
Si Si1 0.764673 0.904174 0.197617
Si Si2 0.507213 0.903586 0.737260
Si Si3 0.651279 0.009403 0.872794
Si Si4 0.569415 0.460137 0.085876
Si Si5 0.011145 0.835535 0.541821
Si Si6 0.018362 0.256768 0.289053
Si Si7 0.709404 0.267488 0.658738
O O1 0.634645 0.898809 0.328034
O O2 0.920176 0.826472 0.154477
O O3 0.528285 0.930372 0.159932
O O4 0.021220 0.963892 0.160813
O O5 0.657748 0.936512 0.806720
O O6 0.241083 0.853540 0.823976
O O7 0.680593 0.849692 0.635168
O O8 0.516586 0.976463 0.671813
O O9 0.500000 0.000000 0.000000
O O10 0.500000 0.500000 0.000000
O O11 0.867733 0.413612 0.016687
O O12 0.133792 0.806664 0.621640
O O13 0.095523 0.772963 0.453340
O O14 0.805750 0.274199 0.238201
O O15 0.355344 0.235972 0.197398
#
# Coordination Sequence:
#
# PCOD9251000 Si02
#       7
#     4   4   4   4   4   4   4
#     4  11  24  44  70 105 141 187 238 299 347 451
#     4  10  25  44  69 111 140 186 248 298 352 447
#     4  11  25  46  72 101 146 188 242 294 369 418
#     4  11  22  40  74 105 144 185 240 299 366 413
#     4  11  24  44  71 105 140 194 234 302 361 429
#     4  11  25  45  68 103 145 177 248 279 364 434
#     4  11  25  45  69 100 145 188 225 299 359 423
#
# _framework density 24.180731000000002
#
# number of rings (size 3 to 8) (size 9 to 14) (size 15 to 20)
#    0.000    1.143    1.429    3.429    6.000    5.714 
#    5.143    0.000    0.000    0.000    0.000    0.000 
#    0.000    0.000    0.000    0.000    0.000    0.000 
#
# Total GULP energy -155993.911321 kJ/mol
# GULP energy per Si atom -5571.211119 kJ/mol
# Density = 2.412569 g / cm^3
# Si number density = 24.180731 Si / 1000 Ang^3
#
#
#
# Elastic Constant Matrix: (Units=GPa)
#
#
# Indices 1 2 3 4 5 6 
#
# 1 60.0537 9.7354 33.5223 0.0000 0.1485 0.0000
# 2 9.7354 109.3432 33.6873 0.0000 0.5291 0.0000
# 3 33.5223 33.6873 125.9843 0.0000 11.0982 0.0000
# 4 0.0000 0.0000 0.0000 50.3129 0.0000 -4.1261
# 5 0.1485 0.5291 11.0982 0.0000 27.7125 0.0000
# 6 0.0000 0.0000 0.0000 -4.1261 0.0000 28.5556
#
#
#
# Elastic Compliance Matrix: (Units=1/GPa)
#
#
# Indices 1 2 3 4 5 6 
#
# 1 0.019671 -0.000101 -0.005388 0.000000 0.002054 0.000000
# 2 -0.000101 0.009989 -0.002723 0.000000 0.000900 0.000000
# 3 -0.005388 -0.002723 0.010461 0.000000 -0.004109 0.000000
# 4 0.000000 0.000000 0.000000 0.020114 0.000000 0.002906
# 5 0.002054 0.000900 -0.004109 0.000000 0.037702 0.000000
# 6 0.000000 0.000000 0.000000 0.002906 0.000000 0.035439
#
#
# Mechanical properties :
#
#
# Convention : Reuss Voigt Hill
#
# Bulk Modulus (GPa) = 42.20151 49.91903 46.06027
# Shear Modulus (GPa) = 31.70567 35.87861 33.79214
#
# Velocity S-wave (km/s) = 3.62497 3.85615 3.74235
# Velocity P-wave (km/s) = 5.91701 6.36518 6.14518
#
# Compressibility (1/GPa) = 0.02369584
#
# Stress axis : x y z
#
# Youngs Moduli (GPa) = 50.83711 100.10784 95.59062
#
# Poissons Ratio (x) = 0.01015 0.51503
# Poissons Ratio (y) = 0.00515 0.26033
# Poissons Ratio (z) = 0.27390 0.27263
#
# Static dielectric constant tensor:
#      x y z
#    x 2.009460 0.000000 -0.081930 
#    y 0.000000 2.153930 0.000000 
#    z -0.081930 0.000000 1.940010 
# 
# From -- ./inp_files/37806.got.cif
#   From: 2010.05.17/outbox.cif.g08.bks.cpg/sg14_19_cif.got.tgz:37806.got - 2010.06.03 17:49:19.
