data_PCOD9251978
_publ_section_title
;
Structure prediction by ZEFSAII (Michael W. Deem and Ramdas Pophale) SiO2 
 PCOD9251978
Probable space group: P 21/C
;
_chemical_formula_sum "Si O2"
_cell_formula_units_Z 32
_cell_length_a 14.285093
_cell_length_b 10.022243
_cell_length_c 10.727470
_cell_angle_alpha 90.000000
_cell_angle_beta 61.754162
_cell_angle_gamma 90.000000
_cell_volume 1352.957961
_symmetry_space_group_name_H-M "P 21/C"
_symmetry_group_IT_number 14
_symmetry_cell_setting 'monoclinic'
loop_
_space_group_symop_operation_xyz
x,y,z
-x,1/2+y,1/2-z
-x,-y,-z
x,1/2-y,1/2+z
loop_
_atom_site_type_symbol
_atom_site_label
_atom_site_fract_x
_atom_site_fract_y
_atom_site_fract_z
Si Si1 0.898879 0.592010 0.064159
Si Si2 0.731791 0.919956 0.881992
Si Si3 0.651965 0.087756 0.454673
Si Si4 0.994383 0.858507 0.071529
Si Si5 0.761491 0.179126 0.020717
Si Si6 0.562004 0.512030 0.276052
Si Si7 0.559720 0.219599 0.297916
Si Si8 0.799463 0.627266 0.876452
O O1 0.821665 0.565975 0.997839
O O2 0.838507 0.568945 0.231172
O O3 0.000000 0.500000 0.000000
O O4 0.938557 0.744114 0.024751
O O5 0.639969 0.948332 0.838720
O O6 0.739885 0.768453 0.924982
O O7 0.734303 0.031435 0.987006
O O8 0.726014 0.214426 0.439160
O O9 0.557177 0.138349 0.427456
O O10 0.611534 0.028114 0.610699
O O11 0.723672 0.972683 0.348522
O O12 0.113748 0.814937 0.029891
O O13 0.914245 0.865591 0.238977
O O14 0.000000 0.000000 0.000000
O O15 0.685666 0.219939 0.183886
O O16 0.513318 0.367574 0.343037
O O17 0.490768 0.638280 0.284465
#
# Coordination Sequence:
#
# PCOD9251978 Si02
#       8
#     4   4   4   4   4   4   4   4
#     4  11  23  40  66  96 132 178 220 267 324 386
#     4  11  24  44  65  98 139 170 221 272 331 396
#     4  11  23  45  70  96 130 175 223 271 332 401
#     4  11  24  40  62  96 136 171 221 267 315 391
#     4  11  24  43  67  97 135 175 217 274 329 397
#     4  11  25  47  69  98 132 171 221 281 333 398
#     4  11  26  44  70  99 129 173 223 272 345 393
#     4  11  24  39  66 100 131 182 217 267 336 380
#
# _framework density 23.651879999999998
#
# number of rings (size 3 to 8) (size 9 to 14) (size 15 to 20)
#    0.000    1.000    2.500    3.375    3.500    7.500 
#    0.000    0.000    0.000    0.000    0.000    0.000 
#    0.000    0.000    0.000    0.000    0.000    0.000 
#
# Total GULP energy -179042.763885 kJ/mol
# GULP energy per Si atom -5595.086371 kJ/mol
# Density = 2.359805 g / cm^3
# Si number density = 23.651880 Si / 1000 Ang^3
#
#
#
# Elastic Constant Matrix: (Units=GPa)
#
#
# Indices 1 2 3 4 5 6 
#
# 1 69.5245 11.6715 -1.2254 0.0000 13.2872 0.0000
# 2 11.6715 109.0421 0.3752 0.0000 -4.9594 0.0000
# 3 -1.2254 0.3752 51.7291 0.0000 3.5983 0.0000
# 4 0.0000 0.0000 0.0000 33.2305 0.0000 5.2415
# 5 13.2872 -4.9594 3.5983 0.0000 25.3090 0.0000
# 6 0.0000 0.0000 0.0000 5.2415 0.0000 46.2135
#
#
#
# Elastic Compliance Matrix: (Units=1/GPa)
#
#
# Indices 1 2 3 4 5 6 
#
# 1 0.016541 -0.002195 0.001052 0.000000 -0.009264 0.000000
# 2 -0.002195 0.009547 -0.000335 0.000000 0.003071 0.000000
# 3 0.001052 -0.000335 0.019596 0.000000 -0.003404 0.000000
# 4 0.000000 0.000000 0.000000 0.030641 0.000000 -0.003475
# 5 -0.009264 0.003071 -0.003404 0.000000 0.045461 0.000000
# 6 0.000000 0.000000 0.000000 -0.003475 0.000000 0.022033
#
#
# Mechanical properties :
#
#
# Convention : Reuss Voigt Hill
#
# Bulk Modulus (GPa) = 23.40448 27.99314 25.69881
# Shear Modulus (GPa) = 31.05275 35.58225 33.31750
#
# Velocity S-wave (km/s) = 3.62734 3.88289 3.75729
# Velocity P-wave (km/s) = 5.24026 5.65364 5.45087
#
# Compressibility (1/GPa) = 0.04272686
#
# Stress axis : x y z
#
# Youngs Moduli (GPa) = 60.45592 104.74948 51.03185
#
# Poissons Ratio (x) = 0.22997 -0.05369
# Poissons Ratio (y) = 0.13273 0.01709
# Poissons Ratio (z) = -0.06361 0.03508
#
# Static dielectric constant tensor:
#      x y z
#    x 1.878860 0.000000 -0.016330 
#    y 0.000000 2.181520 0.000000 
#    z -0.016330 0.000000 1.962040 
# 
# From -- ./inp_files/31779.got.cif
#   From: 2010.05.17/outbox.cif.g08.bks.cpg/sg14_16_cif.got.tgz:31779.got - 2010.06.03 17:49:19.
