data_PCOD9251735
_publ_section_title
;
Structure prediction by ZEFSAII (Michael W. Deem and Ramdas Pophale) SiO2 
 PCOD9251735
Probable space group: P 21/C
;
_chemical_formula_sum "Si O2"
_cell_formula_units_Z 20
_cell_length_a 18.827119
_cell_length_b 4.522033
_cell_length_c 8.101161
_cell_angle_alpha 90.000000
_cell_angle_beta 88.516419
_cell_angle_gamma 90.000000
_cell_volume 689.476157
_symmetry_space_group_name_H-M "P 21/C"
_symmetry_group_IT_number 14
_symmetry_cell_setting 'monoclinic'
loop_
_space_group_symop_operation_xyz
x,y,z
-x,1/2+y,1/2-z
-x,-y,-z
x,1/2-y,1/2+z
loop_
_atom_site_type_symbol
_atom_site_label
_atom_site_fract_x
_atom_site_fract_y
_atom_site_fract_z
Si Si1 0.948099 0.557463 0.761818
Si Si2 0.552386 0.485160 0.249312
Si Si3 0.349252 0.931661 0.980216
Si Si4 0.245047 0.574540 0.222948
Si Si5 0.150357 0.023018 0.450431
O O1 0.891302 0.726864 0.648943
O O2 0.998148 0.310819 0.680423
O O3 0.908933 0.403625 0.918645
O O4 0.504870 0.747176 0.182344
O O5 0.602747 0.308524 0.120212
O O6 0.599317 0.603047 0.398839
O O7 0.191691 0.708846 0.830558
O O8 0.298740 0.082903 0.846779
O O9 0.295182 0.770785 0.105669
O O10 0.205626 0.373081 0.089418
#
# Coordination Sequence:
#
# PCOD9251735 Si02
#       5
#     4   4   4   4   4
#     4  12  27  48  78 112 147 190 244 308 370 442
#     4  11  22  40  68 100 140 187 238 298 360 427
#     4   9  20  41  67 102 142 186 242 298 358 429
#     4   9  21  46  72 102 143 193 244 302 362 433
#     4  11  24  45  75 106 144 192 244 298 368 439
#
# _framework density 29.007532000000001
#
# number of rings (size 3 to 8) (size 9 to 14) (size 15 to 20)
#    0.000    1.600    0.000    3.600    0.000    6.400 
#    0.000   30.000    0.000    0.000    0.000    0.000 
#    0.000    0.000    0.000    0.000    0.000    0.000 
#
# Total GULP energy -112038.512823 kJ/mol
# GULP energy per Si atom -5601.925641 kJ/mol
# Density = 2.894151 g / cm^3
# Si number density = 29.007532 Si / 1000 Ang^3
#
#
#
# Elastic Constant Matrix: (Units=GPa)
#
#
# Indices 1 2 3 4 5 6 
#
# 1 181.3899 67.3621 122.4422 0.0000 15.2829 0.0000
# 2 67.3621 71.7569 36.2086 0.0000 -0.1464 0.0000
# 3 122.4422 36.2086 180.9801 0.0000 16.2243 0.0000
# 4 0.0000 0.0000 0.0000 18.5975 0.0000 -41.0959
# 5 15.2829 -0.1464 16.2243 0.0000 118.6177 0.0000
# 6 0.0000 0.0000 0.0000 -41.0959 0.0000 32.6041
#
#
#
# Elastic Compliance Matrix: (Units=1/GPa)
#
#
# Indices 1 2 3 4 5 6 
#
# 1 0.014347 -0.009575 -0.007719 0.000000 -0.000805 0.000000
# 2 -0.009575 0.021915 0.002005 0.000000 0.000986 0.000000
# 3 -0.007719 0.002005 0.010384 0.000000 -0.000423 0.000000
# 4 0.000000 0.000000 0.000000 -0.030119 0.000000 -0.037963
# 5 -0.000805 0.000986 -0.000423 0.000000 0.008593 0.000000
# 6 0.000000 0.000000 0.000000 -0.037963 0.000000 -0.017180
#
#
# Mechanical properties :
#
#
# Convention : Reuss Voigt Hill
#
# Bulk Modulus (GPa) = 62.23212 98.46142 80.34677
# Shear Modulus (GPa) = 113.96363 47.83812 80.90087
#
# Velocity S-wave (km/s) = 6.27478 4.06539 5.28679
# Velocity P-wave (km/s) = 8.60218 7.48690 8.06384
#
# Compressibility (1/GPa) = 0.01606887
#
# Stress axis : x y z
#
# Youngs Moduli (GPa) = 69.70205 45.63135 96.29960
#
# Poissons Ratio (x) = 0.43692 0.74329
# Poissons Ratio (y) = 0.66740 -0.19309
# Poissons Ratio (z) = 0.53800 -0.09149
#
# Static dielectric constant tensor:
#      x y z
#    x 2.322860 0.000000 0.013480 
#    y 0.000000 2.131860 0.000000 
#    z 0.013480 0.000000 2.185190 
# 
# From -- ./inp_files/17261.got.cif
#   From: 2010.05.17/outbox.cif.g08.bks.cpg/sg14_9_cif.got.tgz:17261.got - 2010.06.03 17:49:19.
