data_PCOD9251652
_publ_section_title
;
Structure prediction by ZEFSAII (Michael W. Deem and Ramdas Pophale) SiO2 
 PCOD9251652
Probable space group: P 21/C
;
_chemical_formula_sum "Si O2"
_cell_formula_units_Z 24
_cell_length_a 6.969816
_cell_length_b 9.070607
_cell_length_c 13.916011
_cell_angle_alpha 90.000000
_cell_angle_beta 104.637711
_cell_angle_gamma 90.000000
_cell_volume 851.221778
_symmetry_space_group_name_H-M "P 21/C"
_symmetry_group_IT_number 14
_symmetry_cell_setting 'monoclinic'
loop_
_space_group_symop_operation_xyz
x,y,z
-x,1/2+y,1/2-z
-x,-y,-z
x,1/2-y,1/2+z
loop_
_atom_site_type_symbol
_atom_site_label
_atom_site_fract_x
_atom_site_fract_y
_atom_site_fract_z
Si Si1 0.693205 0.490733 0.958889
Si Si2 0.240796 0.479755 0.522322
Si Si3 0.835508 0.644943 0.788671
Si Si4 0.715958 0.208756 0.834965
Si Si5 0.207654 0.847980 0.835067
Si Si6 0.826567 0.713430 0.104341
O O1 0.690241 0.327533 0.915760
O O2 0.847494 0.554260 0.058073
O O3 0.500000 0.500000 0.000000
O O4 0.719848 0.589596 0.867212
O O5 0.330614 0.546807 0.631065
O O6 0.302958 0.583225 0.441306
O O7 0.272582 0.315898 0.488807
O O8 0.000000 0.500000 0.500000
O O9 0.870349 0.491657 0.734146
O O10 0.729183 0.753215 0.695891
O O11 0.026716 0.741512 0.843051
O O12 0.652993 0.259602 0.721246
O O13 0.044968 0.721494 0.648364
#
# Coordination Sequence:
#
# PCOD9251652 Si02
#       6
#     4   4   4   4   4   4
#     4  11  22  36  52  77 113 145 171 209 263 323
#     4   9  16  29  51  77 102 128 167 222 267 301
#     4   9  18  33  53  78 106 137 176 221 265 307
#     4   9  18  33  54  80 104 134 176 221 262 303
#     4   9  17  29  51  80 105 129 171 225 263 297
#     4   9  18  34  57  78 101 135 179 222 258 301
#
# _framework density 28.194766999999999
#
# number of rings (size 3 to 8) (size 9 to 14) (size 15 to 20)
#    0.000    2.667    0.000    3.500    0.000    2.667 
#    0.000    5.833    0.000    0.000    0.000    0.000 
#    0.000    0.000    0.000    0.000    0.000    0.000 
#
# Total GULP energy -134206.313746 kJ/mol
# GULP energy per Si atom -5591.929739 kJ/mol
# Density = 2.813059 g / cm^3
# Si number density = 28.194767 Si / 1000 Ang^3
#
#
#
# Elastic Constant Matrix: (Units=GPa)
#
#
# Indices 1 2 3 4 5 6 
#
# 1 75.8356 31.9983 26.4469 0.0000 -23.7566 0.0000
# 2 31.9983 119.8954 74.0888 0.0000 -9.1395 0.0000
# 3 26.4469 74.0888 122.3686 0.0000 -39.7747 0.0000
# 4 0.0000 0.0000 0.0000 81.6906 0.0000 -15.6468
# 5 -23.7566 -9.1395 -39.7747 0.0000 50.9013 0.0000
# 6 0.0000 0.0000 0.0000 -15.6468 0.0000 35.0833
#
#
#
# Elastic Compliance Matrix: (Units=1/GPa)
#
#
# Indices 1 2 3 4 5 6 
#
# 1 0.017513 -0.005559 0.002564 0.000000 0.009179 0.000000
# 2 -0.005559 0.016224 -0.011418 0.000000 -0.008603 0.000000
# 3 0.002564 -0.011418 0.019106 0.000000 0.014077 0.000000
# 4 0.000000 0.000000 0.000000 0.013385 0.000000 0.005969
# 5 0.009179 -0.008603 0.014077 0.000000 0.033385 0.000000
# 6 0.000000 0.000000 0.000000 0.005969 0.000000 0.031166
#
#
# Mechanical properties :
#
#
# Convention : Reuss Voigt Hill
#
# Bulk Modulus (GPa) = 41.63467 64.79641 53.21554
# Shear Modulus (GPa) = 29.83110 45.90608 37.86859
#
# Velocity S-wave (km/s) = 3.25628 4.03945 3.66882
# Velocity P-wave (km/s) = 5.37928 6.69237 6.07143
#
# Compressibility (1/GPa) = 0.02401844
#
# Stress axis : x y z
#
# Youngs Moduli (GPa) = 57.09965 61.63699 52.33867
#
# Poissons Ratio (x) = 0.34263 -0.13421
# Poissons Ratio (y) = 0.31741 0.59760
# Poissons Ratio (z) = -0.14642 0.70377
#
# Static dielectric constant tensor:
#      x y z
#    x 2.398490 0.000000 0.089370 
#    y 0.000000 2.230410 0.000000 
#    z 0.089370 0.000000 2.345000 
# 
# From -- ./inp_files/39051.got.cif
#   From: 2010.05.17/outbox.cif.g08.bks.cpg/sg14_20_cif.got.tgz:39051.got - 2010.06.03 17:49:19.
