data_PCOD9251025
_publ_section_title
;
Structure prediction by ZEFSAII (Michael W. Deem and Ramdas Pophale) SiO2 
 PCOD9251025
Probable space group: P 21/C
;
_chemical_formula_sum "Si O2"
_cell_formula_units_Z 18
_cell_length_a 12.451412
_cell_length_b 6.943661
_cell_length_c 9.413551
_cell_angle_alpha 90.000000
_cell_angle_beta 51.091786
_cell_angle_gamma 90.000000
_cell_volume 633.323573
_symmetry_space_group_name_H-M "P 21/C"
_symmetry_group_IT_number 14
_symmetry_cell_setting 'monoclinic'
loop_
_space_group_symop_operation_xyz
x,y,z
-x,1/2+y,1/2-z
-x,-y,-z
x,1/2-y,1/2+z
loop_
_atom_site_type_symbol
_atom_site_label
_atom_site_fract_x
_atom_site_fract_y
_atom_site_fract_z
Si Si1 0.328121 0.713297 0.003651
Si Si2 0.047948 0.697321 0.638321
Si Si3 0.500000 0.500000 0.000000
Si Si4 0.875285 0.725330 0.530993
Si Si5 0.604498 0.652424 0.604597
O O1 0.336723 0.594646 0.141452
O O2 0.475219 0.620833 0.823465
O O3 0.352660 0.941645 0.986183
O O4 0.188127 0.679923 0.035639
O O5 0.092365 0.496211 0.534869
O O6 0.915607 0.765837 0.658634
O O7 0.992611 0.668099 0.842269
O O8 0.442539 0.290978 0.980387
O O9 0.723256 0.755020 0.597319
#
# Coordination Sequence:
#
# PCOD9251025 Si02
#       5
#     4   4   2   4   4
#     4  11  25  45  72 106 138 187 238 293 348 427
#     4  10  25  45  70 103 141 181 234 292 355 423
#     4  12  26  44  74  94 152 184 236 288 366 402
#     4  10  25  45  70 103 141 181 234 292 355 423
#     4  11  25  45  72 106 138 187 238 293 348 427
#
# _framework density 28.421492000000001
#
# number of rings (size 3 to 8) (size 9 to 14) (size 15 to 20)
#    0.000    1.333    2.222    0.667    9.333    0.889 
#    0.000    0.000    0.000    0.000    0.000    0.000 
#    0.000    0.000    0.000    0.000    0.000    0.000 
#
# Total GULP energy -100545.058235 kJ/mol
# GULP energy per Si atom -5585.836569 kJ/mol
# Density = 2.835680 g / cm^3
# Si number density = 28.421492 Si / 1000 Ang^3
#
#
#
# Elastic Constant Matrix: (Units=GPa)
#
#
# Indices 1 2 3 4 5 6 
#
# 1 201.9685 59.7797 -13.8031 0.0000 -24.9790 0.0000
# 2 59.7797 145.1917 23.8856 0.0000 -1.8404 0.0000
# 3 -13.8031 23.8856 76.6498 0.0000 -14.8066 0.0000
# 4 0.0000 0.0000 0.0000 14.9736 0.0000 8.9979
# 5 -24.9790 -1.8404 -14.8066 0.0000 39.9849 0.0000
# 6 0.0000 0.0000 0.0000 8.9979 0.0000 46.3818
#
#
#
# Elastic Compliance Matrix: (Units=1/GPa)
#
#
# Indices 1 2 3 4 5 6 
#
# 1 0.006799 -0.003270 0.003268 0.000000 0.005307 0.000000
# 2 -0.003270 0.008843 -0.003942 0.000000 -0.003095 0.000000
# 3 0.003268 -0.003942 0.016396 0.000000 0.007932 0.000000
# 4 0.000000 0.000000 0.000000 0.075597 0.000000 -0.014665
# 5 0.005307 -0.003095 0.007932 0.000000 0.031120 0.000000
# 6 0.000000 0.000000 0.000000 -0.014665 0.000000 0.024405
#
#
# Mechanical properties :
#
#
# Convention : Reuss Voigt Hill
#
# Bulk Modulus (GPa) = 41.40779 62.61494 52.01137
# Shear Modulus (GPa) = 27.91793 43.86457 35.89125
#
# Velocity S-wave (km/s) = 3.13754 3.93282 3.55747
# Velocity P-wave (km/s) = 5.26558 6.53464 5.93413
#
# Compressibility (1/GPa) = 0.02415004
#
# Stress axis : x y z
#
# Youngs Moduli (GPa) = 147.08510 113.08371 60.99176
#
# Poissons Ratio (x) = 0.36975 -0.19935
# Poissons Ratio (y) = 0.48092 0.24046
# Poissons Ratio (z) = -0.48073 0.44582
#
# Static dielectric constant tensor:
#      x y z
#    x -0.883780 0.000000 -4.037300 
#    y 0.000000 4.444300 0.000000 
#    z -4.037300 0.000000 -3.062430 
# 
# From -- ./inp_files/27533.got.cif
#   From: 2010.05.17/outbox.cif.g08.bks.cpg/sg14_14_cif.got.tgz:27533.got - 2010.06.03 17:49:19.
