data_PCOD9251653
_publ_section_title
;
Structure prediction by ZEFSAII (Michael W. Deem and Ramdas Pophale) SiO2 
 PCOD9251653
Probable space group: P 21/C
;
_chemical_formula_sum "Si O2"
_cell_formula_units_Z 20
_cell_length_a 5.210163
_cell_length_b 6.849367
_cell_length_c 20.398566
_cell_angle_alpha 90.000000
_cell_angle_beta 96.116860
_cell_angle_gamma 90.000000
_cell_volume 723.805238
_symmetry_space_group_name_H-M "P 21/C"
_symmetry_group_IT_number 14
_symmetry_cell_setting 'monoclinic'
loop_
_space_group_symop_operation_xyz
x,y,z
-x,1/2+y,1/2-z
-x,-y,-z
x,1/2-y,1/2+z
loop_
_atom_site_type_symbol
_atom_site_label
_atom_site_fract_x
_atom_site_fract_y
_atom_site_fract_z
Si Si1 0.181811 0.527397 0.855480
Si Si2 0.506124 0.272529 0.311392
Si Si3 0.854802 0.391616 0.718740
Si Si4 0.172130 0.242155 0.971348
Si Si5 0.333547 0.516540 0.572810
O O1 0.107473 0.753138 0.843378
O O2 0.140396 0.437973 0.927243
O O3 0.028886 0.437865 0.787458
O O4 0.463801 0.431237 0.847718
O O5 0.248910 0.398796 0.302996
O O6 0.612039 0.223463 0.243966
O O7 0.696644 0.424344 0.352398
O O8 0.386625 0.105028 0.939661
O O9 0.291692 0.204441 0.047255
O O10 0.887865 0.150077 0.965422
#
# Coordination Sequence:
#
# PCOD9251653 Si02
#       5
#     4   4   4   4   4
#     4  11  22  36  57  85 118 153 201 246 300 357
#     4  11  22  36  57  85 118 153 201 246 300 357
#     4  12  22  36  56  88 116 158 196 250 302 360
#     4   9  18  34  58  84 113 155 200 243 296 355
#     4   9  18  34  58  84 113 155 200 243 296 355
#
# _framework density 27.631743
#
# number of rings (size 3 to 8) (size 9 to 14) (size 15 to 20)
#    0.000    1.600    6.000    0.000    0.000    0.000 
#    0.000    1.000    0.000    0.000    0.000   16.800 
#    0.000    0.000    0.000    0.000    0.000    0.000 
#
# Total GULP energy -111371.882179 kJ/mol
# GULP energy per Si atom -5568.594109 kJ/mol
# Density = 2.756885 g / cm^3
# Si number density = 27.631743 Si / 1000 Ang^3
#
#
#
# Elastic Constant Matrix: (Units=GPa)
#
#
# Indices 1 2 3 4 5 6 
#
# 1 85.3518 21.4150 -0.1819 0.0000 -2.2277 0.0000
# 2 21.4150 106.8658 1.1148 0.0000 13.6110 0.0000
# 3 -0.1819 1.1148 51.3948 0.0000 8.0333 0.0000
# 4 0.0000 0.0000 0.0000 26.4100 0.0000 11.3429
# 5 -2.2277 13.6110 8.0333 0.0000 38.0041 0.0000
# 6 0.0000 0.0000 0.0000 11.3429 0.0000 23.1881
#
#
#
# Elastic Compliance Matrix: (Units=1/GPa)
#
#
# Indices 1 2 3 4 5 6 
#
# 1 0.012442 -0.002713 -0.000169 0.000000 0.001736 0.000000
# 2 -0.002713 0.010402 0.000385 0.000000 -0.003966 0.000000
# 3 -0.000169 0.000385 0.020137 0.000000 -0.004404 0.000000
# 4 0.000000 0.000000 0.000000 0.047936 0.000000 -0.023449
# 5 0.001736 -0.003966 -0.004404 0.000000 0.028766 0.000000
# 6 0.000000 0.000000 0.000000 -0.023449 0.000000 0.054596
#
#
# Mechanical properties :
#
#
# Convention : Reuss Voigt Hill
#
# Bulk Modulus (GPa) = 26.32439 32.03424 29.17932
# Shear Modulus (GPa) = 26.05065 32.27140 29.16102
#
# Velocity S-wave (km/s) = 3.07380 3.42118 3.25213
# Velocity P-wave (km/s) = 4.70587 5.21770 4.96838
#
# Compressibility (1/GPa) = 0.03798759
#
# Stress axis : x y z
#
# Youngs Moduli (GPa) = 80.37429 96.13336 49.66070
#
# Poissons Ratio (x) = 0.26077 0.00837
# Poissons Ratio (y) = 0.21803 -0.01910
# Poissons Ratio (z) = 0.01355 -0.03698
#
# Static dielectric constant tensor:
#      x y z
#    x 2.303680 0.000000 0.129370 
#    y 0.000000 2.185190 0.000000 
#    z 0.129370 0.000000 2.412110 
# 
# From -- ./inp_files/62885.got.cif
#   From: 2010.05.17/outbox.cif.g08.bks.cpg/sg14_32_cif.got.tgz:62885.got - 2010.06.03 17:49:19.
