data_PCOD9251876
_publ_section_title
;
Structure prediction by ZEFSAII (Michael W. Deem and Ramdas Pophale) SiO2 
 PCOD9251876
Probable space group: P 21/C
;
_chemical_formula_sum "Si O2"
_cell_formula_units_Z 24
_cell_length_a 8.507694
_cell_length_b 14.042485
_cell_length_c 18.123304
_cell_angle_alpha 90.000000
_cell_angle_beta 32.220408
_cell_angle_gamma 90.000000
_cell_volume 1154.423442
_symmetry_space_group_name_H-M "P 21/C"
_symmetry_group_IT_number 14
_symmetry_cell_setting 'monoclinic'
loop_
_space_group_symop_operation_xyz
x,y,z
-x,1/2+y,1/2-z
-x,-y,-z
x,1/2-y,1/2+z
loop_
_atom_site_type_symbol
_atom_site_label
_atom_site_fract_x
_atom_site_fract_y
_atom_site_fract_z
Si Si1 0.279203 0.747858 0.013503
Si Si2 0.381813 0.449501 0.619401
Si Si3 0.405192 0.252157 0.753312
Si Si4 0.684350 0.084013 0.387364
Si Si5 0.715493 0.424003 0.700959
Si Si6 0.332581 0.406668 0.385787
O O1 0.371977 0.682432 0.045584
O O2 0.927348 0.754203 0.144949
O O3 0.437149 0.850629 0.950440
O O4 0.390751 0.707393 0.891024
O O5 0.500000 0.500000 0.500000
O O6 0.454437 0.525277 0.653922
O O7 0.034784 0.432215 0.756138
O O8 0.497636 0.358981 0.738643
O O9 0.448081 0.192506 0.810666
O O10 0.633798 0.083472 0.319157
O O11 0.500000 0.000000 0.500000
O O12 0.735706 0.531397 0.660973
O O13 0.043967 0.387881 0.550013
#
# Coordination Sequence:
#
# PCOD9251876 Si02
#       6
#     4   4   4   4   4   4
#     4  12  25  48  69 101 147 188 234 292 360 426
#     4  12  26  46  72 102 140 197 236 282 365 430
#     4  12  24  44  75 101 136 189 239 296 353 419
#     4  12  28  45  71 109 145 180 237 301 356 421
#     4  11  23  44  69 106 134 183 237 287 355 419
#     4  11  22  45  73  97 142 184 237 288 350 433
#
# _framework density 20.7896
#
# number of rings (size 3 to 8) (size 9 to 14) (size 15 to 20)
#    0.000    0.333    6.667    2.000    4.667    1.333 
#    0.000    3.333    0.000    0.000    0.000    0.000 
#    0.000    0.000    0.000    0.000    0.000    0.000 
#
# Total GULP energy -134042.148913 kJ/mol
# GULP energy per Si atom -5585.089538 kJ/mol
# Density = 2.074228 g / cm^3
# Si number density = 20.789600 Si / 1000 Ang^3
#
#
#
# Elastic Constant Matrix: (Units=GPa)
#
#
# Indices 1 2 3 4 5 6 
#
# 1 80.1610 23.4907 28.5381 0.0000 21.3539 0.0000
# 2 23.4907 86.7766 28.7159 0.0000 10.1551 0.0000
# 3 28.5381 28.7159 95.9009 0.0000 16.8574 0.0000
# 4 0.0000 0.0000 0.0000 36.9336 0.0000 6.8526
# 5 21.3539 10.1551 16.8574 0.0000 52.7104 0.0000
# 6 0.0000 0.0000 0.0000 6.8526 0.0000 36.9348
#
#
#
# Elastic Compliance Matrix: (Units=1/GPa)
#
#
# Indices 1 2 3 4 5 6 
#
# 1 0.015616 -0.002668 -0.002995 0.000000 -0.004855 0.000000
# 2 -0.002668 0.013334 -0.003112 0.000000 -0.000493 0.000000
# 3 -0.002995 -0.003112 0.012642 0.000000 -0.002230 0.000000
# 4 0.000000 0.000000 0.000000 0.028041 0.000000 -0.005203
# 5 -0.004855 -0.000493 -0.002230 0.000000 0.021747 0.000000
# 6 0.000000 0.000000 0.000000 -0.005203 0.000000 0.028040
#
#
# Mechanical properties :
#
#
# Convention : Reuss Voigt Hill
#
# Bulk Modulus (GPa) = 41.59308 47.14753 44.37031
# Shear Modulus (GPa) = 34.48668 37.45534 35.97101
#
# Velocity S-wave (km/s) = 4.07731 4.24918 4.16413
# Velocity P-wave (km/s) = 6.49739 6.84117 6.67149
#
# Compressibility (1/GPa) = 0.02404246
#
# Stress axis : x y z
#
# Youngs Moduli (GPa) = 64.03628 74.99863 79.09841
#
# Poissons Ratio (x) = 0.20011 0.23688
# Poissons Ratio (y) = 0.17086 0.24615
# Poissons Ratio (z) = 0.19177 0.23339
#
# Static dielectric constant tensor:
#      x y z
#    x 1.849230 0.000000 0.064560 
#    y 0.000000 1.780420 0.000000 
#    z 0.064560 0.000000 1.758550 
# 
# From -- ./inp_files/55894.got.cif
#   From: 2010.05.17/outbox.cif.g08.bks.cpg/sg14_28_cif.got.tgz:55894.got - 2010.06.03 17:49:19.
