data_PCOD9251713
_publ_section_title
;
Structure prediction by ZEFSAII (Michael W. Deem and Ramdas Pophale) SiO2 
 PCOD9251713
Probable space group: P 21/C
;
_chemical_formula_sum "Si O2"
_cell_formula_units_Z 32
_cell_length_a 17.791777
_cell_length_b 11.871040
_cell_length_c 11.291449
_cell_angle_alpha 90.000000
_cell_angle_beta 143.468625
_cell_angle_gamma 90.000000
_cell_volume 1419.601922
_symmetry_space_group_name_H-M "P 21/C"
_symmetry_group_IT_number 14
_symmetry_cell_setting 'monoclinic'
loop_
_space_group_symop_operation_xyz
x,y,z
-x,1/2+y,1/2-z
-x,-y,-z
x,1/2-y,1/2+z
loop_
_atom_site_type_symbol
_atom_site_label
_atom_site_fract_x
_atom_site_fract_y
_atom_site_fract_z
Si Si1 0.645549 0.096999 0.392950
Si Si2 0.697008 0.948691 0.246097
Si Si3 0.746297 0.340745 0.479751
Si Si4 0.624022 0.937690 0.876946
Si Si5 0.000346 0.792947 0.814875
Si Si6 0.140133 0.039724 0.213823
Si Si7 0.205991 0.199264 0.085239
Si Si8 0.097250 0.596989 0.089381
O O1 0.619494 0.004922 0.255491
O O2 0.763852 0.054421 0.619938
O O3 0.681171 0.219719 0.388302
O O4 0.519230 0.104111 0.311569
O O5 0.728267 0.818146 0.305381
O O6 0.815998 0.034397 0.396520
O O7 0.652050 0.950244 0.052612
O O8 0.646592 0.441193 0.344726
O O9 0.815324 0.359900 0.693495
O O10 0.864988 0.348524 0.541197
O O11 0.724752 0.856765 0.939870
O O12 0.893176 0.878691 0.719025
O O13 0.940637 0.726590 0.629085
O O14 0.022630 0.701755 0.943861
O O15 0.204701 0.113110 0.192545
O O16 0.000000 0.000000 0.000000
O O17 0.000000 0.500000 0.000000
#
# Coordination Sequence:
#
# PCOD9251713 Si02
#       8
#     4   4   4   4   4   4   4   4
#     4  12  26  49  72 106 144 194 244 307 371 444
#     4  11  24  46  70 105 138 195 245 295 365 436
#     4  11  25  43  70 106 142 187 242 307 366 434
#     4  11  28  48  74 102 146 197 252 296 366 443
#     4  12  21  41  69  99 145 184 233 300 364 439
#     4  12  26  42  69 105 145 186 236 302 375 430
#     4  12  25  44  72 106 145 190 238 300 366 442
#     4  11  22  39  67 104 142 187 238 294 369 437
#
# _framework density 22.541530000000002
#
# number of rings (size 3 to 8) (size 9 to 14) (size 15 to 20)
#    0.000    0.500    2.500    7.125    1.750    0.500 
#    0.000    0.000    0.000    0.000    0.000    0.000 
#    0.000    0.000    0.000    0.000    0.000    0.000 
#
# Total GULP energy -178973.297456 kJ/mol
# GULP energy per Si atom -5592.915545 kJ/mol
# Density = 2.249022 g / cm^3
# Si number density = 22.541530 Si / 1000 Ang^3
#
#
#
# Elastic Constant Matrix: (Units=GPa)
#
#
# Indices 1 2 3 4 5 6 
#
# 1 99.6894 19.5269 23.1280 0.0000 15.7640 0.0000
# 2 19.5269 86.4092 20.4508 0.0000 5.4542 0.0000
# 3 23.1280 20.4508 49.8151 0.0000 8.8266 0.0000
# 4 0.0000 0.0000 0.0000 24.3995 0.0000 -9.7430
# 5 15.7640 5.4542 8.8266 0.0000 34.3318 0.0000
# 6 0.0000 0.0000 0.0000 -9.7430 0.0000 35.2860
#
#
#
# Elastic Compliance Matrix: (Units=1/GPa)
#
#
# Indices 1 2 3 4 5 6 
#
# 1 0.011952 -0.001439 -0.004218 0.000000 -0.004175 0.000000
# 2 -0.001439 0.013008 -0.004634 0.000000 -0.000214 0.000000
# 3 -0.004218 -0.004634 0.024581 0.000000 -0.003647 0.000000
# 4 0.000000 0.000000 0.000000 0.046063 0.000000 0.012719
# 5 -0.004175 -0.000214 -0.003647 0.000000 0.032016 0.000000
# 6 0.000000 0.000000 0.000000 0.012719 0.000000 0.031852
#
#
# Mechanical properties :
#
#
# Convention : Reuss Voigt Hill
#
# Bulk Modulus (GPa) = 34.53264 40.23612 37.38438
# Shear Modulus (GPa) = 26.35617 30.32399 28.34008
#
# Velocity S-wave (km/s) = 3.42311 3.67174 3.54960
# Velocity P-wave (km/s) = 5.56564 5.98867 5.78102
#
# Compressibility (1/GPa) = 0.02895811
#
# Stress axis : x y z
#
# Youngs Moduli (GPa) = 83.66891 76.87357 40.68111
#
# Poissons Ratio (x) = 0.11062 0.17161
# Poissons Ratio (y) = 0.12040 0.18853
# Poissons Ratio (z) = 0.35296 0.35625
#
# Static dielectric constant tensor:
#      x y z
#    x 1.902970 0.000000 -0.037940 
#    y 0.000000 1.809630 0.000000 
#    z -0.037940 0.000000 1.846110 
# 
# From -- ./inp_files/33957.got.cif
#   From: 2010.05.17/outbox.cif.g08.bks.cpg/sg14_17_cif.got.tgz:33957.got - 2010.06.03 17:49:19.
