data_PCOD9251013
_publ_section_title
;
Structure prediction by ZEFSAII (Michael W. Deem and Ramdas Pophale) SiO2 
 PCOD9251013
Probable space group: P 21/C
;
_chemical_formula_sum "Si O2"
_cell_formula_units_Z 28
_cell_length_a 7.807652
_cell_length_b 5.860324
_cell_length_c 29.363397
_cell_angle_alpha 90.000000
_cell_angle_beta 64.066955
_cell_angle_gamma 90.000000
_cell_volume 1208.246989
_symmetry_space_group_name_H-M "P 21/C"
_symmetry_group_IT_number 14
_symmetry_cell_setting 'monoclinic'
loop_
_space_group_symop_operation_xyz
x,y,z
-x,1/2+y,1/2-z
-x,-y,-z
x,1/2-y,1/2+z
loop_
_atom_site_type_symbol
_atom_site_label
_atom_site_fract_x
_atom_site_fract_y
_atom_site_fract_z
Si Si1 0.915073 0.249056 0.522662
Si Si2 0.344141 0.251064 0.640460
Si Si3 0.357273 0.904857 0.712727
Si Si4 0.078656 0.818281 0.297959
Si Si5 0.508469 0.250078 0.023851
Si Si6 0.771590 0.750571 0.695186
Si Si7 0.742928 0.383480 0.633919
O O1 0.714183 0.249139 0.521868
O O2 0.872397 0.266029 0.581327
O O3 0.000000 0.500000 0.500000
O O4 0.000000 0.000000 0.500000
O O5 0.378576 0.003676 0.660009
O O6 0.365456 0.251941 0.583640
O O7 0.523202 0.388120 0.642332
O O8 0.123791 0.304042 0.677282
O O9 0.260306 0.097186 0.756202
O O10 0.206157 0.704626 0.738178
O O11 0.560316 0.849114 0.710743
O O12 0.219463 0.742785 0.322843
O O13 0.059050 0.082049 0.311931
O O14 0.500000 0.500000 0.000000
O O15 0.500000 0.000000 0.000000
O O16 0.811251 0.631431 0.642012
#
# Coordination Sequence:
#
# PCOD9251013 Si02
#       7
#     4   4   4   4   4   4   4
#     4  11  26  45  80 108 143 196 253 317 382 464
#     4  11  26  45  70 104 140 193 246 302 369 457
#     4  11  22  41  65 103 138 187 239 288 370 443
#     4  11  25  42  69  99 144 184 240 296 367 449
#     4  11  27  52  75 110 152 192 253 329 385 446
#     4  11  21  42  71  95 149 190 233 308 362 450
#     4  10  25  45  66 101 139 187 242 299 377 435
#
# _framework density 23.174068999999999
#
# number of rings (size 3 to 8) (size 9 to 14) (size 15 to 20)
#    0.000    1.143    2.857    1.714    8.000    2.286 
#    5.143    0.000    0.000    0.000    0.000    0.000 
#    0.000    0.000    0.000    0.000    0.000    0.000 
#
# Total GULP energy -155980.995519 kJ/mol
# GULP energy per Si atom -5570.749840 kJ/mol
# Density = 2.312132 g / cm^3
# Si number density = 23.174069 Si / 1000 Ang^3
#
#
#
# Elastic Constant Matrix: (Units=GPa)
#
#
# Indices 1 2 3 4 5 6 
#
# 1 52.1699 14.6236 23.5550 0.0000 -0.6791 0.0000
# 2 14.6236 103.3899 61.5705 0.0000 6.5965 0.0000
# 3 23.5550 61.5705 121.7766 0.0000 9.3611 0.0000
# 4 0.0000 0.0000 0.0000 31.1259 0.0000 -1.5680
# 5 -0.6791 6.5965 9.3611 0.0000 32.9878 0.0000
# 6 0.0000 0.0000 0.0000 -1.5680 0.0000 40.2687
#
#
#
# Elastic Compliance Matrix: (Units=1/GPa)
#
#
# Indices 1 2 3 4 5 6 
#
# 1 0.021138 -0.000837 -0.003794 0.000000 0.001679 0.000000
# 2 -0.000837 0.013893 -0.006796 0.000000 -0.000867 0.000000
# 3 -0.003794 -0.006796 0.012557 0.000000 -0.002283 0.000000
# 4 0.000000 0.000000 0.000000 0.032191 0.000000 0.001253
# 5 0.001679 -0.000867 -0.002283 0.000000 0.031170 0.000000
# 6 0.000000 0.000000 0.000000 0.001253 0.000000 0.024882
#
#
# Mechanical properties :
#
#
# Convention : Reuss Voigt Hill
#
# Bulk Modulus (GPa) = 40.43165 52.98160 46.70663
# Shear Modulus (GPa) = 29.95280 32.71564 31.33422
#
# Velocity S-wave (km/s) = 3.59905 3.76138 3.68111
# Velocity P-wave (km/s) = 5.89540 6.46344 6.18594
#
# Compressibility (1/GPa) = 0.02473310
#
# Stress axis : x y z
#
# Youngs Moduli (GPa) = 47.30838 71.97992 79.63653
#
# Poissons Ratio (x) = 0.06027 0.30218
# Poissons Ratio (y) = 0.03961 0.54118
# Poissons Ratio (z) = 0.17951 0.48915
#
# Static dielectric constant tensor:
#      x y z
#    x 1.781470 0.000000 -0.275900 
#    y 0.000000 2.229310 0.000000 
#    z -0.275900 0.000000 1.106830 
# 
# From -- ./inp_files/79193.got.cif
#   From: 2010.05.17/outbox.cif.g08.bks.cpg/sg14_40_cif.got.tgz:79193.got - 2010.06.03 17:49:19.
