data_PCOD9251310
_publ_section_title
;
Structure prediction by ZEFSAII (Michael W. Deem and Ramdas Pophale) SiO2 
 PCOD9251310
Probable space group: P 21/C
;
_chemical_formula_sum "Si O2"
_cell_formula_units_Z 24
_cell_length_a 6.539155
_cell_length_b 15.733856
_cell_length_c 14.390680
_cell_angle_alpha 90.000000
_cell_angle_beta 57.819711
_cell_angle_gamma 90.000000
_cell_volume 1253.146031
_symmetry_space_group_name_H-M "P 21/C"
_symmetry_group_IT_number 14
_symmetry_cell_setting 'monoclinic'
loop_
_space_group_symop_operation_xyz
x,y,z
-x,1/2+y,1/2-z
-x,-y,-z
x,1/2-y,1/2+z
loop_
_atom_site_type_symbol
_atom_site_label
_atom_site_fract_x
_atom_site_fract_y
_atom_site_fract_z
Si Si1 0.285414 0.515131 0.919295
Si Si2 0.384400 0.872321 0.573229
Si Si3 0.809139 0.424502 0.563318
Si Si4 0.348244 0.542583 0.690332
Si Si5 0.950678 0.604937 0.307005
Si Si6 0.463248 0.679444 0.510298
O O1 0.442881 0.429558 0.901631
O O2 0.317528 0.551763 0.807793
O O3 0.371493 0.579807 0.977858
O O4 0.000000 0.500000 0.000000
O O5 0.472659 0.777336 0.534577
O O6 0.113968 0.866803 0.681293
O O7 0.560873 0.475006 0.627093
O O8 0.763056 0.351026 0.498944
O O9 0.000000 0.500000 0.500000
O O10 0.880138 0.387034 0.644600
O O11 0.122481 0.493211 0.697758
O O12 0.428444 0.623775 0.612068
O O13 0.707653 0.654433 0.395282
#
# Coordination Sequence:
#
# PCOD9251310 Si02
#       6
#     4   4   4   4   4   4
#     4  11  24  45  67  88 132 181 216 254 334 398
#     4  11  26  44  63  97 133 174 217 269 325 393
#     4  11  19  39  67  94 127 169 208 266 333 380
#     4  11  21  40  68  93 124 173 219 264 320 393
#     4  11  21  43  66  92 131 169 214 267 324 385
#     4  11  25  39  65 105 127 162 227 274 320 383
#
# _framework density 19.151799
#
# number of rings (size 3 to 8) (size 9 to 14) (size 15 to 20)
#    0.000    1.000    6.667    1.000    0.000    4.000 
#    3.000    0.000    0.000    0.000    0.000    0.000 
#    0.000    0.000    0.000    0.000    0.000    0.000 
#
# Total GULP energy -133819.389812 kJ/mol
# GULP energy per Si atom -5575.807909 kJ/mol
# Density = 1.910821 g / cm^3
# Si number density = 19.151799 Si / 1000 Ang^3
#
#
#
# Elastic Constant Matrix: (Units=GPa)
#
#
# Indices 1 2 3 4 5 6 
#
# 1 87.8456 36.5776 31.2225 0.0000 13.5281 0.0000
# 2 36.5776 112.1937 65.4302 0.0000 -7.6311 0.0000
# 3 31.2225 65.4302 123.1528 0.0000 8.3491 0.0000
# 4 0.0000 0.0000 0.0000 1.8996 0.0000 -5.3785
# 5 13.5281 -7.6311 8.3491 0.0000 27.2878 0.0000
# 6 0.0000 0.0000 0.0000 -5.3785 0.0000 15.0684
#
#
#
# Elastic Compliance Matrix: (Units=1/GPa)
#
#
# Indices 1 2 3 4 5 6 
#
# 1 0.015089 -0.005270 -0.000427 0.000000 -0.008824 0.000000
# 2 -0.005270 0.015733 -0.007657 0.000000 0.009355 0.000000
# 3 -0.000427 -0.007657 0.012690 0.000000 -0.005812 0.000000
# 4 0.000000 0.000000 0.000000-49.469254 0.000000-17.657624
# 5 -0.008824 0.009355 -0.005812 0.000000 0.045415 0.000000
# 6 0.000000 0.000000 0.000000-17.657624 0.000000 -6.236372
#
#
# Mechanical properties :
#
#
# Convention : Reuss Voigt Hill
#
# Bulk Modulus (GPa) = 59.51159 65.51700 62.51429
# Shear Modulus (GPa) = -0.08995 21.51527 10.71266
#
# Velocity S-wave (km/s) = -0.21696 3.35536 2.36764
# Velocity P-wave (km/s) = 5.57479 7.02103 6.33929
#
# Compressibility (1/GPa) = 0.01680345
#
# Stress axis : x y z
#
# Youngs Moduli (GPa) = 66.27474 63.55970 78.79935
#
# Poissons Ratio (x) = 0.33498 0.03366
# Poissons Ratio (y) = 0.34929 0.60337
# Poissons Ratio (z) = 0.02831 0.48668
#
# Static dielectric constant tensor:
#      x y z
#    x 1.675790 0.000000 0.100100 
#    y 0.000000 1.681010 0.000000 
#    z 0.100100 0.000000 1.403160 
# 
# From -- ./inp_files/37240.got.cif
#   From: 2010.05.17/outbox.cif.g08.bks.cpg/sg14_19_cif.got.tgz:37240.got - 2010.06.03 17:49:19.
