data_PCOD9251994
_publ_section_title
;
Structure prediction by ZEFSAII (Michael W. Deem and Ramdas Pophale) SiO2 
 PCOD9251994
Probable space group: P 21/C
;
_chemical_formula_sum "Si O2"
_cell_formula_units_Z 28
_cell_length_a 9.097637
_cell_length_b 9.261903
_cell_length_c 17.862014
_cell_angle_alpha 90.000000
_cell_angle_beta 123.495438
_cell_angle_gamma 90.000000
_cell_volume 1255.130068
_symmetry_space_group_name_H-M "P 21/C"
_symmetry_group_IT_number 14
_symmetry_cell_setting 'monoclinic'
loop_
_space_group_symop_operation_xyz
x,y,z
-x,1/2+y,1/2-z
-x,-y,-z
x,1/2-y,1/2+z
loop_
_atom_site_type_symbol
_atom_site_label
_atom_site_fract_x
_atom_site_fract_y
_atom_site_fract_z
Si Si1 0.818663 0.158688 0.743861
Si Si2 0.839274 0.210764 0.568904
Si Si3 0.481782 0.285110 0.672166
Si Si4 0.353400 0.434433 0.016020
Si Si5 0.210738 0.270314 0.355152
Si Si6 0.203885 0.135934 0.203495
Si Si7 0.450322 0.561627 0.566555
O O1 0.803559 0.174500 0.647812
O O2 0.693463 0.290255 0.735015
O O3 0.027699 0.152135 0.814378
O O4 0.762215 0.034522 0.787484
O O5 0.703926 0.324741 0.493958
O O6 0.032553 0.284852 0.620063
O O7 0.792350 0.059354 0.514977
O O8 0.438558 0.138400 0.613102
O O9 0.375292 0.287499 0.718591
O O10 0.412651 0.426701 0.608963
O O11 0.271808 0.300896 0.948444
O O12 0.500000 0.500000 0.000000
O O13 0.174531 0.147069 0.284477
O O14 0.366833 0.360628 0.362085
O O15 0.500000 0.500000 0.500000
#
# Coordination Sequence:
#
# PCOD9251994 Si02
#       7
#     4   4   4   4   4   4   4
#     4  11  23  43  67  98 136 176 228 271 336 406
#     4  11  23  43  73  95 130 184 228 274 327 406
#     4  12  27  43  69 103 140 177 219 287 348 390
#     4  12  20  44  72  98 128 178 234 273 325 406
#     4  11  23  40  72  94 129 183 230 274 325 414
#     4  11  27  44  63 104 142 168 220 289 348 389
#     4  12  21  41  69 101 129 176 234 269 330 404
#
# _framework density 22.308444999999999
#
# number of rings (size 3 to 8) (size 9 to 14) (size 15 to 20)
#    0.000    0.571    7.143    0.857    4.000    1.143 
#    0.000    0.000    0.000    0.000    0.000    0.000 
#    0.000    0.000    0.000    0.000    0.000    0.000 
#
# Total GULP energy -155991.417316 kJ/mol
# GULP energy per Si atom -5571.122047 kJ/mol
# Density = 2.225767 g / cm^3
# Si number density = 22.308445 Si / 1000 Ang^3
#
#
#
# Elastic Constant Matrix: (Units=GPa)
#
#
# Indices 1 2 3 4 5 6 
#
# 1 55.1573 7.3841 26.2213 0.0000 5.7035 0.0000
# 2 7.3841 78.4168 21.4827 0.0000 -3.5921 0.0000
# 3 26.2213 21.4827 63.8219 0.0000 19.7787 0.0000
# 4 0.0000 0.0000 0.0000 33.5590 0.0000 -2.0460
# 5 5.7035 -3.5921 19.7787 0.0000 28.0847 0.0000
# 6 0.0000 0.0000 0.0000 -2.0460 0.0000 31.0791
#
#
#
# Elastic Compliance Matrix: (Units=1/GPa)
#
#
# Indices 1 2 3 4 5 6 
#
# 1 0.022718 0.000880 -0.010534 0.000000 0.002918 0.000000
# 2 0.000880 0.015094 -0.007656 0.000000 0.007144 0.000000
# 3 -0.010534 -0.007656 0.028416 0.000000 -0.018852 0.000000
# 4 0.000000 0.000000 0.000000 0.029918 0.000000 0.001970
# 5 0.002918 0.007144 -0.018852 0.000000 0.049204 0.000000
# 6 0.000000 0.000000 0.000000 0.001970 0.000000 0.032306
#
#
# Mechanical properties :
#
#
# Convention : Reuss Voigt Hill
#
# Bulk Modulus (GPa) = 31.63766 34.17468 32.90617
# Shear Modulus (GPa) = 22.44024 28.03174 25.23599
#
# Velocity S-wave (km/s) = 3.17505 3.54863 3.36703
# Velocity P-wave (km/s) = 5.25870 5.66947 5.46794
#
# Compressibility (1/GPa) = 0.03160790
#
# Stress axis : x y z
#
# Youngs Moduli (GPa) = 44.01728 66.25055 35.19122
#
# Poissons Ratio (x) = -0.05832 0.37072
# Poissons Ratio (y) = -0.03875 0.26944
# Poissons Ratio (z) = 0.46370 0.50724
#
# Static dielectric constant tensor:
#      x y z
#    x 1.815080 0.000000 0.102070 
#    y 0.000000 1.901820 0.000000 
#    z 0.102070 0.000000 1.927750 
# 
# From -- ./inp_files/65043.got.cif
#   From: 2010.05.17/outbox.cif.g08.bks.cpg/sg14_33_cif.got.tgz:65043.got - 2010.06.03 17:49:19.
