data_PCOD9251219
_publ_section_title
;
Structure prediction by ZEFSAII (Michael W. Deem and Ramdas Pophale) SiO2 
 PCOD9251219
Probable space group: P 21/C
;
_chemical_formula_sum "Si O2"
_cell_formula_units_Z 32
_cell_length_a 12.656802
_cell_length_b 8.881627
_cell_length_c 19.202490
_cell_angle_alpha 90.000000
_cell_angle_beta 37.133044
_cell_angle_gamma 90.000000
_cell_volume 1303.083150
_symmetry_space_group_name_H-M "P 21/C"
_symmetry_group_IT_number 14
_symmetry_cell_setting 'monoclinic'
loop_
_space_group_symop_operation_xyz
x,y,z
-x,1/2+y,1/2-z
-x,-y,-z
x,1/2-y,1/2+z
loop_
_atom_site_type_symbol
_atom_site_label
_atom_site_fract_x
_atom_site_fract_y
_atom_site_fract_z
Si Si1 0.489003 0.419859 0.836506
Si Si2 0.613805 0.160406 0.866601
Si Si3 0.126998 0.137938 0.446022
Si Si4 0.295372 0.954859 0.009228
Si Si5 0.159200 0.058347 0.867790
Si Si6 0.968096 0.435988 0.224973
Si Si7 0.689209 0.360008 0.967612
Si Si8 0.033555 0.347371 0.615209
O O1 0.562187 0.263015 0.828424
O O2 0.315231 0.405401 0.880594
O O3 0.647767 0.502608 0.714734
O O4 0.439090 0.518288 0.931523
O O5 0.796343 0.070208 0.766069
O O6 0.636320 0.272738 0.922952
O O7 0.464450 0.034625 0.950370
O O8 0.151739 0.260757 0.371584
O O9 0.020024 0.227466 0.560921
O O10 0.000000 0.000000 0.500000
O O11 0.215904 0.074148 0.999090
O O12 0.130458 0.958069 0.149918
O O13 0.311976 0.783236 0.979443
O O14 0.117957 0.970594 0.816577
O O15 0.000000 0.000000 0.000000
O O16 0.123941 0.554361 0.133541
O O17 0.043017 0.265925 0.176007
#
# Coordination Sequence:
#
# PCOD9251219 Si02
#       8
#     4   4   4   4   4   4   4   4
#     4  12  24  48  77 105 145 191 240 317 374 438
#     4  11  23  46  71 108 154 198 241 289 371 465
#     4  11  26  50  75 104 139 188 260 319 370 435
#     4  11  23  42  69 106 153 192 240 289 368 452
#     4  10  26  48  73 102 136 189 248 313 373 429
#     4  11  21  40  70 105 146 194 235 289 361 453
#     4  11  24  40  68 113 148 185 238 293 367 460
#     4  11  22  46  71 100 147 192 237 309 375 433
#
# _framework density 24.557144000000001
#
# number of rings (size 3 to 8) (size 9 to 14) (size 15 to 20)
#    0.000    1.000    3.750    3.375    1.750    2.000 
#   11.250    0.000    0.000    0.000    0.000    0.000 
#    0.000    0.000    0.000    0.000    0.000    0.000 
#
# Total GULP energy -178428.407885 kJ/mol
# GULP energy per Si atom -5575.887746 kJ/mol
# Density = 2.450125 g / cm^3
# Si number density = 24.557144 Si / 1000 Ang^3
#
#
#
# Elastic Constant Matrix: (Units=GPa)
#
#
# Indices 1 2 3 4 5 6 
#
# 1 89.0408 55.7921 38.0068 0.0000 -40.1240 0.0000
# 2 55.7921 153.9784 39.0170 0.0000 -22.5063 0.0000
# 3 38.0068 39.0170 112.3688 0.0000 -17.6823 0.0000
# 4 0.0000 0.0000 0.0000 35.6444 0.0000 -20.2757
# 5 -40.1240 -22.5063 -17.6823 0.0000 34.5131 0.0000
# 6 0.0000 0.0000 0.0000 -20.2757 0.0000 43.3826
#
#
#
# Elastic Compliance Matrix: (Units=1/GPa)
#
#
# Indices 1 2 3 4 5 6 
#
# 1 0.028804 -0.005452 -0.003415 0.000000 0.028182 0.000000
# 2 -0.005452 0.008608 -0.001369 0.000000 -0.001427 0.000000
# 3 -0.003415 -0.001369 0.010621 0.000000 0.000579 0.000000
# 4 0.000000 0.000000 0.000000 0.038214 0.000000 0.017860
# 5 0.028182 -0.001427 0.000579 0.000000 0.061104 0.000000
# 6 0.000000 0.000000 0.000000 0.017860 0.000000 0.031398
#
#
# Mechanical properties :
#
#
# Convention : Reuss Voigt Hill
#
# Bulk Modulus (GPa) = 36.28354 69.00221 52.64287
# Shear Modulus (GPa) = 23.99117 37.54616 30.76867
#
# Velocity S-wave (km/s) = 3.12902 3.91440 3.54353
# Velocity P-wave (km/s) = 5.27840 6.97063 6.18268
#
# Compressibility (1/GPa) = 0.02756071
#
# Stress axis : x y z
#
# Youngs Moduli (GPa) = 34.71705 116.16468 94.15538
#
# Poissons Ratio (x) = 0.63337 0.32151
# Poissons Ratio (y) = 0.18929 0.12894
# Poissons Ratio (z) = 0.11855 0.15908
#
# Static dielectric constant tensor:
#      x y z
#    x 2.346810 0.000000 0.084670 
#    y 0.000000 1.848500 0.000000 
#    z 0.084670 0.000000 1.979820 
# 
# From -- ./inp_files/73831.got.cif
#   From: 2010.05.17/outbox.cif.g08.bks.cpg/sg14_37_cif.got.tgz:73831.got - 2010.06.03 17:49:19.
