data_PCOD9251109
_publ_section_title
;
Structure prediction by ZEFSAII (Michael W. Deem and Ramdas Pophale) SiO2 
 PCOD9251109
Probable space group: P 21/C
;
_chemical_formula_sum "Si O2"
_cell_formula_units_Z 20
_cell_length_a 9.714119
_cell_length_b 4.984220
_cell_length_c 21.669777
_cell_angle_alpha 90.000000
_cell_angle_beta 47.521628
_cell_angle_gamma 90.000000
_cell_volume 773.813164
_symmetry_space_group_name_H-M "P 21/C"
_symmetry_group_IT_number 14
_symmetry_cell_setting 'monoclinic'
loop_
_space_group_symop_operation_xyz
x,y,z
-x,1/2+y,1/2-z
-x,-y,-z
x,1/2-y,1/2+z
loop_
_atom_site_type_symbol
_atom_site_label
_atom_site_fract_x
_atom_site_fract_y
_atom_site_fract_z
Si Si1 0.799575 0.369515 0.078848
Si Si2 0.290227 0.661785 0.197062
Si Si3 0.617190 0.898564 0.523183
Si Si4 0.945069 0.514115 0.848634
Si Si5 0.797916 0.649714 0.663113
O O1 0.676923 0.373983 0.054260
O O2 0.723612 0.589065 0.150549
O O3 0.000000 0.500000 0.000000
O O4 0.183130 0.913600 0.892691
O O5 0.474329 0.774680 0.107722
O O6 0.171554 0.526323 0.177986
O O7 0.322988 0.454731 0.242776
O O8 0.143752 0.866454 0.270354
O O9 0.813448 0.812153 0.433862
O O10 0.500000 0.000000 0.500000
O O11 0.005366 0.242918 0.865595
#
# Coordination Sequence:
#
# PCOD9251109 Si02
#       5
#     4   4   4   4   4
#     4  12  25  46  76 110 152 199 251 314 390 455
#     4  11  23  45  74 109 157 202 259 321 387 465
#     4  10  25  48  72 113 152 201 264 318 385 471
#     4  11  22  45  75 110 154 207 256 319 393 461
#     4  12  24  43  77 105 149 205 245 309 385 459
#
# _framework density 25.846032000000001
#
# number of rings (size 3 to 8) (size 9 to 14) (size 15 to 20)
#    0.000    0.800    6.000    0.600    0.000    1.600 
#    3.600    2.000    0.000    0.000    0.000    0.000 
#    0.000    0.000    0.000    0.000    0.000    0.000 
#
# Total GULP energy -111780.383517 kJ/mol
# GULP energy per Si atom -5589.019176 kJ/mol
# Density = 2.578721 g / cm^3
# Si number density = 25.846032 Si / 1000 Ang^3
#
#
#
# Elastic Constant Matrix: (Units=GPa)
#
#
# Indices 1 2 3 4 5 6 
#
# 1 143.3442 23.2658 73.9505 0.0000 25.3026 0.0000
# 2 23.2658 96.5226 82.9823 0.0000 -7.7160 0.0000
# 3 73.9505 82.9823 198.5074 0.0000 -3.5285 0.0000
# 4 0.0000 0.0000 0.0000 25.3062 0.0000 3.6777
# 5 25.3026 -7.7160 -3.5285 0.0000 46.1353 0.0000
# 6 0.0000 0.0000 0.0000 3.6777 0.0000 23.1470
#
#
#
# Elastic Compliance Matrix: (Units=1/GPa)
#
#
# Indices 1 2 3 4 5 6 
#
# 1 0.009985 0.000662 -0.004097 0.000000 -0.005679 0.000000
# 2 0.000662 0.016441 -0.007086 0.000000 0.001845 0.000000
# 3 -0.004097 -0.007086 0.009558 0.000000 0.001793 0.000000
# 4 0.000000 0.000000 0.000000 0.040450 0.000000 -0.006427
# 5 -0.005679 0.001845 0.001793 0.000000 0.025236 0.000000
# 6 0.000000 0.000000 0.000000 -0.006427 0.000000 0.044223
#
#
# Mechanical properties :
#
#
# Convention : Reuss Voigt Hill
#
# Bulk Modulus (GPa) = 66.93507 88.75238 77.84372
# Shear Modulus (GPa) = 29.08388 36.12941 32.60665
#
# Velocity S-wave (km/s) = 3.35815 3.74287 3.55572
# Velocity P-wave (km/s) = 6.40235 7.28644 6.85865
#
# Compressibility (1/GPa) = 0.01493985
#
# Stress axis : x y z
#
# Youngs Moduli (GPa) = 100.15014 60.82526 104.62216
#
# Poissons Ratio (x) = -0.04025 0.42867
# Poissons Ratio (y) = -0.06628 0.74140
# Poissons Ratio (z) = 0.41035 0.43103
#
# Static dielectric constant tensor:
#      x y z
#    x 2.054910 0.000000 -0.039000 
#    y 0.000000 2.054670 0.000000 
#    z -0.039000 0.000000 2.108020 
# 
# From -- ./inp_files/72589.got.cif
#   From: 2010.05.17/outbox.cif.g08.bks.cpg/sg14_37_cif.got.tgz:72589.got - 2010.06.03 17:49:19.
