data_PCOD9251939
_publ_section_title
;
Structure prediction by ZEFSAII (Michael W. Deem and Ramdas Pophale) SiO2 
 PCOD9251939
Probable space group: P 21/C
;
_chemical_formula_sum "Si O2"
_cell_formula_units_Z 32
_cell_length_a 13.786962
_cell_length_b 9.382146
_cell_length_c 10.907821
_cell_angle_alpha 90.000000
_cell_angle_beta 95.442013
_cell_angle_gamma 90.000000
_cell_volume 1404.581175
_symmetry_space_group_name_H-M "P 21/C"
_symmetry_group_IT_number 14
_symmetry_cell_setting 'monoclinic'
loop_
_space_group_symop_operation_xyz
x,y,z
-x,1/2+y,1/2-z
-x,-y,-z
x,1/2-y,1/2+z
loop_
_atom_site_type_symbol
_atom_site_label
_atom_site_fract_x
_atom_site_fract_y
_atom_site_fract_z
Si Si1 0.544496 0.020298 0.194902
Si Si2 0.770646 0.148764 0.467986
Si Si3 0.089750 0.111318 0.509730
Si Si4 0.677185 0.542561 0.300063
Si Si5 0.161595 0.260563 0.275951
Si Si6 0.666151 0.854064 0.057516
Si Si7 0.399943 0.451837 0.044770
Si Si8 0.723610 0.263626 0.704162
O O1 0.560639 0.910221 0.086371
O O2 0.579617 0.922224 0.311659
O O3 0.438435 0.080539 0.214901
O O4 0.628175 0.137677 0.182776
O O5 0.783714 0.252672 0.584727
O O6 0.788351 0.197254 0.331303
O O7 0.822741 0.999345 0.493976
O O8 0.659465 0.099289 0.461309
O O9 0.097898 0.212278 0.388502
O O10 0.105395 0.188142 0.645217
O O11 0.000000 0.000000 0.500000
O O12 0.764414 0.635565 0.255523
O O13 0.697043 0.551504 0.446279
O O14 0.684675 0.392021 0.236005
O O15 0.244219 0.369942 0.336446
O O16 0.649842 0.688158 0.018858
O O17 0.500000 0.500000 0.000000
#
# Coordination Sequence:
#
# PCOD9251939 Si02
#       8
#     4   4   4   4   4   4   4   4
#     4  11  26  37  60 106 150 209 260 311 344 438
#     4  11  23  45  65 104 144 195 239 314 371 443
#     4  12  28  53  84 113 146 188 247 322 399 471
#     4  12  24  41  69 100 151 209 253 307 364 446
#     4  12  24  52  79 111 150 196 250 316 395 462
#     4  12  23  41  69 105 146 202 263 303 364 448
#     4  11  23  38  64  92 146 202 246 305 372 433
#     4  11  24  41  65  97 153 194 251 302 369 421
#
# _framework density 22.782592999999999
#
# number of rings (size 3 to 8) (size 9 to 14) (size 15 to 20)
#    0.000    0.500    3.750    4.875    8.750    1.000 
#    0.000    0.625    0.000    0.000    0.000    0.000 
#    0.000    0.000    0.000    0.000    0.000    0.000 
#
# Total GULP energy -178445.270899 kJ/mol
# GULP energy per Si atom -5576.414716 kJ/mol
# Density = 2.273074 g / cm^3
# Si number density = 22.782593 Si / 1000 Ang^3
#
#
#
# Elastic Constant Matrix: (Units=GPa)
#
#
# Indices 1 2 3 4 5 6 
#
# 1 55.1406 18.1417 35.8689 0.0000 -1.2137 0.0000
# 2 18.1417 73.3530 46.2304 0.0000 7.5200 0.0000
# 3 35.8689 46.2304 154.4422 0.0000 1.1460 0.0000
# 4 0.0000 0.0000 0.0000 42.5505 0.0000 -1.1458
# 5 -1.2137 7.5200 1.1460 0.0000 20.1782 0.0000
# 6 0.0000 0.0000 0.0000 -1.1458 0.0000 30.3105
#
#
#
# Elastic Compliance Matrix: (Units=1/GPa)
#
#
# Indices 1 2 3 4 5 6 
#
# 1 0.021931 -0.003054 -0.004199 0.000000 0.002696 0.000000
# 2 -0.003054 0.017981 -0.004624 0.000000 -0.006622 0.000000
# 3 -0.004199 -0.004624 0.008827 0.000000 0.000969 0.000000
# 4 0.000000 0.000000 0.000000 0.023525 0.000000 0.000889
# 5 0.002696 -0.006622 0.000969 0.000000 0.052134 0.000000
# 6 0.000000 0.000000 0.000000 0.000889 0.000000 0.033026
#
#
# Mechanical properties :
#
#
# Convention : Reuss Voigt Hill
#
# Bulk Modulus (GPa) = 40.02382 53.71311 46.86847
# Shear Modulus (GPa) = 26.38425 30.78747 28.58586
#
# Velocity S-wave (km/s) = 3.40676 3.68007 3.54605
# Velocity P-wave (km/s) = 5.75157 6.45638 6.11414
#
# Compressibility (1/GPa) = 0.02498512
#
# Stress axis : x y z
#
# Youngs Moduli (GPa) = 45.59711 55.61369 113.28646
#
# Poissons Ratio (x) = 0.16983 0.47573
# Poissons Ratio (y) = 0.13924 0.52385
# Poissons Ratio (z) = 0.19148 0.25716
#
# Static dielectric constant tensor:
#      x y z
#    x 1.455720 0.000000 0.050080 
#    y 0.000000 1.849460 0.000000 
#    z 0.050080 0.000000 2.049250 
# 
# From -- ./inp_files/31830.got.cif
#   From: 2010.05.17/outbox.cif.g08.bks.cpg/sg14_16_cif.got.tgz:31830.got - 2010.06.03 17:49:19.
