data_PCOD9251105
_publ_section_title
;
Structure prediction by ZEFSAII (Michael W. Deem and Ramdas Pophale) SiO2 
 PCOD9251105
Probable space group: P 21/C
;
_chemical_formula_sum "Si O2"
_cell_formula_units_Z 28
_cell_length_a 23.275518
_cell_length_b 7.121546
_cell_length_c 17.442081
_cell_angle_alpha 90.000000
_cell_angle_beta 158.638057
_cell_angle_gamma 90.000000
_cell_volume 1053.128505
_symmetry_space_group_name_H-M "P 21/C"
_symmetry_group_IT_number 14
_symmetry_cell_setting 'monoclinic'
loop_
_space_group_symop_operation_xyz
x,y,z
-x,1/2+y,1/2-z
-x,-y,-z
x,1/2-y,1/2+z
loop_
_atom_site_type_symbol
_atom_site_label
_atom_site_fract_x
_atom_site_fract_y
_atom_site_fract_z
Si Si1 0.781671 0.291475 0.971969
Si Si2 0.540411 0.808184 0.509562
Si Si3 0.341792 0.940010 0.039326
Si Si4 0.310532 0.363444 0.970357
Si Si5 0.856597 0.131540 0.351341
Si Si6 0.029727 0.961962 0.908327
Si Si7 0.798134 0.644049 0.917946
O O1 0.616947 0.274034 0.721758
O O2 0.745248 0.183417 0.005138
O O3 0.817821 0.513937 0.016967
O O4 0.913235 0.173397 0.090308
O O5 0.653988 0.835949 0.576579
O O6 0.619706 0.700908 0.678514
O O7 0.500000 0.000000 0.500000
O O8 0.151088 0.472384 0.789678
O O9 0.528508 0.939394 0.290445
O O10 0.286218 0.154820 0.974156
O O11 0.896395 0.341536 0.428372
O O12 0.714279 0.129785 0.113619
O O13 0.822834 0.011438 0.384187
O O14 0.000000 0.000000 0.500000
O O15 0.100078 0.167963 0.973249
#
# Coordination Sequence:
#
# PCOD9251105 Si02
#       7
#     4   4   4   4   4   4   4
#     4  10  25  47  78 115 169 217 279 356 428 505
#     4  11  21  45  79 121 166 223 286 351 421 519
#     4  11  25  53  75 122 168 225 291 352 434 514
#     4  11  26  50  84 118 171 225 285 353 434 521
#     4  11  23  46  85 115 160 213 285 340 412 509
#     4  11  24  50  85 123 161 224 286 350 427 514
#     4  11  23  45  81 119 162 217 279 349 421 511
#
# _framework density 26.58745
#
# number of rings (size 3 to 8) (size 9 to 14) (size 15 to 20)
#    0.000    1.143    4.286    0.429    0.000    5.714 
#    5.143    4.286    3.143    0.000    0.000    0.000 
#    0.000    0.000    0.000    0.000    0.000    0.000 
#
# Total GULP energy -156830.794754 kJ/mol
# GULP energy per Si atom -5601.099813 kJ/mol
# Density = 2.652694 g / cm^3
# Si number density = 26.587450 Si / 1000 Ang^3
#
#
#
# Elastic Constant Matrix: (Units=GPa)
#
#
# Indices 1 2 3 4 5 6 
#
# 1 71.9226 62.9841 4.6405 0.0000 9.0421 0.0000
# 2 62.9841 219.6184 47.9304 0.0000 -2.1989 0.0000
# 3 4.6405 47.9304 88.4812 0.0000 8.5250 0.0000
# 4 0.0000 0.0000 0.0000 41.8026 0.0000 -1.0476
# 5 9.0421 -2.1989 8.5250 0.0000 32.0044 0.0000
# 6 0.0000 0.0000 0.0000 -1.0476 0.0000 48.9786
#
#
#
# Elastic Compliance Matrix: (Units=1/GPa)
#
#
# Indices 1 2 3 4 5 6 
#
# 1 0.020375 -0.006611 0.003193 0.000000 -0.007061 0.000000
# 2 -0.006611 0.007349 -0.003964 0.000000 0.003429 0.000000
# 3 0.003193 -0.003964 0.013748 0.000000 -0.004836 0.000000
# 4 0.000000 0.000000 0.000000 0.023935 0.000000 0.000512
# 5 -0.007061 0.003429 -0.004836 0.000000 0.034765 0.000000
# 6 0.000000 0.000000 0.000000 0.000512 0.000000 0.020428
#
#
# Mechanical properties :
#
#
# Convention : Reuss Voigt Hill
#
# Bulk Modulus (GPa) = 37.44397 67.90358 52.67377
# Shear Modulus (GPa) = 34.65826 42.18828 38.42327
#
# Velocity S-wave (km/s) = 3.61440 3.98776 3.80566
# Velocity P-wave (km/s) = 5.61537 6.84091 6.25821
#
# Compressibility (1/GPa) = 0.02670657
#
# Stress axis : x y z
#
# Youngs Moduli (GPa) = 49.08049 136.07673 72.73810
#
# Poissons Ratio (x) = 0.89957 -0.23224
# Poissons Ratio (y) = 0.32446 0.28837
# Poissons Ratio (z) = -0.15670 0.53948
#
# Static dielectric constant tensor:
#      x y z
#    x 2.328230 0.000000 -0.096940 
#    y 0.000000 1.746800 0.000000 
#    z -0.096940 0.000000 1.821490 
# 
# From -- ./inp_files/70071.got.cif
#   From: 2010.05.17/outbox.cif.g08.bks.cpg/sg14_36_cif.got.tgz:70071.got - 2010.06.03 17:49:19.
