data_PCOD9251950
_publ_section_title
;
Structure prediction by ZEFSAII (Michael W. Deem and Ramdas Pophale) SiO2 
 PCOD9251950
Probable space group: P 21/C
;
_chemical_formula_sum "Si O2"
_cell_formula_units_Z 24
_cell_length_a 17.945207
_cell_length_b 8.045927
_cell_length_c 19.541022
_cell_angle_alpha 90.000000
_cell_angle_beta 156.683475
_cell_angle_gamma 90.000000
_cell_volume 1116.757849
_symmetry_space_group_name_H-M "P 21/C"
_symmetry_group_IT_number 14
_symmetry_cell_setting 'monoclinic'
loop_
_space_group_symop_operation_xyz
x,y,z
-x,1/2+y,1/2-z
-x,-y,-z
x,1/2-y,1/2+z
loop_
_atom_site_type_symbol
_atom_site_label
_atom_site_fract_x
_atom_site_fract_y
_atom_site_fract_z
Si Si1 0.540121 0.232803 0.500005
Si Si2 0.336409 0.109615 0.199100
Si Si3 0.938219 0.390381 0.300909
Si Si4 0.409424 0.755870 0.700756
Si Si5 0.614024 0.903899 0.999998
Si Si6 0.992093 0.255869 0.200759
O O1 0.401752 0.139534 0.331231
O O2 0.739302 0.139542 0.668780
O O3 0.452889 0.270107 0.500007
O O4 0.578884 0.414297 0.499998
O O5 0.451112 0.233868 0.246136
O O6 0.393561 0.927402 0.219706
O O7 0.114823 0.131087 0.000005
O O8 0.954152 0.572596 0.280297
O O9 0.958855 0.266130 0.253876
O O10 0.202285 0.805338 0.499999
O O11 0.495941 0.872549 0.831907
O O12 0.832123 0.872547 0.168094
#
# Coordination Sequence:
#
# PCOD9251950 Si02
#       6
#     4   4   4   4   4   4
#     4  11  25  43  63  91 128 167 208 257 313 369
#     4  11  23  39  64  94 124 162 208 258 310 370
#     4  11  23  39  64  94 124 162 208 258 310 370
#     4  11  23  39  64  94 124 162 208 258 310 370
#     4  11  25  43  63  91 128 167 208 257 313 369
#     4  11  23  39  64  94 124 162 208 258 310 370
#
# _framework density 21.490783
#
# number of rings (size 3 to 8) (size 9 to 14) (size 15 to 20)
#    0.000    1.000    3.333    3.000    0.000    8.000 
#    0.000    6.667    0.000    0.000    0.000    0.000 
#    0.000    0.000    0.000    0.000    0.000    0.000 
#
# Total GULP energy -134414.683030 kJ/mol
# GULP energy per Si atom -5600.611793 kJ/mol
# Density = 2.144187 g / cm^3
# Si number density = 21.490783 Si / 1000 Ang^3
#
#
#
# Elastic Constant Matrix: (Units=GPa)
#
#
# Indices 1 2 3 4 5 6 
#
# 1 70.7000 6.5578 24.8833 0.0000 -11.8878 0.0000
# 2 6.5578 60.2643 46.3258 0.0000 3.1195 0.0000
# 3 24.8833 46.3258 146.7285 0.0000 17.8498 0.0000
# 4 0.0000 0.0000 0.0000 -273.6146 0.0000 -24.3679
# 5 -11.8878 3.1195 17.8498 0.0000 -50.4573 0.0000
# 6 0.0000 0.0000 0.0000 -24.3679 0.0000 36.8641
#
#
#
# Elastic Compliance Matrix: (Units=1/GPa)
#
#
# Indices 1 2 3 4 5 6 
#
# 1 0.014144 0.000181 -0.001967 0.000000 -0.004017 0.000000
# 2 0.000181 0.021856 -0.006798 0.000000 -0.001096 0.000000
# 3 -0.001967 -0.006798 0.008907 0.000000 0.003194 0.000000
# 4 0.000000 0.000000 0.000000 -0.003452 0.000000 -0.002282
# 5 -0.004017 -0.001096 0.003194 0.000000 -0.017810 0.000000
# 6 0.000000 0.000000 0.000000 -0.002282 0.000000 0.025619
#
#
# Mechanical properties :
#
#
# Convention : Reuss Voigt Hill
#
# Bulk Modulus (GPa) = 36.05023 48.13629 42.09326
# Shear Modulus (GPa) = 66.06895 -44.11319 10.97788
#
# Velocity S-wave (km/s) = 5.55065 -4.53554 2.26258
# Velocity P-wave (km/s) = 7.60859 2.23181 5.14343
#
# Compressibility (1/GPa) = 0.02773907
#
# Stress axis : x y z
#
# Youngs Moduli (GPa) = 70.69946 45.75356 112.27618
#
# Poissons Ratio (x) = -0.00828 0.22086
# Poissons Ratio (y) = -0.01279 0.76324
# Poissons Ratio (z) = 0.13908 0.31103
#
# Static dielectric constant tensor:
#      x y z
#    x 1.732400 0.000000 0.000280 
#    y 0.000000 1.809010 0.000000 
#    z 0.000280 0.000000 1.735930 
# 
# From -- ./inp_files/69819.got.cif
#   From: 2010.05.17/outbox.cif.g08.bks.cpg/sg14_35_cif.got.tgz:69819.got - 2010.06.03 17:49:19.
