data_PCOD9251533
_publ_section_title
;
Structure prediction by ZEFSAII (Michael W. Deem and Ramdas Pophale) SiO2 
 PCOD9251533
Probable space group: P 21/C
;
_chemical_formula_sum "Si O2"
_cell_formula_units_Z 24
_cell_length_a 10.125458
_cell_length_b 8.880046
_cell_length_c 13.332793
_cell_angle_alpha 90.000000
_cell_angle_beta 108.945006
_cell_angle_gamma 90.000000
_cell_volume 1133.872969
_symmetry_space_group_name_H-M "P 21/C"
_symmetry_group_IT_number 14
_symmetry_cell_setting 'monoclinic'
loop_
_space_group_symop_operation_xyz
x,y,z
-x,1/2+y,1/2-z
-x,-y,-z
x,1/2-y,1/2+z
loop_
_atom_site_type_symbol
_atom_site_label
_atom_site_fract_x
_atom_site_fract_y
_atom_site_fract_z
Si Si1 0.639735 0.559116 0.661377
Si Si2 0.153583 0.697591 0.997330
Si Si3 0.365475 0.696433 0.874397
Si Si4 0.674295 0.061519 0.848264
Si Si5 0.673332 0.734315 0.464349
Si Si6 0.864911 0.906038 0.387473
O O1 0.644687 0.377841 0.647222
O O2 0.482515 0.606768 0.654020
O O3 0.674020 0.638787 0.565509
O O4 0.751085 0.604581 0.772349
O O5 0.277016 0.657029 0.950499
O O6 0.008274 0.681196 0.901469
O O7 0.206608 0.853051 0.058953
O O8 0.126949 0.581961 0.082215
O O9 0.314160 0.606964 0.764377
O O10 0.530767 0.671335 0.927323
O O11 0.677382 0.885987 0.874445
O O12 0.804552 0.836933 0.475577
#
# Coordination Sequence:
#
# PCOD9251533 Si02
#       6
#     4   4   4   4   4   4
#     4  11  21  42  67  94 128 166 216 267 315 376
#     4  11  24  45  62  92 132 173 204 260 328 379
#     4  11  21  41  70  92 125 171 214 259 321 381
#     4  11  21  40  70  94 124 167 215 264 320 375
#     4  11  23  41  67  99 121 166 217 273 309 377
#     4  11  26  42  63  95 136 164 211 267 316 378
#
# _framework density 21.166391999999998
#
# number of rings (size 3 to 8) (size 9 to 14) (size 15 to 20)
#    0.000    1.000    6.667    1.000    0.000    4.000 
#    3.000    0.000    0.000    0.000    0.000    0.000 
#    0.000    0.000    0.000    0.000    0.000    0.000 
#
# Total GULP energy -134030.066006 kJ/mol
# GULP energy per Si atom -5584.586084 kJ/mol
# Density = 2.111822 g / cm^3
# Si number density = 21.166392 Si / 1000 Ang^3
#
#
#
# Elastic Constant Matrix: (Units=GPa)
#
#
# Indices 1 2 3 4 5 6 
#
# 1 100.6284 26.7544 2.0742 0.0000 16.8619 0.0000
# 2 26.7544 29.6487 8.8154 0.0000 10.4679 0.0000
# 3 2.0742 8.8154 56.7923 0.0000 2.7309 0.0000
# 4 0.0000 0.0000 0.0000 26.3445 0.0000 -6.3120
# 5 16.8619 10.4679 2.7309 0.0000 32.9580 0.0000
# 6 0.0000 0.0000 0.0000 -6.3120 0.0000 23.8073
#
#
#
# Elastic Compliance Matrix: (Units=1/GPa)
#
#
# Indices 1 2 3 4 5 6 
#
# 1 0.013516 -0.011423 0.001443 0.000000 -0.003406 0.000000
# 2 -0.011423 0.049325 -0.006794 0.000000 -0.009259 0.000000
# 3 0.001443 -0.006794 0.018616 0.000000 -0.000123 0.000000
# 4 0.000000 0.000000 0.000000 0.040533 0.000000 0.010747
# 5 -0.003406 -0.009259 -0.000123 0.000000 0.035036 0.000000
# 6 0.000000 0.000000 0.000000 0.010747 0.000000 0.044853
#
#
# Mechanical properties :
#
#
# Convention : Reuss Voigt Hill
#
# Bulk Modulus (GPa) = 20.87258 29.15081 25.01170
# Shear Modulus (GPa) = 19.88905 26.58364 23.23634
#
# Velocity S-wave (km/s) = 3.06870 3.54776 3.31689
# Velocity P-wave (km/s) = 4.73693 5.53031 5.14892
#
# Compressibility (1/GPa) = 0.04790974
#
# Stress axis : x y z
#
# Youngs Moduli (GPa) = 73.98878 20.27378 53.71787
#
# Poissons Ratio (x) = 0.23158 -0.07753
# Poissons Ratio (y) = 0.84514 0.36495
# Poissons Ratio (z) = -0.10678 0.13774
#
# Static dielectric constant tensor:
#      x y z
#    x 1.762370 0.000000 0.022100 
#    y 0.000000 1.780160 0.000000 
#    z 0.022100 0.000000 1.757580 
# 
# From -- ./inp_files/38893.got.cif
#   From: 2010.05.17/outbox.cif.g08.bks.cpg/sg14_20_cif.got.tgz:38893.got - 2010.06.03 17:49:19.
