data_PCOD9251088
_publ_section_title
;
Structure prediction by ZEFSAII (Michael W. Deem and Ramdas Pophale) SiO2 
 PCOD9251088
Probable space group: P 21/C
;
_chemical_formula_sum "Si O2"
_cell_formula_units_Z 20
_cell_length_a 5.310568
_cell_length_b 12.095312
_cell_length_c 11.626658
_cell_angle_alpha 90.000000
_cell_angle_beta 104.012120
_cell_angle_gamma 90.000000
_cell_volume 724.593027
_symmetry_space_group_name_H-M "P 21/C"
_symmetry_group_IT_number 14
_symmetry_cell_setting 'monoclinic'
loop_
_space_group_symop_operation_xyz
x,y,z
-x,1/2+y,1/2-z
-x,-y,-z
x,1/2-y,1/2+z
loop_
_atom_site_type_symbol
_atom_site_label
_atom_site_fract_x
_atom_site_fract_y
_atom_site_fract_z
Si Si1 0.568056 0.095166 0.597054
Si Si2 0.833771 0.594447 0.545190
Si Si3 0.671255 0.711565 0.324223
Si Si4 0.796867 0.305290 0.907939
Si Si5 0.987354 0.462428 0.753126
O O1 0.335331 0.164235 0.627799
O O2 0.719978 0.180282 0.531346
O O3 0.500000 0.000000 0.500000
O O4 0.758339 0.039089 0.709473
O O5 0.618519 0.635327 0.431522
O O6 0.000000 0.500000 0.500000
O O7 0.006275 0.703958 0.583504
O O8 0.781114 0.535910 0.660650
O O9 0.455497 0.710990 0.200863
O O10 0.923193 0.651593 0.299409
O O11 0.909583 0.419378 0.869294
#
# Coordination Sequence:
#
# PCOD9251088 Si02
#       5
#     4   4   4   4   4
#     4  12  25  48  73 108 144 193 244 299 369 429
#     4  10  25  47  71 106 145 188 245 298 366 433
#     4  11  26  48  73 105 148 187 246 301 367 436
#     4  12  26  47  74 108 147 190 246 303 365 445
#     4  11  25  49  74 108 146 195 243 305 367 439
#
# _framework density 27.601700000000001
#
# number of rings (size 3 to 8) (size 9 to 14) (size 15 to 20)
#    0.000    0.800    4.000    1.800    5.600    2.400 
#    3.600    0.000    0.000    0.000    0.000    0.000 
#    0.000    0.000    0.000    0.000    0.000    0.000 
#
# Total GULP energy -112047.714326 kJ/mol
# GULP energy per Si atom -5602.385716 kJ/mol
# Density = 2.753888 g / cm^3
# Si number density = 27.601700 Si / 1000 Ang^3
#
#
#
# Elastic Constant Matrix: (Units=GPa)
#
#
# Indices 1 2 3 4 5 6 
#
# 1 52.5648 38.7472 27.1357 0.0000 -15.0531 0.0000
# 2 38.7472 157.4390 63.1637 0.0000 -14.0081 0.0000
# 3 27.1357 63.1637 121.7476 0.0000 -1.0304 0.0000
# 4 0.0000 0.0000 0.0000 76.9287 0.0000 2.3354
# 5 -15.0531 -14.0081 -1.0304 0.0000 35.2299 0.0000
# 6 0.0000 0.0000 0.0000 2.3354 0.0000 57.6204
#
#
#
# Elastic Compliance Matrix: (Units=1/GPa)
#
#
# Indices 1 2 3 4 5 6 
#
# 1 0.026840 -0.004267 -0.003687 0.000000 0.009664 0.000000
# 2 -0.004267 0.009045 -0.003728 0.000000 0.001665 0.000000
# 3 -0.003687 -0.003728 0.010946 0.000000 -0.002737 0.000000
# 4 0.000000 0.000000 0.000000 0.013015 0.000000 -0.000528
# 5 0.009664 0.001665 -0.002737 0.000000 0.033096 0.000000
# 6 0.000000 0.000000 0.000000 -0.000528 0.000000 0.017376
#
#
# Mechanical properties :
#
#
# Convention : Reuss Voigt Hill
#
# Bulk Modulus (GPa) = 42.60913 65.53828 54.07370
# Shear Modulus (GPa) = 35.33455 47.46945 41.40200
#
# Velocity S-wave (km/s) = 3.58181 4.15155 3.87716
# Velocity P-wave (km/s) = 5.70758 6.83932 6.29892
#
# Compressibility (1/GPa) = 0.02346915
#
# Stress axis : x y z
#
# Youngs Moduli (GPa) = 37.25792 110.55387 91.35501
#
# Poissons Ratio (x) = 0.47168 0.33682
# Poissons Ratio (y) = 0.15896 0.34055
# Poissons Ratio (z) = 0.13737 0.41212
#
# Static dielectric constant tensor:
#      x y z
#    x 2.216340 0.000000 -0.055060 
#    y 0.000000 2.096640 0.000000 
#    z -0.055060 0.000000 2.268400 
# 
# From -- ./inp_files/37061.got.cif
#   From: 2010.05.17/outbox.cif.g08.bks.cpg/sg14_19_cif.got.tgz:37061.got - 2010.06.03 17:49:19.
