data_PCOD9251458
_publ_section_title
;
Structure prediction by ZEFSAII (Michael W. Deem and Ramdas Pophale) SiO2 
 PCOD9251458
Probable space group: P 21/C
;
_chemical_formula_sum "Si O2"
_cell_formula_units_Z 32
_cell_length_a 10.077667
_cell_length_b 11.666497
_cell_length_c 31.153223
_cell_angle_alpha 90.000000
_cell_angle_beta 156.406959
_cell_angle_gamma 90.000000
_cell_volume 1465.957867
_symmetry_space_group_name_H-M "P 21/C"
_symmetry_group_IT_number 14
_symmetry_cell_setting 'monoclinic'
loop_
_space_group_symop_operation_xyz
x,y,z
-x,1/2+y,1/2-z
-x,-y,-z
x,1/2-y,1/2+z
loop_
_atom_site_type_symbol
_atom_site_label
_atom_site_fract_x
_atom_site_fract_y
_atom_site_fract_z
Si Si1 0.209345 0.644968 0.558107
Si Si2 0.005634 0.070512 0.274345
Si Si3 0.830914 0.813003 0.191876
Si Si4 0.725951 0.657989 0.912012
Si Si5 0.236978 0.522582 0.003792
Si Si6 0.890821 0.005517 0.892861
Si Si7 0.788171 0.406975 0.805224
Si Si8 0.015705 0.663469 0.654952
O O1 0.523552 0.710163 0.632222
O O2 0.278902 0.599814 0.626343
O O3 0.868670 0.715474 0.459995
O O4 0.144283 0.551015 0.501505
O O5 0.940840 0.197616 0.234407
O O6 0.810983 0.073193 0.261236
O O7 0.402508 0.071411 0.399507
O O8 0.939541 0.945070 0.234196
O O9 0.770221 0.818862 0.122324
O O10 0.713436 0.591970 0.953156
O O11 0.374234 0.646923 0.784322
O O12 0.004917 0.600244 0.964841
O O13 0.024535 0.495605 0.899032
O O14 0.045297 0.062172 0.896608
O O15 0.590140 0.920607 0.791586
O O16 0.937608 0.281272 0.856902
#
# Coordination Sequence:
#
# PCOD9251458 Si02
#       8
#     4   4   4   4   4   4   4   4
#     4  11  23  43  65  93 129 177 216 266 327 397
#     4  11  23  43  66  97 131 177 214 276 327 392
#     4  11  24  43  69  93 136 172 223 268 330 388
#     4  11  21  37  66  92 124 166 215 270 324 380
#     4  11  22  38  64  94 125 166 218 264 324 390
#     4  11  23  39  66  90 128 170 221 262 327 388
#     4  11  22  39  63  92 130 166 219 270 326 389
#     4  11  23  42  62  94 132 167 214 280 325 383
#
# _framework density 21.828731000000001
#
# number of rings (size 3 to 8) (size 9 to 14) (size 15 to 20)
#    0.000    1.000    6.250    1.125    0.000    0.500 
#    4.500    1.250    0.000    0.000    0.000    0.000 
#    0.000    0.000    0.000    0.000    0.000    0.000 
#
# Total GULP energy -178476.581559 kJ/mol
# GULP energy per Si atom -5577.393174 kJ/mol
# Density = 2.177905 g / cm^3
# Si number density = 21.828731 Si / 1000 Ang^3
#
#
#
# Elastic Constant Matrix: (Units=GPa)
#
#
# Indices 1 2 3 4 5 6 
#
# 1 48.8391 10.9934 -6.4028 0.0000 12.0376 0.0000
# 2 10.9934 94.6009 -6.5703 0.0000 -7.5786 0.0000
# 3 -6.4028 -6.5703 31.4840 0.0000 5.2312 0.0000
# 4 0.0000 0.0000 0.0000 27.8177 0.0000 1.8754
# 5 12.0376 -7.5786 5.2312 0.0000 21.0205 0.0000
# 6 0.0000 0.0000 0.0000 1.8754 0.0000 29.8100
#
#
#
# Elastic Compliance Matrix: (Units=1/GPa)
#
#
# Indices 1 2 3 4 5 6 
#
# 1 0.027095 -0.004125 0.007797 0.000000 -0.018944 0.000000
# 2 -0.004125 0.011600 0.000516 0.000000 0.006416 0.000000
# 3 0.007797 0.000516 0.035640 0.000000 -0.013149 0.000000
# 4 0.000000 0.000000 0.000000 0.036101 0.000000 -0.002271
# 5 -0.018944 0.006416 -0.013149 0.000000 0.064006 0.000000
# 6 0.000000 0.000000 0.000000 -0.002271 0.000000 0.033689
#
#
# Mechanical properties :
#
#
# Convention : Reuss Voigt Hill
#
# Bulk Modulus (GPa) = 12.09018 18.99607 15.54313
# Shear Modulus (GPa) = 21.99488 27.52323 24.75905
#
# Velocity S-wave (km/s) = 3.17773 3.55473 3.37150
# Velocity P-wave (km/s) = 4.36058 5.05661 4.72144
#
# Compressibility (1/GPa) = 0.08271172
#
# Stress axis : x y z
#
# Youngs Moduli (GPa) = 36.90688 86.20790 28.05818
#
# Poissons Ratio (x) = 0.35559 -0.21877
# Poissons Ratio (y) = 0.15223 -0.01447
# Poissons Ratio (z) = -0.28777 -0.04447
#
# Static dielectric constant tensor:
#      x y z
#    x 1.763550 0.000000 0.022390 
#    y 0.000000 1.895010 0.000000 
#    z 0.022390 0.000000 1.775870 
# 
# From -- ./inp_files/40362.got.cif
#   From: 2010.05.17/outbox.cif.g08.bks.cpg/sg14_21_cif.got.tgz:40362.got - 2010.06.03 17:49:19.
