data_PCOD9251865
_publ_section_title
;
Structure prediction by ZEFSAII (Michael W. Deem and Ramdas Pophale) SiO2 
 PCOD9251865
Probable space group: P 21/C
;
_chemical_formula_sum "Si O2"
_cell_formula_units_Z 30
_cell_length_a 11.294004
_cell_length_b 8.712125
_cell_length_c 13.977694
_cell_angle_alpha 90.000000
_cell_angle_beta 103.484559
_cell_angle_gamma 90.000000
_cell_volume 1337.417994
_symmetry_space_group_name_H-M "P 21/C"
_symmetry_group_IT_number 14
_symmetry_cell_setting 'monoclinic'
loop_
_space_group_symop_operation_xyz
x,y,z
-x,1/2+y,1/2-z
-x,-y,-z
x,1/2-y,1/2+z
loop_
_atom_site_type_symbol
_atom_site_label
_atom_site_fract_x
_atom_site_fract_y
_atom_site_fract_z
Si Si1 0.063714 0.683339 0.368785
Si Si2 0.500000 0.500000 0.500000
Si Si3 0.315612 0.520185 0.022521
Si Si4 0.657366 0.175697 0.847655
Si Si5 0.274463 0.026537 0.987451
Si Si6 0.921743 0.367737 0.317066
Si Si7 0.546020 0.177355 0.618371
Si Si8 0.099063 0.202982 0.495239
O O1 0.983562 0.534493 0.324451
O O2 0.986038 0.783043 0.428559
O O3 0.183372 0.604961 0.436416
O O4 0.097942 0.789377 0.287729
O O5 0.628715 0.594357 0.566853
O O6 0.544196 0.343426 0.571008
O O7 0.329601 0.662711 0.097531
O O8 0.414348 0.398130 0.077750
O O9 0.358284 0.575534 0.925627
O O10 0.180610 0.447842 0.999213
O O11 0.619752 0.052106 0.923909
O O12 0.793305 0.121948 0.845984
O O13 0.580500 0.178902 0.736942
O O14 0.195463 0.157380 0.019470
O O15 0.012536 0.253940 0.391623
#
# Coordination Sequence:
#
# PCOD9251865 Si02
#       8
#     4   2   4   4   4   4   4   4
#     4  11  24  45  65 104 138 177 233 277 341 412
#     4  12  22  46  72  90 132 188 212 284 338 394
#     4  11  27  45  68 104 134 179 228 283 340 401
#     4  12  25  44  68  98 136 177 226 276 337 407
#     4  11  22  45  70  95 138 181 224 276 345 397
#     4  11  25  41  70 101 132 183 225 280 341 402
#     4  11  27  46  69 101 138 175 234 281 337 407
#     4  11  23  46  70  97 141 180 224 283 338 409
#
# _framework density 22.431283000000001
#
# number of rings (size 3 to 8) (size 9 to 14) (size 15 to 20)
#    0.000    0.800    5.333    1.600    5.600    0.533 
#    0.000    1.333    0.000    0.000    0.000    0.000 
#    0.000    0.000    0.000    0.000    0.000    0.000 
#
# Total GULP energy -167460.445038 kJ/mol
# GULP energy per Si atom -5582.014835 kJ/mol
# Density = 2.238023 g / cm^3
# Si number density = 22.431283 Si / 1000 Ang^3
#
#
#
# Elastic Constant Matrix: (Units=GPa)
#
#
# Indices 1 2 3 4 5 6 
#
# 1 118.2158 39.1172 30.5590 0.0000 -4.1045 0.0000
# 2 39.1172 81.2291 45.2882 0.0000 11.1447 0.0000
# 3 30.5590 45.2882 106.8489 0.0000 -4.6862 0.0000
# 4 0.0000 0.0000 0.0000 22.9126 0.0000 8.6995
# 5 -4.1045 11.1447 -4.6862 0.0000 22.2065 0.0000
# 6 0.0000 0.0000 0.0000 8.6995 0.0000 54.1154
#
#
#
# Elastic Compliance Matrix: (Units=1/GPa)
#
#
# Indices 1 2 3 4 5 6 
#
# 1 0.010543 -0.005411 -0.000522 0.000000 0.004554 0.000000
# 2 -0.005411 0.021228 -0.008036 0.000000 -0.013349 0.000000
# 3 -0.000522 -0.008036 0.013209 0.000000 0.006724 0.000000
# 4 0.000000 0.000000 0.000000 0.046481 0.000000 -0.007472
# 5 0.004554 -0.013349 0.006724 0.000000 0.053992 0.000000
# 6 0.000000 0.000000 0.000000 -0.007472 0.000000 0.019680
#
#
# Mechanical properties :
#
#
# Convention : Reuss Voigt Hill
#
# Bulk Modulus (GPa) = 58.67497 59.58028 59.12763
# Shear Modulus (GPa) = 25.15709 32.60221 28.87965
#
# Velocity S-wave (km/s) = 3.35254 3.81652 3.59203
# Velocity P-wave (km/s) = 6.41876 6.78528 6.60456
#
# Compressibility (1/GPa) = 0.01704304
#
# Stress axis : x y z
#
# Youngs Moduli (GPa) = 94.85378 47.10737 75.70500
#
# Poissons Ratio (x) = 0.25488 0.03953
# Poissons Ratio (y) = 0.51321 0.60834
# Poissons Ratio (z) = 0.04953 0.37854
#
# Static dielectric constant tensor:
#      x y z
#    x 2.043490 0.000000 -0.093780 
#    y 0.000000 1.834690 0.000000 
#    z -0.093780 0.000000 1.885450 
# 
# From -- ./inp_files/43495.got.cif
#   From: 2010.05.17/outbox.cif.g08.bks.cpg/sg14_22_cif.got.tgz:43495.got - 2010.06.03 17:49:19.
