data_PCOD9251022
_publ_section_title
;
Structure prediction by ZEFSAII (Michael W. Deem and Ramdas Pophale) SiO2 
 PCOD9251022
Probable space group: P 21/C
;
_chemical_formula_sum "Si O2"
_cell_formula_units_Z 24
_cell_length_a 6.763357
_cell_length_b 18.545461
_cell_length_c 7.627089
_cell_angle_alpha 90.000000
_cell_angle_beta 111.526967
_cell_angle_gamma 90.000000
_cell_volume 889.930494
_symmetry_space_group_name_H-M "P 21/C"
_symmetry_group_IT_number 14
_symmetry_cell_setting 'monoclinic'
loop_
_space_group_symop_operation_xyz
x,y,z
-x,1/2+y,1/2-z
-x,-y,-z
x,1/2-y,1/2+z
loop_
_atom_site_type_symbol
_atom_site_label
_atom_site_fract_x
_atom_site_fract_y
_atom_site_fract_z
Si Si1 0.862532 0.120380 0.538060
Si Si2 0.577430 0.255633 0.386949
Si Si3 0.489160 0.465613 0.770920
Si Si4 0.342133 0.332261 0.544157
Si Si5 0.894066 0.887800 0.726624
Si Si6 0.802210 0.094952 0.896444
O O1 0.703576 0.187833 0.511306
O O2 0.722522 0.054553 0.411106
O O3 0.429265 0.086134 0.085503
O O4 0.937045 0.100136 0.758101
O O5 0.345498 0.290966 0.364141
O O6 0.530351 0.217660 0.185070
O O7 0.720288 0.326047 0.418389
O O8 0.326828 0.430232 0.861094
O O9 0.974484 0.637375 0.065670
O O10 0.397779 0.543978 0.710006
O O11 0.162280 0.331816 0.633923
O O12 0.066826 0.933772 0.893173
#
# Coordination Sequence:
#
# PCOD9251022 Si02
#       6
#     4   4   4   4   4   4
#     4  11  24  46  70 100 138 178 229 279 335 403
#     4  11  21  43  66  94 134 179 227 276 334 406
#     4   9  23  47  65 103 142 174 220 288 334 402
#     4   9  22  43  61  93 139 171 217 285 332 395
#     4  10  25  45  68  99 141 171 227 287 330 405
#     4  12  23  43  76 101 129 188 231 264 352 402
#
# _framework density 26.968399999999999
#
# number of rings (size 3 to 8) (size 9 to 14) (size 15 to 20)
#    1.000    0.667    1.667    3.000    0.000    4.667 
#    6.000    0.000    0.000    0.000    0.000    0.000 
#    0.000    0.000    0.000    0.000    0.000    0.000 
#
# Total GULP energy -133775.594474 kJ/mol
# GULP energy per Si atom -5573.983103 kJ/mol
# Density = 2.690702 g / cm^3
# Si number density = 26.968400 Si / 1000 Ang^3
#
#
#
# Elastic Constant Matrix: (Units=GPa)
#
#
# Indices 1 2 3 4 5 6 
#
# 1 88.5052 9.1724 32.1209 0.0000 -44.4577 0.0000
# 2 9.1724 66.7150 10.4297 0.0000 -12.1326 0.0000
# 3 32.1209 10.4297 91.2764 0.0000 -40.7601 0.0000
# 4 0.0000 0.0000 0.0000 33.9668 0.0000 -10.3064
# 5 -44.4577 -12.1326 -40.7601 0.0000 49.8728 0.0000
# 6 0.0000 0.0000 0.0000 -10.3064 0.0000 -2.3772
#
#
#
# Elastic Compliance Matrix: (Units=1/GPa)
#
#
# Indices 1 2 3 4 5 6 
#
# 1 0.020607 0.000519 0.001493 0.000000 0.019716 0.000000
# 2 0.000519 0.015697 -0.000101 0.000000 0.004198 0.000000
# 3 0.001493 -0.000101 0.017362 0.000000 0.015496 0.000000
# 4 0.000000 0.000000 0.000000 0.012715 0.000000 -0.055124
# 5 0.019716 0.004198 0.015496 0.000000 0.051312 0.000000
# 6 0.000000 0.000000 0.000000 -0.055124 0.000000 -0.181671
#
#
# Mechanical properties :
#
#
# Convention : Reuss Voigt Hill
#
# Bulk Modulus (GPa) = 17.39525 38.88250 28.13888
# Shear Modulus (GPa) = -102.79931 29.27739 -36.76096
#
# Velocity S-wave (km/s) = -6.18071 3.29845 -3.69604
# Velocity P-wave (km/s) = 6.66863 5.38103 2.78525
#
# Compressibility (1/GPa) = 0.05748696
#
# Stress axis : x y z
#
# Youngs Moduli (GPa) = 48.52791 63.70584 57.59861
#
# Poissons Ratio (x) = -0.03306 -0.08601
# Poissons Ratio (y) = -0.02518 0.00584
# Poissons Ratio (z) = -0.07247 0.00646
#
# Static dielectric constant tensor:
#      x y z
#    x 2.281200 0.000000 -0.125690 
#    y 0.000000 -1.645100 0.000000 
#    z -0.125690 0.000000 2.278770 
# 
# From -- ./inp_files/9767.got.cif
#   From: 2010.05.17/outbox.cif.g08.bks.cpg/sg14_5_cif.got.tgz:9767.got - 2010.06.03 17:49:19.
