data_PCOD9251390
_publ_section_title
;
Structure prediction by ZEFSAII (Michael W. Deem and Ramdas Pophale) SiO2 
 PCOD9251390
Probable space group: P 21/C
;
_chemical_formula_sum "Si O2"
_cell_formula_units_Z 18
_cell_length_a 8.144446
_cell_length_b 9.289627
_cell_length_c 8.350787
_cell_angle_alpha 90.000000
_cell_angle_beta 79.119516
_cell_angle_gamma 90.000000
_cell_volume 620.453044
_symmetry_space_group_name_H-M "P 21/C"
_symmetry_group_IT_number 14
_symmetry_cell_setting 'monoclinic'
loop_
_space_group_symop_operation_xyz
x,y,z
-x,1/2+y,1/2-z
-x,-y,-z
x,1/2-y,1/2+z
loop_
_atom_site_type_symbol
_atom_site_label
_atom_site_fract_x
_atom_site_fract_y
_atom_site_fract_z
Si Si1 0.808672 0.165390 0.560228
Si Si2 0.528526 0.114586 0.217500
Si Si3 0.957406 0.844780 0.215830
Si Si4 0.291049 0.308686 0.489951
Si Si5 0.500000 0.000000 0.500000
O O1 0.691247 0.292922 0.651882
O O2 0.936396 0.234053 0.410828
O O3 0.905764 0.086015 0.688935
O O4 0.689252 0.066365 0.478783
O O5 0.415817 0.184937 0.388351
O O6 0.413522 0.109195 0.084919
O O7 0.534467 0.959243 0.299114
O O8 0.835696 0.767279 0.363724
O O9 0.830621 0.901569 0.102259
#
# Coordination Sequence:
#
# PCOD9251390 Si02
#       5
#     4   4   4   4   2
#     4  11  20  40  65  92 124 164 209 255 305 371
#     4  11  20  40  65  92 124 164 209 255 305 371
#     4   9  19  37  66  87 125 168 198 258 318 354
#     4   9  19  37  66  87 125 168 198 258 318 354
#     4  12  24  36  70  96 124 160 216 252 320 358
#
# _framework density 29.011061999999999
#
# number of rings (size 3 to 8) (size 9 to 14) (size 15 to 20)
#    0.000    1.778    4.444    0.000    0.000    0.000 
#    0.000   15.556    0.000    0.000    0.000    0.000 
#    0.000    0.000    0.000    0.000    0.000    0.000 
#
# Total GULP energy -100389.282142 kJ/mol
# GULP energy per Si atom -5577.182341 kJ/mol
# Density = 2.894503 g / cm^3
# Si number density = 29.011062 Si / 1000 Ang^3
#
#
#
# Elastic Constant Matrix: (Units=GPa)
#
#
# Indices 1 2 3 4 5 6 
#
# 1 166.0957 32.1574 89.6178 0.0000 12.8505 0.0000
# 2 32.1574 77.6924 41.0855 0.0000 -28.2274 0.0000
# 3 89.6178 41.0855 138.6626 0.0000 12.1639 0.0000
# 4 0.0000 0.0000 0.0000 22.6495 0.0000 -10.7729
# 5 12.8505 -28.2274 12.1639 0.0000 105.7243 0.0000
# 6 0.0000 0.0000 0.0000 -10.7729 0.0000 37.4236
#
#
#
# Elastic Compliance Matrix: (Units=1/GPa)
#
#
# Indices 1 2 3 4 5 6 
#
# 1 0.009343 -0.001192 -0.005615 0.000000 -0.000808 0.000000
# 2 -0.001192 0.018061 -0.005068 0.000000 0.005550 0.000000
# 3 -0.005615 -0.005068 0.012527 0.000000 -0.002112 0.000000
# 4 0.000000 0.000000 0.000000 0.051155 0.000000 0.014726
# 5 -0.000808 0.005550 -0.002112 0.000000 0.011282 0.000000
# 6 0.000000 0.000000 0.000000 0.014726 0.000000 0.030960
#
#
# Mechanical properties :
#
#
# Convention : Reuss Voigt Hill
#
# Bulk Modulus (GPa) = 61.79331 78.68578 70.23954
# Shear Modulus (GPa) = 30.77456 47.79881 39.28669
#
# Velocity S-wave (km/s) = 3.26051 4.06348 3.68393
# Velocity P-wave (km/s) = 5.95992 7.01408 6.50838
#
# Compressibility (1/GPa) = 0.01618298
#
# Stress axis : x y z
#
# Youngs Moduli (GPa) = 107.02955 55.36741 79.82454
#
# Poissons Ratio (x) = 0.06597 0.44818
# Poissons Ratio (y) = 0.12753 0.40457
# Poissons Ratio (z) = 0.60093 0.28062
#
# Static dielectric constant tensor:
#      x y z
#    x 2.199300 0.000000 -0.261510 
#    y 0.000000 1.698590 0.000000 
#    z -0.261510 0.000000 1.850450 
# 
# From -- ./inp_files/7457.got.cif
#   From: 2010.05.17/outbox.cif.g08.bks.cpg/sg14_4_cif.got.tgz:7457.got - 2010.06.03 17:49:19.
