data_PCOD9251319
_publ_section_title
;
Structure prediction by ZEFSAII (Michael W. Deem and Ramdas Pophale) SiO2 
 PCOD9251319
Probable space group: P 21/C
;
_chemical_formula_sum "Si O2"
_cell_formula_units_Z 32
_cell_length_a 10.031916
_cell_length_b 13.124483
_cell_length_c 25.650535
_cell_angle_alpha 90.000000
_cell_angle_beta 153.279602
_cell_angle_gamma 90.000000
_cell_volume 1518.534214
_symmetry_space_group_name_H-M "P 21/C"
_symmetry_group_IT_number 14
_symmetry_cell_setting 'monoclinic'
loop_
_space_group_symop_operation_xyz
x,y,z
-x,1/2+y,1/2-z
-x,-y,-z
x,1/2-y,1/2+z
loop_
_atom_site_type_symbol
_atom_site_label
_atom_site_fract_x
_atom_site_fract_y
_atom_site_fract_z
Si Si1 0.551156 0.439632 0.723832
Si Si2 0.208353 0.555166 0.686057
Si Si3 0.433627 0.458158 0.874856
Si Si4 0.064569 0.449063 0.225826
Si Si5 0.149834 0.709512 0.934121
Si Si6 0.348806 0.229384 0.652328
Si Si7 0.950600 0.583934 0.027697
Si Si8 0.378749 0.937720 0.007056
O O1 0.374711 0.527110 0.690911
O O2 0.769723 0.477996 0.756740
O O3 0.349462 0.347050 0.638500
O O4 0.750281 0.392742 0.839325
O O5 0.323339 0.488615 0.777305
O O6 0.332102 0.670178 0.737809
O O7 0.874212 0.516190 0.560967
O O8 0.172174 0.488882 0.822503
O O9 0.586152 0.348674 0.940852
O O10 0.707950 0.534874 0.980570
O O11 0.335650 0.415448 0.357431
O O12 0.917171 0.358238 0.140674
O O13 0.852608 0.710597 0.866466
O O14 0.231897 0.825916 0.948219
O O15 0.175216 0.179115 0.544687
O O16 0.000000 0.500000 0.000000
O O17 0.500000 0.000000 0.000000
#
# Coordination Sequence:
#
# PCOD9251319 Si02
#       8
#     4   4   4   4   4   4   4   4
#     4  12  23  42  72 104 136 176 241 296 335 423
#     4  11  22  47  69  97 149 184 229 284 356 408
#     4  11  22  45  74  99 139 183 232 297 341 421
#     4  12  27  46  71 108 138 178 242 290 346 419
#     4  12  24  45  76 103 130 193 245 277 353 428
#     4  11  23  41  71 107 135 189 235 287 361 410
#     4  11  19  41  69  96 137 179 231 291 343 414
#     4  12  29  48  67 101 153 186 223 295 363 423
#
# _framework density 21.072953999999999
#
# number of rings (size 3 to 8) (size 9 to 14) (size 15 to 20)
#    0.000    0.500    8.750    0.375    1.750    3.500 
#    4.500    0.000    0.000    0.000    0.000    0.000 
#    0.000    0.000    0.000    0.000    0.000    0.000 
#
# Total GULP energy -178432.375474 kJ/mol
# GULP energy per Si atom -5576.011734 kJ/mol
# Density = 2.102499 g / cm^3
# Si number density = 21.072954 Si / 1000 Ang^3
#
#
#
# Elastic Constant Matrix: (Units=GPa)
#
#
# Indices 1 2 3 4 5 6 
#
# 1 122.1100 31.8843 9.8980 0.0000 28.2150 0.0000
# 2 31.8843 71.6583 5.9106 0.0000 -3.3215 0.0000
# 3 9.8980 5.9106 46.1539 0.0000 11.6135 0.0000
# 4 0.0000 0.0000 0.0000 26.8892 0.0000 1.0223
# 5 28.2150 -3.3215 11.6135 0.0000 32.8814 0.0000
# 6 0.0000 0.0000 0.0000 1.0223 0.0000 20.0583
#
#
#
# Elastic Compliance Matrix: (Units=1/GPa)
#
#
# Indices 1 2 3 4 5 6 
#
# 1 0.012394 -0.006141 0.001054 0.000000 -0.011628 0.000000
# 2 -0.006141 0.017302 -0.002924 0.000000 0.008050 0.000000
# 3 0.001054 -0.002924 0.024274 0.000000 -0.009774 0.000000
# 4 0.000000 0.000000 0.000000 0.037262 0.000000 -0.001899
# 5 -0.011628 0.008050 -0.009774 0.000000 0.044655 0.000000
# 6 0.000000 0.000000 0.000000 -0.001899 0.000000 0.049951
#
#
# Mechanical properties :
#
#
# Convention : Reuss Voigt Hill
#
# Bulk Modulus (GPa) = 26.35143 37.25645 31.80394
# Shear Modulus (GPa) = 23.30903 28.78109 26.04506
#
# Velocity S-wave (km/s) = 3.32943 3.69966 3.51942
# Velocity P-wave (km/s) = 5.22610 5.99734 5.62496
#
# Compressibility (1/GPa) = 0.03794861
#
# Stress axis : x y z
#
# Youngs Moduli (GPa) = 80.68423 57.79777 41.19582
#
# Poissons Ratio (x) = 0.35491 -0.04343
# Poissons Ratio (y) = 0.49545 0.12047
# Poissons Ratio (z) = -0.08506 0.16902
#
# Static dielectric constant tensor:
#      x y z
#    x 1.767030 0.000000 -0.018480 
#    y 0.000000 1.834110 0.000000 
#    z -0.018480 0.000000 1.830590 
# 
# From -- ./inp_files/72456.got.cif
#   From: 2010.05.17/outbox.cif.g08.bks.cpg/sg14_37_cif.got.tgz:72456.got - 2010.06.03 17:49:19.
