data_PCOD9251899
_publ_section_title
;
Structure prediction by ZEFSAII (Michael W. Deem and Ramdas Pophale) SiO2 
 PCOD9251899
Probable space group: P 21/C
;
_chemical_formula_sum "Si O2"
_cell_formula_units_Z 28
_cell_length_a 9.527131
_cell_length_b 10.978815
_cell_length_c 13.067420
_cell_angle_alpha 90.000000
_cell_angle_beta 65.562384
_cell_angle_gamma 90.000000
_cell_volume 1244.358583
_symmetry_space_group_name_H-M "P 21/C"
_symmetry_group_IT_number 14
_symmetry_cell_setting 'monoclinic'
loop_
_space_group_symop_operation_xyz
x,y,z
-x,1/2+y,1/2-z
-x,-y,-z
x,1/2-y,1/2+z
loop_
_atom_site_type_symbol
_atom_site_label
_atom_site_fract_x
_atom_site_fract_y
_atom_site_fract_z
Si Si1 0.604019 0.314331 0.045207
Si Si2 0.126543 0.592190 0.731418
Si Si3 0.085199 0.938650 0.570572
Si Si4 0.202225 0.673454 0.336376
Si Si5 0.342354 0.420525 0.263570
Si Si6 0.548206 0.097384 0.901434
Si Si7 0.006127 0.160140 0.925082
O O1 0.688852 0.238845 0.111543
O O2 0.446306 0.366671 0.140917
O O3 0.730194 0.421315 0.985936
O O4 0.576874 0.224263 0.955904
O O5 0.137588 0.727049 0.776883
O O6 0.297525 0.545218 0.700158
O O7 0.984870 0.515743 0.816186
O O8 0.111965 0.594955 0.614987
O O9 0.023166 0.802236 0.585074
O O10 0.000000 0.000000 0.500000
O O11 0.302592 0.563599 0.262107
O O12 0.051073 0.628800 0.444229
O O13 0.429562 0.394823 0.344474
O O14 0.175665 0.363470 0.334020
O O15 0.500000 0.000000 0.000000
#
# Coordination Sequence:
#
# PCOD9251899 Si02
#       7
#     4   4   4   4   4   4   4
#     4  11  24  45  69 111 141 186 242 297 359 429
#     4  12  24  46  76  95 144 197 228 300 358 419
#     4  11  22  46  73  97 140 189 241 287 352 423
#     4  11  23  48  70 101 147 184 241 294 354 427
#     4  12  26  44  74 106 147 186 233 302 362 425
#     4  12  24  45  72 103 147 190 235 296 362 434
#     4  11  26  44  70 109 136 188 247 286 360 429
#
# _framework density 22.501553999999999
#
# number of rings (size 3 to 8) (size 9 to 14) (size 15 to 20)
#    0.000    0.571    8.571    0.429    4.000    2.286 
#    0.000    1.429    0.000    0.000    0.000    0.000 
#    0.000    0.000    0.000    0.000    0.000    0.000 
#
# Total GULP energy -156414.563912 kJ/mol
# GULP energy per Si atom -5586.234425 kJ/mol
# Density = 2.245034 g / cm^3
# Si number density = 22.501554 Si / 1000 Ang^3
#
#
#
# Elastic Constant Matrix: (Units=GPa)
#
#
# Indices 1 2 3 4 5 6 
#
# 1 77.3453 19.8776 18.8021 0.0000 -16.8374 0.0000
# 2 19.8776 74.8899 41.4569 0.0000 -14.9399 0.0000
# 3 18.8021 41.4569 110.8354 0.0000 -29.5960 0.0000
# 4 0.0000 0.0000 0.0000 39.9097 0.0000 -8.8505
# 5 -16.8374 -14.9399 -29.5960 0.0000 53.7981 0.0000
# 6 0.0000 0.0000 0.0000 -8.8505 0.0000 37.5981
#
#
#
# Elastic Compliance Matrix: (Units=1/GPa)
#
#
# Indices 1 2 3 4 5 6 
#
# 1 0.014548 -0.002919 -0.000442 0.000000 0.003500 0.000000
# 2 -0.002919 0.017518 -0.005864 0.000000 0.000726 0.000000
# 3 -0.000442 -0.005864 0.012682 0.000000 0.005210 0.000000
# 4 0.000000 0.000000 0.000000 0.026437 0.000000 0.006223
# 5 0.003500 0.000726 0.005210 0.000000 0.022751 0.000000
# 6 0.000000 0.000000 0.000000 0.006223 0.000000 0.028062
#
#
# Mechanical properties :
#
#
# Convention : Reuss Voigt Hill
#
# Bulk Modulus (GPa) = 38.02258 47.03817 42.53037
# Shear Modulus (GPa) = 33.50907 38.45679 35.98293
#
# Velocity S-wave (km/s) = 3.86319 4.13858 4.00325
# Velocity P-wave (km/s) = 6.06905 6.61717 6.34903
#
# Compressibility (1/GPa) = 0.02630016
#
# Stress axis : x y z
#
# Youngs Moduli (GPa) = 68.73610 57.08291 78.85324
#
# Poissons Ratio (x) = 0.16661 0.03483
# Poissons Ratio (y) = 0.20063 0.46237
# Poissons Ratio (z) = 0.03036 0.33472
#
# Static dielectric constant tensor:
#      x y z
#    x 1.888550 0.000000 0.021700 
#    y 0.000000 1.703690 0.000000 
#    z 0.021700 0.000000 1.867790 
# 
# From -- ./inp_files/40213.got.cif
#   From: 2010.05.17/outbox.cif.g08.bks.cpg/sg14_21_cif.got.tgz:40213.got - 2010.06.03 17:49:19.
