data_PCOD9251259
_publ_section_title
;
Structure prediction by ZEFSAII (Michael W. Deem and Ramdas Pophale) SiO2 
 PCOD9251259
Probable space group: P 21/C
;
_chemical_formula_sum "Si O2"
_cell_formula_units_Z 28
_cell_length_a 8.120844
_cell_length_b 7.431317
_cell_length_c 32.008511
_cell_angle_alpha 90.000000
_cell_angle_beta 146.948172
_cell_angle_gamma 90.000000
_cell_volume 1053.526656
_symmetry_space_group_name_H-M "P 21/C"
_symmetry_group_IT_number 14
_symmetry_cell_setting 'monoclinic'
loop_
_space_group_symop_operation_xyz
x,y,z
-x,1/2+y,1/2-z
-x,-y,-z
x,1/2-y,1/2+z
loop_
_atom_site_type_symbol
_atom_site_label
_atom_site_fract_x
_atom_site_fract_y
_atom_site_fract_z
Si Si1 0.663798 0.020013 0.305052
Si Si2 0.186161 0.037559 0.269611
Si Si3 0.782705 0.316726 0.993622
Si Si4 0.237888 0.075163 0.883358
Si Si5 0.814634 0.989645 0.637431
Si Si6 0.271156 0.729318 0.608920
Si Si7 0.851500 0.612865 0.370514
O O1 0.412162 0.945664 0.284142
O O2 0.925397 0.918838 0.334546
O O3 0.821992 0.169081 0.368356
O O4 0.439525 0.102873 0.221862
O O5 0.373412 0.220863 0.317949
O O6 0.175142 0.952140 0.312633
O O7 0.871192 0.042340 0.179043
O O8 0.586413 0.131323 0.957042
O O9 0.866858 0.312563 0.962592
O O10 0.538672 0.475595 0.950956
O O11 0.043201 0.292225 0.082504
O O12 0.101270 0.276479 0.847637
O O13 0.117459 0.972689 0.898320
O O14 0.218502 0.523415 0.606365
#
# Coordination Sequence:
#
# PCOD9251259 Si02
#       7
#     4   4   4   4   4   4   4
#     4   9  18  29  48  68  96 131 161 185 240 294
#     4   8  17  29  43  66  96 126 159 195 233 278
#     4   9  19  29  47  73 105 125 150 209 256 277
#     4   9  16  29  46  67  99 124 159 194 241 284
#     4   9  17  30  48  66  99 128 160 193 241 289
#     4   9  17  32  42  69 106 121 156 200 239 288
#     4  11  18  29  49  75 100 127 157 202 251 283
#
# _framework density 26.577397000000001
#
# number of rings (size 3 to 8) (size 9 to 14) (size 15 to 20)
#    1.714    1.143    1.429    0.857    2.000    0.000 
#    0.000    0.000    0.000    0.000    0.000   10.000 
#    4.286    0.000    0.000    0.000    0.000    0.000 
#
# Total GULP energy -156119.750553 kJ/mol
# GULP energy per Si atom -5575.705377 kJ/mol
# Density = 2.651691 g / cm^3
# Si number density = 26.577397 Si / 1000 Ang^3
#
#
#
# Elastic Constant Matrix: (Units=GPa)
#
#
# Indices 1 2 3 4 5 6 
#
# 1 147.2580 6.2989 64.5093 0.0000 -18.6450 0.0000
# 2 6.2989 48.2854 21.4210 0.0000 3.6479 0.0000
# 3 64.5093 21.4210 119.3326 0.0000 -18.0801 0.0000
# 4 0.0000 0.0000 0.0000 28.1323 0.0000 2.6124
# 5 -18.6450 3.6479 -18.0801 0.0000 40.3616 0.0000
# 6 0.0000 0.0000 0.0000 2.6124 0.0000 23.7250
#
#
#
# Elastic Compliance Matrix: (Units=1/GPa)
#
#
# Indices 1 2 3 4 5 6 
#
# 1 0.009092 0.000770 -0.004750 0.000000 0.002003 0.000000
# 2 0.000770 0.023226 -0.005203 0.000000 -0.004074 0.000000
# 3 -0.004750 -0.005203 0.012466 0.000000 0.003860 0.000000
# 4 0.000000 0.000000 0.000000 0.035914 0.000000 -0.003954
# 5 0.002003 -0.004074 0.003860 0.000000 0.027799 0.000000
# 6 0.000000 0.000000 0.000000 -0.003954 0.000000 0.042585
#
#
# Mechanical properties :
#
#
# Convention : Reuss Voigt Hill
#
# Bulk Modulus (GPa) = 37.85154 55.48161 46.66657
# Shear Modulus (GPa) = 28.05002 33.28691 30.66847
#
# Velocity S-wave (km/s) = 3.25223 3.54284 3.40064
# Velocity P-wave (km/s) = 5.32687 6.13648 5.74596
#
# Compressibility (1/GPa) = 0.02641900
#
# Stress axis : x y z
#
# Youngs Moduli (GPa) = 109.98402 43.05600 80.21555
#
# Poissons Ratio (x) = -0.03314 0.38101
# Poissons Ratio (y) = -0.08466 0.41732
# Poissons Ratio (z) = 0.52241 0.22400
#
# Static dielectric constant tensor:
#      x y z
#    x 2.114240 0.000000 -0.030150 
#    y 0.000000 2.144750 0.000000 
#    z -0.030150 0.000000 2.062060 
# 
# From -- ./inp_files/55242.got.cif
#   From: 2010.05.17/outbox.cif.g08.bks.cpg/sg14_28_cif.got.tgz:55242.got - 2010.06.03 17:49:19.
