data_PCOD9251314
_publ_section_title
;
Structure prediction by ZEFSAII (Michael W. Deem and Ramdas Pophale) SiO2 
 PCOD9251314
Probable space group: P 21/C
;
_chemical_formula_sum "Si O2"
_cell_formula_units_Z 24
_cell_length_a 12.065221
_cell_length_b 17.986626
_cell_length_c 17.923720
_cell_angle_alpha 90.000000
_cell_angle_beta 161.714890
_cell_angle_gamma 90.000000
_cell_volume 1220.368338
_symmetry_space_group_name_H-M "P 21/C"
_symmetry_group_IT_number 14
_symmetry_cell_setting 'monoclinic'
loop_
_space_group_symop_operation_xyz
x,y,z
-x,1/2+y,1/2-z
-x,-y,-z
x,1/2-y,1/2+z
loop_
_atom_site_type_symbol
_atom_site_label
_atom_site_fract_x
_atom_site_fract_y
_atom_site_fract_z
Si Si1 0.330679 0.067069 0.936560
Si Si2 0.918074 0.328660 0.881711
Si Si3 0.032171 0.165940 0.622708
Si Si4 0.286633 0.767245 0.451224
Si Si5 0.581123 0.810305 0.428451
Si Si6 0.692384 0.079716 0.628985
O O1 0.079024 0.100939 0.712066
O O2 0.091969 0.058978 0.858412
O O3 0.644103 0.121553 0.160650
O O4 0.500000 0.000000 0.000000
O O5 0.739519 0.247689 0.773688
O O6 0.274481 0.325470 0.061878
O O7 0.955240 0.356857 0.989756
O O8 0.398426 0.210542 0.858671
O O9 0.748901 0.217638 0.483265
O O10 0.371694 0.845119 0.463021
O O11 0.920019 0.730561 0.185884
O O12 0.436824 0.884897 0.375368
O O13 0.500000 0.000000 0.500000
#
# Coordination Sequence:
#
# PCOD9251314 Si02
#       6
#     4   4   4   4   4   4
#     4  11  23  42  63  89 131 172 210 265 327 384
#     4  12  22  38  65  93 122 168 218 265 315 381
#     4  11  23  37  64  93 121 165 220 265 312 380
#     4  11  19  40  62  90 126 163 210 266 316 377
#     4  12  19  40  64  91 129 163 214 262 321 378
#     4  11  22  37  66  95 124 172 211 257 329 386
#
# _framework density 19.666193
#
# number of rings (size 3 to 8) (size 9 to 14) (size 15 to 20)
#    0.000    0.667    8.333    2.000    0.000    0.667 
#    0.000    0.000    0.000    6.000    0.000    0.000 
#    0.000    0.000    0.000    0.000    0.000    0.000 
#
# Total GULP energy -133662.051733 kJ/mol
# GULP energy per Si atom -5569.252156 kJ/mol
# Density = 1.962143 g / cm^3
# Si number density = 19.666193 Si / 1000 Ang^3
#
#
#
# Elastic Constant Matrix: (Units=GPa)
#
#
# Indices 1 2 3 4 5 6 
#
# 1 127.2296 -6.3805 11.8173 0.0000 8.4828 0.0000
# 2 -6.3805 35.7721 5.6097 0.0000 5.1272 0.0000
# 3 11.8173 5.6097 22.6224 0.0000 5.6499 0.0000
# 4 0.0000 0.0000 0.0000 15.5428 0.0000 14.9979
# 5 8.4828 5.1272 5.6499 0.0000 45.6325 0.0000
# 6 0.0000 0.0000 0.0000 14.9979 0.0000 31.6438
#
#
#
# Elastic Compliance Matrix: (Units=1/GPa)
#
#
# Indices 1 2 3 4 5 6 
#
# 1 0.008506 0.002441 -0.004732 0.000000 -0.001270 0.000000
# 2 0.002441 0.030054 -0.008019 0.000000 -0.002838 0.000000
# 3 -0.004732 -0.008019 0.049758 0.000000 -0.004380 0.000000
# 4 0.000000 0.000000 0.000000 0.118561 0.000000 -0.056193
# 5 -0.001270 -0.002838 -0.004380 0.000000 0.023011 0.000000
# 6 0.000000 0.000000 0.000000 -0.056193 0.000000 0.058235
#
#
# Mechanical properties :
#
#
# Convention : Reuss Voigt Hill
#
# Bulk Modulus (GPa) = 14.77111 23.07968 18.92539
# Shear Modulus (GPa) = 15.09148 30.20232 22.64690
#
# Velocity S-wave (km/s) = 2.77317 3.92311 3.39715
# Velocity P-wave (km/s) = 4.21677 5.68175 5.00317
#
# Compressibility (1/GPa) = 0.06769972
#
# Stress axis : x y z
#
# Youngs Moduli (GPa) = 117.55880 33.27294 20.09719
#
# Poissons Ratio (x) = -0.08123 0.09509
# Poissons Ratio (y) = -0.28699 0.16116
# Poissons Ratio (z) = 0.55626 0.26682
#
# Static dielectric constant tensor:
#      x y z
#    x 1.319920 0.000000 -0.259020 
#    y 0.000000 1.765200 0.000000 
#    z -0.259020 0.000000 1.532950 
# 
# From -- ./inp_files/13673.got.cif
#   From: 2010.05.17/outbox.cif.g08.bks.cpg/sg14_7_cif.got.tgz:13673.got - 2010.06.03 17:49:19.
