data_PCOD9251160
_publ_section_title
;
Structure prediction by ZEFSAII (Michael W. Deem and Ramdas Pophale) SiO2 
 PCOD9251160
Probable space group: P 21/C
;
_chemical_formula_sum "Si O2"
_cell_formula_units_Z 28
_cell_length_a 8.361638
_cell_length_b 27.265731
_cell_length_c 8.364325
_cell_angle_alpha 90.000000
_cell_angle_beta 45.617580
_cell_angle_gamma 90.000000
_cell_volume 1362.873306
_symmetry_space_group_name_H-M "P 21/C"
_symmetry_group_IT_number 14
_symmetry_cell_setting 'monoclinic'
loop_
_space_group_symop_operation_xyz
x,y,z
-x,1/2+y,1/2-z
-x,-y,-z
x,1/2-y,1/2+z
loop_
_atom_site_type_symbol
_atom_site_label
_atom_site_fract_x
_atom_site_fract_y
_atom_site_fract_z
Si Si1 0.402450 0.792773 0.854093
Si Si2 0.467809 0.445046 0.465606
Si Si3 0.043880 0.353211 0.317433
Si Si4 0.213648 0.898456 0.495083
Si Si5 0.492364 0.189155 0.589638
Si Si6 0.764316 0.633963 0.166927
Si Si7 0.971959 0.553365 0.442793
O O1 0.435927 0.802331 0.643190
O O2 0.613100 0.818074 0.794933
O O3 0.415135 0.735342 0.878279
O O4 0.177025 0.821133 0.060446
O O5 0.500000 0.500000 0.500000
O O6 0.386531 0.411323 0.668782
O O7 0.272244 0.443171 0.468783
O O8 0.692317 0.424434 0.228388
O O9 0.998136 0.401832 0.453547
O O10 0.225562 0.319022 0.281046
O O11 0.159833 0.368577 0.069942
O O12 0.397550 0.860690 0.426730
O O13 0.988441 0.868497 0.614067
O O14 0.149196 0.937302 0.676479
O O15 0.000000 0.500000 0.500000
#
# Coordination Sequence:
#
# PCOD9251160 Si02
#       7
#     4   4   4   4   4   4   4
#     4  11  26  43  69 100 134 182 223 281 339 414
#     4  11  26  44  69 101 134 180 228 282 345 408
#     4  11  24  47  66 102 137 176 230 281 335 412
#     4  11  24  47  67  99 140 177 227 292 331 413
#     4  11  26  43  69  98 135 177 228 275 349 393
#     4  10  26  43  69  97 134 178 226 276 340 404
#     4  11  26  42  71  99 137 183 226 283 345 408
#
# _framework density 20.544827000000002
#
# number of rings (size 3 to 8) (size 9 to 14) (size 15 to 20)
#    0.000    1.143    2.857    0.857   12.000    2.857 
#    0.000    0.000    0.000    0.000    0.000    0.000 
#    0.000    0.000    0.000    0.000    0.000    0.000 
#
# Total GULP energy -156573.890765 kJ/mol
# GULP energy per Si atom -5591.924670 kJ/mol
# Density = 2.049807 g / cm^3
# Si number density = 20.544827 Si / 1000 Ang^3
#
#
#
# Elastic Constant Matrix: (Units=GPa)
#
#
# Indices 1 2 3 4 5 6 
#
# 1 54.3468 27.1846 22.7216 0.0000 -11.6371 0.0000
# 2 27.1846 104.8783 42.0384 0.0000 -3.1683 0.0000
# 3 22.7216 42.0384 113.1975 0.0000 -9.1565 0.0000
# 4 0.0000 0.0000 0.0000 28.2865 0.0000 6.8039
# 5 -11.6371 -3.1683 -9.1565 0.0000 29.0286 0.0000
# 6 0.0000 0.0000 0.0000 6.8039 0.0000 35.0618
#
#
#
# Elastic Compliance Matrix: (Units=1/GPa)
#
#
# Indices 1 2 3 4 5 6 
#
# 1 0.023573 -0.004972 -0.002221 0.000000 0.008207 0.000000
# 2 -0.004972 0.012251 -0.003699 0.000000 -0.001823 0.000000
# 3 -0.002221 -0.003699 0.010825 0.000000 0.002120 0.000000
# 4 0.000000 0.000000 0.000000 0.037083 0.000000 -0.007196
# 5 0.008207 -0.001823 0.002120 0.000000 0.038209 0.000000
# 6 0.000000 0.000000 0.000000 -0.007196 0.000000 0.029918
#
#
# Mechanical properties :
#
#
# Convention : Reuss Voigt Hill
#
# Bulk Modulus (GPa) = 40.21758 50.70130 45.45944
# Shear Modulus (GPa) = 27.48260 30.50726 28.99493
#
# Velocity S-wave (km/s) = 3.66141 3.85764 3.76080
# Velocity P-wave (km/s) = 6.12312 6.67636 6.40571
#
# Compressibility (1/GPa) = 0.02486475
#
# Stress axis : x y z
#
# Youngs Moduli (GPa) = 42.42063 81.62405 92.37592
#
# Poissons Ratio (x) = 0.40583 0.20521
# Poissons Ratio (y) = 0.21091 0.34172
# Poissons Ratio (z) = 0.09424 0.30195
#
# Static dielectric constant tensor:
#      x y z
#    x 1.752980 0.000000 -0.003910 
#    y 0.000000 1.726910 0.000000 
#    z -0.003910 0.000000 1.730470 
# 
# From -- ./inp_files/11154.got.cif
#   From: 2010.05.17/outbox.cif.g08.bks.cpg/sg14_6_cif.got.tgz:11154.got - 2010.06.03 17:49:19.
