data_PCOD9251815
_publ_section_title
;
Structure prediction by ZEFSAII (Michael W. Deem and Ramdas Pophale) SiO2 
 PCOD9251815
Probable space group: P 21/C
;
_chemical_formula_sum "Si O2"
_cell_formula_units_Z 32
_cell_length_a 5.531689
_cell_length_b 22.955904
_cell_length_c 12.150442
_cell_angle_alpha 90.000000
_cell_angle_beta 70.821567
_cell_angle_gamma 90.000000
_cell_volume 1457.290848
_symmetry_space_group_name_H-M "P 21/C"
_symmetry_group_IT_number 14
_symmetry_cell_setting 'monoclinic'
loop_
_space_group_symop_operation_xyz
x,y,z
-x,1/2+y,1/2-z
-x,-y,-z
x,1/2-y,1/2+z
loop_
_atom_site_type_symbol
_atom_site_label
_atom_site_fract_x
_atom_site_fract_y
_atom_site_fract_z
Si Si1 0.905328 0.106309 0.942562
Si Si2 0.494214 0.927377 0.187884
Si Si3 0.811289 0.850433 0.823575
Si Si4 0.391863 0.662987 0.880543
Si Si5 0.410316 0.256765 0.788128
Si Si6 0.678001 0.148189 0.360341
Si Si7 0.039470 0.726762 0.485738
Si Si8 0.565459 0.063184 0.179163
O O1 0.711849 0.081180 0.879535
O O2 0.210992 0.095625 0.878007
O O3 0.835206 0.175634 0.958958
O O4 0.820635 0.076843 0.071021
O O5 0.361308 0.893935 0.310664
O O6 0.528148 0.995730 0.204682
O O7 0.614225 0.804725 0.802420
O O8 0.659061 0.909663 0.863362
O O9 0.021214 0.862005 0.697992
O O10 0.931546 0.814701 0.905351
O O11 0.600395 0.697057 0.776740
O O12 0.189669 0.717047 0.917793
O O13 0.430722 0.645177 0.000851
O O14 0.639103 0.284832 0.825133
O O15 0.184518 0.253940 0.908728
O O16 0.564500 0.100808 0.292203
#
# Coordination Sequence:
#
# PCOD9251815 Si02
#       8
#     4   4   4   4   4   4   4   4
#     4  12  26  48  76 113 144 198 246 313 375 429
#     4  12  30  48  77 113 150 197 253 310 368 432
#     4  11  22  43  69 105 137 197 240 299 374 438
#     4  12  26  44  70 111 147 194 240 310 373 458
#     4  11  23  41  70 103 145 190 241 310 369 452
#     4  11  24  43  71 102 142 197 245 292 384 438
#     4  12  23  41  75 106 151 181 247 311 380 445
#     4  11  26  48  75 104 147 197 254 309 360 445
#
# _framework density 21.958552999999998
#
# number of rings (size 3 to 8) (size 9 to 14) (size 15 to 20)
#    0.000    0.500    5.000    3.000    5.250    1.500 
#    0.000    0.625    0.000    0.000    0.000    0.000 
#    0.000    0.000    0.000    0.000    0.000    0.000 
#
# Total GULP energy -178369.643289 kJ/mol
# GULP energy per Si atom -5574.051353 kJ/mol
# Density = 2.190857 g / cm^3
# Si number density = 21.958553 Si / 1000 Ang^3
#
#
#
# Elastic Constant Matrix: (Units=GPa)
#
#
# Indices 1 2 3 4 5 6 
#
# 1 62.4886 36.6136 25.4417 0.0000 0.7315 0.0000
# 2 36.6136 164.1857 58.4183 0.0000 5.4967 0.0000
# 3 25.4417 58.4183 125.2476 0.0000 11.3764 0.0000
# 4 0.0000 0.0000 0.0000 71.9713 0.0000 4.2925
# 5 0.7315 5.4967 11.3764 0.0000 29.5172 0.0000
# 6 0.0000 0.0000 0.0000 4.2925 0.0000 27.2553
#
#
#
# Elastic Compliance Matrix: (Units=1/GPa)
#
#
# Indices 1 2 3 4 5 6 
#
# 1 0.018955 -0.003427 -0.002349 0.000000 0.001074 0.000000
# 2 -0.003427 0.007922 -0.002977 0.000000 -0.000243 0.000000
# 3 -0.002349 -0.002977 0.010150 0.000000 -0.003299 0.000000
# 4 0.000000 0.000000 0.000000 0.014026 0.000000 -0.002209
# 5 0.001074 -0.000243 -0.003299 0.000000 0.035169 0.000000
# 6 0.000000 0.000000 0.000000 -0.002209 0.000000 0.037038
#
#
# Mechanical properties :
#
#
# Convention : Reuss Voigt Hill
#
# Bulk Modulus (GPa) = 51.22945 65.87434 58.55189
# Shear Modulus (GPa) = 33.95058 41.17865 37.56462
#
# Velocity S-wave (km/s) = 3.93634 4.33516 4.14055
# Velocity P-wave (km/s) = 6.63630 7.42446 7.04142
#
# Compressibility (1/GPa) = 0.01952002
#
# Stress axis : x y z
#
# Youngs Moduli (GPa) = 52.75698 126.22730 98.52598
#
# Poissons Ratio (x) = 0.43257 0.23148
# Poissons Ratio (y) = 0.18080 0.29330
# Poissons Ratio (z) = 0.12395 0.37577
#
# Static dielectric constant tensor:
#      x y z
#    x 1.907160 0.000000 0.020940 
#    y 0.000000 1.911480 0.000000 
#    z 0.020940 0.000000 1.824260 
# 
# From -- ./inp_files/22174.got.cif
#   From: 2010.05.17/outbox.cif.g08.bks.cpg/sg14_12_cif.got.tgz:22174.got - 2010.06.03 17:49:19.
