data_PCOD9251430
_publ_section_title
;
Structure prediction by ZEFSAII (Michael W. Deem and Ramdas Pophale) SiO2 
 PCOD9251430
Probable space group: P 21/C
;
_chemical_formula_sum "Si O2"
_cell_formula_units_Z 32
_cell_length_a 8.469740
_cell_length_b 9.279389
_cell_length_c 18.844029
_cell_angle_alpha 90.000000
_cell_angle_beta 60.343569
_cell_angle_gamma 90.000000
_cell_volume 1287.025077
_symmetry_space_group_name_H-M "P 21/C"
_symmetry_group_IT_number 14
_symmetry_cell_setting 'monoclinic'
loop_
_space_group_symop_operation_xyz
x,y,z
-x,1/2+y,1/2-z
-x,-y,-z
x,1/2-y,1/2+z
loop_
_atom_site_type_symbol
_atom_site_label
_atom_site_fract_x
_atom_site_fract_y
_atom_site_fract_z
Si Si1 0.620256 0.435715 0.666318
Si Si2 0.320953 0.395299 0.551603
Si Si3 0.313878 0.673257 0.192092
Si Si4 0.422799 0.078928 0.586701
Si Si5 0.961156 0.939761 0.605907
Si Si6 0.218890 0.827589 0.439836
Si Si7 0.204208 0.985327 0.214510
Si Si8 0.295432 0.284667 0.410141
O O1 0.635981 0.360573 0.738088
O O2 0.734632 0.336975 0.586454
O O3 0.412381 0.464442 0.688067
O O4 0.701902 0.594567 0.650569
O O5 0.500000 0.500000 0.500000
O O6 0.366725 0.238746 0.575339
O O7 0.185249 0.468303 0.637578
O O8 0.231088 0.360283 0.496272
O O9 0.279665 0.525617 0.157280
O O10 0.500760 0.735004 0.116945
O O11 0.184977 0.812077 0.221166
O O12 0.583448 0.099287 0.608377
O O13 0.500000 0.000000 0.500000
O O14 0.914186 0.940889 0.698412
O O15 0.815879 0.846314 0.594570
O O16 0.144925 0.870391 0.534294
O O17 0.921101 0.100290 0.584367
#
# Coordination Sequence:
#
# PCOD9251430 Si02
#       8
#     4   4   4   4   4   4   4   4
#     4  11  21  35  62  89 122 151 215 268 305 364
#     4  12  21  36  60  95 122 161 205 266 319 369
#     4  11  21  34  58  98 116 152 214 262 315 362
#     4  12  21  37  63  89 123 158 205 262 304 373
#     4  11  23  39  61  87 127 167 203 259 322 394
#     4  11  22  39  61  90 121 165 207 251 326 378
#     4  11  21  36  62  90 124 159 210 271 314 376
#     4  11  22  37  57  90 125 157 203 257 322 378
#
# _framework density 24.863538999999999
#
# number of rings (size 3 to 8) (size 9 to 14) (size 15 to 20)
#    0.000    0.750    8.750    0.000    3.500    0.500 
#    0.000    0.000    2.750    3.000    0.000    0.000 
#    0.000    0.000    0.000    0.000    0.000    0.000 
#
# Total GULP energy -178950.612373 kJ/mol
# GULP energy per Si atom -5592.206637 kJ/mol
# Density = 2.480695 g / cm^3
# Si number density = 24.863539 Si / 1000 Ang^3
#
#
#
# Elastic Constant Matrix: (Units=GPa)
#
#
# Indices 1 2 3 4 5 6 
#
# 1 37.2707 17.5682 12.2788 0.0000 -6.6409 0.0000
# 2 17.5682 147.0844 33.9400 0.0000 -1.8717 0.0000
# 3 12.2788 33.9400 137.6962 0.0000 13.9617 0.0000
# 4 0.0000 0.0000 0.0000 45.2725 0.0000 8.4515
# 5 -6.6409 -1.8717 13.9617 0.0000 27.1458 0.0000
# 6 0.0000 0.0000 0.0000 8.4515 0.0000 17.5880
#
#
#
# Elastic Compliance Matrix: (Units=1/GPa)
#
#
# Indices 1 2 3 4 5 6 
#
# 1 0.030725 -0.002883 -0.002924 0.000000 0.008821 0.000000
# 2 -0.002883 0.007537 -0.001669 0.000000 0.000673 0.000000
# 3 -0.002924 -0.001669 0.008460 0.000000 -0.005181 0.000000
# 4 0.000000 0.000000 0.000000 0.024265 0.000000 -0.011660
# 5 0.008821 0.000673 -0.005181 0.000000 0.041707 0.000000
# 6 0.000000 0.000000 0.000000 -0.011660 0.000000 0.062460
#
#
# Mechanical properties :
#
#
# Convention : Reuss Voigt Hill
#
# Bulk Modulus (GPa) = 31.47589 49.95839 40.71714
# Shear Modulus (GPa) = 24.91347 35.21888 30.06618
#
# Velocity S-wave (km/s) = 3.16889 3.76771 3.48120
# Velocity P-wave (km/s) = 5.10647 6.25013 5.70702
#
# Compressibility (1/GPa) = 0.03177035
#
# Stress axis : x y z
#
# Youngs Moduli (GPa) = 32.54717 132.68208 118.20631
#
# Poissons Ratio (x) = 0.38252 0.34559
# Poissons Ratio (y) = 0.09383 0.19727
# Poissons Ratio (z) = 0.09516 0.22142
#
# Static dielectric constant tensor:
#      x y z
#    x 2.007960 0.000000 -0.024130 
#    y 0.000000 1.964160 0.000000 
#    z -0.024130 0.000000 1.987040 
# 
# From -- ./inp_files/67022.got.cif
#   From: 2010.05.17/outbox.cif.g08.bks.cpg/sg14_34_cif.got.tgz:67022.got - 2010.06.03 17:49:19.
