data_PCOD9251787
_publ_section_title
;
Structure prediction by ZEFSAII (Michael W. Deem and Ramdas Pophale) SiO2 
 PCOD9251787
Probable space group: P 21/C
;
_chemical_formula_sum "Si O2"
_cell_formula_units_Z 24
_cell_length_a 13.925240
_cell_length_b 15.201299
_cell_length_c 10.152656
_cell_angle_alpha 90.000000
_cell_angle_beta 148.880600
_cell_angle_gamma 90.000000
_cell_volume 1110.721259
_symmetry_space_group_name_H-M "P 21/C"
_symmetry_group_IT_number 14
_symmetry_cell_setting 'monoclinic'
loop_
_space_group_symop_operation_xyz
x,y,z
-x,1/2+y,1/2-z
-x,-y,-z
x,1/2-y,1/2+z
loop_
_atom_site_type_symbol
_atom_site_label
_atom_site_fract_x
_atom_site_fract_y
_atom_site_fract_z
Si Si1 0.007504 0.935058 0.697624
Si Si2 0.785163 0.155967 0.819189
Si Si3 0.088811 0.215129 0.617412
Si Si4 0.702913 0.573054 0.485641
Si Si5 0.698880 0.032344 0.478544
Si Si6 0.363296 0.376593 0.887360
O O1 0.934247 0.854139 0.527246
O O2 0.845305 0.003187 0.542387
O O3 0.091095 0.897352 0.931411
O O4 0.172572 0.990674 0.825588
O O5 0.573739 0.159026 0.622205
O O6 0.781390 0.104186 0.676149
O O7 0.887263 0.248419 0.920244
O O8 0.216798 0.298262 0.731415
O O9 0.191823 0.161716 0.852828
O O10 0.676779 0.572972 0.296810
O O11 0.497434 0.567742 0.303822
O O12 0.655240 0.945710 0.515851
#
# Coordination Sequence:
#
# PCOD9251787 Si02
#       6
#     4   4   4   4   4   4
#     4  12  23  41  66  91 132 168 208 262 320 383
#     4  11  22  42  68  93 123 168 219 260 311 372
#     4  12  27  38  62 102 132 162 206 271 324 369
#     4  11  24  44  64  92 129 170 216 252 319 387
#     4  11  22  43  72  89 121 175 216 258 309 385
#     4  11  22  42  69  93 121 168 220 262 308 371
#
# _framework density 21.607583000000002
#
# number of rings (size 3 to 8) (size 9 to 14) (size 15 to 20)
#    0.000    0.667    5.000    4.000    0.000    6.000 
#    0.000    0.000    0.000    0.000    0.000    0.000 
#    0.000    0.000    0.000    0.000    0.000    0.000 
#
# Total GULP energy -134363.374019 kJ/mol
# GULP energy per Si atom -5598.473917 kJ/mol
# Density = 2.155840 g / cm^3
# Si number density = 21.607583 Si / 1000 Ang^3
#
#
#
# Elastic Constant Matrix: (Units=GPa)
#
#
# Indices 1 2 3 4 5 6 
#
# 1 25.3325 -7.3233 35.7261 0.0000 6.0064 0.0000
# 2 -7.3233 52.5492 38.3200 0.0000 -3.4050 0.0000
# 3 35.7261 38.3200 93.7571 0.0000 20.2927 0.0000
# 4 0.0000 0.0000 0.0000 53.5522 0.0000 0.2033
# 5 6.0064 -3.4050 20.2927 0.0000 8.7008 0.0000
# 6 0.0000 0.0000 0.0000 0.2033 0.0000 7.3812
#
#
#
# Elastic Compliance Matrix: (Units=1/GPa)
#
#
# Indices 1 2 3 4 5 6 
#
# 1 -0.007859 -0.040834 0.044363 0.000000 -0.114022 0.000000
# 2 -0.040834 -0.016921 0.035960 0.000000 -0.062303 0.000000
# 3 0.044363 0.035960 -0.035043 0.000000 0.065179 0.000000
# 4 0.000000 0.000000 0.000000 0.018675 0.000000 -0.000514
# 5 -0.114022 -0.062303 0.065179 0.000000 0.017247 0.000000
# 6 0.000000 0.000000 0.000000 -0.000514 0.000000 0.135494
#
#
# Mechanical properties :
#
#
# Convention : Reuss Voigt Hill
#
# Bulk Modulus (GPa) = 52.20393 33.89825 43.05109
# Shear Modulus (GPa) = 128.20666 20.92122 74.56394
#
# Velocity S-wave (km/s) = 7.71122 3.11502 5.88074
# Velocity P-wave (km/s) = 10.17332 5.35350 8.12885
#
# Compressibility (1/GPa) = 0.01915565
#
# Stress axis : x y z
#
# Youngs Moduli (GPa) = -127.24685 -59.09850 -28.53600
#
# Poissons Ratio (x) = -2.41321 1.26594
# Poissons Ratio (y) = -5.19596 1.02616
# Poissons Ratio (z) = 5.64502 2.12520
#
# Static dielectric constant tensor:
#      x y z
#    x 1.798680 0.000000 0.000590 
#    y 0.000000 1.760310 0.000000 
#    z 0.000590 0.000000 1.789780 
# 
# From -- ./inp_files/29712.got.cif
#   From: 2010.05.17/outbox.cif.g08.bks.cpg/sg14_15_cif.got.tgz:29712.got - 2010.06.03 17:49:19.
