data_PCOD9251093
_publ_section_title
;
Structure prediction by ZEFSAII (Michael W. Deem and Ramdas Pophale) SiO2 
 PCOD9251093
Probable space group: P 21/C
;
_chemical_formula_sum "Si O2"
_cell_formula_units_Z 20
_cell_length_a 6.635570
_cell_length_b 12.849834
_cell_length_c 9.194550
_cell_angle_alpha 90.000000
_cell_angle_beta 101.625816
_cell_angle_gamma 90.000000
_cell_volume 767.898503
_symmetry_space_group_name_H-M "P 21/C"
_symmetry_group_IT_number 14
_symmetry_cell_setting 'monoclinic'
loop_
_space_group_symop_operation_xyz
x,y,z
-x,1/2+y,1/2-z
-x,-y,-z
x,1/2-y,1/2+z
loop_
_atom_site_type_symbol
_atom_site_label
_atom_site_fract_x
_atom_site_fract_y
_atom_site_fract_z
Si Si1 0.536719 0.205266 0.515087
Si Si2 0.875174 0.851224 0.442004
Si Si3 0.211152 0.816222 0.732877
Si Si4 0.004165 0.488215 0.297267
Si Si5 0.770426 0.866033 0.926970
O O1 0.359392 0.126981 0.542750
O O2 0.725179 0.220039 0.654845
O O3 0.609467 0.182005 0.363744
O O4 0.426779 0.319579 0.518212
O O5 0.972503 0.938497 0.356779
O O6 0.847803 0.739235 0.359153
O O7 0.012136 0.822986 0.600301
O O8 0.174283 0.919055 0.824013
O O9 0.073503 0.404485 0.425872
O O10 0.789331 0.540363 0.315021
#
# Coordination Sequence:
#
# PCOD9251093 Si02
#       5
#     4   4   4   4   4
#     4  10  26  46  73 105 149 189 245 298 367 423
#     4  10  25  47  73 102 157 185 239 310 355 425
#     4  12  25  44  75 109 137 205 240 294 369 435
#     4  11  23  45  75 111 141 200 244 290 373 436
#     4   9  24  46  74 101 154 190 228 308 363 423
#
# _framework density 26.045105
#
# number of rings (size 3 to 8) (size 9 to 14) (size 15 to 20)
#    1.200    0.400    0.000    3.000    8.400    1.600 
#    3.600    0.000    0.000    0.000    0.000    0.000 
#    0.000    0.000    0.000    0.000    0.000    0.000 
#
# Total GULP energy -111628.596628 kJ/mol
# GULP energy per Si atom -5581.429831 kJ/mol
# Density = 2.598583 g / cm^3
# Si number density = 26.045105 Si / 1000 Ang^3
#
#
#
# Elastic Constant Matrix: (Units=GPa)
#
#
# Indices 1 2 3 4 5 6 
#
# 1 106.8865 28.2284 24.1588 0.0000 -12.3120 0.0000
# 2 28.2284 73.5599 19.8380 0.0000 -19.3473 0.0000
# 3 24.1588 19.8380 110.2534 0.0000 -29.7659 0.0000
# 4 0.0000 0.0000 0.0000 47.3921 0.0000 -20.3873
# 5 -12.3120 -19.3473 -29.7659 0.0000 48.0577 0.0000
# 6 0.0000 0.0000 0.0000 -20.3873 0.0000 53.6719
#
#
#
# Elastic Compliance Matrix: (Units=1/GPa)
#
#
# Indices 1 2 3 4 5 6 
#
# 1 0.010705 -0.003594 -0.001620 0.000000 0.000292 0.000000
# 2 -0.003594 0.016568 -0.000770 0.000000 0.005272 0.000000
# 3 -0.001620 -0.000770 0.011249 0.000000 0.006242 0.000000
# 4 0.000000 0.000000 0.000000 0.025222 0.000000 0.009581
# 5 0.000292 0.005272 0.006242 0.000000 0.026872 0.000000
# 6 0.000000 0.000000 0.000000 0.009581 0.000000 0.022271
#
#
# Mechanical properties :
#
#
# Convention : Reuss Voigt Hill
#
# Bulk Modulus (GPa) = 37.66092 48.35005 43.00548
# Shear Modulus (GPa) = 37.39543 44.38931 40.89237
#
# Velocity S-wave (km/s) = 3.79330 4.13283 3.96670
# Velocity P-wave (km/s) = 5.80317 6.43257 6.12596
#
# Compressibility (1/GPa) = 0.02655272
#
# Stress axis : x y z
#
# Youngs Moduli (GPa) = 93.41648 60.35730 88.89808
#
# Poissons Ratio (x) = 0.21694 0.14402
# Poissons Ratio (y) = 0.33576 0.06847
# Poissons Ratio (z) = 0.15134 0.04648
#
# Static dielectric constant tensor:
#      x y z
#    x 2.165350 0.000000 0.002180 
#    y 0.000000 2.072190 0.000000 
#    z 0.002180 0.000000 2.048470 
# 
# From -- ./inp_files/8356.got.cif
#   From: 2010.05.17/outbox.cif.g08.bks.cpg/sg14_5_cif.got.tgz:8356.got - 2010.06.03 17:49:19.
