data_PCOD9251271
_publ_section_title
;
Structure prediction by ZEFSAII (Michael W. Deem and Ramdas Pophale) SiO2 
 PCOD9251271
Probable space group: P 21/C
;
_chemical_formula_sum "Si O2"
_cell_formula_units_Z 32
_cell_length_a 16.281648
_cell_length_b 17.052696
_cell_length_c 11.251765
_cell_angle_alpha 90.000000
_cell_angle_beta 153.455960
_cell_angle_gamma 90.000000
_cell_volume 1396.073849
_symmetry_space_group_name_H-M "P 21/C"
_symmetry_group_IT_number 14
_symmetry_cell_setting 'monoclinic'
loop_
_space_group_symop_operation_xyz
x,y,z
-x,1/2+y,1/2-z
-x,-y,-z
x,1/2-y,1/2+z
loop_
_atom_site_type_symbol
_atom_site_label
_atom_site_fract_x
_atom_site_fract_y
_atom_site_fract_z
Si Si1 0.782038 0.400871 0.778087
Si Si2 0.597532 0.193305 0.349160
Si Si3 0.894940 0.947651 0.131630
Si Si4 0.100533 0.145712 0.518144
Si Si5 0.614959 0.265819 0.131450
Si Si6 0.392483 0.044615 0.031214
Si Si7 0.058845 0.610574 0.429660
Si Si8 0.969380 0.682490 0.554097
O O1 0.721439 0.315774 0.742597
O O2 0.610433 0.456861 0.524250
O O3 0.914116 0.389358 0.834961
O O4 0.917305 0.441461 0.048457
O O5 0.529280 0.246425 0.150083
O O6 0.520870 0.215734 0.381289
O O7 0.817770 0.202879 0.641014
O O8 0.562957 0.101065 0.277052
O O9 0.725757 0.958717 0.001158
O O10 0.880761 0.865316 0.046001
O O11 0.906552 0.020589 0.057884
O O12 0.267789 0.094513 0.779413
O O13 0.073547 0.144266 0.343353
O O14 0.118849 0.234155 0.586118
O O15 0.755024 0.337901 0.331602
O O16 0.972382 0.626127 0.445081
#
# Coordination Sequence:
#
# PCOD9251271 Si02
#       8
#     4   4   4   4   4   4   4   4
#     4  11  18  40  67  92 117 172 223 253 313 391
#     4  11  24  43  65  96 129 173 218 267 329 393
#     4  11  21  38  64  99 130 159 217 270 320 379
#     4  11  19  39  66  94 118 170 222 260 314 390
#     4  11  22  42  71  91 126 180 216 254 323 408
#     4  11  25  38  65  97 129 161 216 284 316 373
#     4  11  19  37  66  96 124 164 219 265 312 386
#     4  11  23  38  66  93 130 175 211 261 329 391
#
# _framework density 22.921423999999998
#
# number of rings (size 3 to 8) (size 9 to 14) (size 15 to 20)
#    0.000    1.000    7.500    1.125    1.750    1.500 
#    0.000    2.500    5.500    0.000    0.000    0.000 
#    0.000    0.000    0.000    0.000    0.000    0.000 
#
# Total GULP energy -178884.860750 kJ/mol
# GULP energy per Si atom -5590.151898 kJ/mol
# Density = 2.286925 g / cm^3
# Si number density = 22.921424 Si / 1000 Ang^3
#
#
#
# Elastic Constant Matrix: (Units=GPa)
#
#
# Indices 1 2 3 4 5 6 
#
# 1 78.2155 14.9094 30.2092 0.0000 -31.3142 0.0000
# 2 14.9094 125.6412 12.8091 0.0000 0.9665 0.0000
# 3 30.2092 12.8091 34.5446 0.0000 -4.0501 0.0000
# 4 0.0000 0.0000 0.0000 34.0203 0.0000 -6.9893
# 5 -31.3142 0.9665 -4.0501 0.0000 25.7286 0.0000
# 6 0.0000 0.0000 0.0000 -6.9893 0.0000 27.3701
#
#
#
# Elastic Compliance Matrix: (Units=1/GPa)
#
#
# Indices 1 2 3 4 5 6 
#
# 1 0.047816 -0.002545 -0.034677 0.000000 0.052834 0.000000
# 2 -0.002545 0.008424 -0.001322 0.000000 -0.003622 0.000000
# 3 -0.034677 -0.001322 0.055852 0.000000 -0.033363 0.000000
# 4 0.000000 0.000000 0.000000 0.031022 0.000000 0.007922
# 5 0.052834 -0.003622 -0.033363 0.000000 0.098055 0.000000
# 6 0.000000 0.000000 0.000000 0.007922 0.000000 0.038559
#
#
# Mechanical properties :
#
#
# Convention : Reuss Voigt Hill
#
# Bulk Modulus (GPa) = 28.56944 39.36184 33.96564
# Shear Modulus (GPa) = 13.56910 29.45537 21.51224
#
# Velocity S-wave (km/s) = 2.43571 3.58866 3.06685
# Velocity P-wave (km/s) = 4.51679 5.86354 5.23366
#
# Compressibility (1/GPa) = 0.03500243
#
# Stress axis : x y z
#
# Youngs Moduli (GPa) = 20.91351 118.70985 17.90457
#
# Poissons Ratio (x) = 0.30215 0.62087
# Poissons Ratio (y) = 0.05323 0.02368
# Poissons Ratio (z) = 0.72521 0.15699
#
# Static dielectric constant tensor:
#      x y z
#    x 1.896350 0.000000 -0.012560 
#    y 0.000000 1.841370 0.000000 
#    z -0.012560 0.000000 1.845800 
# 
# From -- ./inp_files/30034.got.cif
#   From: 2010.05.17/outbox.cif.g08.bks.cpg/sg14_16_cif.got.tgz:30034.got - 2010.06.03 17:49:19.
