data_PCOD9251706
_publ_section_title
;
Structure prediction by ZEFSAII (Michael W. Deem and Ramdas Pophale) SiO2 
 PCOD9251706
Probable space group: P 21/C
;
_chemical_formula_sum "Si O2"
_cell_formula_units_Z 32
_cell_length_a 8.809519
_cell_length_b 8.831492
_cell_length_c 20.732582
_cell_angle_alpha 90.000000
_cell_angle_beta 101.168141
_cell_angle_gamma 90.000000
_cell_volume 1582.473944
_symmetry_space_group_name_H-M "P 21/C"
_symmetry_group_IT_number 14
_symmetry_cell_setting 'monoclinic'
loop_
_space_group_symop_operation_xyz
x,y,z
-x,1/2+y,1/2-z
-x,-y,-z
x,1/2-y,1/2+z
loop_
_atom_site_type_symbol
_atom_site_label
_atom_site_fract_x
_atom_site_fract_y
_atom_site_fract_z
Si Si1 0.414177 0.975105 0.926501
Si Si2 0.020105 0.578718 0.717611
Si Si3 0.228364 0.237633 0.376541
Si Si4 0.083551 0.245072 0.172829
Si Si5 0.316118 0.941457 0.310858
Si Si6 0.808935 0.276549 0.071424
Si Si7 0.818209 0.548388 0.994862
Si Si8 0.386932 0.280739 0.130892
O O1 0.257997 0.889223 0.934903
O O2 0.517606 0.859640 0.892284
O O3 0.358568 0.132368 0.891595
O O4 0.500000 0.000000 0.000000
O O5 0.007142 0.403420 0.697891
O O6 0.203111 0.605719 0.743454
O O7 0.930512 0.684034 0.660095
O O8 0.941740 0.617070 0.780057
O O9 0.281750 0.113885 0.328287
O O10 0.199178 0.154482 0.442711
O O11 0.260442 0.220503 0.170371
O O12 0.991601 0.273112 0.098706
O O13 0.254104 0.850715 0.368184
O O14 0.493229 0.892124 0.323106
O O15 0.750975 0.383426 0.009654
O O16 0.711099 0.625039 0.931203
O O17 0.000000 0.500000 0.000000
#
# Coordination Sequence:
#
# PCOD9251706 Si02
#       8
#     4   4   4   4   4   4   4   4
#     4  11  22  39  62  98 134 167 204 269 331 383
#     4  11  22  44  68  91 122 172 221 262 325 391
#     4  11  22  41  68  94 125 177 220 254 334 398
#     4  11  22  43  65  93 126 168 217 269 315 388
#     4   9  22  40  65  92 123 172 213 258 319 386
#     4   9  20  37  63  88 123 175 205 246 322 384
#     4  11  22  40  64  95 130 171 216 265 318 399
#     4  11  24  42  63  98 136 164 217 272 327 381
#
# _framework density 20.221503999999999
#
# number of rings (size 3 to 8) (size 9 to 14) (size 15 to 20)
#    0.000    1.500    5.000    0.000    1.750    1.500 
#    4.500    4.375    0.000    0.000    0.000    0.000 
#    0.000    0.000    0.000    0.000    0.000    0.000 
#
# Total GULP energy -178315.158287 kJ/mol
# GULP energy per Si atom -5572.348696 kJ/mol
# Density = 2.017548 g / cm^3
# Si number density = 20.221504 Si / 1000 Ang^3
#
#
#
# Elastic Constant Matrix: (Units=GPa)
#
#
# Indices 1 2 3 4 5 6 
#
# 1 104.8166 47.2047 31.8066 0.0000 17.6894 0.0000
# 2 47.2047 111.9652 34.2605 0.0000 9.5954 0.0000
# 3 31.8066 34.2605 75.1162 0.0000 24.8921 0.0000
# 4 0.0000 0.0000 0.0000 32.2375 0.0000 7.8373
# 5 17.6894 9.5954 24.8921 0.0000 26.0936 0.0000
# 6 0.0000 0.0000 0.0000 7.8373 0.0000 30.6910
#
#
#
# Elastic Compliance Matrix: (Units=1/GPa)
#
#
# Indices 1 2 3 4 5 6 
#
# 1 0.013007 -0.004518 -0.001573 0.000000 -0.005656 0.000000
# 2 -0.004518 0.011968 -0.004536 0.000000 0.002989 0.000000
# 3 -0.001573 -0.004536 0.022141 0.000000 -0.018387 0.000000
# 4 0.000000 0.000000 0.000000 0.033073 0.000000 -0.008446
# 5 -0.005656 0.002989 -0.018387 0.000000 0.058599 0.000000
# 6 0.000000 0.000000 0.000000 -0.008446 0.000000 0.034740
#
#
# Mechanical properties :
#
#
# Convention : Reuss Voigt Hill
#
# Bulk Modulus (GPa) = 38.66615 57.60462 48.13539
# Shear Modulus (GPa) = 24.58200 29.71282 27.14741
#
# Velocity S-wave (km/s) = 3.49038 3.83739 3.66799
# Velocity P-wave (km/s) = 5.95034 6.94138 6.46488
#
# Compressibility (1/GPa) = 0.02586241
#
# Stress axis : x y z
#
# Youngs Moduli (GPa) = 76.88263 83.55689 45.16582
#
# Poissons Ratio (x) = 0.37749 0.07103
# Poissons Ratio (y) = 0.34734 0.20488
# Poissons Ratio (z) = 0.12091 0.37902
#
# Static dielectric constant tensor:
#      x y z
#    x 1.760270 0.000000 0.039890 
#    y 0.000000 2.052690 0.000000 
#    z 0.039890 0.000000 1.763870 
# 
# From -- ./inp_files/71994.got.cif
#   From: 2010.05.17/outbox.cif.g08.bks.cpg/sg14_36_cif.got.tgz:71994.got - 2010.06.03 17:49:19.
