data_PCOD9251110
_publ_section_title
;
Structure prediction by ZEFSAII (Michael W. Deem and Ramdas Pophale) SiO2 
 PCOD9251110
Probable space group: P 21/C
;
_chemical_formula_sum "Si O2"
_cell_formula_units_Z 22
_cell_length_a 6.720131
_cell_length_b 11.028299
_cell_length_c 13.472755
_cell_angle_alpha 90.000000
_cell_angle_beta 75.304040
_cell_angle_gamma 90.000000
_cell_volume 965.822738
_symmetry_space_group_name_H-M "P 21/C"
_symmetry_group_IT_number 14
_symmetry_cell_setting 'monoclinic'
loop_
_space_group_symop_operation_xyz
x,y,z
-x,1/2+y,1/2-z
-x,-y,-z
x,1/2-y,1/2+z
loop_
_atom_site_type_symbol
_atom_site_label
_atom_site_fract_x
_atom_site_fract_y
_atom_site_fract_z
Si Si1 0.948726 0.017720 0.391102
Si Si2 0.357371 0.787572 0.654071
Si Si3 0.773281 0.011413 0.825948
Si Si4 0.000000 0.500000 0.500000
Si Si5 0.416040 0.131709 0.542234
Si Si6 0.613834 0.154639 0.123490
O O1 0.815955 0.138206 0.384954
O O2 0.805541 0.899699 0.385130
O O3 0.000000 0.000000 0.500000
O O4 0.139328 0.021738 0.293300
O O5 0.301789 0.648649 0.670535
O O6 0.568941 0.796813 0.563857
O O7 0.368104 0.847119 0.760248
O O8 0.946156 0.997853 0.887620
O O9 0.585314 0.924782 0.878797
O O10 0.191376 0.598125 0.456295
O O11 0.557689 0.208402 0.597766
O O12 0.500000 0.000000 0.500000
#
# Coordination Sequence:
#
# PCOD9251110 Si02
#       6
#     4   4   4   2   4   4
#     4  11  26  48  77 112 157 205 263 326 401 480
#     4  11  26  46  73 112 153 199 261 328 395 473
#     4  12  28  48  79 114 152 214 256 332 402 471
#     4  12  26  52  72 112 158 202 272 320 402 464
#     4  10  25  48  73 109 150 204 256 323 390 469
#     4  12  27  50  78 113 162 207 268 332 399 485
#
# _framework density 22.778507000000001
#
# number of rings (size 3 to 8) (size 9 to 14) (size 15 to 20)
#    0.000    0.727    3.636    1.636   12.727    1.455 
#    0.000    0.000    0.000    0.000    0.000    0.000 
#    0.000    0.000    0.000    0.000    0.000    0.000 
#
# Total GULP energy -122515.091885 kJ/mol
# GULP energy per Si atom -5568.867813 kJ/mol
# Density = 2.272666 g / cm^3
# Si number density = 22.778507 Si / 1000 Ang^3
#
#
#
# Elastic Constant Matrix: (Units=GPa)
#
#
# Indices 1 2 3 4 5 6 
#
# 1 42.7376 33.8979 16.4842 0.0000 -5.1702 0.0000
# 2 33.8979 82.8474 4.3128 0.0000 -9.3102 0.0000
# 3 16.4842 4.3128 106.9740 0.0000 20.6536 0.0000
# 4 0.0000 0.0000 0.0000 33.0491 0.0000 2.1214
# 5 -5.1702 -9.3102 20.6536 0.0000 36.1827 0.0000
# 6 0.0000 0.0000 0.0000 2.1214 0.0000 40.3342
#
#
#
# Elastic Compliance Matrix: (Units=1/GPa)
#
#
# Indices 1 2 3 4 5 6 
#
# 1 0.038099 -0.014669 -0.006296 0.000000 0.005263 0.000000
# 2 -0.014669 0.018230 0.001151 0.000000 0.001938 0.000000
# 3 -0.006296 0.001151 0.011675 0.000000 -0.007268 0.000000
# 4 0.000000 0.000000 0.000000 0.030361 0.000000 -0.001597
# 5 0.005263 0.001938 -0.007268 0.000000 0.033037 0.000000
# 6 0.000000 0.000000 0.000000 -0.001597 0.000000 0.024877
#
#
# Mechanical properties :
#
#
# Convention : Reuss Voigt Hill
#
# Bulk Modulus (GPa) = 35.23980 37.99431 36.61706
# Shear Modulus (GPa) = 24.34704 33.77078 29.05891
#
# Velocity S-wave (km/s) = 3.27289 3.85460 3.57559
# Velocity P-wave (km/s) = 5.45771 6.04373 5.75818
#
# Compressibility (1/GPa) = 0.02837701
#
# Stress axis : x y z
#
# Youngs Moduli (GPa) = 26.24760 54.85378 85.65378
#
# Poissons Ratio (x) = 0.80467 0.53924
# Poissons Ratio (y) = 0.38503 -0.09862
# Poissons Ratio (z) = 0.16524 -0.06316
#
# Static dielectric constant tensor:
#      x y z
#    x 1.972600 0.000000 -0.010040 
#    y 0.000000 1.798770 0.000000 
#    z -0.010040 0.000000 2.009980 
# 
# From -- ./inp_files/36996.got.cif
#   From: 2010.05.17/outbox.cif.g08.bks.cpg/sg14_19_cif.got.tgz:36996.got - 2010.06.03 17:49:19.
