data_PCOD9251758
_publ_section_title
;
Structure prediction by ZEFSAII (Michael W. Deem and Ramdas Pophale) SiO2 
 PCOD9251758
Probable space group: P 21/C
;
_chemical_formula_sum "Si O2"
_cell_formula_units_Z 32
_cell_length_a 6.489956
_cell_length_b 25.095766
_cell_length_c 11.471141
_cell_angle_alpha 90.000000
_cell_angle_beta 45.821066
_cell_angle_gamma 90.000000
_cell_volume 1339.889721
_symmetry_space_group_name_H-M "P 21/C"
_symmetry_group_IT_number 14
_symmetry_cell_setting 'monoclinic'
loop_
_space_group_symop_operation_xyz
x,y,z
-x,1/2+y,1/2-z
-x,-y,-z
x,1/2-y,1/2+z
loop_
_atom_site_type_symbol
_atom_site_label
_atom_site_fract_x
_atom_site_fract_y
_atom_site_fract_z
Si Si1 0.583346 0.849511 0.777460
Si Si2 0.672009 0.556891 0.697135
Si Si3 0.825776 0.981537 0.374587
Si Si4 0.410904 0.033262 0.148210
Si Si5 0.582675 0.732391 0.485281
Si Si6 0.994500 0.186403 0.754246
Si Si7 0.042270 0.345595 0.505825
Si Si8 0.928651 0.109033 0.574240
O O1 0.528928 0.904361 0.870660
O O2 0.608448 0.800077 0.854051
O O3 0.873883 0.857683 0.590767
O O4 0.287529 0.843200 0.822168
O O5 0.865730 0.547041 0.733665
O O6 0.573258 0.500169 0.684849
O O7 0.829216 0.594611 0.541101
O O8 0.378809 0.588042 0.847287
O O9 0.882935 0.940783 0.456375
O O10 0.500000 0.000000 0.500000
O O11 0.067074 0.026158 0.293952
O O12 0.500000 0.000000 0.000000
O O13 0.717199 0.789774 0.413016
O O14 0.761972 0.697550 0.507153
O O15 0.248892 0.731871 0.648519
O O16 0.038574 0.167564 0.868757
O O17 0.876769 0.142119 0.712974
#
# Coordination Sequence:
#
# PCOD9251758 Si02
#       8
#     4   4   4   4   4   4   4   4
#     4  11  26  43  65 106 137 172 222 280 327 398
#     4  11  22  41  68  93 132 186 219 272 329 391
#     4  11  23  40  64  97 134 181 224 266 328 393
#     4  11  24  40  65  96 141 176 227 272 324 395
#     4  11  27  46  70  97 133 169 224 279 338 407
#     4  11  26  46  69  97 129 173 220 280 340 401
#     4  11  24  45  69  96 133 175 221 270 339 399
#     4  11  24  43  66  97 138 170 226 280 330 395
#
# _framework density 23.882562
#
# number of rings (size 3 to 8) (size 9 to 14) (size 15 to 20)
#    0.000    1.000    2.500    3.000    7.000   10.000 
#    0.000    0.000    0.000    0.000    0.000    0.000 
#    0.000    0.000    0.000    0.000    0.000    0.000 
#
# Total GULP energy -179221.813808 kJ/mol
# GULP energy per Si atom -5600.681681 kJ/mol
# Density = 2.382820 g / cm^3
# Si number density = 23.882562 Si / 1000 Ang^3
#
#
#
# Elastic Constant Matrix: (Units=GPa)
#
#
# Indices 1 2 3 4 5 6 
#
# 1 79.9559 2.2817 7.0241 0.0000 -14.3669 0.0000
# 2 2.2817 37.9874 -13.7313 0.0000 -6.7245 0.0000
# 3 7.0241 -13.7313 57.1939 0.0000 -3.2387 0.0000
# 4 0.0000 0.0000 0.0000 41.8939 0.0000 -1.8854
# 5 -14.3669 -6.7245 -3.2387 0.0000 26.6457 0.0000
# 6 0.0000 0.0000 0.0000 -1.8854 0.0000 28.9101
#
#
#
# Elastic Compliance Matrix: (Units=1/GPa)
#
#
# Indices 1 2 3 4 5 6 
#
# 1 0.013943 -0.000003 -0.001296 0.000000 0.007360 0.000000
# 2 -0.000003 0.030709 0.007866 0.000000 0.008704 0.000000
# 3 -0.001296 0.007866 0.019741 0.000000 0.003685 0.000000
# 4 0.000000 0.000000 0.000000 0.023940 0.000000 0.001561
# 5 0.007360 0.008704 0.003685 0.000000 0.044142 0.000000
# 6 0.000000 0.000000 0.000000 0.001561 0.000000 0.034692
#
#
# Mechanical properties :
#
#
# Convention : Reuss Voigt Hill
#
# Bulk Modulus (GPa) = 12.89903 18.47624 15.68763
# Shear Modulus (GPa) = 27.79685 31.46079 29.62882
#
# Velocity S-wave (km/s) = 3.41530 3.63342 3.52604
# Velocity P-wave (km/s) = 4.57876 5.03541 4.81251
#
# Compressibility (1/GPa) = 0.07752523
#
# Stress axis : x y z
#
# Youngs Moduli (GPa) = 71.71907 32.56391 50.65656
#
# Poissons Ratio (x) = 0.00011 0.06567
# Poissons Ratio (y) = 0.00024 -0.39846
# Poissons Ratio (z) = 0.09298 -0.25615
#
# Static dielectric constant tensor:
#      x y z
#    x 1.883840 0.000000 0.030450 
#    y 0.000000 1.879840 0.000000 
#    z 0.030450 0.000000 1.987320 
# 
# From -- ./inp_files/6964.got.cif
#   From: 2010.05.17/outbox.cif.g08.bks.cpg/sg14_4_cif.got.tgz:6964.got - 2010.06.03 17:49:19.
