data_PCOD9251011
_publ_section_title
;
Structure prediction by ZEFSAII (Michael W. Deem and Ramdas Pophale) SiO2 
 PCOD9251011
Probable space group: P 21/C
;
_chemical_formula_sum "Si O2"
_cell_formula_units_Z 32
_cell_length_a 8.161381
_cell_length_b 13.239497
_cell_length_c 14.266289
_cell_angle_alpha 90.000000
_cell_angle_beta 106.799402
_cell_angle_gamma 90.000000
_cell_volume 1475.721581
_symmetry_space_group_name_H-M "P 21/C"
_symmetry_group_IT_number 14
_symmetry_cell_setting 'monoclinic'
loop_
_space_group_symop_operation_xyz
x,y,z
-x,1/2+y,1/2-z
-x,-y,-z
x,1/2-y,1/2+z
loop_
_atom_site_type_symbol
_atom_site_label
_atom_site_fract_x
_atom_site_fract_y
_atom_site_fract_z
Si Si1 0.829851 0.972914 0.373772
Si Si2 0.593731 0.806137 0.245422
Si Si3 0.169677 0.654974 0.432931
Si Si4 0.058439 0.836347 0.536511
Si Si5 0.015990 0.998754 0.214834
Si Si6 0.177530 0.303477 0.388842
Si Si7 0.305682 0.557025 0.632491
Si Si8 0.455430 0.151899 0.094289
O O1 0.678152 0.907344 0.304620
O O2 0.908223 0.906549 0.470115
O O3 0.974302 0.989054 0.317219
O O4 0.796271 0.086384 0.404094
O O5 0.722706 0.767117 0.186951
O O6 0.420584 0.844802 0.168641
O O7 0.561136 0.724281 0.319266
O O8 0.114718 0.763449 0.461940
O O9 0.177865 0.584073 0.526579
O O10 0.357490 0.658157 0.419659
O O11 0.041245 0.605570 0.337575
O O12 0.977197 0.767679 0.604248
O O13 0.203835 0.972938 0.208998
O O14 0.894701 0.913706 0.147930
O O15 0.311866 0.315072 0.495592
O O16 0.418958 0.463245 0.617508
#
# Coordination Sequence:
#
# PCOD9251011 Si02
#       8
#     4   4   4   4   4   4   4   4
#     4  10  25  45  64  95 138 176 216 280 330 395
#     4  11  26  43  66 100 135 179 221 270 341 397
#     4  12  24  42  70  97 130 173 223 275 331 391
#     4  11  24  44  69  94 134 179 223 271 334 396
#     4  11  24  41  71  98 129 172 228 273 326 395
#     4  11  21  44  68  96 132 173 224 277 322 395
#     4  12  24  42  65 101 132 169 220 277 330 388
#     4  12  24  43  68  95 137 172 219 273 338 390
#
# _framework density 21.684307
#
# number of rings (size 3 to 8) (size 9 to 14) (size 15 to 20)
#    0.000    0.750    5.000    3.000    3.500    3.000 
#    0.000    0.625    0.000    0.000    0.000    0.000 
#    0.000    0.000    0.000    0.000    0.000    0.000 
#
# Total GULP energy -179089.481465 kJ/mol
# GULP energy per Si atom -5596.546296 kJ/mol
# Density = 2.163495 g / cm^3
# Si number density = 21.684307 Si / 1000 Ang^3
#
#
#
# Elastic Constant Matrix: (Units=GPa)
#
#
# Indices 1 2 3 4 5 6 
#
# 1 55.7222 6.8933 -6.8573 0.0000 -19.6640 0.0000
# 2 6.8933 94.0125 21.6992 0.0000 -16.3962 0.0000
# 3 -6.8573 21.6992 69.8977 0.0000 -13.4888 0.0000
# 4 0.0000 0.0000 0.0000 34.9251 0.0000 -4.6388
# 5 -19.6640 -16.3962 -13.4888 0.0000 30.6459 0.0000
# 6 0.0000 0.0000 0.0000 -4.6388 0.0000 21.4738
#
#
#
# Elastic Compliance Matrix: (Units=1/GPa)
#
#
# Indices 1 2 3 4 5 6 
#
# 1 0.025418 0.000036 0.006157 0.000000 0.019038 0.000000
# 2 0.000036 0.012201 -0.002754 0.000000 0.005338 0.000000
# 3 0.006157 -0.002754 0.017751 0.000000 0.010290 0.000000
# 4 0.000000 0.000000 0.000000 0.029478 0.000000 0.006368
# 5 0.019038 0.005338 0.010290 0.000000 0.052232 0.000000
# 6 0.000000 0.000000 0.000000 0.006368 0.000000 0.047944
#
#
# Mechanical properties :
#
#
# Convention : Reuss Voigt Hill
#
# Bulk Modulus (GPa) = 16.06516 29.23365 22.64941
# Shear Modulus (GPa) = 25.13861 30.60211 27.87036
#
# Velocity S-wave (km/s) = 3.40854 3.76074 3.58897
# Velocity P-wave (km/s) = 4.78703 5.68932 5.25756
#
# Compressibility (1/GPa) = 0.06224650
#
# Stress axis : x y z
#
# Youngs Moduli (GPa) = 39.34245 81.96067 56.33370
#
# Poissons Ratio (x) = -0.00292 -0.34682
# Poissons Ratio (y) = -0.00140 0.15514
# Poissons Ratio (z) = -0.24221 0.22572
#
# Static dielectric constant tensor:
#      x y z
#    x 1.768050 0.000000 0.011560 
#    y 0.000000 1.785870 0.000000 
#    z 0.011560 0.000000 1.791750 
# 
# From -- ./inp_files/40382.got.cif
#   From: 2010.05.17/outbox.cif.g08.bks.cpg/sg14_21_cif.got.tgz:40382.got - 2010.06.03 17:49:19.
