data_PCOD9251828
_publ_section_title
;
Structure prediction by ZEFSAII (Michael W. Deem and Ramdas Pophale) SiO2 
 PCOD9251828
Probable space group: P 21/C
;
_chemical_formula_sum "Si O2"
_cell_formula_units_Z 20
_cell_length_a 10.594601
_cell_length_b 12.742816
_cell_length_c 10.217530
_cell_angle_alpha 90.000000
_cell_angle_beta 142.620418
_cell_angle_gamma 90.000000
_cell_volume 837.434699
_symmetry_space_group_name_H-M "P 21/C"
_symmetry_group_IT_number 14
_symmetry_cell_setting 'monoclinic'
loop_
_space_group_symop_operation_xyz
x,y,z
-x,1/2+y,1/2-z
-x,-y,-z
x,1/2-y,1/2+z
loop_
_atom_site_type_symbol
_atom_site_label
_atom_site_fract_x
_atom_site_fract_y
_atom_site_fract_z
Si Si1 0.503969 0.278636 0.971431
Si Si2 0.226063 0.767898 0.057158
Si Si3 0.129663 0.525495 0.943393
Si Si4 0.855768 0.922786 0.798705
Si Si5 0.704567 0.569021 0.665681
O O1 0.633153 0.229311 0.957453
O O2 0.339548 0.367128 0.793036
O O3 0.363168 0.186190 0.915771
O O4 0.656345 0.308239 0.216022
O O5 0.184311 0.642631 0.035293
O O6 0.012324 0.832603 0.872868
O O7 0.233489 0.489847 0.895773
O O8 0.881791 0.527356 0.715677
O O9 0.189749 0.443948 0.105095
O O10 0.000000 0.000000 0.000000
O O11 0.500000 0.500000 0.500000
#
# Coordination Sequence:
#
# PCOD9251828 Si02
#       5
#     4   4   4   4   4
#     4  12  27  46  76 107 150 197 254 301 386 447
#     4  12  27  47  75 110 149 196 254 309 376 459
#     4  11  25  43  73 103 143 188 250 301 373 436
#     4  12  29  48  72 110 159 195 244 321 384 447
#     4  11  22  43  74 103 134 188 247 304 353 444
#
# _framework density 23.882459000000001
#
# number of rings (size 3 to 8) (size 9 to 14) (size 15 to 20)
#    0.000    0.400    4.000    3.600    5.600    8.000 
#    0.000    0.000    0.000    0.000    0.000    0.000 
#    0.000    0.000    0.000    0.000    0.000    0.000 
#
# Total GULP energy -111930.294343 kJ/mol
# GULP energy per Si atom -5596.514717 kJ/mol
# Density = 2.382810 g / cm^3
# Si number density = 23.882459 Si / 1000 Ang^3
#
#
#
# Elastic Constant Matrix: (Units=GPa)
#
#
# Indices 1 2 3 4 5 6 
#
# 1 85.8375 5.8520 25.8811 0.0000 10.6782 0.0000
# 2 5.8520 71.2493 27.2567 0.0000 14.3881 0.0000
# 3 25.8811 27.2567 90.7446 0.0000 19.7516 0.0000
# 4 0.0000 0.0000 0.0000 54.3238 0.0000 7.5176
# 5 10.6782 14.3881 19.7516 0.0000 43.2750 0.0000
# 6 0.0000 0.0000 0.0000 7.5176 0.0000 40.5157
#
#
#
# Elastic Compliance Matrix: (Units=1/GPa)
#
#
# Indices 1 2 3 4 5 6 
#
# 1 0.012878 0.000634 -0.003471 0.000000 -0.001804 0.000000
# 2 0.000634 0.016364 -0.004305 0.000000 -0.003632 0.000000
# 3 -0.003471 -0.004305 0.014217 0.000000 -0.004201 0.000000
# 4 0.000000 0.000000 0.000000 0.018893 0.000000 -0.003506
# 5 -0.001804 -0.003632 -0.004201 0.000000 0.026678 0.000000
# 6 0.000000 0.000000 0.000000 -0.003506 0.000000 0.025332
#
#
# Mechanical properties :
#
#
# Convention : Reuss Voigt Hill
#
# Bulk Modulus (GPa) = 34.27552 40.64565 37.46058
# Shear Modulus (GPa) = 36.13473 40.21235 38.17354
#
# Velocity S-wave (km/s) = 3.89398 4.10782 4.00233
# Velocity P-wave (km/s) = 5.88221 6.28927 6.08914
#
# Compressibility (1/GPa) = 0.02917535
#
# Stress axis : x y z
#
# Youngs Moduli (GPa) = 77.65445 61.11102 70.33612
#
# Poissons Ratio (x) = -0.03877 0.24411
# Poissons Ratio (y) = -0.04926 0.30283
# Poissons Ratio (z) = 0.26951 0.26311
#
# Static dielectric constant tensor:
#      x y z
#    x 1.935560 0.000000 -0.000750 
#    y 0.000000 1.917430 0.000000 
#    z -0.000750 0.000000 1.949970 
# 
# From -- ./inp_files/30077.got.cif
#   From: 2010.05.17/outbox.cif.g08.bks.cpg/sg14_16_cif.got.tgz:30077.got - 2010.06.03 17:49:19.
