data_PCOD9251906
_publ_section_title
;
Structure prediction by ZEFSAII (Michael W. Deem and Ramdas Pophale) SiO2 
 PCOD9251906
Probable space group: P 21/C
;
_chemical_formula_sum "Si O2"
_cell_formula_units_Z 20
_cell_length_a 10.627918
_cell_length_b 8.213895
_cell_length_c 8.726687
_cell_angle_alpha 90.000000
_cell_angle_beta 90.559439
_cell_angle_gamma 90.000000
_cell_volume 761.773812
_symmetry_space_group_name_H-M "P 21/C"
_symmetry_group_IT_number 14
_symmetry_cell_setting 'monoclinic'
loop_
_space_group_symop_operation_xyz
x,y,z
-x,1/2+y,1/2-z
-x,-y,-z
x,1/2-y,1/2+z
loop_
_atom_site_type_symbol
_atom_site_label
_atom_site_fract_x
_atom_site_fract_y
_atom_site_fract_z
Si Si1 0.195943 0.636226 0.591760
Si Si2 0.344291 0.642658 0.874989
Si Si3 0.460104 0.979649 0.815951
Si Si4 0.811289 0.898073 0.170531
Si Si5 0.995805 0.875122 0.638719
O O1 0.221331 0.616983 0.770305
O O2 0.289707 0.777778 0.528516
O O3 0.207096 0.469451 0.501031
O O4 0.061207 0.713052 0.572915
O O5 0.436994 0.501658 0.818438
O O6 0.422300 0.793463 0.811200
O O7 0.332729 0.080813 0.772724
O O8 0.500000 0.000000 0.000000
O O9 0.867320 0.716640 0.187784
O O10 0.908070 0.032518 0.244461
O O11 0.000000 0.000000 0.500000
#
# Coordination Sequence:
#
# PCOD9251906 Si02
#       5
#     4   4   4   4   4
#     4  11  22  47  71 102 148 190 244 305 362 430
#     4  11  23  43  74 101 148 193 236 305 364 430
#     4  11  23  46  72 108 147 190 244 301 370 435
#     4  11  25  47  74 104 148 194 246 308 361 442
#     4  12  26  46  73 108 143 195 248 295 375 442
#
# _framework density 26.254511999999998
#
# number of rings (size 3 to 8) (size 9 to 14) (size 15 to 20)
#    0.000    0.800    8.000    1.800    0.000    4.000 
#    0.000    0.000    0.000    0.000    0.000    0.000 
#    0.000    0.000    0.000    0.000    0.000    0.000 
#
# Total GULP energy -111449.031465 kJ/mol
# GULP energy per Si atom -5572.451573 kJ/mol
# Density = 2.619476 g / cm^3
# Si number density = 26.254512 Si / 1000 Ang^3
#
#
#
# Elastic Constant Matrix: (Units=GPa)
#
#
# Indices 1 2 3 4 5 6 
#
# 1 83.3839 27.8423 2.4414 0.0000 -2.6261 0.0000
# 2 27.8423 86.0679 8.8158 0.0000 -1.5366 0.0000
# 3 2.4414 8.8158 85.2731 0.0000 10.1681 0.0000
# 4 0.0000 0.0000 0.0000 29.4131 0.0000 -7.8807
# 5 -2.6261 -1.5366 10.1681 0.0000 45.7759 0.0000
# 6 0.0000 0.0000 0.0000 -7.8807 0.0000 55.5614
#
#
#
# Elastic Compliance Matrix: (Units=1/GPa)
#
#
# Indices 1 2 3 4 5 6 
#
# 1 0.013463 -0.004343 -0.000012 0.000000 0.000629 0.000000
# 2 -0.004343 0.013165 -0.001294 0.000000 0.000480 0.000000
# 3 -0.000012 -0.001294 0.012189 0.000000 -0.002752 0.000000
# 4 0.000000 0.000000 0.000000 0.035342 0.000000 0.005013
# 5 0.000629 0.000480 -0.002752 0.000000 0.022509 0.000000
# 6 0.000000 0.000000 0.000000 0.005013 0.000000 0.018709
#
#
# Mechanical properties :
#
#
# Convention : Reuss Voigt Hill
#
# Bulk Modulus (GPa) = 36.33655 36.99156 36.66406
# Shear Modulus (GPa) = 36.80628 40.52511 38.66569
#
# Velocity S-wave (km/s) = 3.74826 3.93306 3.84177
# Velocity P-wave (km/s) = 5.70988 5.89453 5.80294
#
# Compressibility (1/GPa) = 0.02752050
#
# Stress axis : x y z
#
# Youngs Moduli (GPa) = 74.27801 75.96080 82.03962
#
# Poissons Ratio (x) = 0.32988 0.00094
# Poissons Ratio (y) = 0.32257 0.10615
# Poissons Ratio (z) = 0.00085 0.09829
#
# Static dielectric constant tensor:
#      x y z
#    x 2.245910 0.000000 -0.013050 
#    y 0.000000 2.687060 0.000000 
#    z -0.013050 0.000000 2.131560 
# 
# From -- ./inp_files/11846.got.cif
#   From: 2010.05.17/outbox.cif.g08.bks.cpg/sg14_6_cif.got.tgz:11846.got - 2010.06.03 17:49:19.
