data_PCOD9251838
_publ_section_title
;
Structure prediction by ZEFSAII (Michael W. Deem and Ramdas Pophale) SiO2 
 PCOD9251838
Probable space group: P 21/C
;
_chemical_formula_sum "Si O2"
_cell_formula_units_Z 20
_cell_length_a 24.727004
_cell_length_b 8.345913
_cell_length_c 30.763425
_cell_angle_alpha 90.000000
_cell_angle_beta 8.992030
_cell_angle_gamma 90.000000
_cell_volume 992.272336
_symmetry_space_group_name_H-M "P 21/C"
_symmetry_group_IT_number 14
_symmetry_cell_setting 'monoclinic'
loop_
_space_group_symop_operation_xyz
x,y,z
-x,1/2+y,1/2-z
-x,-y,-z
x,1/2-y,1/2+z
loop_
_atom_site_type_symbol
_atom_site_label
_atom_site_fract_x
_atom_site_fract_y
_atom_site_fract_z
Si Si1 0.930326 0.447934 0.751423
Si Si2 0.213250 0.586009 0.291508
Si Si3 0.356218 0.374076 0.578407
Si Si4 0.835539 0.089477 0.015658
Si Si5 0.948186 0.912829 0.332930
O O1 0.979752 0.527455 0.758733
O O2 0.215463 0.509262 0.491165
O O3 0.891197 0.260845 0.788799
O O4 0.584608 0.506131 0.002513
O O5 0.000000 0.500000 0.500000
O O6 0.023966 0.535436 0.397852
O O7 0.327401 0.772826 0.195282
O O8 0.500000 0.500000 0.500000
O O9 0.083150 0.245789 0.815906
O O10 0.138241 0.465825 0.714487
O O11 0.456190 0.115039 0.335931
#
# Coordination Sequence:
#
# PCOD9251838 Si02
#       5
#     4   4   4   4   4
#     4  11  23  42  66  94 134 171 215 277 328 396
#     4  11  22  44  67  93 134 176 217 273 337 395
#     4  11  24  44  68  98 134 175 225 277 334 408
#     4  11  23  43  70  92 133 174 217 271 339 392
#     4  12  24  42  66  99 130 169 225 269 332 399
#
# _framework density 20.155759
#
# number of rings (size 3 to 8) (size 9 to 14) (size 15 to 20)
#    0.000    0.800    2.000    8.400    0.000    0.000 
#    7.200    2.000    0.000    0.000    0.000    0.000 
#    0.000    0.000    0.000    0.000    0.000    0.000 
#
# Total GULP energy -111612.873792 kJ/mol
# GULP energy per Si atom -5580.643690 kJ/mol
# Density = 2.010988 g / cm^3
# Si number density = 20.155759 Si / 1000 Ang^3
#
#
#
# Elastic Constant Matrix: (Units=GPa)
#
#
# Indices 1 2 3 4 5 6 
#
# 1 135.2864 45.6558 30.7965 0.0000 -5.5110 -0.0001
# 2 45.6558 130.6281 26.6289 0.0000 -3.7031 0.0000
# 3 30.7965 26.6289 62.5202 0.0001 19.8659 -0.0001
# 4 0.0000 0.0000 0.0001 30.6204 0.0000 -24.3454
# 5 -5.5110 -3.7031 19.8659 0.0000 59.2926 0.0000
# 6 -0.0001 0.0000 -0.0001 -24.3454 0.0000 74.5914
#
#
#
# Elastic Compliance Matrix: (Units=1/GPa)
#
#
# Indices 1 2 3 4 5 6 
#
# 1 0.009219 -0.002297 -0.004241 0.000000 0.002134 0.000000
# 2 -0.002297 0.009157 -0.003226 0.000000 0.001439 0.000000
# 3 -0.004241 -0.003226 0.021988 0.000000 -0.007963 0.000000
# 4 0.000000 0.000000 0.000000 0.044102 0.000000 0.014394
# 5 0.002134 0.001439 -0.007963 0.000000 0.019822 0.000000
# 6 0.000000 0.000000 0.000000 0.014394 0.000000 0.018104
#
#
# Mechanical properties :
#
#
# Convention : Reuss Voigt Hill
#
# Bulk Modulus (GPa) = 47.99408 59.39969 53.69688
# Shear Modulus (GPa) = 33.58727 47.92444 40.75585
#
# Velocity S-wave (km/s) = 4.08657 4.88146 4.50159
# Velocity P-wave (km/s) = 6.79191 7.82981 7.32925
#
# Compressibility (1/GPa) = 0.02083591
#
# Stress axis : x y z
#
# Youngs Moduli (GPa) = 108.46738 109.21101 45.47927
#
# Poissons Ratio (x) = 0.25088 0.19288
# Poissons Ratio (y) = 0.24917 0.14670
# Poissons Ratio (z) = 0.46002 0.35229
#
# Static dielectric constant tensor:
#      x y z
#    x 1.697450 0.000000 0.116540 
#    y 0.000000 1.759470 0.000000 
#    z 0.116540 0.000000 1.716050 
# 
# From -- ./inp_files/80613.got.cif
#   From: 2010.05.17/outbox.cif.g08.bks.cpg/sg14_41_cif.got.tgz:80613.got - 2010.06.03 17:49:19.
