data_PCOD9251350
_publ_section_title
;
Structure prediction by ZEFSAII (Michael W. Deem and Ramdas Pophale) SiO2 
 PCOD9251350
Probable space group: P 21/C
;
_chemical_formula_sum "Si O2"
_cell_formula_units_Z 32
_cell_length_a 13.890177
_cell_length_b 24.765404
_cell_length_c 8.350172
_cell_angle_alpha 90.000000
_cell_angle_beta 31.987727
_cell_angle_gamma 90.000000
_cell_volume 1521.631237
_symmetry_space_group_name_H-M "P 21/C"
_symmetry_group_IT_number 14
_symmetry_cell_setting 'monoclinic'
loop_
_space_group_symop_operation_xyz
x,y,z
-x,1/2+y,1/2-z
-x,-y,-z
x,1/2-y,1/2+z
loop_
_atom_site_type_symbol
_atom_site_label
_atom_site_fract_x
_atom_site_fract_y
_atom_site_fract_z
Si Si1 0.005960 0.584150 0.196122
Si Si2 0.371867 0.737706 0.054837
Si Si3 0.705160 0.499511 0.639621
Si Si4 0.130740 0.202411 0.606200
Si Si5 0.359082 0.227697 0.584897
Si Si6 0.126260 0.699460 0.134555
Si Si7 0.000795 0.910678 0.314836
Si Si8 0.293346 0.495864 0.748023
O O1 0.828379 0.551976 0.509596
O O2 0.042486 0.641418 0.222429
O O3 0.004193 0.591138 0.004648
O O4 0.177404 0.545220 0.981246
O O5 0.533336 0.703089 0.913326
O O6 0.209608 0.706311 0.194439
O O7 0.289224 0.783957 0.284601
O O8 0.475071 0.767794 0.769401
O O9 0.707265 0.502386 0.443659
O O10 0.829269 0.445629 0.492998
O O11 0.500000 0.500000 0.000000
O O12 0.206801 0.203373 0.680497
O O13 0.020423 0.149244 0.720368
O O14 0.018306 0.255905 0.719491
O O15 0.293220 0.214270 0.248433
O O16 0.815598 0.943372 0.539535
O O17 0.500000 0.500000 0.500000
#
# Coordination Sequence:
#
# PCOD9251350 Si02
#       8
#     4   4   4   4   4   4   4   4
#     4   9  19  37  61  87 118 159 201 245 307 377
#     4   9  20  36  54  81 119 162 204 243 289 352
#     4   9  19  41  66  90 115 144 201 274 320 353
#     4  11  20  36  59  85 121 163 200 243 295 361
#     4   9  20  36  54  81 119 162 204 243 289 352
#     4  11  20  36  59  85 121 163 200 243 295 361
#     4   9  19  37  61  87 118 159 201 245 307 377
#     4   9  19  37  62  86 112 154 201 240 300 379
#
# _framework density 21.030062999999998
#
# number of rings (size 3 to 8) (size 9 to 14) (size 15 to 20)
#    0.000    2.500    0.000    3.750    0.000    3.000 
#    0.000   18.750    0.000    0.000    0.000    2.625 
#    0.000    0.000    0.000    0.000    0.000    0.000 
#
# Total GULP energy -178153.533625 kJ/mol
# GULP energy per Si atom -5567.297926 kJ/mol
# Density = 2.098220 g / cm^3
# Si number density = 21.030063 Si / 1000 Ang^3
#
#
#
# Elastic Constant Matrix: (Units=GPa)
#
#
# Indices 1 2 3 4 5 6 
#
# 1 91.2943 30.9592 -2.9512 0.0000 -22.9855 0.0000
# 2 30.9592 100.4682 26.7955 0.0000 -5.3010 0.0000
# 3 -2.9512 26.7955 102.7050 0.0000 -8.9956 0.0000
# 4 0.0000 0.0000 0.0000 10.4198 0.0000 3.4071
# 5 -22.9855 -5.3010 -8.9956 0.0000 39.2916 0.0000
# 6 0.0000 0.0000 0.0000 3.4071 0.0000 28.8676
#
#
#
# Elastic Compliance Matrix: (Units=1/GPa)
#
#
# Indices 1 2 3 4 5 6 
#
# 1 0.014801 -0.004753 0.002416 0.000000 0.008571 0.000000
# 2 -0.004753 0.012250 -0.003502 0.000000 -0.001930 0.000000
# 3 0.002416 -0.003502 0.011023 0.000000 0.003465 0.000000
# 4 0.000000 0.000000 0.000000 0.099824 0.000000 -0.011782
# 5 0.008571 -0.001930 0.003465 0.000000 0.030997 0.000000
# 6 0.000000 0.000000 0.000000 -0.011782 0.000000 0.036031
#
#
# Mechanical properties :
#
#
# Convention : Reuss Voigt Hill
#
# Bulk Modulus (GPa) = 37.88281 44.89716 41.38999
# Shear Modulus (GPa) = 22.18236 31.69339 26.93787
#
# Velocity S-wave (km/s) = 3.25128 3.88629 3.58288
# Velocity P-wave (km/s) = 5.66985 6.44461 6.06961
#
# Compressibility (1/GPa) = 0.02639720
#
# Stress axis : x y z
#
# Youngs Moduli (GPa) = 67.56091 81.63129 90.71877
#
# Poissons Ratio (x) = 0.38801 -0.21919
# Poissons Ratio (y) = 0.32113 0.31766
# Poissons Ratio (z) = -0.16323 0.28584
#
# Static dielectric constant tensor:
#      x y z
#    x 1.886130 0.000000 -0.037550 
#    y 0.000000 1.722980 0.000000 
#    z -0.037550 0.000000 1.877760 
# 
# From -- ./inp_files/17036.got.cif
#   From: 2010.05.17/outbox.cif.g08.bks.cpg/sg14_9_cif.got.tgz:17036.got - 2010.06.03 17:49:19.
