data_PCOD9251281
_publ_section_title
;
Structure prediction by ZEFSAII (Michael W. Deem and Ramdas Pophale) SiO2 
 PCOD9251281
Probable space group: P 21/C
;
_chemical_formula_sum "Si O2"
_cell_formula_units_Z 20
_cell_length_a 7.608614
_cell_length_b 15.611628
_cell_length_c 7.085571
_cell_angle_alpha 90.000000
_cell_angle_beta 93.984823
_cell_angle_gamma 90.000000
_cell_volume 839.609646
_symmetry_space_group_name_H-M "P 21/C"
_symmetry_group_IT_number 14
_symmetry_cell_setting 'monoclinic'
loop_
_space_group_symop_operation_xyz
x,y,z
-x,1/2+y,1/2-z
-x,-y,-z
x,1/2-y,1/2+z
loop_
_atom_site_type_symbol
_atom_site_label
_atom_site_fract_x
_atom_site_fract_y
_atom_site_fract_z
Si Si1 0.637189 0.050323 0.718977
Si Si2 0.992142 0.599174 0.726758
Si Si3 0.353943 0.179608 0.823179
Si Si4 0.530851 0.864360 0.752974
Si Si5 0.814707 0.075960 0.118036
O O1 0.488482 0.122193 0.711461
O O2 0.821005 0.088893 0.654519
O O3 0.582813 0.954463 0.660552
O O4 0.688018 0.038721 0.944624
O O5 0.841996 0.665192 0.771227
O O6 0.904954 0.504447 0.724733
O O7 0.042992 0.619554 0.510184
O O8 0.413143 0.277165 0.840637
O O9 0.373677 0.143943 0.036771
O O10 0.319192 0.868115 0.770875
#
# Coordination Sequence:
#
# PCOD9251281 Si02
#       5
#     4   4   4   4   4
#     4   9  17  34  53  74 103 138 181 210 247 308
#     4   9  15  31  55  77  95 134 186 215 243 301
#     4  11  20  35  52  82 105 138 176 215 259 315
#     4  11  19  34  56  78 110 135 174 220 264 301
#     4   8  14  29  56  73  91 134 179 214 243 295
#
# _framework density 23.820594
#
# number of rings (size 3 to 8) (size 9 to 14) (size 15 to 20)
#    1.200    1.200    4.000    1.200    0.000    0.000 
#    7.200    1.000    0.000    1.200    0.000    0.000 
#    0.000    0.000    0.000    0.000    0.000    0.000 
#
# Total GULP energy -111488.375570 kJ/mol
# GULP energy per Si atom -5574.418779 kJ/mol
# Density = 2.376638 g / cm^3
# Si number density = 23.820594 Si / 1000 Ang^3
#
#
#
# Elastic Constant Matrix: (Units=GPa)
#
#
# Indices 1 2 3 4 5 6 
#
# 1 176.4793 83.8769 13.0516 0.0000 -38.7700 0.0000
# 2 83.8769 162.6130 32.0362 0.0000 -10.3884 0.0000
# 3 13.0516 32.0362 50.1143 0.0000 8.3557 0.0000
# 4 0.0000 0.0000 0.0000 28.2829 0.0000 -17.4225
# 5 -38.7700 -10.3884 8.3557 0.0000 -10.6450 0.0000
# 6 0.0000 0.0000 0.0000 -17.4225 0.0000 17.3660
#
#
#
# Elastic Compliance Matrix: (Units=1/GPa)
#
#
# Indices 1 2 3 4 5 6 
#
# 1 0.004762 -0.003777 0.003052 0.000000 -0.011261 0.000000
# 2 -0.003777 0.009142 -0.005011 0.000000 0.000900 0.000000
# 3 0.003052 -0.005011 0.020693 0.000000 0.010017 0.000000
# 4 0.000000 0.000000 0.000000 0.092560 0.000000 0.092861
# 5 -0.011261 0.000900 0.010017 0.000000 -0.045941 0.000000
# 6 0.000000 0.000000 0.000000 0.092861 0.000000 0.150747
#
#
# Mechanical properties :
#
#
# Convention : Reuss Voigt Hill
#
# Bulk Modulus (GPa) = 43.24298 71.90402 57.57350
# Shear Modulus (GPa) = 19.90902 24.35025 22.12963
#
# Velocity S-wave (km/s) = 2.89414 3.20071 3.05128
# Velocity P-wave (km/s) = 5.41859 6.62651 6.05275
#
# Compressibility (1/GPa) = 0.02312514
#
# Stress axis : x y z
#
# Youngs Moduli (GPa) = 210.00637 109.38070 48.32646
#
# Poissons Ratio (x) = 0.41311 -0.14749
# Poissons Ratio (y) = 0.79316 0.24216
# Poissons Ratio (z) = -0.64092 0.54809
#
# Static dielectric constant tensor:
#      x y z
#    x 1.951760 0.000000 -0.016620 
#    y 0.000000 1.872410 0.000000 
#    z -0.016620 0.000000 2.027440 
# 
# From -- ./inp_files/8323.got.cif
#   From: 2010.05.17/outbox.cif.g08.bks.cpg/sg14_5_cif.got.tgz:8323.got - 2010.06.03 17:49:19.
