data_PCOD9251654
_publ_section_title
;
Structure prediction by ZEFSAII (Michael W. Deem and Ramdas Pophale) SiO2 
 PCOD9251654
Probable space group: P 21/C
;
_chemical_formula_sum "Si O2"
_cell_formula_units_Z 20
_cell_length_a 6.951064
_cell_length_b 5.985175
_cell_length_c 23.850982
_cell_angle_alpha 90.000000
_cell_angle_beta 48.161397
_cell_angle_gamma 90.000000
_cell_volume 739.275432
_symmetry_space_group_name_H-M "P 21/C"
_symmetry_group_IT_number 14
_symmetry_cell_setting 'monoclinic'
loop_
_space_group_symop_operation_xyz
x,y,z
-x,1/2+y,1/2-z
-x,-y,-z
x,1/2-y,1/2+z
loop_
_atom_site_type_symbol
_atom_site_label
_atom_site_fract_x
_atom_site_fract_y
_atom_site_fract_z
Si Si1 0.632936 0.168640 0.795212
Si Si2 0.803326 0.608555 0.169699
Si Si3 0.070906 0.008031 0.164363
Si Si4 0.779980 0.498612 0.995933
Si Si5 0.231882 0.007954 0.001387
O O1 0.366356 0.300525 0.848759
O O2 0.884343 0.309068 0.728099
O O3 0.693730 0.027065 0.838341
O O4 0.597467 0.027990 0.745442
O O5 0.911355 0.778830 0.194257
O O6 0.056893 0.499324 0.093832
O O7 0.133125 0.019931 0.085709
O O8 0.653704 0.249066 0.024634
O O9 0.642024 0.740616 0.026983
O O10 0.000000 0.500000 0.000000
O O11 0.000000 0.000000 0.000000
#
# Coordination Sequence:
#
# PCOD9251654 Si02
#       5
#     4   4   4   4   4
#     4  12  22  36  58  90 122 164 206 260 318 382
#     4  11  22  36  58  87 124 160 208 258 316 374
#     4  11  22  36  58  87 124 160 208 258 316 374
#     4   9  18  34  59  84 113 161 211 248 306 370
#     4   9  18  34  59  84 113 161 211 248 306 370
#
# _framework density 27.053515999999998
#
# number of rings (size 3 to 8) (size 9 to 14) (size 15 to 20)
#    0.000    1.600    6.000    0.000    0.000    0.000 
#    0.000    0.000    0.000   21.600    0.000    0.000 
#    0.000    0.000    0.000    0.000    0.000    0.000 
#
# Total GULP energy -111489.442731 kJ/mol
# GULP energy per Si atom -5574.472137 kJ/mol
# Density = 2.699194 g / cm^3
# Si number density = 27.053516 Si / 1000 Ang^3
#
#
#
# Elastic Constant Matrix: (Units=GPa)
#
#
# Indices 1 2 3 4 5 6 
#
# 1 127.4822 16.5118 20.3648 0.0000 40.0287 0.0000
# 2 16.5118 184.6798 46.5608 0.0000 -1.8887 0.0000
# 3 20.3648 46.5608 135.0175 0.0000 25.2193 0.0000
# 4 0.0000 0.0000 0.0000 37.2791 0.0000 -3.8872
# 5 40.0287 -1.8887 25.2193 0.0000 41.6374 0.0000
# 6 0.0000 0.0000 0.0000 -3.8872 0.0000 26.4012
#
#
#
# Elastic Compliance Matrix: (Units=1/GPa)
#
#
# Indices 1 2 3 4 5 6 
#
# 1 0.011562 -0.001388 0.000927 0.000000 -0.011740 0.000000
# 2 -0.001388 0.006206 -0.002517 0.000000 0.003140 0.000000
# 3 0.000927 -0.002517 0.009384 0.000000 -0.006690 0.000000
# 4 0.000000 0.000000 0.000000 0.027243 0.000000 0.004011
# 5 -0.011740 0.003140 -0.006690 0.000000 0.039498 0.000000
# 6 0.000000 0.000000 0.000000 0.004011 0.000000 0.038468
#
#
# Mechanical properties :
#
#
# Convention : Reuss Voigt Hill
#
# Bulk Modulus (GPa) = 47.17622 68.22825 57.70223
# Shear Modulus (GPa) = 34.39241 45.31300 39.85271
#
# Velocity S-wave (km/s) = 3.56936 4.09704 3.84227
# Velocity P-wave (km/s) = 5.87053 6.90330 6.40775
#
# Compressibility (1/GPa) = 0.02119712
#
# Stress axis : x y z
#
# Youngs Moduli (GPa) = 86.48907 161.14480 106.56244
#
# Poissons Ratio (x) = 0.22361 -0.09884
# Poissons Ratio (y) = 0.12002 0.26824
# Poissons Ratio (z) = -0.08022 0.40564
#
# Static dielectric constant tensor:
#      x y z
#    x 2.055230 0.000000 -0.024160 
#    y 0.000000 2.311770 0.000000 
#    z -0.024160 0.000000 2.093140 
# 
# From -- ./inp_files/64160.got.cif
#   From: 2010.05.17/outbox.cif.g08.bks.cpg/sg14_33_cif.got.tgz:64160.got - 2010.06.03 17:49:19.
