data_PCOD9251123
_publ_section_title
;
Structure prediction by ZEFSAII (Michael W. Deem and Ramdas Pophale) SiO2 
 PCOD9251123
Probable space group: P 21/C
;
_chemical_formula_sum "Si O2"
_cell_formula_units_Z 20
_cell_length_a 16.341972
_cell_length_b 5.482752
_cell_length_c 15.728616
_cell_angle_alpha 90.000000
_cell_angle_beta 147.348025
_cell_angle_gamma 90.000000
_cell_volume 760.349072
_symmetry_space_group_name_H-M "P 21/C"
_symmetry_group_IT_number 14
_symmetry_cell_setting 'monoclinic'
loop_
_space_group_symop_operation_xyz
x,y,z
-x,1/2+y,1/2-z
-x,-y,-z
x,1/2-y,1/2+z
loop_
_atom_site_type_symbol
_atom_site_label
_atom_site_fract_x
_atom_site_fract_y
_atom_site_fract_z
Si Si1 0.096198 0.062830 0.783420
Si Si2 0.335283 0.769100 0.417635
Si Si3 0.253805 0.440081 0.996598
Si Si4 0.630732 0.022350 0.219909
Si Si5 0.086326 0.252958 0.599047
O O1 0.211597 0.152009 0.957269
O O2 0.098112 0.263051 0.710710
O O3 0.921560 0.032313 0.652495
O O4 0.173259 0.838599 0.803260
O O5 0.349068 0.992507 0.495430
O O6 0.342038 0.751109 0.320858
O O7 0.463756 0.577868 0.557804
O O8 0.334822 0.547640 0.150384
O O9 0.747869 0.808117 0.292689
O O10 0.000000 0.500000 0.500000
O O11 0.000000 0.000000 0.500000
#
# Coordination Sequence:
#
# PCOD9251123 Si02
#       5
#     4   4   4   4   4
#     4  11  25  40  70 104 145 189 252 311 372 457
#     4  10  25  50  68 104 152 189 260 318 387 462
#     4  12  24  43  74 103 146 197 253 316 382 459
#     4  10  25  49  72 108 147 199 253 325 386 459
#     4  11  25  46  75 107 145 199 253 310 380 450
#
# _framework density 26.303705000000001
#
# number of rings (size 3 to 8) (size 9 to 14) (size 15 to 20)
#    0.000    1.200    4.000    0.000   11.200    0.000 
#    3.600    3.000    0.000    0.000    0.000    0.000 
#    0.000    0.000    0.000    0.000    0.000    0.000 
#
# Total GULP energy -111657.188375 kJ/mol
# GULP energy per Si atom -5582.859419 kJ/mol
# Density = 2.624384 g / cm^3
# Si number density = 26.303705 Si / 1000 Ang^3
#
#
#
# Elastic Constant Matrix: (Units=GPa)
#
#
# Indices 1 2 3 4 5 6 
#
# 1 99.6162 40.6934 38.7176 0.0000 -3.5973 0.0000
# 2 40.6934 70.9801 24.0452 0.0000 -10.1259 0.0000
# 3 38.7176 24.0452 101.1632 0.0000 -14.9333 0.0000
# 4 0.0000 0.0000 0.0000 31.1007 0.0000 4.5918
# 5 -3.5973 -10.1259 -14.9333 0.0000 46.8231 0.0000
# 6 0.0000 0.0000 0.0000 4.5918 0.0000 27.0529
#
#
#
# Elastic Compliance Matrix: (Units=1/GPa)
#
#
# Indices 1 2 3 4 5 6 
#
# 1 0.014500 -0.007172 -0.004102 0.000000 -0.001745 0.000000
# 2 -0.007172 0.019101 -0.001329 0.000000 0.003156 0.000000
# 3 -0.004102 -0.001329 0.012259 0.000000 0.003307 0.000000
# 4 0.000000 0.000000 0.000000 0.032980 0.000000 -0.005598
# 5 -0.001745 0.003156 0.003307 0.000000 0.022960 0.000000
# 6 0.000000 0.000000 0.000000 -0.005598 0.000000 0.037915
#
#
# Mechanical properties :
#
#
# Convention : Reuss Voigt Hill
#
# Bulk Modulus (GPa) = 48.42055 53.18577 50.80316
# Shear Modulus (GPa) = 29.10253 32.21554 30.65904
#
# Velocity S-wave (km/s) = 3.32987 3.50344 3.41776
# Velocity P-wave (km/s) = 5.76475 6.05221 5.91023
#
# Compressibility (1/GPa) = 0.02065239
#
# Stress axis : x y z
#
# Youngs Moduli (GPa) = 68.96651 52.35391 81.57124
#
# Poissons Ratio (x) = 0.37549 0.33463
# Poissons Ratio (y) = 0.49464 0.10843
# Poissons Ratio (z) = 0.28293 0.06959
#
# Static dielectric constant tensor:
#      x y z
#    x 2.112700 0.000000 -0.075560 
#    y 0.000000 2.455960 0.000000 
#    z -0.075560 0.000000 2.121560 
# 
# From -- ./inp_files/59993.got.cif
#   From: 2010.05.17/outbox.cif.g08.bks.cpg/sg14_30_cif.got.tgz:59993.got - 2010.06.03 17:49:19.
