data_PCOD9251627
_publ_section_title
;
Structure prediction by ZEFSAII (Michael W. Deem and Ramdas Pophale) SiO2 
 PCOD9251627
Probable space group: P 21/C
;
_chemical_formula_sum "Si O2"
_cell_formula_units_Z 28
_cell_length_a 13.383766
_cell_length_b 7.389870
_cell_length_c 14.838948
_cell_angle_alpha 90.000000
_cell_angle_beta 132.430394
_cell_angle_gamma 90.000000
_cell_volume 1083.258241
_symmetry_space_group_name_H-M "P 21/C"
_symmetry_group_IT_number 14
_symmetry_cell_setting 'monoclinic'
loop_
_space_group_symop_operation_xyz
x,y,z
-x,1/2+y,1/2-z
-x,-y,-z
x,1/2-y,1/2+z
loop_
_atom_site_type_symbol
_atom_site_label
_atom_site_fract_x
_atom_site_fract_y
_atom_site_fract_z
Si Si1 0.851562 0.629753 0.150119
Si Si2 0.837401 0.478883 0.636318
Si Si3 0.407393 0.875647 0.771708
Si Si4 0.424358 0.719772 0.577358
Si Si5 0.853741 0.027041 0.949854
Si Si6 0.646082 0.499611 0.169288
Si Si7 0.143612 0.957082 0.542829
O O1 0.753751 0.509706 0.153828
O O2 0.014815 0.604854 0.257316
O O3 0.821143 0.828935 0.174325
O O4 0.827019 0.559556 0.032637
O O5 0.714564 0.337893 0.557948
O O6 0.842713 0.562441 0.538874
O O7 0.419946 0.812053 0.674747
O O8 0.407639 0.698806 0.834158
O O9 0.264219 0.980843 0.687486
O O10 0.515460 0.021171 0.867267
O O11 0.525033 0.855858 0.586903
O O12 0.738872 0.958711 0.813797
O O13 0.849684 0.240996 0.966809
O O14 0.000000 0.000000 0.000000
O O15 0.000000 0.000000 0.500000
#
# Coordination Sequence:
#
# PCOD9251627 Si02
#       7
#     4   4   4   4   4   4   4
#     4  12  29  48  77 119 160 205 263 341 397 467
#     4  12  26  48  76 110 161 202 263 325 405 473
#     4  11  25  47  84 115 154 211 266 323 394 477
#     4  12  25  49  82 116 155 209 270 320 401 478
#     4  11  21  45  75 110 150 204 262 319 386 468
#     4  11  26  50  79 117 163 203 267 333 390 473
#     4  11  26  46  79 114 151 206 261 322 401 470
#
# _framework density 25.847946
#
# number of rings (size 3 to 8) (size 9 to 14) (size 15 to 20)
#    0.000    0.571    5.714    1.714    8.000    0.571 
#    2.571    2.857    0.000    0.000    0.000    0.000 
#    0.000    0.000    0.000    0.000    0.000    0.000 
#
# Total GULP energy -156664.839576 kJ/mol
# GULP energy per Si atom -5595.172842 kJ/mol
# Density = 2.578912 g / cm^3
# Si number density = 25.847946 Si / 1000 Ang^3
#
#
#
# Elastic Constant Matrix: (Units=GPa)
#
#
# Indices 1 2 3 4 5 6 
#
# 1 74.2657 39.4551 28.8574 0.0000 29.0339 0.0000
# 2 39.4551 140.9653 70.4480 0.0000 28.9415 0.0000
# 3 28.8574 70.4480 95.5551 0.0000 29.8818 0.0000
# 4 0.0000 0.0000 0.0000 33.3630 0.0000 14.0241
# 5 29.0339 28.9415 29.8818 0.0000 46.1040 0.0000
# 6 0.0000 0.0000 0.0000 14.0241 0.0000 48.4891
#
#
#
# Elastic Compliance Matrix: (Units=1/GPa)
#
#
# Indices 1 2 3 4 5 6 
#
# 1 0.019124 -0.003143 -0.000388 0.000000 -0.009819 0.000000
# 2 -0.003143 0.011915 -0.007670 0.000000 -0.000529 0.000000
# 3 -0.000388 -0.007670 0.018380 0.000000 -0.006854 0.000000
# 4 0.000000 0.000000 0.000000 0.034122 0.000000 -0.009869
# 5 -0.009819 -0.000529 -0.006854 0.000000 0.032649 0.000000
# 6 0.000000 0.000000 0.000000 -0.009869 0.000000 0.023477
#
#
# Mechanical properties :
#
#
# Convention : Reuss Voigt Hill
#
# Bulk Modulus (GPa) = 37.01110 65.36745 51.18927
# Shear Modulus (GPa) = 29.22690 37.05958 33.14324
#
# Velocity S-wave (km/s) = 3.36627 3.79060 3.58472
# Velocity P-wave (km/s) = 5.42761 6.67101 6.08117
#
# Compressibility (1/GPa) = 0.02701892
#
# Stress axis : x y z
#
# Youngs Moduli (GPa) = 52.28911 83.92498 54.40613
#
# Poissons Ratio (x) = 0.26378 0.02109
# Poissons Ratio (y) = 0.16435 0.41729
# Poissons Ratio (z) = 0.02027 0.64370
#
# Static dielectric constant tensor:
#      x y z
#    x 2.112290 0.000000 -0.017010 
#    y 0.000000 -0.082650 0.000000 
#    z -0.017010 0.000000 2.088220 
# 
# From -- ./inp_files/46565.got.cif
#   From: 2010.05.17/outbox.cif.g08.bks.cpg/sg14_24_cif.got.tgz:46565.got - 2010.06.03 17:49:19.
