data_PCOD9251247
_publ_section_title
;
Structure prediction by ZEFSAII (Michael W. Deem and Ramdas Pophale) SiO2 
 PCOD9251247
Probable space group: P 21/C
;
_chemical_formula_sum "Si O2"
_cell_formula_units_Z 20
_cell_length_a 12.824610
_cell_length_b 7.808370
_cell_length_c 8.649638
_cell_angle_alpha 90.000000
_cell_angle_beta 117.250183
_cell_angle_gamma 90.000000
_cell_volume 770.037550
_symmetry_space_group_name_H-M "P 21/C"
_symmetry_group_IT_number 14
_symmetry_cell_setting 'monoclinic'
loop_
_space_group_symop_operation_xyz
x,y,z
-x,1/2+y,1/2-z
-x,-y,-z
x,1/2-y,1/2+z
loop_
_atom_site_type_symbol
_atom_site_label
_atom_site_fract_x
_atom_site_fract_y
_atom_site_fract_z
Si Si1 0.393922 0.360095 0.055824
Si Si2 0.405388 0.612984 0.336339
Si Si3 0.174905 0.817881 0.878186
Si Si4 0.938872 0.534394 0.292541
Si Si5 0.265504 0.091193 0.169764
O O1 0.379182 0.516074 0.160718
O O2 0.369543 0.407249 0.863544
O O3 0.522110 0.280443 0.156052
O O4 0.305728 0.214290 0.060573
O O5 0.500000 0.500000 0.500000
O O6 0.284075 0.645613 0.340956
O O7 0.134171 0.619347 0.837642
O O8 0.223183 0.911199 0.067262
O O9 0.047490 0.906615 0.761420
O O10 0.839846 0.661902 0.292225
O O11 0.000000 0.500000 0.500000
#
# Coordination Sequence:
#
# PCOD9251247 Si02
#       5
#     4   4   4   4   4
#     4  12  27  48  81 114 165 214 267 335 401 482
#     4  12  27  50  80 116 167 210 272 326 413 478
#     4  11  26  53  81 117 160 212 272 333 402 480
#     4  10  27  48  81 115 161 206 270 329 403 474
#     4  11  25  49  78 113 157 208 269 329 403 468
#
# _framework density 25.972757999999999
#
# number of rings (size 3 to 8) (size 9 to 14) (size 15 to 20)
#    0.000    0.800    4.000    0.000   11.200    5.600 
#    0.000    5.000    0.000    0.000    0.000    0.000 
#    0.000    0.000    0.000    0.000    0.000    0.000 
#
# Total GULP energy -111828.254359 kJ/mol
# GULP energy per Si atom -5591.412718 kJ/mol
# Density = 2.591364 g / cm^3
# Si number density = 25.972758 Si / 1000 Ang^3
#
#
#
# Elastic Constant Matrix: (Units=GPa)
#
#
# Indices 1 2 3 4 5 6 
#
# 1 256.4739 73.9782 18.5719 0.0000 9.5054 0.0000
# 2 73.9782 85.6281 50.9455 0.0000 4.2954 0.0000
# 3 18.5719 50.9455 130.2760 0.0000 -6.5979 0.0000
# 4 0.0000 0.0000 0.0000 61.3084 0.0000 5.3948
# 5 9.5054 4.2954 -6.5979 0.0000 26.3670 0.0000
# 6 0.0000 0.0000 0.0000 5.3948 0.0000 50.8758
#
#
#
# Elastic Compliance Matrix: (Units=1/GPa)
#
#
# Indices 1 2 3 4 5 6 
#
# 1 0.005388 -0.005393 0.001304 0.000000 -0.000737 0.000000
# 2 -0.005393 0.021051 -0.007635 0.000000 -0.003396 0.000000
# 3 0.001304 -0.007635 0.010650 0.000000 0.003439 0.000000
# 4 0.000000 0.000000 0.000000 0.016465 0.000000 -0.001746
# 5 -0.000737 -0.003396 0.003439 0.000000 0.039606 0.000000
# 6 0.000000 0.000000 0.000000 -0.001746 0.000000 0.019841
#
#
# Mechanical properties :
#
#
# Convention : Reuss Voigt Hill
#
# Bulk Modulus (GPa) = 73.31907 84.37438 78.84672
# Shear Modulus (GPa) = 35.46201 49.63573 42.54887
#
# Velocity S-wave (km/s) = 3.69908 4.37632 4.05187
# Velocity P-wave (km/s) = 6.82164 7.62184 7.23281
#
# Compressibility (1/GPa) = 0.01363902
#
# Stress axis : x y z
#
# Youngs Moduli (GPa) = 185.61094 47.50379 93.89529
#
# Poissons Ratio (x) = 0.25620 -0.12241
# Poissons Ratio (y) = 1.00105 0.71692
# Poissons Ratio (z) = -0.24198 0.36270
#
# Static dielectric constant tensor:
#      x y z
#    x 2.107120 0.000000 0.034880 
#    y 0.000000 2.103030 0.000000 
#    z 0.034880 0.000000 2.114120 
# 
# From -- ./inp_files/27609.got.cif
#   From: 2010.05.17/outbox.cif.g08.bks.cpg/sg14_14_cif.got.tgz:27609.got - 2010.06.03 17:49:19.
