data_PCOD9251801
_publ_section_title
;
Structure prediction by ZEFSAII (Michael W. Deem and Ramdas Pophale) SiO2 
 PCOD9251801
Probable space group: P 21/C
;
_chemical_formula_sum "Si O2"
_cell_formula_units_Z 32
_cell_length_a 30.543090
_cell_length_b 10.828122
_cell_length_c 8.915400
_cell_angle_alpha 90.000000
_cell_angle_beta 150.750035
_cell_angle_gamma 90.000000
_cell_volume 1440.717443
_symmetry_space_group_name_H-M "P 21/C"
_symmetry_group_IT_number 14
_symmetry_cell_setting 'monoclinic'
loop_
_space_group_symop_operation_xyz
x,y,z
-x,1/2+y,1/2-z
-x,-y,-z
x,1/2-y,1/2+z
loop_
_atom_site_type_symbol
_atom_site_label
_atom_site_fract_x
_atom_site_fract_y
_atom_site_fract_z
Si Si1 0.436525 0.893520 0.880988
Si Si2 0.443627 0.616548 0.766698
Si Si3 0.880298 0.793473 0.185603
Si Si4 0.998270 0.157977 0.199191
Si Si5 0.765370 0.002936 0.730227
Si Si6 0.854023 0.963134 0.691468
Si Si7 0.751689 0.102406 0.188856
Si Si8 0.166625 0.690415 0.355464
O O1 0.458776 0.758298 0.873952
O O2 0.333535 0.939712 0.541673
O O3 0.446848 0.883893 0.093860
O O4 0.500000 0.000000 0.000000
O O5 0.346313 0.587023 0.542908
O O6 0.500000 0.500000 0.000000
O O7 0.855739 0.681334 0.221465
O O8 0.939920 0.722583 0.240373
O O9 0.947828 0.872257 0.489988
O O10 0.792857 0.865957 0.867190
O O11 0.920528 0.261442 0.990992
O O12 0.946766 0.035576 0.988758
O O13 0.788346 0.013349 0.624407
O O14 0.838436 0.081456 0.040832
O O15 0.811718 0.983252 0.400650
O O16 0.759869 0.149708 0.045940
O O17 0.799672 0.200083 0.439679
#
# Coordination Sequence:
#
# PCOD9251801 Si02
#       8
#     4   4   4   4   4   4   4   4
#     4  12  28  53  79 117 158 198 260 325 404 483
#     4  12  26  48  83 116 151 196 252 324 390 479
#     4  12  26  43  64 102 148 192 253 310 374 456
#     4  11  24  41  66 101 143 192 253 309 368 433
#     4  12  26  46  74 101 148 198 250 315 385 465
#     4  11  24  45  66  98 141 196 244 316 372 446
#     4  11  22  42  72 100 139 179 241 291 366 444
#     4  11  23  40  72 104 137 194 241 302 357 441
#
# _framework density 22.211155000000002
#
# number of rings (size 3 to 8) (size 9 to 14) (size 15 to 20)
#    0.000    0.500    3.750    5.625    5.250    2.000 
#    2.250    0.000    0.000    0.000    0.000    0.000 
#    0.000    0.000    0.000    0.000    0.000    0.000 
#
# Total GULP energy -178589.334669 kJ/mol
# GULP energy per Si atom -5580.916708 kJ/mol
# Density = 2.216060 g / cm^3
# Si number density = 22.211155 Si / 1000 Ang^3
#
#
#
# Elastic Constant Matrix: (Units=GPa)
#
#
# Indices 1 2 3 4 5 6 
#
# 1 103.8183 28.5436 31.5459 0.0000 -5.7840 0.0000
# 2 28.5436 131.5233 57.2518 0.0000 2.9223 0.0000
# 3 31.5459 57.2518 87.4169 0.0000 -4.2234 0.0000
# 4 0.0000 0.0000 0.0000 22.7654 0.0000 7.1828
# 5 -5.7840 2.9223 -4.2234 0.0000 28.4391 0.0000
# 6 0.0000 0.0000 0.0000 7.1828 0.0000 19.1885
#
#
#
# Elastic Compliance Matrix: (Units=1/GPa)
#
#
# Indices 1 2 3 4 5 6 
#
# 1 0.010993 -0.001035 -0.003199 0.000000 0.001867 0.000000
# 2 -0.001035 0.010864 -0.006855 0.000000 -0.002345 0.000000
# 3 -0.003199 -0.006855 0.017209 0.000000 0.002609 0.000000
# 4 0.000000 0.000000 0.000000 0.049809 0.000000 -0.018645
# 5 0.001867 -0.002345 0.002609 0.000000 0.036171 0.000000
# 6 0.000000 0.000000 0.000000 -0.018645 0.000000 0.059094
#
#
# Mechanical properties :
#
#
# Convention : Reuss Voigt Hill
#
# Bulk Modulus (GPa) = 59.21128 61.93789 60.57458
# Shear Modulus (GPa) = 23.59081 27.77307 25.68194
#
# Velocity S-wave (km/s) = 3.26255 3.53995 3.40408
# Velocity P-wave (km/s) = 6.39598 6.68243 6.54077
#
# Compressibility (1/GPa) = 0.01688867
#
# Stress axis : x y z
#
# Youngs Moduli (GPa) = 90.96899 92.04898 58.10755
#
# Poissons Ratio (x) = 0.09523 0.18589
# Poissons Ratio (y) = 0.09412 0.39832
# Poissons Ratio (z) = 0.29102 0.63099
#
# Static dielectric constant tensor:
#      x y z
#    x 1.833190 0.000000 -0.024580 
#    y 0.000000 2.030220 0.000000 
#    z -0.024580 0.000000 1.868130 
# 
# From -- ./inp_files/19989.got.cif
#   From: 2010.05.17/outbox.cif.g08.bks.cpg/sg14_10_cif.got.tgz:19989.got - 2010.06.03 17:49:19.
