data_PCOD9251048
_publ_section_title
;
Structure prediction by ZEFSAII (Michael W. Deem and Ramdas Pophale) SiO2 
 PCOD9251048
Probable space group: P 21/C
;
_chemical_formula_sum "Si O2"
_cell_formula_units_Z 16
_cell_length_a 5.586200
_cell_length_b 4.728088
_cell_length_c 24.399655
_cell_angle_alpha 90.000000
_cell_angle_beta 64.216501
_cell_angle_gamma 90.000000
_cell_volume 580.286496
_symmetry_space_group_name_H-M "P 21/C"
_symmetry_group_IT_number 14
_symmetry_cell_setting 'monoclinic'
loop_
_space_group_symop_operation_xyz
x,y,z
-x,1/2+y,1/2-z
-x,-y,-z
x,1/2-y,1/2+z
loop_
_atom_site_type_symbol
_atom_site_label
_atom_site_fract_x
_atom_site_fract_y
_atom_site_fract_z
Si Si1 0.046462 0.433282 0.112819
Si Si2 0.730321 0.845635 0.012067
Si Si3 0.301522 0.912435 0.140390
Si Si4 0.504641 0.951101 0.712674
O O1 0.089335 0.756448 0.123433
O O2 0.735989 0.390263 0.154943
O O3 0.221513 0.236845 0.137139
O O4 0.165586 0.391958 0.040379
O O5 0.579674 0.816184 0.084615
O O6 0.500000 0.000000 0.000000
O O7 0.000000 0.000000 0.000000
O O8 0.310520 0.752643 0.197238
O O9 0.375465 0.213671 0.757698
#
# Coordination Sequence:
#
# PCOD9251048 Si02
#       4
#     4   4   4   4
#     4  11  26  48  77 112 151 197 253 324 395 469
#     4  10  25  45  81 117 156 198 252 323 405 479
#     4  11  26  48  77 112 151 197 253 324 395 469
#     4  12  28  47  78 107 152 210 268 322 388 462
#
# _framework density 27.572588
#
# number of rings (size 3 to 8) (size 9 to 14) (size 15 to 20)
#    0.000    1.000    0.000    3.750   17.500    5.000 
#    0.000    0.000    0.000    0.000    0.000    0.000 
#    0.000    0.000    0.000    0.000    0.000    0.000 
#
# Total GULP energy -89457.821902 kJ/mol
# GULP energy per Si atom -5591.113869 kJ/mol
# Density = 2.750983 g / cm^3
# Si number density = 27.572588 Si / 1000 Ang^3
#
#
#
# Elastic Constant Matrix: (Units=GPa)
#
#
# Indices 1 2 3 4 5 6 
#
# 1 114.4200 22.8924 33.6281 0.0000 -4.5799 0.0000
# 2 22.8924 126.3809 39.7981 0.0000 15.4224 0.0000
# 3 33.6281 39.7981 70.2579 0.0000 -13.9088 0.0000
# 4 0.0000 0.0000 0.0000 59.0780 0.0000 5.6240
# 5 -4.5799 15.4224 -13.9088 0.0000 54.8424 0.0000
# 6 0.0000 0.0000 0.0000 5.6240 0.0000 38.6457
#
#
#
# Elastic Compliance Matrix: (Units=1/GPa)
#
#
# Indices 1 2 3 4 5 6 
#
# 1 0.010188 -0.000318 -0.004749 0.000000 -0.000264 0.000000
# 2 -0.000318 0.010715 -0.006864 0.000000 -0.004781 0.000000
# 3 -0.004749 -0.006864 0.021792 0.000000 0.007060 0.000000
# 4 0.000000 0.000000 0.000000 0.017165 0.000000 -0.002498
# 5 -0.000264 -0.004781 0.007060 0.000000 0.021347 0.000000
# 6 0.000000 0.000000 0.000000 -0.002498 0.000000 0.026240
#
#
# Mechanical properties :
#
#
# Convention : Reuss Voigt Hill
#
# Bulk Modulus (GPa) = 53.09416 55.96623 54.53019
# Shear Modulus (GPa) = 36.34093 44.82921 40.58507
#
# Velocity S-wave (km/s) = 3.63438 4.03657 3.84074
# Velocity P-wave (km/s) = 6.07532 6.48591 6.28397
#
# Compressibility (1/GPa) = 0.01883446
#
# Stress axis : x y z
#
# Youngs Moduli (GPa) = 98.15050 93.32702 45.88822
#
# Poissons Ratio (x) = 0.02966 0.21792
# Poissons Ratio (y) = 0.03120 0.31497
# Poissons Ratio (z) = 0.46610 0.64058
#
# Static dielectric constant tensor:
#      x y z
#    x 2.107350 0.000000 0.019440 
#    y 0.000000 2.079170 0.000000 
#    z 0.019440 0.000000 2.404300 
# 
# From -- ./inp_files/62822.got.cif
#   From: 2010.05.17/outbox.cif.g08.bks.cpg/sg14_32_cif.got.tgz:62822.got - 2010.06.03 17:49:19.
