data_PCOD9251337
_publ_section_title
;
Structure prediction by ZEFSAII (Michael W. Deem and Ramdas Pophale) SiO2 
 PCOD9251337
Probable space group: P 21/C
;
_chemical_formula_sum "Si O2"
_cell_formula_units_Z 28
_cell_length_a 21.642282
_cell_length_b 7.214534
_cell_length_c 21.786519
_cell_angle_alpha 90.000000
_cell_angle_beta 19.638949
_cell_angle_gamma 90.000000
_cell_volume 1143.292137
_symmetry_space_group_name_H-M "P 21/C"
_symmetry_group_IT_number 14
_symmetry_cell_setting 'monoclinic'
loop_
_space_group_symop_operation_xyz
x,y,z
-x,1/2+y,1/2-z
-x,-y,-z
x,1/2-y,1/2+z
loop_
_atom_site_type_symbol
_atom_site_label
_atom_site_fract_x
_atom_site_fract_y
_atom_site_fract_z
Si Si1 0.561873 0.674942 0.226704
Si Si2 0.673954 0.646098 0.418011
Si Si3 0.019592 0.734800 0.042282
Si Si4 0.357355 0.734581 0.799229
Si Si5 0.793492 0.154350 0.388136
Si Si6 0.861982 0.736212 0.360812
Si Si7 0.129092 0.834178 0.309754
O O1 0.630755 0.478761 0.188045
O O2 0.447913 0.653363 0.269753
O O3 0.414550 0.772381 0.408810
O O4 0.739608 0.786280 0.036453
O O5 0.486135 0.727930 0.618048
O O6 0.790640 0.604760 0.372680
O O7 0.681118 0.453857 0.373716
O O8 0.807579 0.779930 0.254115
O O9 0.159340 0.800884 0.963060
O O10 0.092028 0.773644 0.906879
O O11 0.015560 0.507221 0.053453
O O12 0.874394 0.211791 0.247125
O O13 0.927822 0.229448 0.316258
O O14 0.809869 0.936461 0.383332
#
# Coordination Sequence:
#
# PCOD9251337 Si02
#       7
#     4   4   4   4   4   4   4
#     4  11  22  36  54  87 116 148 182 238 280 352
#     4   9  19  37  53  86 108 146 191 232 277 339
#     4   9  19  39  57  79 112 151 188 242 267 336
#     4  11  20  34  59  80 113 147 188 227 294 324
#     4  12  22  38  56  88 116 151 188 238 284 346
#     4  11  24  35  61  83 120 151 185 234 299 333
#     4   9  19  37  59  79 113 145 202 229 273 337
#
# _framework density 24.490680000000001
#
# number of rings (size 3 to 8) (size 9 to 14) (size 15 to 20)
#    0.857    0.857    2.857    2.571    2.000    0.571 
#    0.000    0.714    0.000    3.429    0.000    0.000 
#    0.000    0.000    0.000    0.000    0.000    0.000 
#
# Total GULP energy -156338.154062 kJ/mol
# GULP energy per Si atom -5583.505502 kJ/mol
# Density = 2.443494 g / cm^3
# Si number density = 24.490680 Si / 1000 Ang^3
#
#
#
# Elastic Constant Matrix: (Units=GPa)
#
#
# Indices 1 2 3 4 5 6 
#
# 1 65.1009 2.5718 20.9696 0.0000 32.0273 0.0000
# 2 2.5718 58.6825 7.4536 0.0000 12.3263 0.0000
# 3 20.9696 7.4536 92.4845 0.0000 31.8821 0.0000
# 4 0.0000 0.0000 0.0000 23.0978 0.0000 6.0498
# 5 32.0273 12.3263 31.8821 0.0000 45.2316 0.0000
# 6 0.0000 0.0000 0.0000 6.0498 0.0000 21.7614
#
#
#
# Elastic Compliance Matrix: (Units=1/GPa)
#
#
# Indices 1 2 3 4 5 6 
#
# 1 0.023984 0.002682 0.000597 0.000000 -0.018134 0.000000
# 2 0.002682 0.018383 0.000386 0.000000 -0.007181 0.000000
# 3 0.000597 0.000386 0.014304 0.000000 -0.010610 0.000000
# 4 0.000000 0.000000 0.000000 0.046694 0.000000 -0.012981
# 5 -0.018134 -0.007181 -0.010610 0.000000 0.044384 0.000000
# 6 0.000000 0.000000 0.000000 -0.012981 0.000000 0.049562
#
#
# Mechanical properties :
#
#
# Convention : Reuss Voigt Hill
#
# Bulk Modulus (GPa) = 15.62491 30.91754 23.27122
# Shear Modulus (GPa) = 23.66147 30.36967 27.01557
#
# Velocity S-wave (km/s) = 3.11165 3.52525 3.32489
# Velocity P-wave (km/s) = 4.39359 5.40569 4.92571
#
# Compressibility (1/GPa) = 0.06400035
#
# Stress axis : x y z
#
# Youngs Moduli (GPa) = 41.69479 54.39924 69.91156
#
# Poissons Ratio (x) = -0.14591 -0.04175
# Poissons Ratio (y) = -0.11183 -0.02696
# Poissons Ratio (z) = -0.02490 -0.02098
#
# Static dielectric constant tensor:
#      x y z
#    x 1.945060 0.000000 0.030140 
#    y 0.000000 1.989820 0.000000 
#    z 0.030140 0.000000 2.010180 
# 
# From -- ./inp_files/74846.got.cif
#   From: 2010.05.17/outbox.cif.g08.bks.cpg/sg14_38_cif.got.tgz:74846.got - 2010.06.03 17:49:19.
