data_PCOD9251467
_publ_section_title
;
Structure prediction by ZEFSAII (Michael W. Deem and Ramdas Pophale) SiO2 
 PCOD9251467
Probable space group: P 21/C
;
_chemical_formula_sum "Si O2"
_cell_formula_units_Z 32
_cell_length_a 11.742095
_cell_length_b 7.021440
_cell_length_c 20.654526
_cell_angle_alpha 90.000000
_cell_angle_beta 50.253085
_cell_angle_gamma 90.000000
_cell_volume 1309.312951
_symmetry_space_group_name_H-M "P 21/C"
_symmetry_group_IT_number 14
_symmetry_cell_setting 'monoclinic'
loop_
_space_group_symop_operation_xyz
x,y,z
-x,1/2+y,1/2-z
-x,-y,-z
x,1/2-y,1/2+z
loop_
_atom_site_type_symbol
_atom_site_label
_atom_site_fract_x
_atom_site_fract_y
_atom_site_fract_z
Si Si1 0.321809 0.317603 0.275996
Si Si2 0.749480 0.638629 0.469366
Si Si3 0.961071 0.986845 0.087748
Si Si4 0.573616 0.304069 0.365869
Si Si5 0.657979 0.381309 0.190537
Si Si6 0.111223 0.618328 0.005619
Si Si7 0.639241 0.756484 0.876222
Si Si8 0.679029 0.188914 0.465357
O O1 0.492999 0.367293 0.222134
O O2 0.282263 0.320880 0.214914
O O3 0.213789 0.473456 0.344388
O O4 0.304759 0.104448 0.310061
O O5 0.923910 0.637375 0.424139
O O6 0.608183 0.708643 0.564591
O O7 0.730981 0.738803 0.407631
O O8 0.717930 0.410235 0.469790
O O9 0.011746 0.769982 0.081305
O O10 0.000000 0.000000 0.000000
O O11 0.640073 0.287642 0.269292
O O12 0.600819 0.524640 0.374067
O O13 0.656933 0.192362 0.394830
O O14 0.769464 0.316585 0.092768
O O15 0.213515 0.556649 0.029749
O O16 0.000000 0.500000 0.000000
O O17 0.484354 0.656777 0.947269
#
# Coordination Sequence:
#
# PCOD9251467 Si02
#       8
#     4   4   4   4   4   4   4   4
#     4  11  22  36  60  92 125 166 217 266 325 384
#     4   8  15  30  55  82 114 153 204 255 309 374
#     4  11  23  36  59  87 125 169 211 263 328 394
#     4   8  15  29  55  87 113 155 213 252 302 378
#     4  11  22  36  60  91 124 164 220 273 321 390
#     4  11  21  38  58  88 128 170 210 269 336 385
#     4   8  14  29  55  83 111 149 205 256 300 372
#     4   8  14  29  56  84 110 156 202 253 312 372
#
# _framework density 24.440299
#
# number of rings (size 3 to 8) (size 9 to 14) (size 15 to 20)
#    0.000    2.500    2.500    2.250    3.500    0.000 
#    0.000    0.000   11.000    2.250    0.000    0.000 
#    0.000    0.000    0.000    0.000    0.000    0.000 
#
# Total GULP energy -178345.401265 kJ/mol
# GULP energy per Si atom -5573.293790 kJ/mol
# Density = 2.438467 g / cm^3
# Si number density = 24.440299 Si / 1000 Ang^3
#
#
#
# Elastic Constant Matrix: (Units=GPa)
#
#
# Indices 1 2 3 4 5 6 
#
# 1 97.3409 35.0062 17.3316 0.0000 8.3852 0.0000
# 2 35.0062 66.1432 25.4501 0.0000 3.4248 0.0000
# 3 17.3316 25.4501 112.0184 0.0000 7.5617 0.0000
# 4 0.0000 0.0000 0.0000 38.8277 0.0000 1.6210
# 5 8.3852 3.4248 7.5617 0.0000 37.5959 0.0000
# 6 0.0000 0.0000 0.0000 1.6210 0.0000 47.1927
#
#
#
# Elastic Compliance Matrix: (Units=1/GPa)
#
#
# Indices 1 2 3 4 5 6 
#
# 1 0.012889 -0.006572 -0.000352 0.000000 -0.002205 0.000000
# 2 -0.006572 0.019939 -0.003538 0.000000 0.000361 0.000000
# 3 -0.000352 -0.003538 0.009893 0.000000 -0.001589 0.000000
# 4 0.000000 0.000000 0.000000 0.025792 0.000000 -0.000886
# 5 -0.002205 0.000361 -0.001589 0.000000 0.027377 0.000000
# 6 0.000000 0.000000 0.000000 -0.000886 0.000000 0.021220
#
#
# Mechanical properties :
#
#
# Convention : Reuss Voigt Hill
#
# Bulk Modulus (GPa) = 45.87674 47.89761 46.88718
# Shear Modulus (GPa) = 34.41156 37.90423 36.15790
#
# Velocity S-wave (km/s) = 3.75638 3.94241 3.85052
# Velocity P-wave (km/s) = 6.13397 6.35325 6.24457
#
# Compressibility (1/GPa) = 0.02179754
#
# Stress axis : x y z
#
# Youngs Moduli (GPa) = 77.58385 50.15197 101.08557
#
# Poissons Ratio (x) = 0.32959 0.03561
# Poissons Ratio (y) = 0.50987 0.35761
# Poissons Ratio (z) = 0.02733 0.17742
#
# Static dielectric constant tensor:
#      x y z
#    x 1.949940 0.000000 -0.004400 
#    y 0.000000 1.660800 0.000000 
#    z -0.004400 0.000000 1.912720 
# 
# From -- ./inp_files/67027.got.cif
#   From: 2010.05.17/outbox.cif.g08.bks.cpg/sg14_34_cif.got.tgz:67027.got - 2010.06.03 17:49:19.
