data_PCOD9251065
_publ_section_title
;
Structure prediction by ZEFSAII (Michael W. Deem and Ramdas Pophale) SiO2 
 PCOD9251065
Probable space group: P 21/C
;
_chemical_formula_sum "Si O2"
_cell_formula_units_Z 30
_cell_length_a 25.492885
_cell_length_b 8.492144
_cell_length_c 11.350662
_cell_angle_alpha 90.000000
_cell_angle_beta 146.711107
_cell_angle_gamma 90.000000
_cell_volume 1348.713576
_symmetry_space_group_name_H-M "P 21/C"
_symmetry_group_IT_number 14
_symmetry_cell_setting 'monoclinic'
loop_
_space_group_symop_operation_xyz
x,y,z
-x,1/2+y,1/2-z
-x,-y,-z
x,1/2-y,1/2+z
loop_
_atom_site_type_symbol
_atom_site_label
_atom_site_fract_x
_atom_site_fract_y
_atom_site_fract_z
Si Si1 0.333390 0.334110 0.409873
Si Si2 0.126436 0.452745 0.962752
Si Si3 0.000000 0.500000 0.500000
Si Si4 0.362091 0.979352 0.504539
Si Si5 0.386131 0.911538 0.817888
Si Si6 0.480582 0.138414 0.371587
Si Si7 0.212333 0.721873 0.598940
Si Si8 0.026781 0.860343 0.636814
O O1 0.361048 0.152487 0.446282
O O2 0.381470 0.456824 0.410266
O O3 0.374212 0.369077 0.617918
O O4 0.220951 0.355168 0.174245
O O5 0.037627 0.386362 0.868468
O O6 0.092204 0.460219 0.763531
O O7 0.154902 0.632877 0.049347
O O8 0.008873 0.687436 0.551466
O O9 0.371887 0.980361 0.662253
O O10 0.449709 0.887428 0.609741
O O11 0.265025 0.888910 0.290177
O O12 0.295635 0.799106 0.676795
O O13 0.479555 0.801404 0.000759
O O14 0.500000 0.000000 0.500000
O O15 0.137057 0.627528 0.380698
O O16 0.000000 0.000000 0.500000
#
# Coordination Sequence:
#
# PCOD9251065 Si02
#       8
#     4   4   2   4   4   4   4   4
#     4  11  26  44  69 107 137 187 241 290 356 432
#     4  10  25  46  71 102 144 185 239 299 360 430
#     4  10  26  48  66 104 146 184 244 304 354 434
#     4  11  26  45  76 101 145 192 233 299 364 426
#     4  10  25  48  71 101 144 189 236 301 358 428
#     4  11  27  45  72 104 143 188 241 293 360 433
#     4   9  24  45  69 105 141 187 242 301 359 434
#     4  11  26  42  73 102 140 193 240 297 375 432
#
# _framework density 22.243417000000001
#
# number of rings (size 3 to 8) (size 9 to 14) (size 15 to 20)
#    0.000    1.600    0.000    0.800   16.800    7.467 
#    0.000    0.000    0.000    0.000    0.000    0.000 
#    0.000    0.000    0.000    0.000    0.000    0.000 
#
# Total GULP energy -167246.021976 kJ/mol
# GULP energy per Si atom -5574.867399 kJ/mol
# Density = 2.219279 g / cm^3
# Si number density = 22.243417 Si / 1000 Ang^3
#
#
#
# Elastic Constant Matrix: (Units=GPa)
#
#
# Indices 1 2 3 4 5 6 
#
# 1 42.0887 15.3757 36.6965 0.0000 2.6014 0.0000
# 2 15.3757 88.5904 62.5292 0.0000 -0.9004 0.0000
# 3 36.6965 62.5292 204.0180 0.0000 6.2810 0.0000
# 4 0.0000 0.0000 0.0000 52.8954 0.0000 4.2447
# 5 2.6014 -0.9004 6.2810 0.0000 21.7993 0.0000
# 6 0.0000 0.0000 0.0000 4.2447 0.0000 25.0183
#
#
#
# Elastic Compliance Matrix: (Units=1/GPa)
#
#
# Indices 1 2 3 4 5 6 
#
# 1 0.028476 -0.001782 -0.004509 0.000000 -0.002173 0.000000
# 2 -0.001782 0.014592 -0.004214 0.000000 0.002030 0.000000
# 3 -0.004509 -0.004214 0.007056 0.000000 -0.001669 0.000000
# 4 0.000000 0.000000 0.000000 0.019166 0.000000 -0.003252
# 5 -0.002173 0.002030 -0.001669 0.000000 0.046697 0.000000
# 6 0.000000 0.000000 0.000000 -0.003252 0.000000 0.040522
#
#
# Mechanical properties :
#
#
# Convention : Reuss Voigt Hill
#
# Bulk Modulus (GPa) = 34.34834 62.65556 48.50195
# Shear Modulus (GPa) = 26.70596 34.61565 30.66081
#
# Velocity S-wave (km/s) = 3.46876 3.94918 3.71674
# Velocity P-wave (km/s) = 5.61414 7.00171 6.34596
#
# Compressibility (1/GPa) = 0.02911349
#
# Stress axis : x y z
#
# Youngs Moduli (GPa) = 35.11755 68.52882 141.73174
#
# Poissons Ratio (x) = 0.12211 0.63906
# Poissons Ratio (y) = 0.06257 0.59731
# Poissons Ratio (z) = 0.15834 0.28881
#
# Static dielectric constant tensor:
#      x y z
#    x 1.816890 0.000000 0.019450 
#    y 0.000000 1.816020 0.000000 
#    z 0.019450 0.000000 1.833790 
# 
# From -- ./inp_files/36446.got.cif
#   From: 2010.05.17/outbox.cif.g08.bks.cpg/sg14_19_cif.got.tgz:36446.got - 2010.06.03 17:49:19.
