data_PCOD9251515
_publ_section_title
;
Structure prediction by ZEFSAII (Michael W. Deem and Ramdas Pophale) SiO2 
 PCOD9251515
Probable space group: P 21/C
;
_chemical_formula_sum "Si O2"
_cell_formula_units_Z 24
_cell_length_a 9.739030
_cell_length_b 9.152147
_cell_length_c 29.681160
_cell_angle_alpha 90.000000
_cell_angle_beta 153.386196
_cell_angle_gamma 90.000000
_cell_volume 1185.148724
_symmetry_space_group_name_H-M "P 21/C"
_symmetry_group_IT_number 14
_symmetry_cell_setting 'monoclinic'
loop_
_space_group_symop_operation_xyz
x,y,z
-x,1/2+y,1/2-z
-x,-y,-z
x,1/2-y,1/2+z
loop_
_atom_site_type_symbol
_atom_site_label
_atom_site_fract_x
_atom_site_fract_y
_atom_site_fract_z
Si Si1 0.811947 0.549498 0.732098
Si Si2 0.484138 0.738307 0.708545
Si Si3 0.831100 0.457043 0.317913
Si Si4 0.066176 0.171282 0.517387
Si Si5 0.845651 0.429469 0.500119
Si Si6 0.205755 0.789719 0.279702
O O1 0.688071 0.618888 0.742044
O O2 0.515226 0.564125 0.612836
O O3 0.886844 0.378145 0.756096
O O4 0.078368 0.647727 0.789155
O O5 0.393929 0.668833 0.729391
O O6 0.168517 0.768619 0.589124
O O7 0.654650 0.891522 0.759624
O O8 0.933145 0.394293 0.299998
O O9 0.060588 0.492245 0.426271
O O10 0.423925 0.199357 0.612786
O O11 0.966956 0.262976 0.532617
O O12 0.000000 0.000000 0.500000
O O13 0.000000 0.500000 0.500000
#
# Coordination Sequence:
#
# PCOD9251515 Si02
#       6
#     4   4   4   4   4   4
#     4  11  24  44  64  92 132 171 202 254 330 373
#     4  11  22  39  67  95 125 166 212 258 310 374
#     4  12  22  37  66  98 122 164 216 265 298 375
#     4  11  21  40  64  93 123 168 210 254 312 375
#     4  11  21  43  65  88 124 173 205 254 320 378
#     4  12  24  40  66  95 129 165 210 261 312 375
#
# _framework density 20.250623000000001
#
# number of rings (size 3 to 8) (size 9 to 14) (size 15 to 20)
#    0.000    0.667    6.667    3.000    2.333    0.667 
#    0.000    1.667    0.000    4.000    0.000    0.000 
#    0.000    0.000    0.000    0.000    0.000    0.000 
#
# Total GULP energy -134017.855030 kJ/mol
# GULP energy per Si atom -5584.077293 kJ/mol
# Density = 2.020453 g / cm^3
# Si number density = 20.250623 Si / 1000 Ang^3
#
#
#
# Elastic Constant Matrix: (Units=GPa)
#
#
# Indices 1 2 3 4 5 6 
#
# 1 42.6416 -13.4002 -5.2038 0.0000 10.9013 0.0000
# 2 -13.4002 118.5574 -10.8641 0.0000 11.9552 0.0000
# 3 -5.2038 -10.8641 42.9325 0.0000 2.9584 0.0000
# 4 0.0000 0.0000 0.0000 24.9845 0.0000 -1.2318
# 5 10.9013 11.9552 2.9584 0.0000 21.7139 0.0000
# 6 0.0000 0.0000 0.0000 -1.2318 0.0000 33.5188
#
#
#
# Elastic Compliance Matrix: (Units=1/GPa)
#
#
# Indices 1 2 3 4 5 6 
#
# 1 0.031347 0.006184 0.006747 0.000000 -0.020061 0.000000
# 2 0.006184 0.010453 0.004043 0.000000 -0.009411 0.000000
# 3 0.006747 0.004043 0.025762 0.000000 -0.009123 0.000000
# 4 0.000000 0.000000 0.000000 0.040097 0.000000 0.001474
# 5 -0.020061 -0.009411 -0.009123 0.000000 0.062550 0.000000
# 6 0.000000 0.000000 0.000000 0.001474 0.000000 0.029888
#
#
# Mechanical properties :
#
#
# Convention : Reuss Voigt Hill
#
# Bulk Modulus (GPa) = 9.85119 16.13281 12.99200
# Shear Modulus (GPa) = 25.00183 31.61674 28.30928
#
# Velocity S-wave (km/s) = 3.51753 3.95558 3.74297
# Velocity P-wave (km/s) = 4.62304 5.37085 5.01092
#
# Compressibility (1/GPa) = 0.10151057
#
# Stress axis : x y z
#
# Youngs Moduli (GPa) = 31.90125 95.66435 38.81691
#
# Poissons Ratio (x) = -0.59161 -0.26189
# Poissons Ratio (y) = -0.19729 -0.15695
# Poissons Ratio (z) = -0.21523 -0.38680
#
# Static dielectric constant tensor:
#      x y z
#    x 1.699110 0.000000 -0.016070 
#    y 0.000000 1.762620 0.000000 
#    z -0.016070 0.000000 1.731480 
# 
# From -- ./inp_files/59147.got.cif
#   From: 2010.05.17/outbox.cif.g08.bks.cpg/sg14_30_cif.got.tgz:59147.got - 2010.06.03 17:49:19.
