data_PCOD9251875
_publ_section_title
;
Structure prediction by ZEFSAII (Michael W. Deem and Ramdas Pophale) SiO2 
 PCOD9251875
Probable space group: P 21/C
;
_chemical_formula_sum "Si O2"
_cell_formula_units_Z 30
_cell_length_a 11.872838
_cell_length_b 8.706955
_cell_length_c 13.224378
_cell_angle_alpha 90.000000
_cell_angle_beta 71.016963
_cell_angle_gamma 90.000000
_cell_volume 1292.737697
_symmetry_space_group_name_H-M "P 21/C"
_symmetry_group_IT_number 14
_symmetry_cell_setting 'monoclinic'
loop_
_space_group_symop_operation_xyz
x,y,z
-x,1/2+y,1/2-z
-x,-y,-z
x,1/2-y,1/2+z
loop_
_atom_site_type_symbol
_atom_site_label
_atom_site_fract_x
_atom_site_fract_y
_atom_site_fract_z
Si Si1 0.162470 0.968390 0.066749
Si Si2 0.729809 0.168001 0.134388
Si Si3 0.066632 0.424433 0.242476
Si Si4 0.912447 0.071883 0.607197
Si Si5 0.500000 0.000000 0.500000
Si Si6 0.746094 0.151646 0.366747
Si Si7 0.761349 0.665409 0.282535
Si Si8 0.489914 0.150734 0.076218
O O1 0.233924 0.821754 0.094227
O O2 0.026569 0.951242 0.140724
O O3 0.212467 0.114432 0.109977
O O4 0.194248 0.967310 0.940311
O O5 0.816030 0.313062 0.089353
O O6 0.710011 0.164395 0.259375
O O7 0.604793 0.166996 0.114062
O O8 0.123802 0.574046 0.174318
O O9 0.180413 0.330102 0.244913
O O10 0.990597 0.348860 0.173164
O O11 0.836611 0.944065 0.688066
O O12 0.000000 0.000000 0.500000
O O13 0.644265 0.047043 0.447222
O O14 0.472754 0.187545 0.522456
O O15 0.621836 0.640706 0.314520
O O16 0.500000 0.000000 0.000000
#
# Coordination Sequence:
#
# PCOD9251875 Si02
#       8
#     4   4   4   4   2   4   4   4
#     4  11  22  45  73  96 152 184 234 322 377 437
#     4  12  25  44  75 109 143 205 253 310 390 454
#     4  11  23  43  71 103 145 189 246 308 390 453
#     4  11  25  43  74 108 151 197 254 317 384 467
#     4  12  26  50  78 100 152 210 248 308 386 444
#     4  12  24  47  70 106 142 200 251 304 380 455
#     4  11  22  46  70 100 145 195 234 314 387 439
#     4  12  26  50  76 108 153 199 257 319 379 455
#
# _framework density 23.206562999999999
#
# number of rings (size 3 to 8) (size 9 to 14) (size 15 to 20)
#    0.000    0.533    6.667    3.200    0.000    1.600 
#    2.400    1.333    0.000    0.000    0.000    0.000 
#    0.000    0.000    0.000    0.000    0.000    0.000 
#
# Total GULP energy -167147.102367 kJ/mol
# GULP energy per Si atom -5571.570079 kJ/mol
# Density = 2.315374 g / cm^3
# Si number density = 23.206563 Si / 1000 Ang^3
#
#
#
# Elastic Constant Matrix: (Units=GPa)
#
#
# Indices 1 2 3 4 5 6 
#
# 1 156.1475 32.2654 48.1153 0.0000 -25.1095 0.0000
# 2 32.2654 94.4400 16.9561 0.0000 -0.9261 0.0000
# 3 48.1153 16.9561 79.3992 0.0000 -15.0275 0.0000
# 4 0.0000 0.0000 0.0000 26.4115 0.0000 -11.0482
# 5 -25.1095 -0.9261 -15.0275 0.0000 48.9976 0.0000
# 6 0.0000 0.0000 0.0000 -11.0482 0.0000 43.9819
#
#
#
# Elastic Compliance Matrix: (Units=1/GPa)
#
#
# Indices 1 2 3 4 5 6 
#
# 1 0.008642 -0.002170 -0.004186 0.000000 0.003104 0.000000
# 2 -0.002170 0.011570 -0.001406 0.000000 -0.001325 0.000000
# 3 -0.004186 -0.001406 0.015946 0.000000 0.002719 0.000000
# 4 0.000000 0.000000 0.000000 0.042308 0.000000 0.010628
# 5 0.003104 -0.001325 0.002719 0.000000 0.022809 0.000000
# 6 0.000000 0.000000 0.000000 0.010628 0.000000 0.025406
#
#
# Mechanical properties :
#
#
# Convention : Reuss Voigt Hill
#
# Bulk Modulus (GPa) = 48.46742 58.29559 53.38150
# Shear Modulus (GPa) = 33.53840 39.38818 36.46329
#
# Velocity S-wave (km/s) = 3.80572 4.12428 3.96820
# Velocity P-wave (km/s) = 6.34365 6.91769 6.63688
#
# Compressibility (1/GPa) = 0.02063242
#
# Stress axis : x y z
#
# Youngs Moduli (GPa) = 115.71932 86.43221 62.71132
#
# Poissons Ratio (x) = 0.18760 0.26250
# Poissons Ratio (y) = 0.25116 0.08819
# Poissons Ratio (z) = 0.48438 0.12155
#
# Static dielectric constant tensor:
#      x y z
#    x 1.942820 0.000000 -0.001930 
#    y 0.000000 1.926770 0.000000 
#    z -0.001930 0.000000 1.916450 
# 
# From -- ./inp_files/43385.got.cif
#   From: 2010.05.17/outbox.cif.g08.bks.cpg/sg14_22_cif.got.tgz:43385.got - 2010.06.03 17:49:19.
