data_PCOD9251638
_publ_section_title
;
Structure prediction by ZEFSAII (Michael W. Deem and Ramdas Pophale) SiO2 
 PCOD9251638
Probable space group: P 21/C
;
_chemical_formula_sum "Si O2"
_cell_formula_units_Z 20
_cell_length_a 12.309608
_cell_length_b 8.971647
_cell_length_c 15.468833
_cell_angle_alpha 90.000000
_cell_angle_beta 28.104545
_cell_angle_gamma 90.000000
_cell_volume 804.767311
_symmetry_space_group_name_H-M "P 21/C"
_symmetry_group_IT_number 14
_symmetry_cell_setting 'monoclinic'
loop_
_space_group_symop_operation_xyz
x,y,z
-x,1/2+y,1/2-z
-x,-y,-z
x,1/2-y,1/2+z
loop_
_atom_site_type_symbol
_atom_site_label
_atom_site_fract_x
_atom_site_fract_y
_atom_site_fract_z
Si Si1 0.117091 0.529642 0.640481
Si Si2 0.713170 0.067796 0.294194
Si Si3 0.912624 0.174266 0.410878
Si Si4 0.000906 0.174319 0.530295
Si Si5 0.618076 0.610301 0.684833
O O1 0.097766 0.705316 0.657323
O O2 0.343471 0.472048 0.433551
O O3 0.925128 0.476899 0.706601
O O4 0.061114 0.461424 0.771619
O O5 0.774844 0.243281 0.229983
O O6 0.500000 0.000000 0.500000
O O7 0.693431 0.993055 0.213076
O O8 0.020683 0.244206 0.420021
O O9 0.650577 0.137398 0.615153
O O10 0.227254 0.238121 0.420323
O O11 0.000000 0.000000 0.500000
#
# Coordination Sequence:
#
# PCOD9251638 Si02
#       5
#     4   4   4   4   4
#     4  11  25  43  67 101 137 178 237 288 344 432
#     4  11  21  47  74  94 135 197 235 278 369 437
#     4  12  26  43  70 103 137 183 233 288 355 420
#     4  11  26  44  68 106 144 174 239 308 342 421
#     4  11  24  47  69  94 139 192 228 277 364 427
#
# _framework density 24.851904000000001
#
# number of rings (size 3 to 8) (size 9 to 14) (size 15 to 20)
#    0.000    0.800    6.000    1.200    8.400    1.600 
#    0.000    2.000    0.000    0.000    0.000    0.000 
#    0.000    0.000    0.000    0.000    0.000    0.000 
#
# Total GULP energy -111664.712137 kJ/mol
# GULP energy per Si atom -5583.235607 kJ/mol
# Density = 2.479534 g / cm^3
# Si number density = 24.851904 Si / 1000 Ang^3
#
#
#
# Elastic Constant Matrix: (Units=GPa)
#
#
# Indices 1 2 3 4 5 6 
#
# 1 34.1190 -20.8328 -8.9821 0.0000 0.2248 0.0000
# 2 -20.8328 140.1495 39.3896 0.0000 -8.5600 0.0000
# 3 -8.9821 39.3896 108.0588 0.0000 12.9733 0.0000
# 4 0.0000 0.0000 0.0000 44.9192 0.0000 16.0105
# 5 0.2248 -8.5600 12.9733 0.0000 15.7878 0.0000
# 6 0.0000 0.0000 0.0000 16.0105 0.0000 34.4214
#
#
#
# Elastic Compliance Matrix: (Units=1/GPa)
#
#
# Indices 1 2 3 4 5 6 
#
# 1 0.032365 0.004665 0.000823 0.000000 0.001392 0.000000
# 2 0.004665 0.009492 -0.004085 0.000000 0.008437 0.000000
# 3 0.000823 -0.004085 0.012292 0.000000 -0.012327 0.000000
# 4 0.000000 0.000000 0.000000 0.026686 0.000000 -0.012413
# 5 0.001392 0.008437 -0.012327 0.000000 0.078024 0.000000
# 6 0.000000 0.000000 0.000000 -0.012413 0.000000 0.034825
#
#
# Mechanical properties :
#
#
# Convention : Reuss Voigt Hill
#
# Bulk Modulus (GPa) = 17.55835 33.49743 25.52789
# Shear Modulus (GPa) = 23.82486 37.20918 30.51702
#
# Velocity S-wave (km/s) = 3.09960 3.87361 3.50802
# Velocity P-wave (km/s) = 4.45989 5.78918 5.16745
#
# Compressibility (1/GPa) = 0.05695297
#
# Stress axis : x y z
#
# Youngs Moduli (GPa) = 30.89777 105.35027 81.35542
#
# Poissons Ratio (x) = -0.49143 -0.06693
# Poissons Ratio (y) = -0.14413 0.33236
# Poissons Ratio (z) = -0.02542 0.43039
#
# Static dielectric constant tensor:
#      x y z
#    x 2.005540 0.000000 0.084680 
#    y 0.000000 2.132690 0.000000 
#    z 0.084680 0.000000 2.085220 
# 
# From -- ./inp_files/58716.got.cif
#   From: 2010.05.17/outbox.cif.g08.bks.cpg/sg14_30_cif.got.tgz:58716.got - 2010.06.03 17:49:19.
