data_PCOD9251881
_publ_section_title
;
Structure prediction by ZEFSAII (Michael W. Deem and Ramdas Pophale) SiO2 
 PCOD9251881
Probable space group: P 21/C
;
_chemical_formula_sum "Si O2"
_cell_formula_units_Z 20
_cell_length_a 5.513377
_cell_length_b 16.316066
_cell_length_c 10.893830
_cell_angle_alpha 90.000000
_cell_angle_beta 71.819039
_cell_angle_gamma 90.000000
_cell_volume 931.047819
_symmetry_space_group_name_H-M "P 21/C"
_symmetry_group_IT_number 14
_symmetry_cell_setting 'monoclinic'
loop_
_space_group_symop_operation_xyz
x,y,z
-x,1/2+y,1/2-z
-x,-y,-z
x,1/2-y,1/2+z
loop_
_atom_site_type_symbol
_atom_site_label
_atom_site_fract_x
_atom_site_fract_y
_atom_site_fract_z
Si Si1 0.068908 0.974892 0.627884
Si Si2 0.411066 0.639530 0.194948
Si Si3 0.447425 0.993823 0.153254
Si Si4 0.365572 0.821875 0.295166
Si Si5 0.765935 0.638486 0.926990
O O1 0.207757 0.890289 0.626354
O O2 0.273116 0.046863 0.620008
O O3 0.000000 0.000000 0.500000
O O4 0.841283 0.985221 0.759397
O O5 0.403903 0.568885 0.300919
O O6 0.361540 0.731948 0.238359
O O7 0.680149 0.638890 0.081548
O O8 0.470235 0.898625 0.195896
O O9 0.500000 0.000000 0.000000
O O10 0.563315 0.811806 0.377708
O O11 0.065012 0.840712 0.367517
#
# Coordination Sequence:
#
# PCOD9251881 Si02
#       5
#     4   4   4   4   4
#     4  11  22  45  76 103 139 195 253 301 365 436
#     4  12  25  44  77 101 144 195 247 301 371 439
#     4  11  26  47  66 107 152 191 234 311 376 429
#     4  11  28  44  72 107 145 189 246 302 364 440
#     4  11  24  47  70 104 139 186 253 300 351 437
#
# _framework density 21.481172999999998
#
# number of rings (size 3 to 8) (size 9 to 14) (size 15 to 20)
#    0.000    0.800    4.000    3.000    5.600    0.800 
#    3.600    0.000    0.000    0.000    0.000    0.000 
#    0.000    0.000    0.000    0.000    0.000    0.000 
#
# Total GULP energy -111462.084073 kJ/mol
# GULP energy per Si atom -5573.104204 kJ/mol
# Density = 2.143228 g / cm^3
# Si number density = 21.481173 Si / 1000 Ang^3
#
#
#
# Elastic Constant Matrix: (Units=GPa)
#
#
# Indices 1 2 3 4 5 6 
#
# 1 87.1586 39.8828 60.0445 0.0000 11.4099 0.0000
# 2 39.8828 179.7971 73.6942 0.0000 10.1263 0.0000
# 3 60.0445 73.6942 170.5510 0.0000 -5.4211 0.0000
# 4 0.0000 0.0000 0.0000 25.3590 0.0000 -4.4130
# 5 11.4099 10.1263 -5.4211 0.0000 31.5799 0.0000
# 6 0.0000 0.0000 0.0000 -4.4130 0.0000 21.3372
#
#
#
# Elastic Compliance Matrix: (Units=1/GPa)
#
#
# Indices 1 2 3 4 5 6 
#
# 1 0.016709 -0.001011 -0.005658 0.000000 -0.006684 0.000000
# 2 -0.001011 0.007054 -0.002768 0.000000 -0.002372 0.000000
# 3 -0.005658 -0.002768 0.009195 0.000000 0.004510 0.000000
# 4 0.000000 0.000000 0.000000 0.040906 0.000000 0.008460
# 5 -0.006684 -0.002372 0.004510 0.000000 0.035615 0.000000
# 6 0.000000 0.000000 0.000000 0.008460 0.000000 0.048616
#
#
# Mechanical properties :
#
#
# Convention : Reuss Voigt Hill
#
# Bulk Modulus (GPa) = 71.00073 87.19442 79.09757
# Shear Modulus (GPa) = 27.52346 33.24756 30.38551
#
# Velocity S-wave (km/s) = 3.58338 3.93842 3.76509
# Velocity P-wave (km/s) = 7.08838 7.83331 7.47014
#
# Compressibility (1/GPa) = 0.01408436
#
# Stress axis : x y z
#
# Youngs Moduli (GPa) = 59.84818 141.76467 108.75931
#
# Poissons Ratio (x) = 0.14329 0.61539
# Poissons Ratio (y) = 0.06049 0.30099
# Poissons Ratio (z) = 0.33864 0.39234
#
# Static dielectric constant tensor:
#      x y z
#    x 1.872770 0.000000 0.044190 
#    y 0.000000 1.844560 0.000000 
#    z 0.044190 0.000000 1.789460 
# 
# From -- ./inp_files/5451.got.cif
#   From: 2010.05.17/outbox.cif.g08.bks.cpg/sg14_3_cif.got.tgz:5451.got - 2010.06.03 17:49:19.
