data_PCOD9251972
_publ_section_title
;
Structure prediction by ZEFSAII (Michael W. Deem and Ramdas Pophale) SiO2 
 PCOD9251972
Probable space group: P 21/C
;
_chemical_formula_sum "Si O2"
_cell_formula_units_Z 20
_cell_length_a 8.093248
_cell_length_b 21.982715
_cell_length_c 7.256547
_cell_angle_alpha 90.000000
_cell_angle_beta 36.710085
_cell_angle_gamma 90.000000
_cell_volume 771.730370
_symmetry_space_group_name_H-M "P 21/C"
_symmetry_group_IT_number 14
_symmetry_cell_setting 'monoclinic'
loop_
_space_group_symop_operation_xyz
x,y,z
-x,1/2+y,1/2-z
-x,-y,-z
x,1/2-y,1/2+z
loop_
_atom_site_type_symbol
_atom_site_label
_atom_site_fract_x
_atom_site_fract_y
_atom_site_fract_z
Si Si1 0.860359 0.123135 0.766537
Si Si2 0.759251 0.255964 0.720076
Si Si3 0.272860 0.979353 0.853453
Si Si4 0.685100 0.585737 0.414074
Si Si5 0.336678 0.191787 0.807639
O O1 0.814504 0.195793 0.803375
O O2 0.154046 0.101982 0.418613
O O3 0.636772 0.099428 0.819945
O O4 0.778501 0.088476 0.025278
O O5 0.527941 0.228286 0.786519
O O6 0.080129 0.276873 0.430749
O O7 0.585544 0.314382 0.942714
O O8 0.500000 0.000000 0.500000
O O9 0.291360 0.019252 0.023925
O O10 0.000000 0.000000 0.000000
O O11 0.783720 0.634279 0.478714
#
# Coordination Sequence:
#
# PCOD9251972 Si02
#       5
#     4   4   4   4   4
#     4  11  23  44  67  90 126 175 215 252 317 399
#     4  11  23  40  64  95 129 169 213 260 317 380
#     4  12  26  42  64  98 126 158 212 276 326 364
#     4  11  23  44  67  90 126 175 215 252 317 399
#     4  11  23  40  64  95 129 169 213 260 317 380
#
# _framework density 25.915787999999999
#
# number of rings (size 3 to 8) (size 9 to 14) (size 15 to 20)
#    0.000    0.800    0.000    9.600    0.000    4.800 
#    0.000    0.000    0.000    0.000    0.000    0.000 
#    0.000    0.000    0.000    0.000    0.000    0.000 
#
# Total GULP energy -111441.166302 kJ/mol
# GULP energy per Si atom -5572.058315 kJ/mol
# Density = 2.585680 g / cm^3
# Si number density = 25.915788 Si / 1000 Ang^3
#
#
#
# Elastic Constant Matrix: (Units=GPa)
#
#
# Indices 1 2 3 4 5 6 
#
# 1 95.2330 13.0178 18.8180 0.0000 -35.1386 0.0000
# 2 13.0178 85.8200 58.3309 0.0000 26.5972 0.0000
# 3 18.8180 58.3309 176.1534 0.0000 -9.5648 0.0000
# 4 0.0000 0.0000 0.0000 31.1554 0.0000 15.1328
# 5 -35.1386 26.5972 -9.5648 0.0000 52.3892 0.0000
# 6 0.0000 0.0000 0.0000 15.1328 0.0000 11.7628
#
#
#
# Elastic Compliance Matrix: (Units=1/GPa)
#
#
# Indices 1 2 3 4 5 6 
#
# 1 0.017630 -0.009404 0.002153 0.000000 0.016993 0.000000
# 2 -0.009404 0.025249 -0.008479 0.000000 -0.020674 0.000000
# 3 0.002153 -0.008479 0.008652 0.000000 0.007329 0.000000
# 4 0.000000 0.000000 0.000000 0.085564 0.000000 -0.110078
# 5 0.016993 -0.020674 0.007329 0.000000 0.042319 0.000000
# 6 0.000000 0.000000 0.000000 -0.110078 0.000000 0.226628
#
#
# Mechanical properties :
#
#
# Convention : Reuss Voigt Hill
#
# Bulk Modulus (GPa) = 49.81954 59.72665 54.77310
# Shear Modulus (GPa) = 11.25634 36.86412 24.06023
#
# Velocity S-wave (km/s) = 2.08635 3.77564 3.05027
# Velocity P-wave (km/s) = 5.00691 6.48874 5.79538
#
# Compressibility (1/GPa) = 0.02007244
#
# Stress axis : x y z
#
# Youngs Moduli (GPa) = 56.72000 39.60522 115.57440
#
# Poissons Ratio (x) = 0.37246 -0.24887
# Poissons Ratio (y) = 0.53341 0.97994
# Poissons Ratio (z) = -0.12214 0.33581
#
# Static dielectric constant tensor:
#      x y z
#    x 2.139270 0.000000 0.181660 
#    y 0.000000 2.154000 0.000000 
#    z 0.181660 0.000000 2.042510 
# 
# From -- ./inp_files/10760.got.cif
#   From: 2010.05.17/outbox.cif.g08.bks.cpg/sg14_6_cif.got.tgz:10760.got - 2010.06.03 17:49:19.
