data_PCOD9251251
_publ_section_title
;
Structure prediction by ZEFSAII (Michael W. Deem and Ramdas Pophale) SiO2 
 PCOD9251251
Probable space group: P 21/C
;
_chemical_formula_sum "Si O2"
_cell_formula_units_Z 14
_cell_length_a 4.865620
_cell_length_b 10.276867
_cell_length_c 9.881760
_cell_angle_alpha 90.000000
_cell_angle_beta 80.512539
_cell_angle_gamma 90.000000
_cell_volume 487.362168
_symmetry_space_group_name_H-M "P 21/C"
_symmetry_group_IT_number 14
_symmetry_cell_setting 'monoclinic'
loop_
_space_group_symop_operation_xyz
x,y,z
-x,1/2+y,1/2-z
-x,-y,-z
x,1/2-y,1/2+z
loop_
_atom_site_type_symbol
_atom_site_label
_atom_site_fract_x
_atom_site_fract_y
_atom_site_fract_z
Si Si1 0.357640 0.594916 0.222418
Si Si2 0.934367 0.689274 0.479050
Si Si3 0.000000 0.000000 0.500000
Si Si4 0.397126 0.628581 0.645617
O O1 0.112734 0.618882 0.349182
O O2 0.578974 0.485553 0.247815
O O3 0.495542 0.736290 0.205742
O O4 0.223972 0.554798 0.092444
O O5 0.099935 0.654572 0.604076
O O6 0.632751 0.622167 0.510559
O O7 0.927667 0.844160 0.461471
#
# Coordination Sequence:
#
# PCOD9251251 Si02
#       4
#     4   4   2   4
#     4  11  27  51  82 115 166 204 269 332 394 477
#     4  11  27  50  79 114 157 206 265 329 394 468
#     4  10  28  46  80 118 154 206 268 314 410 454
#     4  11  28  48  81 115 154 210 264 322 402 466
#
# _framework density 28.726073
#
# number of rings (size 3 to 8) (size 9 to 14) (size 15 to 20)
#    0.000    1.143    0.000    1.714   16.000    4.571 
#    0.000    0.000    0.000    0.000    0.000    0.000 
#    0.000    0.000    0.000    0.000    0.000    0.000 
#
# Total GULP energy -78279.386234 kJ/mol
# GULP energy per Si atom -5591.384731 kJ/mol
# Density = 2.866069 g / cm^3
# Si number density = 28.726073 Si / 1000 Ang^3
#
#
#
# Elastic Constant Matrix: (Units=GPa)
#
#
# Indices 1 2 3 4 5 6 
#
# 1 115.1606 46.0415 12.0917 0.0000 14.9118 0.0000
# 2 46.0415 217.0928 23.0867 0.0000 30.8683 0.0000
# 3 12.0917 23.0867 61.9837 0.0000 33.4144 0.0000
# 4 0.0000 0.0000 0.0000 44.5536 0.0000 16.1395
# 5 14.9118 30.8683 33.4144 0.0000 44.7056 0.0000
# 6 0.0000 0.0000 0.0000 16.1395 0.0000 59.4920
#
#
#
# Elastic Compliance Matrix: (Units=1/GPa)
#
#
# Indices 1 2 3 4 5 6 
#
# 1 0.009649 -0.001762 -0.000246 0.000000 -0.001818 0.000000
# 2 -0.001762 0.005429 0.000043 0.000000 -0.003193 0.000000
# 3 -0.000246 0.000043 0.027027 0.000000 -0.020148 0.000000
# 4 0.000000 0.000000 0.000000 0.024891 0.000000 -0.006753
# 5 -0.001818 -0.003193 -0.020148 0.000000 0.040240 0.000000
# 6 0.000000 0.000000 0.000000 -0.006753 0.000000 0.018641
#
#
# Mechanical properties :
#
#
# Convention : Reuss Voigt Hill
#
# Bulk Modulus (GPa) = 26.19449 61.85298 44.02374
# Shear Modulus (GPa) = 35.07983 50.61804 42.84894
#
# Velocity S-wave (km/s) = 3.49834 4.20228 3.86636
# Velocity P-wave (km/s) = 5.04543 6.71746 5.94057
#
# Compressibility (1/GPa) = 0.03817596
#
# Stress axis : x y z
#
# Youngs Moduli (GPa) = 103.63634 184.18067 37.00003
#
# Poissons Ratio (x) = 0.32447 0.00910
# Poissons Ratio (y) = 0.18258 -0.00159
# Poissons Ratio (z) = 0.02549 -0.00790
#
# Static dielectric constant tensor:
#      x y z
#    x 2.679660 0.000000 -0.692420 
#    y 0.000000 2.309620 0.000000 
#    z -0.692420 0.000000 2.901700 
# 
# From -- ./inp_files/4845.got.cif
#   From: 2010.05.17/outbox.cif.g08.bks.cpg/sg14_3_cif.got.tgz:4845.got - 2010.06.03 17:49:19.
