data_PCOD9251964
_publ_section_title
;
Structure prediction by ZEFSAII (Michael W. Deem and Ramdas Pophale) SiO2 
 PCOD9251964
Probable space group: P 21/C
;
_chemical_formula_sum "Si O2"
_cell_formula_units_Z 20
_cell_length_a 4.914804
_cell_length_b 5.270570
_cell_length_c 27.842525
_cell_angle_alpha 90.000000
_cell_angle_beta 78.729181
_cell_angle_gamma 90.000000
_cell_volume 707.318353
_symmetry_space_group_name_H-M "P 21/C"
_symmetry_group_IT_number 14
_symmetry_cell_setting 'monoclinic'
loop_
_space_group_symop_operation_xyz
x,y,z
-x,1/2+y,1/2-z
-x,-y,-z
x,1/2-y,1/2+z
loop_
_atom_site_type_symbol
_atom_site_label
_atom_site_fract_x
_atom_site_fract_y
_atom_site_fract_z
Si Si1 0.395213 0.687351 0.108803
Si Si2 0.757875 0.194902 0.087248
Si Si3 0.262353 0.790961 0.809892
Si Si4 0.793059 0.415197 0.290737
Si Si5 0.306948 0.750117 0.011001
O O1 0.528220 0.416062 0.095597
O O2 0.195070 0.742494 0.069708
O O3 0.617813 0.918188 0.096065
O O4 0.297348 0.707213 0.167099
O O5 0.895717 0.251884 0.134209
O O6 0.888650 0.233144 0.029692
O O7 0.233991 0.612749 0.765253
O O8 0.580904 0.855344 0.808780
O O9 0.109022 0.035716 0.793486
O O10 0.500000 0.500000 0.000000
O O11 0.500000 0.000000 0.000000
#
# Coordination Sequence:
#
# PCOD9251964 Si02
#       5
#     4   4   4   4   4
#     4   9  18  34  58  88 122 160 203 251 305 365
#     4   9  18  34  58  88 122 160 203 251 305 365
#     4  11  23  40  62  92 125 166 210 260 314 373
#     4  11  23  40  62  92 125 166 210 260 314 373
#     4   8  14  28  53  84 118 156 198 246 300 360
#
# _framework density 28.275812999999999
#
# number of rings (size 3 to 8) (size 9 to 14) (size 15 to 20)
#    0.000    2.400    0.000    2.400    0.000    3.200 
#    0.000    1.000    0.000    0.000    0.000   43.400 
#    0.000    0.000    0.000    0.000    0.000    0.000 
#
# Total GULP energy -111735.219901 kJ/mol
# GULP energy per Si atom -5586.760995 kJ/mol
# Density = 2.821146 g / cm^3
# Si number density = 28.275813 Si / 1000 Ang^3
#
#
#
# Elastic Constant Matrix: (Units=GPa)
#
#
# Indices 1 2 3 4 5 6 
#
# 1 67.3016 45.6439 48.5461 0.0000 1.8562 0.0000
# 2 45.6439 123.3243 24.2367 0.0000 -24.7846 0.0000
# 3 48.5461 24.2367 280.7944 0.0000 42.5216 0.0000
# 4 0.0000 0.0000 0.0000 45.8162 0.0000 7.3697
# 5 1.8562 -24.7846 42.5216 0.0000 29.3130 0.0000
# 6 0.0000 0.0000 0.0000 7.3697 0.0000 15.5234
#
#
#
# Elastic Compliance Matrix: (Units=1/GPa)
#
#
# Indices 1 2 3 4 5 6 
#
# 1 0.022922 -0.009244 -0.002257 0.000000 -0.005993 0.000000
# 2 -0.009244 0.015379 -0.002290 0.000000 0.016910 0.000000
# 3 -0.002257 -0.002290 0.005665 0.000000 -0.010011 0.000000
# 4 0.000000 0.000000 0.000000 0.023631 0.000000 -0.011219
# 5 -0.005993 0.016910 -0.010011 0.000000 0.063314 0.000000
# 6 0.000000 0.000000 0.000000 -0.011219 0.000000 0.069745
#
#
# Mechanical properties :
#
#
# Convention : Reuss Voigt Hill
#
# Bulk Modulus (GPa) = 61.04190 78.69708 69.86949
# Shear Modulus (GPa) = 21.39499 41.66343 31.52921
#
# Velocity S-wave (km/s) = 2.75372 3.84274 3.34287
# Velocity P-wave (km/s) = 5.63432 6.89791 6.29789
#
# Compressibility (1/GPa) = 0.01638219
#
# Stress axis : x y z
#
# Youngs Moduli (GPa) = 43.62697 65.02550 176.51336
#
# Poissons Ratio (x) = 0.60112 0.39846
# Poissons Ratio (y) = 0.40330 0.40419
# Poissons Ratio (z) = 0.09848 0.14890
#
# Static dielectric constant tensor:
#      x y z
#    x 2.152580 0.000000 -0.053800 
#    y 0.000000 2.266670 0.000000 
#    z -0.053800 0.000000 2.501650 
# 
# From -- ./inp_files/75472.got.cif
#   From: 2010.05.17/outbox.cif.g08.bks.cpg/sg14_38_cif.got.tgz:75472.got - 2010.06.03 17:49:19.
