data_PCOD9251122
_publ_section_title
;
Structure prediction by ZEFSAII (Michael W. Deem and Ramdas Pophale) SiO2 
 PCOD9251122
Probable space group: P 21/C
;
_chemical_formula_sum "Si O2"
_cell_formula_units_Z 32
_cell_length_a 13.634073
_cell_length_b 7.715909
_cell_length_c 22.154379
_cell_angle_alpha 90.000000
_cell_angle_beta 147.466814
_cell_angle_gamma 90.000000
_cell_volume 1253.381881
_symmetry_space_group_name_H-M "P 21/C"
_symmetry_group_IT_number 14
_symmetry_cell_setting 'monoclinic'
loop_
_space_group_symop_operation_xyz
x,y,z
-x,1/2+y,1/2-z
-x,-y,-z
x,1/2-y,1/2+z
loop_
_atom_site_type_symbol
_atom_site_label
_atom_site_fract_x
_atom_site_fract_y
_atom_site_fract_z
Si Si1 0.560818 0.719365 0.319368
Si Si2 0.905926 0.854343 0.858798
Si Si3 0.733235 0.860031 0.068529
Si Si4 0.746507 0.473724 0.768312
Si Si5 0.639277 0.312032 0.587087
Si Si6 0.870047 0.871736 0.537974
Si Si7 0.059838 0.675683 0.830921
Si Si8 0.778617 0.410609 0.382670
O O1 0.441168 0.600668 0.302550
O O2 0.682891 0.884018 0.403620
O O3 0.714215 0.598854 0.371727
O O4 0.395285 0.792565 0.195010
O O5 0.777886 0.681097 0.790609
O O6 0.012175 0.838984 0.850055
O O7 0.809243 0.035486 0.827610
O O8 0.055954 0.846375 0.990360
O O9 0.821780 0.800021 0.051964
O O10 0.886330 0.841307 0.198179
O O11 0.639846 0.047791 0.031879
O O12 0.556769 0.744601 0.994279
O O13 0.733467 0.404717 0.693071
O O14 0.933050 0.386975 0.892688
O O15 0.775046 0.175340 0.629993
O O16 0.894823 0.024649 0.598778
#
# Coordination Sequence:
#
# PCOD9251122 Si02
#       8
#     4   4   4   4   4   4   4   4
#     4  12  28  48  75 102 140 185 242 310 359 427
#     4  10  25  49  72 103 140 189 241 297 359 427
#     4  11  21  41  64 101 143 181 233 273 347 425
#     4  11  23  47  72 106 145 188 233 295 364 427
#     4  11  23  39  68 103 140 189 231 275 354 428
#     4  11  25  43  67 104 140 187 235 286 353 424
#     4  11  23  44  68 102 148 187 226 292 348 419
#     4  11  28  49  72 105 132 188 246 302 368 415
#
# _framework density 25.530925
#
# number of rings (size 3 to 8) (size 9 to 14) (size 15 to 20)
#    0.000    1.000    5.000    0.750    8.750    2.000 
#    2.250    0.000    0.000    0.000    0.000    0.000 
#    0.000    0.000    0.000    0.000    0.000    0.000 
#
# Total GULP energy -178551.529929 kJ/mol
# GULP energy per Si atom -5579.735310 kJ/mol
# Density = 2.547282 g / cm^3
# Si number density = 25.530925 Si / 1000 Ang^3
#
#
#
# Elastic Constant Matrix: (Units=GPa)
#
#
# Indices 1 2 3 4 5 6 
#
# 1 61.6113 4.9477 3.2314 0.0000 22.6647 0.0000
# 2 4.9477 66.2847 14.0467 0.0000 -0.5249 0.0000
# 3 3.2314 14.0467 91.6800 0.0000 30.2115 0.0000
# 4 0.0000 0.0000 0.0000 37.4366 0.0000 3.1331
# 5 22.6647 -0.5249 30.2115 0.0000 44.2579 0.0000
# 6 0.0000 0.0000 0.0000 3.1331 0.0000 36.1739
#
#
#
# Elastic Compliance Matrix: (Units=1/GPa)
#
#
# Indices 1 2 3 4 5 6 
#
# 1 0.021294 -0.002587 0.004193 0.000000 -0.013798 0.000000
# 2 -0.002587 0.016098 -0.003709 0.000000 0.004048 0.000000
# 3 0.004193 -0.003709 0.015547 0.000000 -0.012804 0.000000
# 4 0.000000 0.000000 0.000000 0.026907 0.000000 -0.002330
# 5 -0.013798 0.004048 -0.012804 0.000000 0.038449 0.000000
# 6 0.000000 0.000000 0.000000 -0.002330 0.000000 0.027846
#
#
# Mechanical properties :
#
#
# Convention : Reuss Voigt Hill
#
# Bulk Modulus (GPa) = 20.52044 29.33641 24.92843
# Shear Modulus (GPa) = 30.01334 36.73036 33.37185
#
# Velocity S-wave (km/s) = 3.43238 3.79708 3.61933
# Velocity P-wave (km/s) = 4.87475 5.54430 5.22027
#
# Compressibility (1/GPa) = 0.04873189
#
# Stress axis : x y z
#
# Youngs Moduli (GPa) = 46.96087 62.12097 64.31963
#
# Poissons Ratio (x) = 0.16072 -0.26967
# Poissons Ratio (y) = 0.12150 0.23857
# Poissons Ratio (z) = -0.19689 0.23041
#
# Static dielectric constant tensor:
#      x y z
#    x 2.162020 0.000000 0.034500 
#    y 0.000000 2.142280 0.000000 
#    z 0.034500 0.000000 2.030300 
# 
# From -- ./inp_files/73751.got.cif
#   From: 2010.05.17/outbox.cif.g08.bks.cpg/sg14_37_cif.got.tgz:73751.got - 2010.06.03 17:49:19.
