data_PCOD9251449
_publ_section_title
;
Structure prediction by ZEFSAII (Michael W. Deem and Ramdas Pophale) SiO2 
 PCOD9251449
Probable space group: P 21/C
;
_chemical_formula_sum "Si O2"
_cell_formula_units_Z 32
_cell_length_a 23.521359
_cell_length_b 10.824488
_cell_length_c 12.620416
_cell_angle_alpha 90.000000
_cell_angle_beta 23.583230
_cell_angle_gamma 90.000000
_cell_volume 1285.556469
_symmetry_space_group_name_H-M "P 21/C"
_symmetry_group_IT_number 14
_symmetry_cell_setting 'monoclinic'
loop_
_space_group_symop_operation_xyz
x,y,z
-x,1/2+y,1/2-z
-x,-y,-z
x,1/2-y,1/2+z
loop_
_atom_site_type_symbol
_atom_site_label
_atom_site_fract_x
_atom_site_fract_y
_atom_site_fract_z
Si Si1 0.816343 0.579794 0.468367
Si Si2 0.294447 0.648722 0.954728
Si Si3 0.577944 0.734668 0.402176
Si Si4 0.551634 0.595783 0.225731
Si Si5 0.835963 0.654264 0.667031
Si Si6 0.996049 0.110851 0.693186
Si Si7 0.730984 0.488254 0.226892
Si Si8 0.002077 0.698798 0.568560
O O1 0.660998 0.639346 0.735953
O O2 0.860171 0.580712 0.518309
O O3 0.911696 0.675705 0.239921
O O4 0.855619 0.439742 0.375434
O O5 0.425808 0.743353 0.718031
O O6 0.367454 0.534554 0.893816
O O7 0.259845 0.593825 0.896087
O O8 0.155656 0.695674 0.251618
O O9 0.547354 0.670662 0.341976
O O10 0.677085 0.626694 0.285429
O O11 0.386957 0.564316 0.490909
O O12 0.665489 0.670097 0.961874
O O13 0.929710 0.775351 0.490692
O O14 0.896651 0.611994 0.677113
O O15 0.978618 0.152071 0.844446
O O16 0.115727 0.004252 0.485246
#
# Coordination Sequence:
#
# PCOD9251449 Si02
#       8
#     4   4   4   4   4   4   4   4
#     4  11  22  37  58  86 126 159 196 254 310 366
#     4   9  18  30  64  88 113 150 200 254 306 352
#     4   9  16  36  55  83 121 149 192 256 304 362
#     4   9  17  32  58  87 111 158 198 247 314 355
#     4  11  21  36  62  88 121 164 205 255 311 359
#     4  11  23  37  59  92 126 161 207 257 313 369
#     4   9  16  34  55  86 116 147 202 254 298 364
#     4  11  21  39  58  90 120 154 212 253 298 369
#
# _framework density 24.891943999999999
#
# number of rings (size 3 to 8) (size 9 to 14) (size 15 to 20)
#    0.000    2.000    3.750    3.750    0.000    2.000 
#    2.250    0.000    0.000    0.750    0.000    2.625 
#    0.000    0.000    0.000    0.000    0.000    0.000 
#
# Total GULP energy -178693.750192 kJ/mol
# GULP energy per Si atom -5584.179693 kJ/mol
# Density = 2.483529 g / cm^3
# Si number density = 24.891944 Si / 1000 Ang^3
#
#
#
# Elastic Constant Matrix: (Units=GPa)
#
#
# Indices 1 2 3 4 5 6 
#
# 1 27.6258 2.4171 16.9206 0.0000 7.2542 0.0000
# 2 2.4171 45.1071 39.6514 0.0000 -0.4148 0.0000
# 3 16.9206 39.6514 220.3163 0.0000 1.6696 0.0000
# 4 0.0000 0.0000 0.0000 -1.0462 0.0000 -28.5844
# 5 7.2542 -0.4148 1.6696 0.0000 37.6461 0.0000
# 6 0.0000 0.0000 0.0000 -28.5844 0.0000 -0.1231
#
#
#
# Elastic Compliance Matrix: (Units=1/GPa)
#
#
# Indices 1 2 3 4 5 6 
#
# 1 0.040047 0.000520 -0.003112 0.000000 -0.007573 0.000000
# 2 0.000520 0.026352 -0.004786 0.000000 0.000402 0.000000
# 3 -0.003112 -0.004786 0.005637 0.000000 0.000297 0.000000
# 4 0.000000 0.000000 0.000000 0.000151 0.000000 -0.034990
# 5 -0.007573 0.000402 0.000297 0.000000 0.028014 0.000000
# 6 0.000000 0.000000 0.000000 -0.034990 0.000000 0.001281
#
#
# Mechanical properties :
#
#
# Convention : Reuss Voigt Hill
#
# Bulk Modulus (GPa) = 17.45780 45.66970 31.56375
# Shear Modulus (GPa) = 36.94662 22.89937 29.92299
#
# Velocity S-wave (km/s) = 3.85682 3.03636 3.47092
# Velocity P-wave (km/s) = 5.18286 5.53892 5.36385
#
# Compressibility (1/GPa) = 0.05728097
#
# Stress axis : x y z
#
# Youngs Moduli (GPa) = 24.97056 37.94751 177.39992
#
# Poissons Ratio (x) = -0.01973 0.55204
# Poissons Ratio (y) = -0.01298 0.84898
# Poissons Ratio (z) = 0.07770 0.18161
#
# Static dielectric constant tensor:
#      x y z
#    x 2.043530 0.000000 0.028790 
#    y 0.000000 2.043060 0.000000 
#    z 0.028790 0.000000 1.992750 
# 
# From -- ./inp_files/52305.got.cif
#   From: 2010.05.17/outbox.cif.g08.bks.cpg/sg14_27_cif.got.tgz:52305.got - 2010.06.03 17:49:19.
