data_PCOD9251142
_publ_section_title
;
Structure prediction by ZEFSAII (Michael W. Deem and Ramdas Pophale) SiO2 
 PCOD9251142
Probable space group: P 21/C
;
_chemical_formula_sum "Si O2"
_cell_formula_units_Z 20
_cell_length_a 24.753466
_cell_length_b 4.806400
_cell_length_c 10.412991
_cell_angle_alpha 90.000000
_cell_angle_beta 144.080771
_cell_angle_gamma 90.000000
_cell_volume 726.785391
_symmetry_space_group_name_H-M "P 21/C"
_symmetry_group_IT_number 14
_symmetry_cell_setting 'monoclinic'
loop_
_space_group_symop_operation_xyz
x,y,z
-x,1/2+y,1/2-z
-x,-y,-z
x,1/2-y,1/2+z
loop_
_atom_site_type_symbol
_atom_site_label
_atom_site_fract_x
_atom_site_fract_y
_atom_site_fract_z
Si Si1 0.265008 0.064663 0.830516
Si Si2 0.985134 0.687766 0.630802
Si Si3 0.700371 0.972297 0.833074
Si Si4 0.556982 0.291106 0.899165
Si Si5 0.147632 0.814384 0.255871
O O1 0.263798 0.288618 0.716048
O O2 0.177648 0.868273 0.690570
O O3 0.290345 0.198371 0.017477
O O4 0.350876 0.855078 0.975452
O O5 0.019124 0.400314 0.760570
O O6 0.891262 0.897214 0.876069
O O7 0.939200 0.217412 0.326644
O O8 0.596749 0.067512 0.604339
O O9 0.765737 0.239547 0.985928
O O10 0.516272 0.542515 0.736460
#
# Coordination Sequence:
#
# PCOD9251142 Si02
#       5
#     4   4   4   4   4
#     4  10  25  53  86 127 169 231 289 354 427 521
#     4  11  26  55  84 124 175 216 285 370 439 522
#     4  10  25  53  86 127 169 231 289 354 427 521
#     4  12  26  52  80 132 174 224 286 366 432 508
#     4   9  26  52  84 127 164 230 286 356 436 515
#
# _framework density 27.518440999999999
#
# number of rings (size 3 to 8) (size 9 to 14) (size 15 to 20)
#    1.200    0.400    2.000    0.000    2.800    8.000 
#   10.800    0.000    8.800    0.000    0.000    0.000 
#    0.000    0.000    0.000    0.000    0.000    0.000 
#
# Total GULP energy -111941.487197 kJ/mol
# GULP energy per Si atom -5597.074360 kJ/mol
# Density = 2.745581 g / cm^3
# Si number density = 27.518441 Si / 1000 Ang^3
#
#
#
# Elastic Constant Matrix: (Units=GPa)
#
#
# Indices 1 2 3 4 5 6 
#
# 1 126.0134 45.4495 45.4316 0.0000 -8.0743 0.0000
# 2 45.4495 135.7875 56.7516 0.0000 11.8669 0.0000
# 3 45.4316 56.7516 184.4243 0.0000 10.2936 0.0000
# 4 0.0000 0.0000 0.0000 67.1116 0.0000 -12.7598
# 5 -8.0743 11.8669 10.2936 0.0000 43.0518 0.0000
# 6 0.0000 0.0000 0.0000 -12.7598 0.0000 24.6228
#
#
#
# Elastic Compliance Matrix: (Units=1/GPa)
#
#
# Indices 1 2 3 4 5 6 
#
# 1 0.009760 -0.002817 -0.001706 0.000000 0.003015 0.000000
# 2 -0.002817 0.009394 -0.002050 0.000000 -0.002628 0.000000
# 3 -0.001706 -0.002050 0.006547 0.000000 -0.001320 0.000000
# 4 0.000000 0.000000 0.000000 0.016529 0.000000 0.008566
# 5 0.003015 -0.002628 -0.001320 0.000000 0.024833 0.000000
# 6 0.000000 0.000000 0.000000 0.008566 0.000000 0.045051
#
#
# Mechanical properties :
#
#
# Convention : Reuss Voigt Hill
#
# Bulk Modulus (GPa) = 79.65088 82.38785 81.01936
# Shear Modulus (GPa) = 38.62633 46.86343 42.74488
#
# Velocity S-wave (km/s) = 3.75060 4.13120 3.94549
# Velocity P-wave (km/s) = 6.91111 7.26360 7.08954
#
# Compressibility (1/GPa) = 0.01255479
#
# Stress axis : x y z
#
# Youngs Moduli (GPa) = 102.46006 106.45229 152.74263
#
# Poissons Ratio (x) = 0.29992 0.26052
# Poissons Ratio (y) = 0.28867 0.31312
# Poissons Ratio (z) = 0.17475 0.21823
#
# Static dielectric constant tensor:
#      x y z
#    x 2.161550 0.000000 -0.028280 
#    y 0.000000 2.153730 0.000000 
#    z -0.028280 0.000000 2.202190 
# 
# From -- ./inp_files/36336.got.cif
#   From: 2010.05.17/outbox.cif.g08.bks.cpg/sg14_19_cif.got.tgz:36336.got - 2010.06.03 17:49:19.
