data_PCOD9251148
_publ_section_title
;
Structure prediction by ZEFSAII (Michael W. Deem and Ramdas Pophale) SiO2 
 PCOD9251148
Probable space group: P 21/C
;
_chemical_formula_sum "Si O2"
_cell_formula_units_Z 26
_cell_length_a 16.034031
_cell_length_b 12.592443
_cell_length_c 16.824790
_cell_angle_alpha 90.000000
_cell_angle_beta 161.241711
_cell_angle_gamma 90.000000
_cell_volume 1092.412366
_symmetry_space_group_name_H-M "P 21/C"
_symmetry_group_IT_number 14
_symmetry_cell_setting 'monoclinic'
loop_
_space_group_symop_operation_xyz
x,y,z
-x,1/2+y,1/2-z
-x,-y,-z
x,1/2-y,1/2+z
loop_
_atom_site_type_symbol
_atom_site_label
_atom_site_fract_x
_atom_site_fract_y
_atom_site_fract_z
Si Si1 0.153965 0.393112 0.443035
Si Si2 0.000000 0.500000 0.000000
Si Si3 0.420871 0.320165 0.182257
Si Si4 0.310268 0.870501 0.378131
Si Si5 0.329507 0.556626 0.729347
Si Si6 0.978729 0.478255 0.827318
Si Si7 0.511330 0.354732 0.442569
O O1 0.372232 0.304599 0.644302
O O2 0.176924 0.486788 0.527893
O O3 0.134414 0.444120 0.339537
O O4 0.895973 0.336818 0.241785
O O5 0.872726 0.456654 0.971123
O O6 0.239808 0.406988 0.218094
O O7 0.157137 0.390493 0.947380
O O8 0.555074 0.351240 0.221503
O O9 0.552074 0.355458 0.383401
O O10 0.197597 0.898167 0.189410
O O11 0.485756 0.766312 0.525960
O O12 0.455918 0.973696 0.543733
O O13 0.774257 0.420476 0.705794
#
# Coordination Sequence:
#
# PCOD9251148 Si02
#       7
#     4   2   4   4   4   4   4
#     4  12  23  42  71 100 134 184 226 288 345 411
#     4  10  26  42  64 100 134 174 228 286 340 414
#     4  11  23  41  67  98 131 179 231 278 347 414
#     4  11  24  42  69  97 141 177 225 286 348 411
#     4  11  24  43  64 102 136 176 230 285 346 415
#     4  11  23  43  67  94 137 174 229 284 344 407
#     4  11  22  45  66  96 136 180 222 290 345 409
#
# _framework density 23.800536000000001
#
# number of rings (size 3 to 8) (size 9 to 14) (size 15 to 20)
#    0.000    0.923    6.154    0.923    2.154    0.000 
#    0.000    1.538    0.000    0.000    0.000    0.000 
#    0.000    0.000    0.000    0.000    0.000    0.000 
#
# Total GULP energy -144795.446003 kJ/mol
# GULP energy per Si atom -5569.055616 kJ/mol
# Density = 2.374636 g / cm^3
# Si number density = 23.800536 Si / 1000 Ang^3
#
#
#
# Elastic Constant Matrix: (Units=GPa)
#
#
# Indices 1 2 3 4 5 6 
#
# 1 106.4809 36.0063 3.0172 0.0000 -21.5152 0.0000
# 2 36.0063 80.1562 11.0546 0.0000 -2.5912 0.0000
# 3 3.0172 11.0546 32.7245 0.0000 2.2565 0.0000
# 4 0.0000 0.0000 0.0000 28.0930 0.0000 -0.4511
# 5 -21.5152 -2.5912 2.2565 0.0000 34.9345 0.0000
# 6 0.0000 0.0000 0.0000 -0.4511 0.0000 25.5466
#
#
#
# Elastic Compliance Matrix: (Units=1/GPa)
#
#
# Indices 1 2 3 4 5 6 
#
# 1 0.012752 -0.005512 0.000174 0.000000 0.007434 0.000000
# 2 -0.005512 0.015523 -0.004602 0.000000 -0.001946 0.000000
# 3 0.000174 -0.004602 0.032256 0.000000 -0.002318 0.000000
# 4 0.000000 0.000000 0.000000 0.035606 0.000000 0.000629
# 5 0.007434 -0.001946 -0.002318 0.000000 0.033209 0.000000
# 6 0.000000 0.000000 0.000000 0.000629 0.000000 0.039155
#
#
# Mechanical properties :
#
#
# Convention : Reuss Voigt Hill
#
# Bulk Modulus (GPa) = 24.59882 35.50196 30.05039
# Shear Modulus (GPa) = 24.76070 29.00036 26.88053
#
# Velocity S-wave (km/s) = 3.22893 3.49445 3.36431
# Velocity P-wave (km/s) = 4.92536 5.58842 5.26733
#
# Compressibility (1/GPa) = 0.04065235
#
# Stress axis : x y z
#
# Youngs Moduli (GPa) = 78.41686 64.41907 31.00156
#
# Poissons Ratio (x) = 0.35508 -0.00538
# Poissons Ratio (y) = 0.43223 0.14265
# Poissons Ratio (z) = -0.01361 0.29643
#
# Static dielectric constant tensor:
#      x y z
#    x 1.713130 0.000000 0.416670 
#    y 0.000000 1.731680 0.000000 
#    z 0.416670 0.000000 1.170130 
# 
# From -- ./inp_files/60650.got.cif
#   From: 2010.05.17/outbox.cif.g08.bks.cpg/sg14_31_cif.got.tgz:60650.got - 2010.06.03 17:49:19.
