data_PCOD9251529
_publ_section_title
;
Structure prediction by ZEFSAII (Michael W. Deem and Ramdas Pophale) SiO2 
 PCOD9251529
Probable space group: P 21/C
;
_chemical_formula_sum "Si O2"
_cell_formula_units_Z 32
_cell_length_a 13.976884
_cell_length_b 9.036137
_cell_length_c 10.754871
_cell_angle_alpha 90.000000
_cell_angle_beta 78.234415
_cell_angle_gamma 90.000000
_cell_volume 1329.770359
_symmetry_space_group_name_H-M "P 21/C"
_symmetry_group_IT_number 14
_symmetry_cell_setting 'monoclinic'
loop_
_space_group_symop_operation_xyz
x,y,z
-x,1/2+y,1/2-z
-x,-y,-z
x,1/2-y,1/2+z
loop_
_atom_site_type_symbol
_atom_site_label
_atom_site_fract_x
_atom_site_fract_y
_atom_site_fract_z
Si Si1 0.630554 0.019962 0.706243
Si Si2 0.239767 0.451114 0.434995
Si Si3 0.428476 0.795091 0.081485
Si Si4 0.242194 0.787404 0.474979
Si Si5 0.042094 0.410204 0.368710
Si Si6 0.044760 0.917849 0.609783
Si Si7 0.352646 0.215666 0.502064
Si Si8 0.410750 0.007888 0.704240
O O1 0.605777 0.047941 0.856248
O O2 0.723910 0.124616 0.656381
O O3 0.522730 0.061155 0.679415
O O4 0.653145 0.866089 0.631667
O O5 0.207082 0.618456 0.473254
O O6 0.157365 0.394394 0.364272
O O7 0.262803 0.329476 0.534274
O O8 0.344943 0.462315 0.340442
O O9 0.540016 0.787595 0.012097
O O10 0.420884 0.668093 0.189186
O O11 0.346326 0.736293 0.011950
O O12 0.161002 0.887456 0.562168
O O13 0.025132 0.495629 0.243352
O O14 0.000000 0.500000 0.500000
O O15 0.999177 0.246425 0.372741
O O16 0.000000 0.000000 0.500000
O O17 0.357149 0.085476 0.602801
#
# Coordination Sequence:
#
# PCOD9251529 Si02
#       8
#     4   4   4   4   4   4   4   4
#     4  11  22  39  68  98 146 199 258 301 379 459
#     4  12  27  44  74 109 154 192 259 318 393 480
#     4  11  21  40  68  99 148 200 249 307 371 458
#     4  12  25  46  75 109 148 202 254 317 395 465
#     4  12  28  55  83 118 157 204 268 344 413 487
#     4  12  30  55  89 118 160 206 271 342 423 489
#     4  11  24  41  64 105 150 201 249 308 379 461
#     4  11  21  42  65 100 150 202 249 314 375 458
#
# _framework density 24.064305999999998
#
# number of rings (size 3 to 8) (size 9 to 14) (size 15 to 20)
#    0.000    0.500    6.250    2.250    1.750    2.500 
#    0.000    0.000    0.000    0.000    0.000    0.000 
#    0.000    0.000    0.000    0.000    0.000    0.000 
#
# Total GULP energy -178753.466841 kJ/mol
# GULP energy per Si atom -5586.045839 kJ/mol
# Density = 2.400953 g / cm^3
# Si number density = 24.064306 Si / 1000 Ang^3
#
#
#
# Elastic Constant Matrix: (Units=GPa)
#
#
# Indices 1 2 3 4 5 6 
#
# 1 95.5327 42.1365 25.6992 0.0000 5.9442 0.0000
# 2 42.1365 148.2515 66.4973 0.0000 -1.9371 0.0000
# 3 25.6992 66.4973 91.0980 0.0000 -3.0089 0.0000
# 4 0.0000 0.0000 0.0000 49.4740 0.0000 5.8332
# 5 5.9442 -1.9371 -3.0089 0.0000 28.7158 0.0000
# 6 0.0000 0.0000 0.0000 5.8332 0.0000 30.5624
#
#
#
# Elastic Compliance Matrix: (Units=1/GPa)
#
#
# Indices 1 2 3 4 5 6 
#
# 1 0.012313 -0.002879 -0.001467 0.000000 -0.002897 0.000000
# 2 -0.002879 0.010702 -0.006981 0.000000 0.000587 0.000000
# 3 -0.001467 -0.006981 0.016538 0.000000 0.001566 0.000000
# 4 0.000000 0.000000 0.000000 0.020678 0.000000 -0.003947
# 5 -0.002897 0.000587 0.001566 0.000000 0.035627 0.000000
# 6 0.000000 0.000000 0.000000 -0.003947 0.000000 0.033473
#
#
# Mechanical properties :
#
#
# Convention : Reuss Voigt Hill
#
# Bulk Modulus (GPa) = 59.17566 67.06091 63.11829
# Shear Modulus (GPa) = 31.72199 35.12039 33.42119
#
# Velocity S-wave (km/s) = 3.63467 3.82440 3.73074
# Velocity P-wave (km/s) = 6.50065 6.88689 6.69656
#
# Compressibility (1/GPa) = 0.01689884
#
# Stress axis : x y z
#
# Youngs Moduli (GPa) = 81.21820 93.43696 60.46519
#
# Poissons Ratio (x) = 0.26902 0.08873
# Poissons Ratio (y) = 0.23384 0.42209
# Poissons Ratio (z) = 0.11919 0.65225
#
# Static dielectric constant tensor:
#      x y z
#    x 1.914950 0.000000 0.034510 
#    y 0.000000 1.978880 0.000000 
#    z 0.034510 0.000000 2.001490 
# 
# From -- ./inp_files/31568.got.cif
#   From: 2010.05.17/outbox.cif.g08.bks.cpg/sg14_16_cif.got.tgz:31568.got - 2010.06.03 17:49:19.
