data_PCOD9251864
_publ_section_title
;
Structure prediction by ZEFSAII (Michael W. Deem and Ramdas Pophale) SiO2 
 PCOD9251864
Probable space group: P 21/C
;
_chemical_formula_sum "Si O2"
_cell_formula_units_Z 22
_cell_length_a 18.798722
_cell_length_b 8.299974
_cell_length_c 8.816278
_cell_angle_alpha 90.000000
_cell_angle_beta 39.662056
_cell_angle_gamma 90.000000
_cell_volume 877.984197
_symmetry_space_group_name_H-M "P 21/C"
_symmetry_group_IT_number 14
_symmetry_cell_setting 'monoclinic'
loop_
_space_group_symop_operation_xyz
x,y,z
-x,1/2+y,1/2-z
-x,-y,-z
x,1/2-y,1/2+z
loop_
_atom_site_type_symbol
_atom_site_label
_atom_site_fract_x
_atom_site_fract_y
_atom_site_fract_z
Si Si1 0.715772 0.151416 0.776534
Si Si2 0.069536 0.153715 0.340263
Si Si3 0.796392 0.852277 0.182971
Si Si4 0.500000 0.500000 0.500000
Si Si5 0.852293 0.324662 0.772412
Si Si6 0.581439 0.014678 0.509010
O O1 0.770618 0.177770 0.851954
O O2 0.826380 0.161545 0.491395
O O3 0.632349 0.022923 0.838996
O O4 0.639420 0.312178 0.891668
O O5 0.174507 0.192299 0.274044
O O6 0.978854 0.293376 0.518112
O O7 0.117821 0.141682 0.094964
O O8 0.000000 0.000000 0.500000
O O9 0.814954 0.009822 0.255939
O O10 0.669503 0.870213 0.342614
O O11 0.463869 0.505398 0.744112
O O12 0.500000 0.000000 0.500000
#
# Coordination Sequence:
#
# PCOD9251864 Si02
#       6
#     4   4   4   2   4   4
#     4  11  22  45  70 100 145 196 261 313 401 464
#     4  12  25  45  74 112 153 198 258 332 402 478
#     4  11  25  48  70 109 150 202 261 317 401 482
#     4  12  24  46  76 110 148 210 266 340 396 466
#     4  11  23  46  73 102 151 207 250 324 407 477
#     4  11  26  49  72 108 155 203 265 329 394 476
#
# _framework density 25.057400999999999
#
# number of rings (size 3 to 8) (size 9 to 14) (size 15 to 20)
#    0.000    0.727    3.636    6.000    0.000    2.909 
#    6.545    0.000    0.000    0.000    0.000    0.000 
#    0.000    0.000    0.000    0.000    0.000    0.000 
#
# Total GULP energy -122565.422042 kJ/mol
# GULP energy per Si atom -5571.155547 kJ/mol
# Density = 2.500037 g / cm^3
# Si number density = 25.057401 Si / 1000 Ang^3
#
#
#
# Elastic Constant Matrix: (Units=GPa)
#
#
# Indices 1 2 3 4 5 6 
#
# 1 121.0931 19.6298 14.7738 0.0000 -15.3527 0.0000
# 2 19.6298 75.6311 15.8516 0.0000 -0.7639 0.0000
# 3 14.7738 15.8516 178.0215 0.0000 23.3261 0.0000
# 4 0.0000 0.0000 0.0000 30.2342 0.0000 -5.9084
# 5 -15.3527 -0.7639 23.3261 0.0000 48.6809 0.0000
# 6 0.0000 0.0000 0.0000 -5.9084 0.0000 28.3856
#
#
#
# Elastic Compliance Matrix: (Units=1/GPa)
#
#
# Indices 1 2 3 4 5 6 
#
# 1 0.009149 -0.002130 -0.001006 0.000000 0.003334 0.000000
# 2 -0.002130 0.014002 -0.001078 0.000000 0.000065 0.000000
# 3 -0.001006 -0.001078 0.006232 0.000000 -0.003320 0.000000
# 4 0.000000 0.000000 0.000000 0.034478 0.000000 0.007176
# 5 0.003334 0.000065 -0.003320 0.000000 0.023186 0.000000
# 6 0.000000 0.000000 0.000000 0.007176 0.000000 0.036723
#
#
# Mechanical properties :
#
#
# Convention : Reuss Voigt Hill
#
# Bulk Modulus (GPa) = 47.72667 52.80623 50.26645
# Shear Modulus (GPa) = 35.92407 43.09282 39.50845
#
# Velocity S-wave (km/s) = 3.79049 4.15150 3.97510
# Velocity P-wave (km/s) = 6.18429 6.64077 6.41659
#
# Compressibility (1/GPa) = 0.02095265
#
# Stress axis : x y z
#
# Youngs Moduli (GPa) = 109.30275 71.42044 160.46382
#
# Poissons Ratio (x) = 0.15212 0.16150
# Poissons Ratio (y) = 0.23281 0.17305
# Poissons Ratio (z) = 0.11001 0.07702
#
# Static dielectric constant tensor:
#      x y z
#    x 2.033200 0.000000 -0.053360 
#    y 0.000000 2.097880 0.000000 
#    z -0.053360 0.000000 1.940650 
# 
# From -- ./inp_files/18559.got.cif
#   From: 2010.05.17/outbox.cif.g08.bks.cpg/sg14_10_cif.got.tgz:18559.got - 2010.06.03 17:49:19.
