data_PCOD9251264
_publ_section_title
;
Structure prediction by ZEFSAII (Michael W. Deem and Ramdas Pophale) SiO2 
 PCOD9251264
Probable space group: P 21/C
;
_chemical_formula_sum "Si O2"
_cell_formula_units_Z 32
_cell_length_a 15.367935
_cell_length_b 19.797775
_cell_length_c 10.225121
_cell_angle_alpha 90.000000
_cell_angle_beta 142.858794
_cell_angle_gamma 90.000000
_cell_volume 1878.365543
_symmetry_space_group_name_H-M "P 21/C"
_symmetry_group_IT_number 14
_symmetry_cell_setting 'monoclinic'
loop_
_space_group_symop_operation_xyz
x,y,z
-x,1/2+y,1/2-z
-x,-y,-z
x,1/2-y,1/2+z
loop_
_atom_site_type_symbol
_atom_site_label
_atom_site_fract_x
_atom_site_fract_y
_atom_site_fract_z
Si Si1 0.030795 0.202910 0.531001
Si Si2 0.030504 0.320078 0.731467
Si Si3 0.380160 0.286559 0.427519
Si Si4 0.947974 0.555080 0.830960
Si Si5 0.618456 0.685590 0.856030
Si Si6 0.051872 0.476543 0.703586
Si Si7 0.624498 0.964451 0.323603
Si Si8 0.377125 0.436409 0.485366
O O1 0.981491 0.265841 0.562596
O O2 0.981914 0.200182 0.320480
O O3 0.205379 0.209723 0.728466
O O4 0.001305 0.130289 0.564468
O O5 0.999006 0.399311 0.667896
O O6 0.206283 0.317115 0.938303
O O7 0.431026 0.226889 0.579440
O O8 0.423858 0.279356 0.330068
O O9 0.428240 0.359412 0.536072
O O10 0.774668 0.558454 0.624638
O O11 0.999086 0.527819 0.752652
O O12 0.000000 0.500000 0.000000
O O13 0.567184 0.609056 0.793988
O O14 0.000000 0.500000 0.500000
O O15 0.225478 0.476372 0.924207
O O16 0.652859 0.959992 0.200715
O O17 0.501959 0.019175 0.196422
#
# Coordination Sequence:
#
# PCOD9251264 Si02
#       8
#     4   4   4   4   4   4   4   4
#     4   9  17  28  48  72 102 129 171 214 255 302
#     4   9  17  30  46  73 100 131 171 215 252 303
#     4   8  14  26  44  71  93 123 161 206 242 290
#     4  11  18  34  54  78 102 136 175 215 256 309
#     4   8  14  26  46  67  96 123 161 204 244 289
#     4  11  22  34  52  78 110 137 172 218 264 307
#     4   9  17  33  52  78 100 131 170 212 253 301
#     4   9  17  31  56  77  97 129 177 211 247 305
#
# _framework density 17.036087999999999
#
# number of rings (size 3 to 8) (size 9 to 14) (size 15 to 20)
#    0.000    2.750    2.500    1.500    1.750    0.000 
#    6.750    0.625    0.000    3.000    0.000    0.000 
#    0.000    0.000    0.000    0.000    0.000    0.000 
#
# Total GULP energy -178173.299463 kJ/mol
# GULP energy per Si atom -5567.915608 kJ/mol
# Density = 1.699731 g / cm^3
# Si number density = 17.036088 Si / 1000 Ang^3
#
#
#
# Elastic Constant Matrix: (Units=GPa)
#
#
# Indices 1 2 3 4 5 6 
#
# 1 32.9783 23.0048 29.0676 0.0000 -19.1246 0.0000
# 2 23.0048 58.0653 41.1909 0.0000 -19.4289 0.0000
# 3 29.0676 41.1909 75.4852 0.0000 -24.9112 0.0000
# 4 0.0000 0.0000 0.0000 27.5475 0.0000 -3.6119
# 5 -19.1246 -19.4289 -24.9112 0.0000 23.7459 0.0000
# 6 0.0000 0.0000 0.0000 -3.6119 0.0000 26.3667
#
#
#
# Elastic Compliance Matrix: (Units=1/GPa)
#
#
# Indices 1 2 3 4 5 6 
#
# 1 0.064296 -0.006855 -0.008841 0.000000 0.036900 0.000000
# 2 -0.006855 0.030676 -0.011683 0.000000 0.007321 0.000000
# 3 -0.008841 -0.011683 0.026802 0.000000 0.011438 0.000000
# 4 0.000000 0.000000 0.000000 0.036965 0.000000 0.005064
# 5 0.036900 0.007321 0.011438 0.000000 0.089820 0.000000
# 6 0.000000 0.000000 0.000000 0.005064 0.000000 0.038620
#
#
# Mechanical properties :
#
#
# Convention : Reuss Voigt Hill
#
# Bulk Modulus (GPa) = 14.92195 39.22836 27.07516
# Shear Modulus (GPa) = 13.72589 20.41638 17.07114
#
# Velocity S-wave (km/s) = 2.84156 3.46558 3.16896
# Velocity P-wave (km/s) = 4.42085 6.25222 5.41453
#
# Compressibility (1/GPa) = 0.06701537
#
# Stress axis : x y z
#
# Youngs Moduli (GPa) = 15.55316 32.59923 37.31060
#
# Poissons Ratio (x) = 0.22346 0.32985
# Poissons Ratio (y) = 0.10661 0.43591
# Poissons Ratio (z) = 0.13750 0.38087
#
# Static dielectric constant tensor:
#      x y z
#    x 1.568860 0.000000 -0.007970 
#    y 0.000000 1.581870 0.000000 
#    z -0.007970 0.000000 1.573600 
# 
# From -- ./inp_files/16867.got.cif
#   From: 2010.05.17/outbox.cif.g08.bks.cpg/sg14_9_cif.got.tgz:16867.got - 2010.06.03 17:49:19.
