data_PCOD9251429
_publ_section_title
;
Structure prediction by ZEFSAII (Michael W. Deem and Ramdas Pophale) SiO2 
 PCOD9251429
Probable space group: P 21/C
;
_chemical_formula_sum "Si O2"
_cell_formula_units_Z 24
_cell_length_a 7.508286
_cell_length_b 25.927505
_cell_length_c 7.559406
_cell_angle_alpha 90.000000
_cell_angle_beta 141.716519
_cell_angle_gamma 90.000000
_cell_volume 911.732616
_symmetry_space_group_name_H-M "P 21/C"
_symmetry_group_IT_number 14
_symmetry_cell_setting 'monoclinic'
loop_
_space_group_symop_operation_xyz
x,y,z
-x,1/2+y,1/2-z
-x,-y,-z
x,1/2-y,1/2+z
loop_
_atom_site_type_symbol
_atom_site_label
_atom_site_fract_x
_atom_site_fract_y
_atom_site_fract_z
Si Si1 0.439481 0.153516 0.697412
Si Si2 0.461038 0.761248 0.861494
Si Si3 0.045181 0.113478 0.086002
Si Si4 0.187133 0.436731 0.172125
Si Si5 0.799561 0.477036 0.571083
Si Si6 0.935735 0.191014 0.693209
O O1 0.455344 0.214384 0.706882
O O2 0.252980 0.123134 0.696423
O O3 0.317524 0.133543 0.411086
O O4 0.766472 0.135604 0.971623
O O5 0.235416 0.730317 0.807605
O O6 0.291575 0.809507 0.643839
O O7 0.778653 0.780982 0.148558
O O8 0.992816 0.052263 0.076159
O O9 0.013173 0.141104 0.871814
O O10 0.463843 0.463451 0.289711
O O11 0.173777 0.463139 0.352853
O O12 0.909381 0.450863 0.841058
#
# Coordination Sequence:
#
# PCOD9251429 Si02
#       6
#     4   4   4   4   4   4
#     4   9  16  27  42  62  89 120 150 185 233 278
#     4  11  21  34  50  70  96 127 162 198 237 280
#     4   9  16  27  42  62  89 120 150 185 233 278
#     4   8  13  21  35  56  83 113 142 175 222 278
#     4   8  13  21  35  56  83 113 142 175 222 278
#     4  11  21  34  50  70  96 127 162 198 237 280
#
# _framework density 26.323505000000001
#
# number of rings (size 3 to 8) (size 9 to 14) (size 15 to 20)
#    0.000    2.667    0.000    5.000    0.000    0.000 
#    0.000    0.000    0.000    0.000    0.000    0.000 
#    0.000    8.000    0.000    0.000    0.000    0.667 
#
# Total GULP energy -133960.893171 kJ/mol
# GULP energy per Si atom -5581.703882 kJ/mol
# Density = 2.626359 g / cm^3
# Si number density = 26.323505 Si / 1000 Ang^3
#
#
#
# Elastic Constant Matrix: (Units=GPa)
#
#
# Indices 1 2 3 4 5 6 
#
# 1 94.6595 5.1763 23.6779 0.0000 2.6972 0.0000
# 2 5.1763 126.7025 13.7466 0.0000 1.4648 0.0000
# 3 23.6779 13.7466 106.6209 0.0000 41.2757 0.0000
# 4 0.0000 0.0000 0.0000 36.1060 0.0000 -3.3126
# 5 2.6972 1.4648 41.2757 0.0000 -0.3061 0.0000
# 6 0.0000 0.0000 0.0000 -3.3126 0.0000 29.9058
#
#
#
# Elastic Compliance Matrix: (Units=1/GPa)
#
#
# Indices 1 2 3 4 5 6 
#
# 1 0.010886 -0.000316 -0.000732 0.000000 -0.004249 0.000000
# 2 -0.000316 0.007956 -0.000275 0.000000 -0.001759 0.000000
# 3 -0.000732 -0.000275 0.000236 0.000000 0.024128 0.000000
# 4 0.000000 0.000000 0.000000 0.027981 0.000000 0.003099
# 5 -0.004249 -0.001759 0.024128 0.000000 -0.059302 0.000000
# 6 0.000000 0.000000 0.000000 0.003099 0.000000 0.033782
#
#
# Mechanical properties :
#
#
# Convention : Reuss Voigt Hill
#
# Bulk Modulus (GPa) = 60.85490 45.90938 53.38214
# Shear Modulus (GPa) = 168.57333 32.16661 100.36997
#
# Velocity S-wave (km/s) = 8.01112 3.49947 6.18160
# Velocity P-wave (km/s) = 10.42780 5.81435 8.44233
#
# Compressibility (1/GPa) = 0.01643253
#
# Stress axis : x y z
#
# Youngs Moduli (GPa) = 91.86485 125.69831 4228.52075
#
# Poissons Ratio (x) = 0.03975 3.09366
# Poissons Ratio (y) = 0.02905 1.16160
# Poissons Ratio (z) = 0.06721 0.03453
#
# Static dielectric constant tensor:
#      x y z
#    x 2.207760 0.000000 -0.146510 
#    y 0.000000 2.129350 0.000000 
#    z -0.146510 0.000000 1.972170 
# 
# From -- ./inp_files/6625.got.cif
#   From: 2010.05.17/outbox.cif.g08.bks.cpg/sg14_4_cif.got.tgz:6625.got - 2010.06.03 17:49:19.
