data_PCOD9251882
_publ_section_title
;
Structure prediction by ZEFSAII (Michael W. Deem and Ramdas Pophale) SiO2 
 PCOD9251882
Probable space group: P 21/C
;
_chemical_formula_sum "Si O2"
_cell_formula_units_Z 26
_cell_length_a 21.979710
_cell_length_b 5.042702
_cell_length_c 17.492879
_cell_angle_alpha 90.000000
_cell_angle_beta 152.610941
_cell_angle_gamma 90.000000
_cell_volume 891.934448
_symmetry_space_group_name_H-M "P 21/C"
_symmetry_group_IT_number 14
_symmetry_cell_setting 'monoclinic'
loop_
_space_group_symop_operation_xyz
x,y,z
-x,1/2+y,1/2-z
-x,-y,-z
x,1/2-y,1/2+z
loop_
_atom_site_type_symbol
_atom_site_label
_atom_site_fract_x
_atom_site_fract_y
_atom_site_fract_z
Si Si1 0.000000 0.000000 0.000000
Si Si2 0.026256 0.460901 0.805606
Si Si3 0.884472 0.551419 0.241522
Si Si4 0.783716 0.699809 0.859258
Si Si5 0.541482 0.964398 0.667484
Si Si6 0.612787 0.687506 0.417395
Si Si7 0.721704 0.192368 0.155041
O O1 0.951443 0.755907 0.881019
O O2 0.900382 0.884369 0.960291
O O3 0.940012 0.734873 0.728632
O O4 0.938380 0.184050 0.735925
O O5 0.154758 0.463087 0.000978
O O6 0.858283 0.349787 0.292919
O O7 0.726953 0.591372 0.048765
O O8 0.670638 0.890286 0.766268
O O9 0.731903 0.510627 0.735625
O O10 0.560649 0.841845 0.774271
O O11 0.410282 0.864806 0.478584
O O12 0.504951 0.260703 0.653134
O O13 0.692256 0.448350 0.542018
#
# Coordination Sequence:
#
# PCOD9251882 Si02
#       7
#     2   4   4   4   4   4   4
#     4  12  26  50  72 116 152 212 256 334 402 484
#     4  12  29  51  81 122 160 217 280 334 404 498
#     4  11  26  47  75 108 156 204 266 334 405 489
#     4  12  27  49  79 114 166 209 272 336 410 490
#     4  11  24  46  73 114 146 211 264 337 400 496
#     4  11  22  45  76 106 153 199 270 331 409 472
#     4  11  26  47  74 112 153 203 261 338 416 482
#
# _framework density 29.150124000000002
#
# number of rings (size 3 to 8) (size 9 to 14) (size 15 to 20)
#    0.000    0.615    6.154    0.462    4.308    1.231 
#    5.538    0.000    0.000    0.000    0.000    0.000 
#    0.000    0.000    0.000    0.000    0.000    0.000 
#
# Total GULP energy -145296.116881 kJ/mol
# GULP energy per Si atom -5588.312188 kJ/mol
# Density = 2.908378 g / cm^3
# Si number density = 29.150124 Si / 1000 Ang^3
#
#
#
# Elastic Constant Matrix: (Units=GPa)
#
#
# Indices 1 2 3 4 5 6 
#
# 1 192.0542 34.0095 93.0022 0.0000 -1.8203 0.0000
# 2 34.0095 188.9173 62.5042 0.0000 -4.4925 0.0000
# 3 93.0022 62.5042 193.8580 0.0000 -11.0301 0.0000
# 4 0.0000 0.0000 0.0000 50.1580 0.0000 -1.3758
# 5 -1.8203 -4.4925 -11.0301 0.0000 72.5600 0.0000
# 6 0.0000 0.0000 0.0000 -1.3758 0.0000 55.4608
#
#
#
# Elastic Compliance Matrix: (Units=1/GPa)
#
#
# Indices 1 2 3 4 5 6 
#
# 1 0.006795 -0.000164 -0.003226 0.000000 -0.000330 0.000000
# 2 -0.000164 0.005930 -0.001828 0.000000 0.000085 0.000000
# 3 -0.003226 -0.001828 0.007348 0.000000 0.000923 0.000000
# 4 0.000000 0.000000 0.000000 0.019951 0.000000 0.000495
# 5 -0.000330 0.000085 0.000923 0.000000 0.013919 0.000000
# 6 0.000000 0.000000 0.000000 0.000495 0.000000 0.018043
#
#
# Mechanical properties :
#
#
# Convention : Reuss Voigt Hill
#
# Bulk Modulus (GPa) = 103.77156 105.98462 104.87809
# Shear Modulus (GPa) = 58.38846 61.32334 59.85590
#
# Velocity S-wave (km/s) = 4.48037 4.59160 4.53633
# Velocity P-wave (km/s) = 7.90198 8.03414 7.96834
#
# Compressibility (1/GPa) = 0.00963655
#
# Stress axis : x y z
#
# Youngs Moduli (GPa) = 147.17134 168.63995 136.09177
#
# Poissons Ratio (x) = 0.02763 0.43899
# Poissons Ratio (y) = 0.02411 0.24884
# Poissons Ratio (z) = 0.47473 0.30835
#
# Static dielectric constant tensor:
#      x y z
#    x 2.368370 0.000000 -0.092030 
#    y 0.000000 2.436100 0.000000 
#    z -0.092030 0.000000 2.241310 
# 
# From -- ./inp_files/61615.got.cif
#   From: 2010.05.17/outbox.cif.g08.bks.cpg/sg14_31_cif.got.tgz:61615.got - 2010.06.03 17:49:19.
