data_PCOD9251239
_publ_section_title
;
Structure prediction by ZEFSAII (Michael W. Deem and Ramdas Pophale) SiO2 
 PCOD9251239
Probable space group: P 21/C
;
_chemical_formula_sum "Si O2"
_cell_formula_units_Z 12
_cell_length_a 7.223141
_cell_length_b 9.582490
_cell_length_c 8.213220
_cell_angle_alpha 90.000000
_cell_angle_beta 48.362683
_cell_angle_gamma 90.000000
_cell_volume 424.865021
_symmetry_space_group_name_H-M "P 21/C"
_symmetry_group_IT_number 14
_symmetry_cell_setting 'monoclinic'
loop_
_space_group_symop_operation_xyz
x,y,z
-x,1/2+y,1/2-z
-x,-y,-z
x,1/2-y,1/2+z
loop_
_atom_site_type_symbol
_atom_site_label
_atom_site_fract_x
_atom_site_fract_y
_atom_site_fract_z
Si Si1 0.905027 0.378467 0.673372
Si Si2 0.586214 0.338972 0.166237
Si Si3 0.771954 0.592913 0.209204
O O1 0.805342 0.256131 0.616155
O O2 0.000000 0.500000 0.500000
O O3 0.122333 0.363655 0.678532
O O4 0.673826 0.389672 0.935949
O O5 0.563486 0.474666 0.293648
O O6 0.355477 0.234071 0.282233
O O7 0.000000 0.500000 0.000000
#
# Coordination Sequence:
#
# PCOD9251239 Si02
#       3
#     4   4   4
#     4  11  26  49  79 120 169 218 279 346 416 500
#     4  11  26  49  83 122 169 223 279 346 427 504
#     4  10  26  51  82 124 170 219 281 349 422 510
#
# _framework density 28.244263
#
# number of rings (size 3 to 8) (size 9 to 14) (size 15 to 20)
#    0.000    1.333    0.000    2.000    0.000   24.000 
#    0.000    6.667    0.000    0.000    0.000    0.000 
#    0.000    0.000    0.000    0.000    0.000    0.000 
#
# Total GULP energy -67023.312115 kJ/mol
# GULP energy per Si atom -5585.276010 kJ/mol
# Density = 2.817998 g / cm^3
# Si number density = 28.244263 Si / 1000 Ang^3
#
#
#
# Elastic Constant Matrix: (Units=GPa)
#
#
# Indices 1 2 3 4 5 6 
#
# 1 200.3376 103.3389 91.0770 0.0000 15.5851 0.0000
# 2 103.3389 211.6512 97.3641 0.0000 28.6875 0.0000
# 3 91.0770 97.3641 198.8070 0.0000 25.1179 0.0000
# 4 0.0000 0.0000 0.0000 59.2403 0.0000 -1.4983
# 5 15.5851 28.6875 25.1179 0.0000 60.1405 0.0000
# 6 0.0000 0.0000 0.0000 -1.4983 0.0000 76.2889
#
#
#
# Elastic Compliance Matrix: (Units=1/GPa)
#
#
# Indices 1 2 3 4 5 6 
#
# 1 0.007272 -0.002628 -0.002074 0.000000 0.000235 0.000000
# 2 -0.002628 0.007229 -0.002097 0.000000 -0.001891 0.000000
# 3 -0.002074 -0.002097 0.007193 0.000000 -0.001466 0.000000
# 4 0.000000 0.000000 0.000000 0.016889 0.000000 0.000332
# 5 0.000235 -0.001891 -0.001466 0.000000 0.018081 0.000000
# 6 0.000000 0.000000 0.000000 0.000332 0.000000 0.013115
#
#
# Mechanical properties :
#
#
# Convention : Reuss Voigt Hill
#
# Bulk Modulus (GPa) = 123.54418 132.70621 128.12519
# Shear Modulus (GPa) = 58.08845 60.40167 59.24506
#
# Velocity S-wave (km/s) = 4.53995 4.62946 4.58492
# Velocity P-wave (km/s) = 8.44498 8.69845 8.57265
#
# Compressibility (1/GPa) = 0.00809427
#
# Stress axis : x y z
#
# Youngs Moduli (GPa) = 137.51639 138.32665 139.03349
#
# Poissons Ratio (x) = 0.36357 0.28834
# Poissons Ratio (y) = 0.36144 0.29161
# Poissons Ratio (z) = 0.28519 0.29013
#
# Static dielectric constant tensor:
#      x y z
#    x 2.295080 0.000000 -0.262920 
#    y 0.000000 2.195020 0.000000 
#    z -0.262920 0.000000 2.538710 
# 
# From -- ./inp_files/7308.got.cif
#   From: 2010.05.17/outbox.cif.g08.bks.cpg/sg14_4_cif.got.tgz:7308.got - 2010.06.03 17:49:19.
