data_PCOD9251294
_publ_section_title
;
Structure prediction by ZEFSAII (Michael W. Deem and Ramdas Pophale) SiO2 
 PCOD9251294
Probable space group: P 21/C
;
_chemical_formula_sum "Si O2"
_cell_formula_units_Z 20
_cell_length_a 9.132255
_cell_length_b 5.509781
_cell_length_c 17.991873
_cell_angle_alpha 90.000000
_cell_angle_beta 66.679077
_cell_angle_gamma 90.000000
_cell_volume 831.331460
_symmetry_space_group_name_H-M "P 21/C"
_symmetry_group_IT_number 14
_symmetry_cell_setting 'monoclinic'
loop_
_space_group_symop_operation_xyz
x,y,z
-x,1/2+y,1/2-z
-x,-y,-z
x,1/2-y,1/2+z
loop_
_atom_site_type_symbol
_atom_site_label
_atom_site_fract_x
_atom_site_fract_y
_atom_site_fract_z
Si Si1 0.851658 0.307352 0.716815
Si Si2 0.664775 0.557193 0.169148
Si Si3 0.617382 0.811259 0.329521
Si Si4 0.991015 0.749738 0.547258
Si Si5 0.822689 0.488956 0.370735
O O1 0.772713 0.536991 0.772993
O O2 0.852357 0.112691 0.782372
O O3 0.026308 0.337073 0.649237
O O4 0.745106 0.198742 0.673146
O O5 0.585860 0.650398 0.261801
O O6 0.527954 0.501890 0.136538
O O7 0.812810 0.729993 0.118471
O O8 0.662056 0.644780 0.391271
O O9 0.000000 0.500000 0.500000
O O10 0.136618 0.719751 0.577651
O O11 0.000000 0.000000 0.500000
#
# Coordination Sequence:
#
# PCOD9251294 Si02
#       5
#     4   4   4   4   4
#     4  11  19  36  69 100 138 166 220 308 368 427
#     4  11  23  41  66 107 139 178 234 295 388 427
#     4  11  22  37  70 105 140 170 223 327 379 422
#     4  12  28  47  71  93 143 206 249 282 338 450
#     4  11  22  39  66 103 133 181 241 295 367 429
#
# _framework density 24.057793
#
# number of rings (size 3 to 8) (size 9 to 14) (size 15 to 20)
#    0.000    0.800    6.000    2.400    2.800    0.000 
#    0.000    2.000    0.000    0.000    0.000    0.000 
#    0.000    0.000    0.000    0.000    0.000    0.000 
#
# Total GULP energy -111594.896197 kJ/mol
# GULP energy per Si atom -5579.744810 kJ/mol
# Density = 2.400304 g / cm^3
# Si number density = 24.057793 Si / 1000 Ang^3
#
#
#
# Elastic Constant Matrix: (Units=GPa)
#
#
# Indices 1 2 3 4 5 6 
#
# 1 138.7636 42.0692 30.5045 0.0000 21.4889 0.0000
# 2 42.0692 103.8056 28.2423 0.0000 7.6342 0.0000
# 3 30.5045 28.2423 54.2028 0.0000 9.5122 0.0000
# 4 0.0000 0.0000 0.0000 33.6341 0.0000 -0.2580
# 5 21.4889 7.6342 9.5122 0.0000 15.2856 0.0000
# 6 0.0000 0.0000 0.0000 -0.2580 0.0000 47.7316
#
#
#
# Elastic Compliance Matrix: (Units=1/GPa)
#
#
# Indices 1 2 3 4 5 6 
#
# 1 0.010363 -0.002691 -0.002367 0.000000 -0.011751 0.000000
# 2 -0.002691 0.011990 -0.004879 0.000000 0.000831 0.000000
# 3 -0.002367 -0.004879 0.023925 0.000000 -0.009124 0.000000
# 4 0.000000 0.000000 0.000000 0.029733 0.000000 0.000161
# 5 -0.011751 0.000831 -0.009124 0.000000 0.087203 0.000000
# 6 0.000000 0.000000 0.000000 0.000161 0.000000 0.020951
#
#
# Mechanical properties :
#
#
# Convention : Reuss Voigt Hill
#
# Bulk Modulus (GPa) = 37.87511 55.37822 46.62667
# Shear Modulus (GPa) = 23.49177 32.39400 27.94288
#
# Velocity S-wave (km/s) = 3.12825 3.67346 3.41176
# Velocity P-wave (km/s) = 5.36893 6.40790 5.91129
#
# Compressibility (1/GPa) = 0.02640256
#
# Stress axis : x y z
#
# Youngs Moduli (GPa) = 96.50129 83.40045 41.79774
#
# Poissons Ratio (x) = 0.22446 0.09895
# Poissons Ratio (y) = 0.25972 0.20392
# Poissons Ratio (z) = 0.22846 0.40689
#
# Static dielectric constant tensor:
#      x y z
#    x 2.011960 0.000000 0.016470 
#    y 0.000000 2.010490 0.000000 
#    z 0.016470 0.000000 1.962610 
# 
# From -- ./inp_files/53965.got.cif
#   From: 2010.05.17/outbox.cif.g08.bks.cpg/sg14_27_cif.got.tgz:53965.got - 2010.06.03 17:49:19.
