data_PCOD9251527
_publ_section_title
;
Structure prediction by ZEFSAII (Michael W. Deem and Ramdas Pophale) SiO2 
 PCOD9251527
Probable space group: P 21/C
;
_chemical_formula_sum "Si O2"
_cell_formula_units_Z 24
_cell_length_a 8.321990
_cell_length_b 9.969647
_cell_length_c 14.918024
_cell_angle_alpha 90.000000
_cell_angle_beta 112.267286
_cell_angle_gamma 90.000000
_cell_volume 1145.407638
_symmetry_space_group_name_H-M "P 21/C"
_symmetry_group_IT_number 14
_symmetry_cell_setting 'monoclinic'
loop_
_space_group_symop_operation_xyz
x,y,z
-x,1/2+y,1/2-z
-x,-y,-z
x,1/2-y,1/2+z
loop_
_atom_site_type_symbol
_atom_site_label
_atom_site_fract_x
_atom_site_fract_y
_atom_site_fract_z
Si Si1 0.839930 0.092918 0.769428
Si Si2 0.357369 0.616085 0.961289
Si Si3 0.248116 0.847429 0.628077
Si Si4 0.526897 0.115778 0.075837
Si Si5 0.197872 0.448458 0.256307
Si Si6 0.641544 0.670298 0.276185
O O1 0.733491 0.117547 0.655028
O O2 0.796525 0.202780 0.837039
O O3 0.039809 0.098978 0.783787
O O4 0.782882 0.942966 0.784022
O O5 0.455694 0.755994 0.982289
O O6 0.500000 0.500000 0.000000
O O7 0.228518 0.627321 0.018371
O O8 0.456073 0.865348 0.691021
O O9 0.144545 0.962643 0.659282
O O10 0.391803 0.156051 0.124642
O O11 0.691248 0.058066 0.165257
O O12 0.500000 0.000000 0.000000
O O13 0.303551 0.318471 0.244309
#
# Coordination Sequence:
#
# PCOD9251527 Si02
#       6
#     4   4   4   4   4   4
#     4  12  24  42  66  98 136 171 215 281 332 380
#     4  12  23  41  70  99 128 171 229 268 321 399
#     4  11  22  44  66  93 128 174 222 264 324 399
#     4  11  24  43  67  97 129 176 228 268 322 403
#     4  11  24  43  65  95 135 171 211 279 337 378
#     4  11  21  40  68  90 129 177 219 262 327 393
#
# _framework density 20.953240000000001
#
# number of rings (size 3 to 8) (size 9 to 14) (size 15 to 20)
#    0.000    0.667    5.000    6.000    0.000    0.667 
#    3.000    1.667    0.000    0.000    0.000    0.000 
#    0.000    0.000    0.000    0.000    0.000    0.000 
#
# Total GULP energy -133946.889015 kJ/mol
# GULP energy per Si atom -5581.120376 kJ/mol
# Density = 2.090555 g / cm^3
# Si number density = 20.953240 Si / 1000 Ang^3
#
#
#
# Elastic Constant Matrix: (Units=GPa)
#
#
# Indices 1 2 3 4 5 6 
#
# 1 72.8278 24.9689 6.8659 0.0000 -19.6680 0.0000
# 2 24.9689 125.0806 17.2869 0.0000 -4.7845 0.0000
# 3 6.8659 17.2869 68.0250 0.0000 -25.3931 0.0000
# 4 0.0000 0.0000 0.0000 33.4081 0.0000 -17.5697
# 5 -19.6680 -4.7845 -25.3931 0.0000 23.9147 0.0000
# 6 0.0000 0.0000 0.0000 -17.5697 0.0000 34.2966
#
#
#
# Elastic Compliance Matrix: (Units=1/GPa)
#
#
# Indices 1 2 3 4 5 6 
#
# 1 0.021461 -0.004489 0.008661 0.000000 0.025948 0.000000
# 2 -0.004489 0.009238 -0.004278 0.000000 -0.006386 0.000000
# 3 0.008661 -0.004278 0.028582 0.000000 0.036616 0.000000
# 4 0.000000 0.000000 0.000000 0.040971 0.000000 0.020989
# 5 0.025948 -0.006386 0.036616 0.000000 0.100757 0.000000
# 6 0.000000 0.000000 0.000000 0.020989 0.000000 0.039910
#
#
# Mechanical properties :
#
#
# Convention : Reuss Voigt Hill
#
# Bulk Modulus (GPa) = 16.92951 40.46407 28.69679
# Shear Modulus (GPa) = 19.17023 32.77800 25.97412
#
# Velocity S-wave (km/s) = 3.02802 3.95946 3.52465
# Velocity P-wave (km/s) = 4.50804 6.34482 5.50359
#
# Compressibility (1/GPa) = 0.05906844
#
# Stress axis : x y z
#
# Youngs Moduli (GPa) = 46.59599 108.24982 34.98719
#
# Poissons Ratio (x) = 0.48588 -0.30302
# Poissons Ratio (y) = 0.20915 0.14969
# Poissons Ratio (z) = -0.40356 0.46315
#
# Static dielectric constant tensor:
#      x y z
#    x 1.739960 0.000000 0.015960 
#    y 0.000000 1.742750 0.000000 
#    z 0.015960 0.000000 1.886030 
# 
# From -- ./inp_files/39072.got.cif
#   From: 2010.05.17/outbox.cif.g08.bks.cpg/sg14_20_cif.got.tgz:39072.got - 2010.06.03 17:49:19.
