data_PCOD9251033
_publ_section_title
;
Structure prediction by ZEFSAII (Michael W. Deem and Ramdas Pophale) SiO2 
 PCOD9251033
Probable space group: P 21/C
;
_chemical_formula_sum "Si O2"
_cell_formula_units_Z 28
_cell_length_a 8.228668
_cell_length_b 22.642151
_cell_length_c 6.632022
_cell_angle_alpha 90.000000
_cell_angle_beta 119.562952
_cell_angle_gamma 90.000000
_cell_volume 1074.780162
_symmetry_space_group_name_H-M "P 21/C"
_symmetry_group_IT_number 14
_symmetry_cell_setting 'monoclinic'
loop_
_space_group_symop_operation_xyz
x,y,z
-x,1/2+y,1/2-z
-x,-y,-z
x,1/2-y,1/2+z
loop_
_atom_site_type_symbol
_atom_site_label
_atom_site_fract_x
_atom_site_fract_y
_atom_site_fract_z
Si Si1 0.252745 0.467351 0.518126
Si Si2 0.915388 0.387308 0.215753
Si Si3 0.493678 0.103891 0.434113
Si Si4 0.570364 0.089443 0.938110
Si Si5 0.115433 0.270762 0.259061
Si Si6 0.233848 0.806364 0.012949
Si Si7 0.406311 0.267341 0.702977
O O1 0.283907 0.536245 0.503832
O O2 0.399008 0.434605 0.459639
O O3 0.048230 0.442012 0.353577
O O4 0.345712 0.446557 0.784416
O O5 0.711821 0.407822 0.009972
O O6 0.856720 0.349411 0.375834
O O7 0.046653 0.338902 0.183686
O O8 0.490350 0.108689 0.672604
O O9 0.429659 0.165521 0.297296
O O10 0.674831 0.146824 0.083555
O O11 0.169725 0.258187 0.553314
O O12 0.355709 0.268473 0.411834
O O13 0.925251 0.233764 0.169980
O O14 0.395246 0.765238 0.200088
#
# Coordination Sequence:
#
# PCOD9251033 Si02
#       7
#     4   4   4   4   4   4   4
#     4  11  23  48  72 102 140 185 239 287 350 418
#     4  11  23  41  66 101 135 180 236 278 348 417
#     4  11  23  44  68 100 137 186 227 291 351 411
#     4  10  25  45  73 103 141 186 234 294 350 417
#     4  12  22  39  62  94 132 180 219 278 351 409
#     4  11  24  41  62 100 140 176 229 290 340 419
#     4  12  25  39  65  96 138 178 229 281 349 423
#
# _framework density 26.051841
#
# number of rings (size 3 to 8) (size 9 to 14) (size 15 to 20)
#    0.000    0.857    4.286    3.000    0.000    3.429 
#    0.000    8.571    0.000    0.000    0.000    0.000 
#    0.000    0.000    0.000    0.000    0.000    0.000 
#
# Total GULP energy -156636.685050 kJ/mol
# GULP energy per Si atom -5594.167323 kJ/mol
# Density = 2.599255 g / cm^3
# Si number density = 26.051841 Si / 1000 Ang^3
#
#
#
# Elastic Constant Matrix: (Units=GPa)
#
#
# Indices 1 2 3 4 5 6 
#
# 1 104.0600 5.9270 21.1453 0.0000 17.2727 0.0000
# 2 5.9270 114.1548 11.0166 0.0000 33.8117 0.0000
# 3 21.1453 11.0166 115.1258 0.0000 42.6850 0.0000
# 4 0.0000 0.0000 0.0000 30.9376 0.0000 14.9670
# 5 17.2727 33.8117 42.6850 0.0000 64.2836 0.0000
# 6 0.0000 0.0000 0.0000 14.9670 0.0000 49.4752
#
#
#
# Elastic Compliance Matrix: (Units=1/GPa)
#
#
# Indices 1 2 3 4 5 6 
#
# 1 0.010173 0.000202 -0.001108 0.000000 -0.002104 0.000000
# 2 0.000202 0.010545 0.001367 0.000000 -0.006509 0.000000
# 3 -0.001108 0.001367 0.011827 0.000000 -0.008274 0.000000
# 4 0.000000 0.000000 0.000000 0.037865 0.000000 -0.011455
# 5 -0.002104 -0.006509 -0.008274 0.000000 0.025039 0.000000
# 6 0.000000 0.000000 0.000000 -0.011455 0.000000 0.023677
#
#
# Mechanical properties :
#
#
# Convention : Reuss Voigt Hill
#
# Bulk Modulus (GPa) = 29.87985 45.50204 37.69095
# Shear Modulus (GPa) = 38.65212 48.62273 43.63743
#
# Velocity S-wave (km/s) = 3.85601 4.32485 4.09714
# Velocity P-wave (km/s) = 5.59637 6.51483 6.07299
#
# Compressibility (1/GPa) = 0.03346737
#
# Stress axis : x y z
#
# Youngs Moduli (GPa) = 98.30266 94.82783 84.55463
#
# Poissons Ratio (x) = -0.01915 0.09365
# Poissons Ratio (y) = -0.01985 -0.11559
# Poissons Ratio (z) = 0.10888 -0.12963
#
# Static dielectric constant tensor:
#      x y z
#    x 2.162620 0.000000 -0.214490 
#    y 0.000000 2.014720 0.000000 
#    z -0.214490 0.000000 2.197020 
# 
# From -- ./inp_files/10436.got.cif
#   From: 2010.05.17/outbox.cif.g08.bks.cpg/sg14_6_cif.got.tgz:10436.got - 2010.06.03 17:49:19.
