data_PCOD9251290
_publ_section_title
;
Structure prediction by ZEFSAII (Michael W. Deem and Ramdas Pophale) SiO2 
 PCOD9251290
Probable space group: P 21/C
;
_chemical_formula_sum "Si O2"
_cell_formula_units_Z 24
_cell_length_a 11.665915
_cell_length_b 7.871597
_cell_length_c 13.866726
_cell_angle_alpha 90.000000
_cell_angle_beta 42.554764
_cell_angle_gamma 90.000000
_cell_volume 861.175194
_symmetry_space_group_name_H-M "P 21/C"
_symmetry_group_IT_number 14
_symmetry_cell_setting 'monoclinic'
loop_
_space_group_symop_operation_xyz
x,y,z
-x,1/2+y,1/2-z
-x,-y,-z
x,1/2-y,1/2+z
loop_
_atom_site_type_symbol
_atom_site_label
_atom_site_fract_x
_atom_site_fract_y
_atom_site_fract_z
Si Si1 0.804449 0.875501 0.900841
Si Si2 0.529176 0.515151 0.691783
Si Si3 0.002126 0.259872 0.958241
Si Si4 0.663159 0.170438 0.534951
Si Si5 0.776593 0.416829 0.237395
Si Si6 0.833350 0.983244 0.278824
O O1 0.995135 0.937656 0.786745
O O2 0.734686 0.017580 0.869508
O O3 0.793118 0.688940 0.864344
O O4 0.709169 0.897897 0.060527
O O5 0.546905 0.329049 0.635842
O O6 0.444226 0.519331 0.848420
O O7 0.396359 0.618456 0.709381
O O8 0.132538 0.415787 0.865272
O O9 0.109557 0.096254 0.858649
O O10 0.842665 0.292697 0.981488
O O11 0.912032 0.274479 0.118774
O O12 0.696068 0.118689 0.403520
#
# Coordination Sequence:
#
# PCOD9251290 Si02
#       6
#     4   4   4   4   4   4
#     4  11  20  36  60  92 118 162 208 246 302 357
#     4  11  22  37  59  92 123 155 204 256 304 357
#     4   9  18  36  59  86 115 156 208 241 286 365
#     4  11  21  38  60  90 122 159 205 249 300 360
#     4   9  19  35  61  88 121 159 202 247 303 364
#     4  11  19  36  62  87 118 161 208 250 284 370
#
# _framework density 27.868893
#
# number of rings (size 3 to 8) (size 9 to 14) (size 15 to 20)
#    0.000    1.667    5.000    1.500    0.000    0.000 
#    0.000    3.333    0.000   13.000    0.000    0.000 
#    0.000    0.000    0.000    0.000    0.000    0.000 
#
# Total GULP energy -134201.275428 kJ/mol
# GULP energy per Si atom -5591.719810 kJ/mol
# Density = 2.780546 g / cm^3
# Si number density = 27.868893 Si / 1000 Ang^3
#
#
#
# Elastic Constant Matrix: (Units=GPa)
#
#
# Indices 1 2 3 4 5 6 
#
# 1 44.5103 -2.2662 28.3645 0.0000 9.3824 0.0000
# 2 -2.2662 139.8148 34.3501 0.0000 -15.1394 0.0000
# 3 28.3645 34.3501 211.4797 0.0000 11.7881 0.0000
# 4 0.0000 0.0000 0.0000 48.6445 0.0000 -12.5376
# 5 9.3824 -15.1394 11.7881 0.0000 27.8040 0.0000
# 6 0.0000 0.0000 0.0000 -12.5376 0.0000 9.0104
#
#
#
# Elastic Compliance Matrix: (Units=1/GPa)
#
#
# Indices 1 2 3 4 5 6 
#
# 1 0.026020 0.000415 -0.003155 0.000000 -0.007216 0.000000
# 2 0.000415 0.008102 -0.001649 0.000000 0.004971 0.000000
# 3 -0.003155 -0.001649 0.005541 0.000000 -0.002182 0.000000
# 4 0.000000 0.000000 0.000000 0.032052 0.000000 0.044599
# 5 -0.007216 0.004971 -0.002182 0.000000 0.042033 0.000000
# 6 0.000000 0.000000 0.000000 0.044599 0.000000 0.173041
#
#
# Mechanical properties :
#
#
# Convention : Reuss Voigt Hill
#
# Bulk Modulus (GPa) = 32.37679 57.41131 44.89405
# Shear Modulus (GPa) = 16.34727 39.44887 27.89807
#
# Velocity S-wave (km/s) = 2.42456 3.76642 3.16736
# Velocity P-wave (km/s) = 4.41370 6.28965 5.43325
#
# Compressibility (1/GPa) = 0.03088632
#
# Stress axis : x y z
#
# Youngs Moduli (GPa) = 38.43252 123.42067 180.46533
#
# Poissons Ratio (x) = -0.05128 0.56939
# Poissons Ratio (y) = -0.01597 0.29756
# Poissons Ratio (z) = 0.12126 0.20350
#
# Static dielectric constant tensor:
#      x y z
#    x 2.329060 0.000000 0.095330 
#    y 0.000000 2.230930 0.000000 
#    z 0.095330 0.000000 2.153460 
# 
# From -- ./inp_files/60123.got.cif
#   From: 2010.05.17/outbox.cif.g08.bks.cpg/sg14_31_cif.got.tgz:60123.got - 2010.06.03 17:49:19.
