data_PCOD9251128
_publ_section_title
;
Structure prediction by ZEFSAII (Michael W. Deem and Ramdas Pophale) SiO2 
 PCOD9251128
Probable space group: P 21/C
;
_chemical_formula_sum "Si O2"
_cell_formula_units_Z 20
_cell_length_a 28.054934
_cell_length_b 5.252681
_cell_length_c 28.060316
_cell_angle_alpha 90.000000
_cell_angle_beta 169.409224
_cell_angle_gamma 90.000000
_cell_volume 759.997307
_symmetry_space_group_name_H-M "P 21/C"
_symmetry_group_IT_number 14
_symmetry_cell_setting 'monoclinic'
loop_
_space_group_symop_operation_xyz
x,y,z
-x,1/2+y,1/2-z
-x,-y,-z
x,1/2-y,1/2+z
loop_
_atom_site_type_symbol
_atom_site_label
_atom_site_fract_x
_atom_site_fract_y
_atom_site_fract_z
Si Si1 0.330883 0.731954 0.887134
Si Si2 0.698656 0.897636 0.507248
Si Si3 0.315504 0.762230 0.765478
Si Si4 0.021111 0.443233 0.148072
Si Si5 0.226546 0.278007 0.524566
O O1 0.488947 0.473262 0.048389
O O2 0.529436 0.970847 0.083912
O O3 0.206786 0.736103 0.712373
O O4 0.122880 0.800814 0.722746
O O5 0.751815 0.698180 0.600939
O O6 0.679497 0.765760 0.436825
O O7 0.443946 0.061489 0.264872
O O8 0.953289 0.075848 0.753739
O O9 0.101719 0.776408 0.514469
O O10 0.821466 0.520803 0.993277
#
# Coordination Sequence:
#
# PCOD9251128 Si02
#       5
#     4   4   4   4   4
#     4  10  25  49  78 116 164 217 274 343 418 494
#     4  12  29  52  79 116 164 218 276 344 421 496
#     4  10  25  49  78 116 164 217 274 343 418 494
#     4  12  29  46  80 118 158 216 277 348 406 506
#     4  12  29  52  79 116 164 218 276 344 421 496
#
# _framework density 26.315882999999999
#
# number of rings (size 3 to 8) (size 9 to 14) (size 15 to 20)
#    0.000    0.800    2.000    1.800   11.200    0.000 
#    0.000    6.000    0.000    3.600    0.000    0.000 
#    0.000    0.000    0.000    0.000    0.000    0.000 
#
# Total GULP energy -112450.355460 kJ/mol
# GULP energy per Si atom -5622.517773 kJ/mol
# Density = 2.625599 g / cm^3
# Si number density = 26.315883 Si / 1000 Ang^3
#
#
#
# Elastic Constant Matrix: (Units=GPa)
#
#
# Indices 1 2 3 4 5 6 
#
# 1 170.1715 31.4693 29.1294 0.0000 -33.8184 0.0000
# 2 31.4693 119.8661 43.0397 0.0000 -23.5594 0.0000
# 3 29.1294 43.0397 116.4876 0.0000 -39.2963 0.0000
# 4 0.0000 0.0000 0.0000 59.0816 0.0000 5.7351
# 5 -33.8184 -23.5594 -39.2963 0.0000 39.8871 0.0000
# 6 0.0000 0.0000 0.0000 5.7351 0.0000 23.3933
#
#
#
# Elastic Compliance Matrix: (Units=1/GPa)
#
#
# Indices 1 2 3 4 5 6 
#
# 1 0.007158 -0.000891 0.000613 0.000000 0.006146 0.000000
# 2 -0.000891 0.010022 -0.002603 0.000000 0.002599 0.000000
# 3 0.000613 -0.002603 0.013555 0.000000 0.012336 0.000000
# 4 0.000000 0.000000 0.000000 0.017338 0.000000 -0.004251
# 5 0.006146 0.002599 0.012336 0.000000 0.043970 0.000000
# 6 0.000000 0.000000 0.000000 -0.004251 0.000000 0.043789
#
#
# Mechanical properties :
#
#
# Convention : Reuss Voigt Hill
#
# Bulk Modulus (GPa) = 40.04651 68.20021 54.12336
# Shear Modulus (GPa) = 33.35124 44.66486 39.00805
#
# Velocity S-wave (km/s) = 3.56384 4.12425 3.85424
# Velocity P-wave (km/s) = 5.67320 6.97506 6.35754
#
# Compressibility (1/GPa) = 0.02497097
#
# Stress axis : x y z
#
# Youngs Moduli (GPa) = 139.70886 99.77796 73.77570
#
# Poissons Ratio (x) = 0.08892 -0.04520
# Poissons Ratio (y) = 0.12451 0.19206
# Poissons Ratio (z) = -0.08560 0.25975
#
# Static dielectric constant tensor:
#      x y z
#    x 2.027520 0.000000 0.021390 
#    y 0.000000 2.066260 0.000000 
#    z 0.021390 0.000000 2.035880 
# 
# From -- ./inp_files/80840.got.cif
#   From: 2010.05.17/outbox.cif.g08.bks.cpg/sg14_41_cif.got.tgz:80840.got - 2010.06.03 17:49:19.
