data_PCOD9251519
_publ_section_title
;
Structure prediction by ZEFSAII (Michael W. Deem and Ramdas Pophale) SiO2 
 PCOD9251519
Probable space group: P 21/C
;
_chemical_formula_sum "Si O2"
_cell_formula_units_Z 28
_cell_length_a 9.406057
_cell_length_b 13.408578
_cell_length_c 15.703435
_cell_angle_alpha 90.000000
_cell_angle_beta 137.633003
_cell_angle_gamma 90.000000
_cell_volume 1334.644406
_symmetry_space_group_name_H-M "P 21/C"
_symmetry_group_IT_number 14
_symmetry_cell_setting 'monoclinic'
loop_
_space_group_symop_operation_xyz
x,y,z
-x,1/2+y,1/2-z
-x,-y,-z
x,1/2-y,1/2+z
loop_
_atom_site_type_symbol
_atom_site_label
_atom_site_fract_x
_atom_site_fract_y
_atom_site_fract_z
Si Si1 0.683345 0.748007 0.927194
Si Si2 0.981164 0.316399 0.551770
Si Si3 0.877827 0.569832 0.114599
Si Si4 0.773684 0.119014 0.466896
Si Si5 0.321769 0.058996 0.301681
Si Si6 0.330437 0.592767 0.274245
Si Si7 0.555542 0.092089 0.793696
O O1 0.509688 0.828323 0.879500
O O2 0.582718 0.681910 0.805838
O O3 0.882312 0.803882 0.974014
O O4 0.764212 0.670596 0.033411
O O5 0.922866 0.207785 0.562014
O O6 0.761716 0.368715 0.432340
O O7 0.129688 0.377515 0.679731
O O8 0.750926 0.525652 0.137881
O O9 0.124213 0.588312 0.241246
O O10 0.862729 0.488136 0.033084
O O11 0.536418 0.123273 0.398111
O O12 0.753333 0.127573 0.356011
O O13 0.373128 0.971550 0.257720
O O14 0.429601 0.484514 0.298310
#
# Coordination Sequence:
#
# PCOD9251519 Si02
#       7
#     4   4   4   4   4   4   4
#     4  12  21  38  69  93 122 162 218 255 303 377
#     4  12  22  42  68  95 122 167 215 259 303 371
#     4  12  24  42  63  93 134 163 201 266 319 360
#     4  11  21  40  66  89 123 165 218 246 304 380
#     4  11  25  41  61  96 129 165 204 260 321 366
#     4  11  22  39  63  97 119 169 216 248 307 381
#     4  11  22  41  68  88 127 163 214 259 302 372
#
# _framework density 20.979369999999999
#
# number of rings (size 3 to 8) (size 9 to 14) (size 15 to 20)
#    0.000    0.571    8.571    2.143    0.000    1.143 
#    2.571    0.714    0.000    0.000    0.000    0.000 
#    0.000    0.000    0.000    0.000    0.000    0.000 
#
# Total GULP energy -156571.242911 kJ/mol
# GULP energy per Si atom -5591.830104 kJ/mol
# Density = 2.093162 g / cm^3
# Si number density = 20.979370 Si / 1000 Ang^3
#
#
#
# Elastic Constant Matrix: (Units=GPa)
#
#
# Indices 1 2 3 4 5 6 
#
# 1 80.3814 1.1622 7.3877 0.0000 20.3481 0.0000
# 2 1.1622 37.7339 10.8595 0.0000 14.4877 0.0000
# 3 7.3877 10.8595 59.3864 0.0000 34.4580 0.0000
# 4 0.0000 0.0000 0.0000 32.8822 0.0000 19.3192
# 5 20.3481 14.4877 34.4580 0.0000 33.0523 0.0000
# 6 0.0000 0.0000 0.0000 19.3192 0.0000 15.6353
#
#
#
# Elastic Compliance Matrix: (Units=1/GPa)
#
#
# Indices 1 2 3 4 5 6 
#
# 1 0.017771 0.005954 0.011549 0.000000 -0.025591 0.000000
# 2 0.005954 0.034658 0.009778 0.000000 -0.029051 0.000000
# 3 0.011549 0.009778 0.051195 0.000000 -0.064768 0.000000
# 4 0.000000 0.000000 0.000000 0.110974 0.000000 -0.137121
# 5 -0.025591 -0.029051 -0.064768 0.000000 0.126266 0.000000
# 6 0.000000 0.000000 0.000000 -0.137121 0.000000 0.233387
#
#
# Mechanical properties :
#
#
# Convention : Reuss Voigt Hill
#
# Bulk Modulus (GPa) = 6.32164 24.03560 15.17862
# Shear Modulus (GPa) = 8.73490 26.85346 17.79418
#
# Velocity S-wave (km/s) = 2.04270 3.58158 2.91550
# Velocity P-wave (km/s) = 2.92972 5.34652 4.31095
#
# Compressibility (1/GPa) = 0.15818675
#
# Stress axis : x y z
#
# Youngs Moduli (GPa) = 56.27044 28.85353 19.53326
#
# Poissons Ratio (x) = -0.17180 -0.22559
# Poissons Ratio (y) = -0.33505 -0.19100
# Poissons Ratio (z) = -0.64987 -0.28213
#
# Static dielectric constant tensor:
#      x y z
#    x 1.748990 0.000000 0.017000 
#    y 0.000000 1.754740 0.000000 
#    z 0.017000 0.000000 1.753290 
# 
# From -- ./inp_files/34076.got.cif
#   From: 2010.05.17/outbox.cif.g08.bks.cpg/sg14_18_cif.got.tgz:34076.got - 2010.06.03 17:49:19.
