data_PCOD9251656
_publ_section_title
;
Structure prediction by ZEFSAII (Michael W. Deem and Ramdas Pophale) SiO2 
 PCOD9251656
Probable space group: P 21/C
;
_chemical_formula_sum "Si O2"
_cell_formula_units_Z 28
_cell_length_a 22.271035
_cell_length_b 7.637542
_cell_length_c 19.789610
_cell_angle_alpha 90.000000
_cell_angle_beta 18.441620
_cell_angle_gamma 90.000000
_cell_volume 1064.836472
_symmetry_space_group_name_H-M "P 21/C"
_symmetry_group_IT_number 14
_symmetry_cell_setting 'monoclinic'
loop_
_space_group_symop_operation_xyz
x,y,z
-x,1/2+y,1/2-z
-x,-y,-z
x,1/2-y,1/2+z
loop_
_atom_site_type_symbol
_atom_site_label
_atom_site_fract_x
_atom_site_fract_y
_atom_site_fract_z
Si Si1 0.880115 0.315307 0.646371
Si Si2 0.017296 0.299203 0.235706
Si Si3 0.683439 0.966358 0.915231
Si Si4 0.800636 0.104398 0.372828
Si Si5 0.908544 0.342853 0.983674
Si Si6 0.573626 0.748230 0.758894
Si Si7 0.713859 0.804315 0.749602
O O1 0.789077 0.130850 0.767159
O O2 0.817456 0.435431 0.775215
O O3 0.844974 0.307273 0.604189
O O4 0.105721 0.303020 0.416930
O O5 0.078019 0.470712 0.212737
O O6 0.882646 0.202250 0.433662
O O7 0.896557 0.288735 0.295289
O O8 0.224909 0.233486 0.991698
O O9 0.860655 0.862661 0.757394
O O10 0.604040 0.858968 0.935171
O O11 0.524520 0.057758 0.131047
O O12 0.576685 0.126557 0.618736
O O13 0.806153 0.522411 0.115409
O O14 0.603067 0.709087 0.807729
#
# Coordination Sequence:
#
# PCOD9251656 Si02
#       7
#     4   4   4   4   4   4   4
#     4   8  16  37  61  90 119 163 205 252 308 366
#     4  12  26  41  64  89 130 168 204 260 318 369
#     4   8  17  31  63  93 122 153 209 255 297 366
#     4  11  26  42  61  91 125 168 210 255 312 375
#     4   9  19  36  64  92 125 159 206 253 312 370
#     4  11  22  36  62  89 123 162 206 252 309 363
#     4   9  15  35  63  96 118 158 205 260 303 358
#
# _framework density 26.295117999999999
#
# number of rings (size 3 to 8) (size 9 to 14) (size 15 to 20)
#    0.000    2.286    1.429    3.000    6.000    0.571 
#    0.000    0.000    0.000    3.429    0.000    0.000 
#    0.000    0.000    0.000    0.000    0.000    0.000 
#
# Total GULP energy -156196.853788 kJ/mol
# GULP energy per Si atom -5578.459064 kJ/mol
# Density = 2.623527 g / cm^3
# Si number density = 26.295118 Si / 1000 Ang^3
#
#
#
# Elastic Constant Matrix: (Units=GPa)
#
#
# Indices 1 2 3 4 5 6 
#
# 1 102.5604 15.9065 37.3721 0.0000 20.5068 0.0000
# 2 15.9065 27.7135 2.1245 0.0000 11.6204 0.0000
# 3 37.3721 2.1245 97.2555 0.0000 -7.2206 0.0000
# 4 0.0000 0.0000 0.0000 23.9932 0.0000 9.6803
# 5 20.5068 11.6204 -7.2206 0.0000 52.1715 0.0000
# 6 0.0000 0.0000 0.0000 9.6803 0.0000 31.1973
#
#
#
# Elastic Compliance Matrix: (Units=1/GPa)
#
#
# Indices 1 2 3 4 5 6 
#
# 1 0.013537 -0.005299 -0.005449 0.000000 -0.004895 0.000000
# 2 -0.005299 0.042106 0.000581 0.000000 -0.007215 0.000000
# 3 -0.005449 0.000581 0.012643 0.000000 0.003762 0.000000
# 4 0.000000 0.000000 0.000000 0.047643 0.000000 -0.014783
# 5 -0.004895 -0.007215 0.003762 0.000000 0.023219 0.000000
# 6 0.000000 0.000000 0.000000 -0.014783 0.000000 0.036641
#
#
# Mechanical properties :
#
#
# Convention : Reuss Voigt Hill
#
# Bulk Modulus (GPa) = 20.85515 37.59284 29.22400
# Shear Modulus (GPa) = 23.57297 32.94750 28.26024
#
# Velocity S-wave (km/s) = 2.99737 3.54360 3.28187
# Velocity P-wave (km/s) = 4.46401 5.57408 5.04964
#
# Compressibility (1/GPa) = 0.04794979
#
# Stress axis : x y z
#
# Youngs Moduli (GPa) = 73.87373 23.74964 79.09622
#
# Poissons Ratio (x) = 0.12586 0.43102
# Poissons Ratio (y) = 0.39149 -0.04595
# Poissons Ratio (z) = 0.40256 -0.01380
#
# Static dielectric constant tensor:
#      x y z
#    x 2.045110 0.000000 0.021700 
#    y 0.000000 2.314080 0.000000 
#    z 0.021700 0.000000 2.014580 
# 
# From -- ./inp_files/70181.got.cif
#   From: 2010.05.17/outbox.cif.g08.bks.cpg/sg14_36_cif.got.tgz:70181.got - 2010.06.03 17:49:19.
