data_PCOD9251917
_publ_section_title
;
Structure prediction by ZEFSAII (Michael W. Deem and Ramdas Pophale) SiO2 
 PCOD9251917
Probable space group: P 21/C
;
_chemical_formula_sum "Si O2"
_cell_formula_units_Z 30
_cell_length_a 12.344434
_cell_length_b 8.395703
_cell_length_c 13.945069
_cell_angle_alpha 90.000000
_cell_angle_beta 72.341348
_cell_angle_gamma 90.000000
_cell_volume 1377.169578
_symmetry_space_group_name_H-M "P 21/C"
_symmetry_group_IT_number 14
_symmetry_cell_setting 'monoclinic'
loop_
_space_group_symop_operation_xyz
x,y,z
-x,1/2+y,1/2-z
-x,-y,-z
x,1/2-y,1/2+z
loop_
_atom_site_type_symbol
_atom_site_label
_atom_site_fract_x
_atom_site_fract_y
_atom_site_fract_z
Si Si1 0.700801 0.664859 0.792986
Si Si2 0.917696 0.018275 0.317919
Si Si3 0.337052 0.613677 0.814569
Si Si4 0.844306 0.122800 0.803744
Si Si5 0.561775 0.038493 0.179889
Si Si6 0.000000 0.500000 0.000000
Si Si7 0.688213 0.892360 0.967536
Si Si8 0.791223 0.656271 0.085371
O O1 0.815254 0.578341 0.796751
O O2 0.622667 0.538865 0.757589
O O3 0.649606 0.766541 0.895625
O O4 0.736521 0.783076 0.699165
O O5 0.883330 0.202466 0.324013
O O6 0.925248 0.960156 0.425141
O O7 0.039753 0.978662 0.237974
O O8 0.227278 0.644496 0.775978
O O9 0.397883 0.777644 0.829651
O O10 0.432525 0.512507 0.733201
O O11 0.282216 0.505634 0.913497
O O12 0.758699 0.033067 0.898227
O O13 0.598380 0.961594 0.068222
O O14 0.920014 0.621917 0.079775
O O15 0.771320 0.791977 0.013808
#
# Coordination Sequence:
#
# PCOD9251917 Si02
#       8
#     4   4   4   4   4   2   4   4
#     4  11  22  48  69 104 146 188 240 298 359 424
#     4  12  25  44  70 105 147 191 231 299 363 431
#     4  12  25  52  72 104 148 188 238 305 364 424
#     4  12  26  45  74 104 147 189 240 295 367 428
#     4  11  27  47  75 102 143 192 244 299 360 426
#     4  12  22  38  70  98 138 182 232 286 356 422
#     4  11  24  44  72 105 138 189 244 294 353 436
#     4  11  24  43  70 100 143 184 237 298 358 425
#
# _framework density 21.783809000000002
#
# number of rings (size 3 to 8) (size 9 to 14) (size 15 to 20)
#    0.000    0.533    5.333    3.200    1.867    0.533 
#    0.000    3.333    0.000    0.000    0.000    0.000 
#    0.000    0.000    0.000    0.000    0.000    0.000 
#
# Total GULP energy -167064.522077 kJ/mol
# GULP energy per Si atom -5568.817403 kJ/mol
# Density = 2.173423 g / cm^3
# Si number density = 21.783809 Si / 1000 Ang^3
#
#
#
# Elastic Constant Matrix: (Units=GPa)
#
#
# Indices 1 2 3 4 5 6 
#
# 1 81.8551 18.6153 6.2902 0.0000 6.0862 0.0000
# 2 18.6153 94.4442 21.5429 0.0000 0.6952 0.0000
# 3 6.2902 21.5429 48.1238 0.0000 13.3770 0.0000
# 4 0.0000 0.0000 0.0000 31.0986 0.0000 6.5038
# 5 6.0862 0.6952 13.3770 0.0000 32.5969 0.0000
# 6 0.0000 0.0000 0.0000 6.5038 0.0000 32.6970
#
#
#
# Elastic Compliance Matrix: (Units=1/GPa)
#
#
# Indices 1 2 3 4 5 6 
#
# 1 0.012971 -0.002568 0.000126 0.000000 -0.002419 0.000000
# 2 -0.002568 0.012437 -0.005973 0.000000 0.002665 0.000000
# 3 0.000126 -0.005973 0.026422 0.000000 -0.010739 0.000000
# 4 0.000000 0.000000 0.000000 0.033552 0.000000 -0.006674
# 5 -0.002419 0.002665 -0.010739 0.000000 0.035480 0.000000
# 6 0.000000 0.000000 0.000000 -0.006674 0.000000 0.031911
#
#
# Mechanical properties :
#
#
# Convention : Reuss Voigt Hill
#
# Bulk Modulus (GPa) = 28.56975 35.25776 31.91376
# Shear Modulus (GPa) = 27.58346 31.14347 29.36346
#
# Velocity S-wave (km/s) = 3.56228 3.78519 3.67543
# Velocity P-wave (km/s) = 5.48301 5.94340 5.71784
#
# Compressibility (1/GPa) = 0.03500205
#
# Stress axis : x y z
#
# Youngs Moduli (GPa) = 77.09636 80.40435 37.84702
#
# Poissons Ratio (x) = 0.20645 -0.00478
# Poissons Ratio (y) = 0.19795 0.22605
# Poissons Ratio (z) = -0.00975 0.48024
#
# Static dielectric constant tensor:
#      x y z
#    x 1.812500 0.000000 -0.030320 
#    y 0.000000 1.824720 0.000000 
#    z -0.030320 0.000000 1.828450 
# 
# From -- ./inp_files/43392.got.cif
#   From: 2010.05.17/outbox.cif.g08.bks.cpg/sg14_22_cif.got.tgz:43392.got - 2010.06.03 17:49:19.
