data_PCOD9251236
_publ_section_title
;
Structure prediction by ZEFSAII (Michael W. Deem and Ramdas Pophale) SiO2 
 PCOD9251236
Probable space group: P 21/C
;
_chemical_formula_sum "Si O2"
_cell_formula_units_Z 30
_cell_length_a 24.664016
_cell_length_b 4.948242
_cell_length_c 20.237920
_cell_angle_alpha 90.000000
_cell_angle_beta 25.775945
_cell_angle_gamma 90.000000
_cell_volume 1074.046643
_symmetry_space_group_name_H-M "P 21/C"
_symmetry_group_IT_number 14
_symmetry_cell_setting 'monoclinic'
loop_
_space_group_symop_operation_xyz
x,y,z
-x,1/2+y,1/2-z
-x,-y,-z
x,1/2-y,1/2+z
loop_
_atom_site_type_symbol
_atom_site_label
_atom_site_fract_x
_atom_site_fract_y
_atom_site_fract_z
Si Si1 0.750153 0.755277 0.716426
Si Si2 0.350329 0.740432 0.107991
Si Si3 0.978622 0.048588 0.318992
Si Si4 0.742720 0.078894 0.096058
Si Si5 0.317345 0.205674 0.455975
Si Si6 0.510018 0.069771 0.842333
Si Si7 0.000000 0.500000 0.500000
Si Si8 0.856956 0.187141 0.276565
O O1 0.650011 0.558860 0.862671
O O2 0.763882 0.653446 0.626747
O O3 0.879122 0.694264 0.612971
O O4 0.707798 0.059639 0.773717
O O5 0.527226 0.136590 0.059255
O O6 0.247826 0.755510 0.162185
O O7 0.070031 0.948451 0.276716
O O8 0.147985 0.698118 0.020142
O O9 0.965783 0.767095 0.293338
O O10 0.729785 0.953720 0.036811
O O11 0.608934 0.211218 0.256526
O O12 0.386954 0.297348 0.446019
O O13 0.421646 0.074613 0.294095
O O14 0.213977 0.988002 0.590444
O O15 0.045426 0.513145 0.372643
#
# Coordination Sequence:
#
# PCOD9251236 Si02
#       8
#     4   4   4   4   4   4   2   4
#     4  11  29  51  80 123 169 223 288 355 429 525
#     4  11  28  52  83 122 161 228 290 350 428 516
#     4  12  33  53  83 129 180 227 286 365 446 531
#     4  12  32  52  85 128 179 225 294 359 454 513
#     4  12  27  54  86 136 168 232 294 372 437 530
#     4  12  26  50  88 122 172 225 293 366 437 514
#     4  10  26  50  86 116 164 228 276 348 424 520
#     4  11  28  55  90 125 173 225 297 355 443 524
#
# _framework density 27.931747999999999
#
# number of rings (size 3 to 8) (size 9 to 14) (size 15 to 20)
#    0.000    0.533    1.333    3.200   14.933    3.200 
#    0.000    1.333    0.000    0.000    0.000    0.000 
#    0.000    0.000    0.000    0.000    0.000    0.000 
#
# Total GULP energy -168085.237198 kJ/mol
# GULP energy per Si atom -5602.841240 kJ/mol
# Density = 2.786817 g / cm^3
# Si number density = 27.931748 Si / 1000 Ang^3
#
#
#
# Elastic Constant Matrix: (Units=GPa)
#
#
# Indices 1 2 3 4 5 6 
#
# 1 131.3826 42.1773 20.1731 0.0000 -1.9577 0.0000
# 2 42.1773 128.2510 36.6996 0.0000 1.7582 0.0000
# 3 20.1731 36.6996 128.4247 0.0000 18.6296 0.0000
# 4 0.0000 0.0000 0.0000 44.9458 0.0000 6.7837
# 5 -1.9577 1.7582 18.6296 0.0000 48.8006 0.0000
# 6 0.0000 0.0000 0.0000 6.7837 0.0000 55.9534
#
#
#
# Elastic Compliance Matrix: (Units=1/GPa)
#
#
# Indices 1 2 3 4 5 6 
#
# 1 0.008573 -0.002629 -0.000698 0.000000 0.000705 0.000000
# 2 -0.002629 0.009318 -0.002314 0.000000 0.000442 0.000000
# 3 -0.000698 -0.002314 0.009051 0.000000 -0.003400 0.000000
# 4 0.000000 0.000000 0.000000 0.022664 0.000000 -0.002748
# 5 0.000705 0.000442 -0.003400 0.000000 0.021802 0.000000
# 6 0.000000 0.000000 0.000000 -0.002748 0.000000 0.018205
#
#
# Mechanical properties :
#
#
# Convention : Reuss Voigt Hill
#
# Bulk Modulus (GPa) = 63.85688 65.12869 64.49278
# Shear Modulus (GPa) = 47.11910 49.20717 48.16313
#
# Velocity S-wave (km/s) = 4.11169 4.20181 4.15699
# Velocity P-wave (km/s) = 6.74186 6.84894 6.79561
#
# Compressibility (1/GPa) = 0.01566002
#
# Stress axis : x y z
#
# Youngs Moduli (GPa) = 116.64405 107.31899 110.48960
#
# Poissons Ratio (x) = 0.28219 0.07707
# Poissons Ratio (y) = 0.30671 0.25566
# Poissons Ratio (z) = 0.08136 0.24832
#
# Static dielectric constant tensor:
#      x y z
#    x 2.150800 0.000000 -0.014020 
#    y 0.000000 2.151100 0.000000 
#    z -0.014020 0.000000 2.206260 
# 
# From -- ./inp_files/66298.got.cif
#   From: 2010.05.17/outbox.cif.g08.bks.cpg/sg14_34_cif.got.tgz:66298.got - 2010.06.03 17:49:19.
