data_PCOD9251445
_publ_section_title
;
Structure prediction by ZEFSAII (Michael W. Deem and Ramdas Pophale) SiO2 
 PCOD9251445
Probable space group: P 21/C
;
_chemical_formula_sum "Si O2"
_cell_formula_units_Z 32
_cell_length_a 24.146834
_cell_length_b 9.419916
_cell_length_c 8.404872
_cell_angle_alpha 90.000000
_cell_angle_beta 50.266573
_cell_angle_gamma 90.000000
_cell_volume 1470.211389
_symmetry_space_group_name_H-M "P 21/C"
_symmetry_group_IT_number 14
_symmetry_cell_setting 'monoclinic'
loop_
_space_group_symop_operation_xyz
x,y,z
-x,1/2+y,1/2-z
-x,-y,-z
x,1/2-y,1/2+z
loop_
_atom_site_type_symbol
_atom_site_label
_atom_site_fract_x
_atom_site_fract_y
_atom_site_fract_z
Si Si1 0.330345 0.331604 0.732962
Si Si2 0.056285 0.682424 0.490384
Si Si3 0.780322 0.220992 0.370341
Si Si4 0.440554 0.825120 0.559912
Si Si5 0.399291 0.107623 0.779862
Si Si6 0.368479 0.586397 0.875004
Si Si7 0.039756 0.961456 0.677565
Si Si8 0.204464 0.974332 0.348167
O O1 0.336100 0.172089 0.785980
O O2 0.383717 0.354282 0.488769
O O3 0.354807 0.429535 0.836109
O O4 0.255507 0.396612 0.805842
O O5 0.142673 0.682448 0.349044
O O6 0.027742 0.841735 0.567469
O O7 0.040626 0.623025 0.344315
O O8 0.018461 0.582436 0.689219
O O9 0.708275 0.151830 0.433192
O O10 0.775820 0.390798 0.350623
O O11 0.784359 0.149070 0.537597
O O12 0.526332 0.820464 0.414372
O O13 0.401000 0.678851 0.670062
O O14 0.421731 0.891165 0.423393
O O15 0.410296 0.940443 0.739608
O O16 0.120964 0.017703 0.502977
#
# Coordination Sequence:
#
# PCOD9251445 Si02
#       8
#     4   4   4   4   4   4   4   4
#     4  11  23  39  58  80 113 147 184 229 281 332
#     4   9  18  33  54  78 112 146 180 226 272 324
#     4   9  17  32  55  80 107 140 181 225 271 318
#     4  11  23  38  59  83 109 142 185 228 277 337
#     4  11  24  40  55  79 113 147 179 226 286 338
#     4  11  21  36  60  85 107 142 190 233 271 327
#     4   9  18  34  54  81 112 145 185 227 274 325
#     4   9  18  34  57  81 109 146 186 230 274 329
#
# _framework density 21.765578999999999
#
# number of rings (size 3 to 8) (size 9 to 14) (size 15 to 20)
#    0.000    2.000    0.000    4.500    0.000    4.500 
#    0.000    6.250    0.000    0.000    0.000    0.000 
#    0.000    0.000    0.000    0.000    0.000    0.000 
#
# Total GULP energy -178703.628757 kJ/mol
# GULP energy per Si atom -5584.488399 kJ/mol
# Density = 2.171604 g / cm^3
# Si number density = 21.765579 Si / 1000 Ang^3
#
#
#
# Elastic Constant Matrix: (Units=GPa)
#
#
# Indices 1 2 3 4 5 6 
#
# 1 42.7396 12.1051 8.9127 0.0000 -4.6976 0.0000
# 2 12.1051 36.6439 18.6077 0.0000 -19.6429 0.0000
# 3 8.9127 18.6077 60.7744 0.0000 -3.9311 0.0000
# 4 0.0000 0.0000 0.0000 27.6187 0.0000 3.6665
# 5 -4.6976 -19.6429 -3.9311 0.0000 23.6836 0.0000
# 6 0.0000 0.0000 0.0000 3.6665 0.0000 31.1753
#
#
#
# Elastic Compliance Matrix: (Units=1/GPa)
#
#
# Indices 1 2 3 4 5 6 
#
# 1 0.026029 -0.009713 -0.001042 0.000000 -0.003066 0.000000
# 2 -0.009713 0.064472 -0.015144 0.000000 0.049032 0.000000
# 3 -0.001042 -0.015144 0.020640 0.000000 -0.009341 0.000000
# 4 0.000000 0.000000 0.000000 0.036782 0.000000 -0.004326
# 5 -0.003066 0.049032 -0.009341 0.000000 0.080731 0.000000
# 6 0.000000 0.000000 0.000000 -0.004326 0.000000 0.032585
#
#
# Mechanical properties :
#
#
# Convention : Reuss Voigt Hill
#
# Bulk Modulus (GPa) = 16.85109 24.37877 20.61493
# Shear Modulus (GPa) = 15.02326 23.19768 19.11047
#
# Velocity S-wave (km/s) = 2.63007 3.26820 2.96634
# Velocity P-wave (km/s) = 4.12092 5.04642 4.60697
#
# Compressibility (1/GPa) = 0.05934332
#
# Stress axis : x y z
#
# Youngs Moduli (GPa) = 38.41906 15.51058 48.45066
#
# Poissons Ratio (x) = 0.15066 0.05046
# Poissons Ratio (y) = 0.37317 0.73373
# Poissons Ratio (z) = 0.04002 0.23489
#
# Static dielectric constant tensor:
#      x y z
#    x 1.799940 0.000000 0.031470 
#    y 0.000000 1.787160 0.000000 
#    z 0.031470 0.000000 1.799950 
# 
# From -- ./inp_files/19660.got.cif
#   From: 2010.05.17/outbox.cif.g08.bks.cpg/sg14_10_cif.got.tgz:19660.got - 2010.06.03 17:49:19.
