data_PCOD9251071
_publ_section_title
;
Structure prediction by ZEFSAII (Michael W. Deem and Ramdas Pophale) SiO2 
 PCOD9251071
Probable space group: P 21/C
;
_chemical_formula_sum "Si O2"
_cell_formula_units_Z 26
_cell_length_a 11.555801
_cell_length_b 11.908044
_cell_length_c 8.800489
_cell_angle_alpha 90.000000
_cell_angle_beta 91.992250
_cell_angle_gamma 90.000000
_cell_volume 1210.276765
_symmetry_space_group_name_H-M "P 21/C"
_symmetry_group_IT_number 14
_symmetry_cell_setting 'monoclinic'
loop_
_space_group_symop_operation_xyz
x,y,z
-x,1/2+y,1/2-z
-x,-y,-z
x,1/2-y,1/2+z
loop_
_atom_site_type_symbol
_atom_site_label
_atom_site_fract_x
_atom_site_fract_y
_atom_site_fract_z
Si Si1 0.558146 0.616183 0.956243
Si Si2 0.038053 0.628709 0.494067
Si Si3 0.000000 0.500000 0.000000
Si Si4 0.292715 0.622916 0.379964
Si Si5 0.217617 0.088743 0.703867
Si Si6 0.071256 0.218238 0.297758
Si Si7 0.568788 0.282451 0.335952
O O1 0.693935 0.611197 0.929329
O O2 0.495155 0.650668 0.797787
O O3 0.500000 0.500000 0.000000
O O4 0.522789 0.704066 0.082935
O O5 0.163093 0.647987 0.429095
O O6 0.000000 0.500000 0.500000
O O7 0.947644 0.686758 0.377575
O O8 0.027694 0.694075 0.651481
O O9 0.102829 0.473533 0.133050
O O10 0.947311 0.606435 0.103223
O O11 0.285269 0.497544 0.316001
O O12 0.337369 0.703908 0.247118
O O13 0.372357 0.642780 0.530747
O O14 0.182856 0.200546 0.795123
#
# Coordination Sequence:
#
# PCOD9251071 Si02
#       7
#     4   4   2   4   4   4   4
#     4  11  25  50  72 110 147 197 254 312 373 449
#     4  12  24  43  67 103 144 191 246 301 371 450
#     4  12  26  46  70 110 144 200 240 306 376 442
#     4  11  22  46  71 107 142 199 246 315 372 458
#     4  12  26  46  74 107 153 193 252 310 379 451
#     4  12  25  46  67 102 148 187 244 299 368 448
#     4  10  25  46  75 106 148 194 259 308 385 447
#
# _framework density 21.482690000000002
#
# number of rings (size 3 to 8) (size 9 to 14) (size 15 to 20)
#    0.000    0.615    6.154    0.923    2.154    0.615 
#    5.538    0.000    0.000    0.000    0.000    0.000 
#    0.000    0.000    0.000    0.000    0.000    0.000 
#
# Total GULP energy -144739.762111 kJ/mol
# GULP energy per Si atom -5566.913927 kJ/mol
# Density = 2.143379 g / cm^3
# Si number density = 21.482690 Si / 1000 Ang^3
#
#
#
# Elastic Constant Matrix: (Units=GPa)
#
#
# Indices 1 2 3 4 5 6 
#
# 1 107.8466 66.5328 46.2944 0.0000 -31.5545 0.0000
# 2 66.5328 140.4053 76.6320 0.0000 1.1474 0.0000
# 3 46.2944 76.6320 115.1286 0.0000 -12.1497 0.0000
# 4 0.0000 0.0000 0.0000 39.8199 0.0000 -12.8913
# 5 -31.5545 1.1474 -12.1497 0.0000 33.5923 0.0000
# 6 0.0000 0.0000 0.0000 -12.8913 0.0000 30.9396
#
#
#
# Elastic Compliance Matrix: (Units=1/GPa)
#
#
# Indices 1 2 3 4 5 6 
#
# 1 0.021945 -0.010963 0.000715 0.000000 0.021247 0.000000
# 2 -0.010963 0.017003 -0.008377 0.000000 -0.013908 0.000000
# 3 0.000715 -0.008377 0.014634 0.000000 0.006250 0.000000
# 4 0.000000 0.000000 0.000000 0.029029 0.000000 0.012095
# 5 0.021247 -0.013908 0.006250 0.000000 0.052463 0.000000
# 6 0.000000 0.000000 0.000000 0.012095 0.000000 0.037361
#
#
# Mechanical properties :
#
#
# Convention : Reuss Voigt Hill
#
# Bulk Modulus (GPa) = 61.22818 82.47765 71.85291
# Shear Modulus (GPa) = 23.24192 32.46512 27.85352
#
# Velocity S-wave (km/s) = 3.29278 3.89166 3.60468
# Velocity P-wave (km/s) = 6.55893 7.65959 7.13053
#
# Compressibility (1/GPa) = 0.01633235
#
# Stress axis : x y z
#
# Youngs Moduli (GPa) = 45.56743 58.81347 68.33429
#
# Poissons Ratio (x) = 0.64477 -0.04885
# Poissons Ratio (y) = 0.49955 0.57243
# Poissons Ratio (z) = -0.03258 0.49268
#
# Static dielectric constant tensor:
#      x y z
#    x 1.767700 0.000000 -0.016490 
#    y 0.000000 1.769780 0.000000 
#    z -0.016490 0.000000 1.803680 
# 
# From -- ./inp_files/12462.got.cif
#   From: 2010.05.17/outbox.cif.g08.bks.cpg/sg14_7_cif.got.tgz:12462.got - 2010.06.03 17:49:19.
