data_PCOD9251045
_publ_section_title
;
Structure prediction by ZEFSAII (Michael W. Deem and Ramdas Pophale) SiO2 
 PCOD9251045
Probable space group: P 21/C
;
_chemical_formula_sum "Si O2"
_cell_formula_units_Z 16
_cell_length_a 9.635064
_cell_length_b 9.563507
_cell_length_c 9.791180
_cell_angle_alpha 90.000000
_cell_angle_beta 47.667432
_cell_angle_gamma 90.000000
_cell_volume 666.956063
_symmetry_space_group_name_H-M "P 21/C"
_symmetry_group_IT_number 14
_symmetry_cell_setting 'monoclinic'
loop_
_space_group_symop_operation_xyz
x,y,z
-x,1/2+y,1/2-z
-x,-y,-z
x,1/2-y,1/2+z
loop_
_atom_site_type_symbol
_atom_site_label
_atom_site_fract_x
_atom_site_fract_y
_atom_site_fract_z
Si Si1 0.594724 0.332269 0.812396
Si Si2 0.563289 0.487752 0.303124
Si Si3 0.810930 0.851111 0.450068
Si Si4 0.972934 0.070771 0.163921
O O1 0.595322 0.445167 0.689583
O O2 0.603635 0.174837 0.749104
O O3 0.765001 0.359299 0.799851
O O4 0.382929 0.350702 0.010291
O O5 0.500000 0.500000 0.500000
O O6 0.740520 0.582717 0.139677
O O7 0.882444 0.695048 0.412054
O O8 0.964836 0.950935 0.282241
O O9 0.000000 0.000000 0.000000
#
# Coordination Sequence:
#
# PCOD9251045 Si02
#       4
#     4   4   4   4
#     4  10  25  46  75 107 149 197 246 303 380 440
#     4  10  25  45  78 104 150 191 255 301 384 439
#     4  10  28  46  75 112 149 202 246 305 384 434
#     4  12  27  48  76 110 158 187 258 310 371 454
#
# _framework density 23.989587
#
# number of rings (size 3 to 8) (size 9 to 14) (size 15 to 20)
#    1.500    0.000    0.000    2.250   10.500    3.000 
#    0.000    0.000    0.000    0.000    0.000    0.000 
#    0.000    0.000    0.000    0.000    0.000    0.000 
#
# Total GULP energy -89475.106710 kJ/mol
# GULP energy per Si atom -5592.194169 kJ/mol
# Density = 2.393499 g / cm^3
# Si number density = 23.989587 Si / 1000 Ang^3
#
#
#
# Elastic Constant Matrix: (Units=GPa)
#
#
# Indices 1 2 3 4 5 6 
#
# 1 36.7573 8.4067 5.8601 0.0000 -10.3260 0.0000
# 2 8.4067 152.2906 49.0215 0.0000 -5.4721 0.0000
# 3 5.8601 49.0215 125.0224 0.0000 11.4218 0.0000
# 4 0.0000 0.0000 0.0000 52.4058 0.0000 -9.7568
# 5 -10.3260 -5.4721 11.4218 0.0000 34.0513 0.0000
# 6 0.0000 0.0000 0.0000 -9.7568 0.0000 32.9899
#
#
#
# Elastic Compliance Matrix: (Units=1/GPa)
#
#
# Indices 1 2 3 4 5 6 
#
# 1 0.030444 -0.000663 -0.002064 0.000000 0.009818 0.000000
# 2 -0.000663 0.007703 -0.003181 0.000000 0.002104 0.000000
# 3 -0.002064 -0.003181 0.009745 0.000000 -0.004406 0.000000
# 4 0.000000 0.000000 0.000000 0.020194 0.000000 0.005972
# 5 0.009818 0.002104 -0.004406 0.000000 0.034161 0.000000
# 6 0.000000 0.000000 0.000000 0.005972 0.000000 0.032079
#
#
# Mechanical properties :
#
#
# Convention : Reuss Voigt Hill
#
# Bulk Modulus (GPa) = 27.72007 48.96080 38.34044
# Shear Modulus (GPa) = 31.61210 40.60821 36.11015
#
# Velocity S-wave (km/s) = 3.63401 4.11876 3.88395
# Velocity P-wave (km/s) = 5.40261 6.56296 6.01085
#
# Compressibility (1/GPa) = 0.03607494
#
# Stress axis : x y z
#
# Youngs Moduli (GPa) = 32.84692 129.82528 102.61443
#
# Poissons Ratio (x) = 0.08614 0.21177
# Poissons Ratio (y) = 0.02179 0.32645
# Poissons Ratio (z) = 0.06779 0.41302
#
# Static dielectric constant tensor:
#      x y z
#    x 1.956470 0.000000 -0.076680 
#    y 0.000000 1.810080 0.000000 
#    z -0.076680 0.000000 1.928980 
# 
# From -- ./inp_files/27686.got.cif
#   From: 2010.05.17/outbox.cif.g08.bks.cpg/sg14_14_cif.got.tgz:27686.got - 2010.06.03 17:49:19.
