data_PCOD9251371
_publ_section_title
;
Structure prediction by ZEFSAII (Michael W. Deem and Ramdas Pophale) SiO2 
 PCOD9251371
Probable space group: P 21/C
;
_chemical_formula_sum "Si O2"
_cell_formula_units_Z 32
_cell_length_a 9.224366
_cell_length_b 15.466765
_cell_length_c 10.811388
_cell_angle_alpha 90.000000
_cell_angle_beta 74.872256
_cell_angle_gamma 90.000000
_cell_volume 1489.020363
_symmetry_space_group_name_H-M "P 21/C"
_symmetry_group_IT_number 14
_symmetry_cell_setting 'monoclinic'
loop_
_space_group_symop_operation_xyz
x,y,z
-x,1/2+y,1/2-z
-x,-y,-z
x,1/2-y,1/2+z
loop_
_atom_site_type_symbol
_atom_site_label
_atom_site_fract_x
_atom_site_fract_y
_atom_site_fract_z
Si Si1 0.063495 0.100681 0.676165
Si Si2 0.844716 0.676781 0.587824
Si Si3 0.728969 0.500000 0.512479
Si Si4 0.758385 0.143879 0.609273
Si Si5 0.423891 0.500000 0.722385
Si Si6 0.936505 0.399320 0.823835
Si Si7 0.155284 0.823219 0.912176
Si Si8 0.241615 0.356121 0.890727
O O1 0.129220 0.151967 0.776533
O O2 0.174180 0.109322 0.534603
O O3 0.898224 0.132824 0.673569
O O4 0.049711 0.000000 0.712960
O O5 0.814656 0.589382 0.518450
O O6 0.725993 0.754272 0.603117
O O7 1.000000 0.714362 0.500000
O O8 0.595883 0.500000 0.643807
O O9 0.664438 0.500000 0.388690
O O10 0.814656 0.410618 0.518450
O O11 0.626064 0.083930 0.689061
O O12 0.825820 0.109322 0.465397
O O13 0.725993 0.245728 0.603117
O O14 0.373936 0.416071 0.810939
O O15 0.870780 0.348033 0.723467
O O16 0.101776 0.367177 0.826431
#
# Coordination Sequence:
#
# PCOD9251371 Si02
#       8
#     4   4   4   4   4   4   4   4
#     4  11  20  38  61  98 121 158 202 256 315 354
#     4  12  24  39  63  96 127 155 202 261 311 356
#     4  11  27  43  61  90 124 170 202 249 304 369
#     4  11  22  38  66  91 124 159 203 253 307 363
#     4  11  24  46  65  83 124 168 212 243 301 370
#     4  11  20  38  61  98 121 158 202 256 315 354
#     4  12  24  39  63  96 127 155 202 261 311 356
#     4  11  22  38  66  91 124 159 203 253 307 363
#
# _framework density 21.490639999999999
#
# number of rings (size 3 to 8) (size 9 to 14) (size 15 to 20)
#    0.000    0.750    6.250    3.375    3.500    1.000 
#    0.000    2.500    0.000    0.000    0.000    0.000 
#    0.000    0.000    0.000    0.000    0.000    0.000 
#
# Total GULP energy -179050.664614 kJ/mol
# GULP energy per Si atom -5595.333269 kJ/mol
# Density = 2.144173 g / cm^3
# Si number density = 21.490640 Si / 1000 Ang^3
#
#
#
# Elastic Constant Matrix: (Units=GPa)
#
#
# Indices 1 2 3 4 5 6 
#
# 1 8.8101 -2.3517 0.7384 0.0000 -9.0588 0.0000
# 2 -2.3517 151.6533 11.0133 0.0000 -9.3008 0.0000
# 3 0.7384 11.0133 48.9205 0.0000 -4.3080 0.0000
# 4 0.0000 0.0000 0.0000 22.0594 0.0000 -4.0778
# 5 -9.0588 -9.3008 -4.3080 0.0000 26.0360 0.0000
# 6 0.0000 0.0000 0.0000 -4.0778 0.0000 2.1507
#
#
#
# Elastic Compliance Matrix: (Units=1/GPa)
#
#
# Indices 1 2 3 4 5 6 
#
# 1 0.183680 0.006820 0.001557 0.000000 0.066603 0.000000
# 2 0.006820 0.007081 -0.001284 0.000000 0.004690 0.000000
# 3 0.001557 -0.001284 0.021020 0.000000 0.003561 0.000000
# 4 0.000000 0.000000 0.000000 0.069795 0.000000 0.132332
# 5 0.066603 0.004690 0.003561 0.000000 0.063846 0.000000
# 6 0.000000 0.000000 0.000000 0.132332 0.000000 0.715861
#
#
# Mechanical properties :
#
#
# Convention : Reuss Voigt Hill
#
# Bulk Modulus (GPa) = 4.42541 25.35377 14.88959
# Shear Modulus (GPa) = 4.45466 23.38151 13.91808
#
# Velocity S-wave (km/s) = 1.44130 3.30204 2.54763
# Velocity P-wave (km/s) = 2.19852 5.13431 3.94934
#
# Compressibility (1/GPa) = 0.22596765
#
# Stress axis : x y z
#
# Youngs Moduli (GPa) = 5.44425 141.23063 47.57264
#
# Poissons Ratio (x) = -0.96319 -0.07408
# Poissons Ratio (y) = -0.03713 0.06108
# Poissons Ratio (z) = -0.00848 0.18134
#
# Static dielectric constant tensor:
#      x y z
#    x 1.739020 0.000000 -0.005870 
#    y 0.000000 1.807470 0.000000 
#    z -0.005870 0.000000 1.756900 
# 
# From -- ./inp_files/25478.got.cif
#   From: 2010.05.17/outbox.cif.g08.bks.cpg/sg14_13_cif.got.tgz:25478.got - 2010.06.03 17:49:19.
