data_PCOD9251794
_publ_section_title
;
Structure prediction by ZEFSAII (Michael W. Deem and Ramdas Pophale) SiO2 
 PCOD9251794
Probable space group: P 21/C
;
_chemical_formula_sum "Si O2"
_cell_formula_units_Z 32
_cell_length_a 8.074810
_cell_length_b 15.422805
_cell_length_c 20.505133
_cell_angle_alpha 90.000000
_cell_angle_beta 144.085787
_cell_angle_gamma 90.000000
_cell_volume 1497.892156
_symmetry_space_group_name_H-M "P 21/C"
_symmetry_group_IT_number 14
_symmetry_cell_setting 'monoclinic'
loop_
_space_group_symop_operation_xyz
x,y,z
-x,1/2+y,1/2-z
-x,-y,-z
x,1/2-y,1/2+z
loop_
_atom_site_type_symbol
_atom_site_label
_atom_site_fract_x
_atom_site_fract_y
_atom_site_fract_z
Si Si1 0.777458 0.597683 0.042535
Si Si2 0.450058 0.651345 0.752824
Si Si3 0.687755 0.553721 0.608320
Si Si4 0.638095 0.048549 0.329084
Si Si5 0.277807 0.172192 0.123093
Si Si6 0.221869 0.578192 0.552739
Si Si7 0.174503 0.301862 0.437153
Si Si8 0.713831 0.980611 0.663811
O O1 0.781895 0.700478 0.043848
O O2 0.802199 0.567264 0.125445
O O3 0.029678 0.562341 0.076749
O O4 0.484355 0.559876 0.922420
O O5 0.560787 0.553838 0.799773
O O6 0.659170 0.728596 0.837865
O O7 0.341381 0.644212 0.644435
O O8 0.148953 0.677726 0.686882
O O9 0.500000 0.500000 0.500000
O O10 0.512700 0.542977 0.618057
O O11 0.668989 0.649540 0.571498
O O12 0.001370 0.515947 0.712463
O O13 0.502414 0.108662 0.229058
O O14 0.482157 0.072745 0.347555
O O15 0.256561 0.164029 0.036733
O O16 0.978536 0.137943 0.055266
O O17 0.000000 0.500000 0.500000
#
# Coordination Sequence:
#
# PCOD9251794 Si02
#       8
#     4   4   4   4   4   4   4   4
#     4  11  26  48  72 105 150 200 233 307 368 450
#     4  11  22  42  70 102 138 188 246 297 359 446
#     4  12  25  45  73 105 142 187 236 318 359 430
#     4  12  22  45  77 100 144 195 238 301 366 438
#     4  11  24  42  69 104 140 187 244 301 361 449
#     4  11  23  44  70 103 139 186 249 296 373 441
#     4  11  25  44  71 102 146 185 245 294 377 428
#     4  11  26  46  72 107 144 187 255 289 378 443
#
# _framework density 21.363353
#
# number of rings (size 3 to 8) (size 9 to 14) (size 15 to 20)
#    0.000    0.750    3.750    4.125    1.750    1.000 
#    6.750    0.000    0.000    0.000    0.000    0.000 
#    0.000    0.000    0.000    0.000    0.000    0.000 
#
# Total GULP energy -178338.434431 kJ/mol
# GULP energy per Si atom -5573.076076 kJ/mol
# Density = 2.131473 g / cm^3
# Si number density = 21.363353 Si / 1000 Ang^3
#
#
#
# Elastic Constant Matrix: (Units=GPa)
#
#
# Indices 1 2 3 4 5 6 
#
# 1 107.9947 34.1832 30.4233 0.0000 17.0575 0.0000
# 2 34.1832 130.9635 32.0845 0.0000 2.6597 0.0000
# 3 30.4233 32.0845 98.7314 0.0000 4.3644 0.0000
# 4 0.0000 0.0000 0.0000 35.8020 0.0000 0.8671
# 5 17.0575 2.6597 4.3644 0.0000 30.9477 0.0000
# 6 0.0000 0.0000 0.0000 0.8671 0.0000 24.4078
#
#
#
# Elastic Compliance Matrix: (Units=1/GPa)
#
#
# Indices 1 2 3 4 5 6 
#
# 1 0.011635 -0.002285 -0.002584 0.000000 -0.005852 0.000000
# 2 -0.002285 0.008748 -0.002175 0.000000 0.000814 0.000000
# 3 -0.002584 -0.002175 0.011633 0.000000 -0.000029 0.000000
# 4 0.000000 0.000000 0.000000 0.027955 0.000000 -0.000993
# 5 -0.005852 0.000814 -0.000029 0.000000 0.035472 0.000000
# 6 0.000000 0.000000 0.000000 -0.000993 0.000000 0.041006
#
#
# Mechanical properties :
#
#
# Convention : Reuss Voigt Hill
#
# Bulk Modulus (GPa) = 55.77669 59.00795 57.39232
# Shear Modulus (GPa) = 31.94598 34.29807 33.12202
#
# Velocity S-wave (km/s) = 3.87119 4.01117 3.94180
# Velocity P-wave (km/s) = 6.79314 7.00954 6.90219
#
# Compressibility (1/GPa) = 0.01792864
#
# Stress axis : x y z
#
# Youngs Moduli (GPa) = 85.94528 114.30650 85.96383
#
# Poissons Ratio (x) = 0.26120 0.22214
# Poissons Ratio (y) = 0.19639 0.18696
# Poissons Ratio (z) = 0.22209 0.24860
#
# Static dielectric constant tensor:
#      x y z
#    x 1.885880 0.000000 -0.005130 
#    y 0.000000 1.905830 0.000000 
#    z -0.005130 0.000000 1.802600 
# 
# From -- ./inp_files/72487.got.cif
#   From: 2010.05.17/outbox.cif.g08.bks.cpg/sg14_37_cif.got.tgz:72487.got - 2010.06.03 17:49:19.
