data_PCOD9251216
_publ_section_title
;
Structure prediction by ZEFSAII (Michael W. Deem and Ramdas Pophale) SiO2 
 PCOD9251216
Probable space group: P 21/C
;
_chemical_formula_sum "Si O2"
_cell_formula_units_Z 26
_cell_length_a 14.341194
_cell_length_b 15.453225
_cell_length_c 8.485893
_cell_angle_alpha 90.000000
_cell_angle_beta 33.853973
_cell_angle_gamma 90.000000
_cell_volume 1047.654599
_symmetry_space_group_name_H-M "P 21/C"
_symmetry_group_IT_number 14
_symmetry_cell_setting 'monoclinic'
loop_
_space_group_symop_operation_xyz
x,y,z
-x,1/2+y,1/2-z
-x,-y,-z
x,1/2-y,1/2+z
loop_
_atom_site_type_symbol
_atom_site_label
_atom_site_fract_x
_atom_site_fract_y
_atom_site_fract_z
Si Si1 0.678573 0.152114 0.460825
Si Si2 0.422217 0.492295 0.435131
Si Si3 0.001686 0.932017 0.856214
Si Si4 0.000000 0.500000 0.000000
Si Si5 0.254690 0.290125 0.370757
Si Si6 0.390126 0.833267 0.781359
Si Si7 0.146227 0.360401 0.848644
O O1 0.525106 0.084480 0.705458
O O2 0.822162 0.115995 0.373052
O O3 0.647564 0.250486 0.557788
O O4 0.725508 0.150067 0.210013
O O5 0.500000 0.500000 0.500000
O O6 0.425895 0.580240 0.331821
O O7 0.227695 0.458263 0.723482
O O8 0.975477 0.979431 0.728287
O O9 0.861686 0.857297 0.060336
O O10 0.000000 0.000000 0.000000
O O11 0.039191 0.608819 0.916038
O O12 0.222655 0.309413 0.597198
O O13 0.197730 0.191841 0.425609
O O14 0.439554 0.304775 0.049813
#
# Coordination Sequence:
#
# PCOD9251216 Si02
#       7
#     4   4   4   2   4   4   4
#     4  12  26  47  72 112 149 197 251 315 380 450
#     4  12  25  41  73 102 144 195 244 307 375 437
#     4  11  27  48  76 106 148 200 249 311 383 446
#     4  10  26  48  70 108 148 188 260 302 376 450
#     4  11  24  45  72 101 142 196 241 302 376 450
#     4  12  25  45  73 107 154 188 257 310 377 461
#     4  11  25  43  71 103 140 193 244 308 370 446
#
# _framework density 24.817339
#
# number of rings (size 3 to 8) (size 9 to 14) (size 15 to 20)
#    0.000    0.615    3.077    3.231    8.615    3.692 
#    0.000    0.000    0.000    0.000    0.000    0.000 
#    0.000    0.000    0.000    0.000    0.000    0.000 
#
# Total GULP energy -145261.940400 kJ/mol
# GULP energy per Si atom -5586.997708 kJ/mol
# Density = 2.476085 g / cm^3
# Si number density = 24.817339 Si / 1000 Ang^3
#
#
#
# Elastic Constant Matrix: (Units=GPa)
#
#
# Indices 1 2 3 4 5 6 
#
# 1 154.3246 54.9962 28.3757 0.0000 34.1110 0.0000
# 2 54.9962 161.0429 35.6991 0.0000 32.9859 0.0000
# 3 28.3757 35.6991 44.8814 0.0000 19.1681 0.0000
# 4 0.0000 0.0000 0.0000 42.3430 0.0000 7.5392
# 5 34.1110 32.9859 19.1681 0.0000 48.0298 0.0000
# 6 0.0000 0.0000 0.0000 7.5392 0.0000 53.6690
#
#
#
# Elastic Compliance Matrix: (Units=1/GPa)
#
#
# Indices 1 2 3 4 5 6 
#
# 1 0.008324 -0.001510 -0.002386 0.000000 -0.003922 0.000000
# 2 -0.001510 0.008290 -0.004419 0.000000 -0.002857 0.000000
# 3 -0.002386 -0.004419 0.030480 0.000000 -0.007435 0.000000
# 4 0.000000 0.000000 0.000000 0.024222 0.000000 -0.003403
# 5 -0.003922 -0.002857 -0.007435 0.000000 0.028535 0.000000
# 6 0.000000 0.000000 0.000000 -0.003403 0.000000 0.019111
#
#
# Mechanical properties :
#
#
# Convention : Reuss Voigt Hill
#
# Bulk Modulus (GPa) = 32.82707 66.48785 49.65746
# Shear Modulus (GPa) = 34.30607 44.88688 39.59648
#
# Velocity S-wave (km/s) = 3.72202 4.25748 3.99873
# Velocity P-wave (km/s) = 5.63271 7.14264 6.43213
#
# Compressibility (1/GPa) = 0.03046266
#
# Stress axis : x y z
#
# Youngs Moduli (GPa) = 120.13873 120.62600 32.80883
#
# Poissons Ratio (x) = 0.18217 0.07829
# Poissons Ratio (y) = 0.18144 0.14498
# Poissons Ratio (z) = 0.28669 0.53303
#
# Static dielectric constant tensor:
#      x y z
#    x 2.187740 0.000000 -0.235390 
#    y 0.000000 2.047640 0.000000 
#    z -0.235390 0.000000 2.197020 
# 
# From -- ./inp_files/16168.got.cif
#   From: 2010.05.17/outbox.cif.g08.bks.cpg/sg14_9_cif.got.tgz:16168.got - 2010.06.03 17:49:19.
