data_PCOD9251575
_publ_section_title
;
Structure prediction by ZEFSAII (Michael W. Deem and Ramdas Pophale) SiO2 
 PCOD9251575
Probable space group: P 21/C
;
_chemical_formula_sum "Si O2"
_cell_formula_units_Z 28
_cell_length_a 9.235364
_cell_length_b 11.239337
_cell_length_c 13.988604
_cell_angle_alpha 90.000000
_cell_angle_beta 117.195380
_cell_angle_gamma 90.000000
_cell_volume 1291.493433
_symmetry_space_group_name_H-M "P 21/C"
_symmetry_group_IT_number 14
_symmetry_cell_setting 'monoclinic'
loop_
_space_group_symop_operation_xyz
x,y,z
-x,1/2+y,1/2-z
-x,-y,-z
x,1/2-y,1/2+z
loop_
_atom_site_type_symbol
_atom_site_label
_atom_site_fract_x
_atom_site_fract_y
_atom_site_fract_z
Si Si1 0.690621 0.620872 0.674450
Si Si2 0.408566 0.825512 0.240660
Si Si3 0.997746 0.256273 0.651815
Si Si4 0.217367 0.642305 0.266071
Si Si5 0.162435 0.034693 0.110548
Si Si6 0.649847 0.766782 0.957174
Si Si7 0.026233 0.370529 0.967922
O O1 0.554683 0.651784 0.711886
O O2 0.707069 0.478474 0.671860
O O3 0.640255 0.681424 0.560242
O O4 0.867213 0.668651 0.762341
O O5 0.324362 0.696589 0.212057
O O6 0.268990 0.924194 0.181476
O O7 0.493809 0.802065 0.369194
O O8 0.835471 0.270445 0.664499
O O9 0.087306 0.383931 0.671232
O O10 0.961440 0.217115 0.531981
O O11 0.050077 0.627942 0.159211
O O12 0.284795 0.121538 0.087842
O O13 0.000000 0.000000 0.000000
O O14 0.790512 0.670032 0.990325
O O15 0.000000 0.500000 0.000000
#
# Coordination Sequence:
#
# PCOD9251575 Si02
#       7
#     4   4   4   4   4   4   4
#     4  12  25  46  71 105 149 191 244 308 371 443
#     4  12  26  45  71 106 145 187 243 306 375 433
#     4  11  24  43  71 104 139 189 244 303 364 442
#     4  12  26  43  75 102 140 196 249 300 373 450
#     4  11  24  45  74 102 147 193 249 303 368 446
#     4  11  24  45  71 106 146 193 241 307 374 447
#     4  11  21  42  70 104 142 186 241 306 364 432
#
# _framework density 21.680326999999998
#
# number of rings (size 3 to 8) (size 9 to 14) (size 15 to 20)
#    0.000    0.571    5.714    3.429    2.000    4.571 
#    0.000    0.714    0.000    0.000    0.000    0.000 
#    0.000    0.000    0.000    0.000    0.000    0.000 
#
# Total GULP energy -156242.232116 kJ/mol
# GULP energy per Si atom -5580.079718 kJ/mol
# Density = 2.163098 g / cm^3
# Si number density = 21.680327 Si / 1000 Ang^3
#
#
#
# Elastic Constant Matrix: (Units=GPa)
#
#
# Indices 1 2 3 4 5 6 
#
# 1 119.2936 50.3356 38.2338 0.0000 -3.0387 0.0000
# 2 50.3356 117.1164 37.1688 0.0000 9.3169 0.0000
# 3 38.2338 37.1688 114.4747 0.0000 3.9671 0.0000
# 4 0.0000 0.0000 0.0000 37.2445 0.0000 5.9795
# 5 -3.0387 9.3169 3.9671 0.0000 29.8571 0.0000
# 6 0.0000 0.0000 0.0000 5.9795 0.0000 21.9583
#
#
#
# Elastic Compliance Matrix: (Units=1/GPa)
#
#
# Indices 1 2 3 4 5 6 
#
# 1 0.010986 -0.004175 -0.002409 0.000000 0.002741 0.000000
# 2 -0.004175 0.011307 -0.002150 0.000000 -0.003668 0.000000
# 3 -0.002409 -0.002150 0.010271 0.000000 -0.000939 0.000000
# 4 0.000000 0.000000 0.000000 0.028077 0.000000 -0.007646
# 5 0.002741 -0.003668 -0.000939 0.000000 0.035041 0.000000
# 6 0.000000 0.000000 0.000000 -0.007646 0.000000 0.047623
#
#
# Mechanical properties :
#
#
# Convention : Reuss Voigt Hill
#
# Bulk Modulus (GPa) = 66.24047 66.92900 66.58474
# Shear Modulus (GPa) = 30.15599 32.82174 31.48886
#
# Velocity S-wave (km/s) = 3.73357 3.89510 3.81519
# Velocity P-wave (km/s) = 7.01468 7.15311 7.08423
#
# Compressibility (1/GPa) = 0.01509651
#
# Stress axis : x y z
#
# Youngs Moduli (GPa) = 91.02259 88.44012 97.36605
#
# Poissons Ratio (x) = 0.36928 0.23452
# Poissons Ratio (y) = 0.38006 0.20930
# Poissons Ratio (z) = 0.21924 0.19011
#
# Static dielectric constant tensor:
#      x y z
#    x 1.807710 0.000000 0.024150 
#    y 0.000000 1.825280 0.000000 
#    z 0.024150 0.000000 1.877940 
# 
# From -- ./inp_files/40410.got.cif
#   From: 2010.05.17/outbox.cif.g08.bks.cpg/sg14_21_cif.got.tgz:40410.got - 2010.06.03 17:49:19.
