data_PCOD9251175
_publ_section_title
;
Structure prediction by ZEFSAII (Michael W. Deem and Ramdas Pophale) SiO2 
 PCOD9251175
Probable space group: P 21/C
;
_chemical_formula_sum "Si O2"
_cell_formula_units_Z 18
_cell_length_a 7.095293
_cell_length_b 5.012083
_cell_length_c 22.585733
_cell_angle_alpha 90.000000
_cell_angle_beta 102.463291
_cell_angle_gamma 90.000000
_cell_volume 784.270509
_symmetry_space_group_name_H-M "P 21/C"
_symmetry_group_IT_number 14
_symmetry_cell_setting 'monoclinic'
loop_
_space_group_symop_operation_xyz
x,y,z
-x,1/2+y,1/2-z
-x,-y,-z
x,1/2-y,1/2+z
loop_
_atom_site_type_symbol
_atom_site_label
_atom_site_fract_x
_atom_site_fract_y
_atom_site_fract_z
Si Si1 0.165677 0.238310 0.839043
Si Si2 0.624168 0.750578 0.029143
Si Si3 0.377184 0.076733 0.735758
Si Si4 0.000000 0.500000 0.000000
Si Si5 0.050919 0.268465 0.135328
O O1 0.339818 0.231739 0.898233
O O2 0.236820 0.147916 0.780318
O O3 0.082235 0.535198 0.834257
O O4 0.005492 0.032756 0.852979
O O5 0.831898 0.709413 0.013206
O O6 0.500000 0.500000 0.000000
O O7 0.500000 0.000000 0.000000
O O8 0.559984 0.270981 0.756646
O O9 0.268369 0.157596 0.668225
O O10 0.003657 0.350759 0.065360
#
# Coordination Sequence:
#
# PCOD9251175 Si02
#       5
#     4   4   4   2   4
#     4  11  24  45  68  99 136 184 235 282 365 409
#     4  11  25  42  70 101 143 185 231 295 348 436
#     4  12  26  42  70 103 136 180 232 294 350 421
#     4  10  26  44  72 104 144 186 240 280 376 414
#     4  11  24  45  70  98 139 185 229 293 345 439
#
# _framework density 22.951263999999998
#
# number of rings (size 3 to 8) (size 9 to 14) (size 15 to 20)
#    0.000    0.889    0.000    6.667    6.222    8.000 
#    0.000    0.000    0.000    0.000    0.000    0.000 
#    0.000    0.000    0.000    0.000    0.000    0.000 
#
# Total GULP energy -100266.168515 kJ/mol
# GULP energy per Si atom -5570.342695 kJ/mol
# Density = 2.289903 g / cm^3
# Si number density = 22.951264 Si / 1000 Ang^3
#
#
#
# Elastic Constant Matrix: (Units=GPa)
#
#
# Indices 1 2 3 4 5 6 
#
# 1 46.0343 17.6206 25.6669 0.0000 5.6532 0.0000
# 2 17.6206 100.2293 3.0009 0.0000 15.2483 0.0000
# 3 25.6669 3.0009 75.0343 0.0000 -7.0958 0.0000
# 4 0.0000 0.0000 0.0000 25.8580 0.0000 3.2052
# 5 5.6532 15.2483 -7.0958 0.0000 51.9735 0.0000
# 6 0.0000 0.0000 0.0000 3.2052 0.0000 59.2078
#
#
#
# Elastic Compliance Matrix: (Units=1/GPa)
#
#
# Indices 1 2 3 4 5 6 
#
# 1 0.029513 -0.004376 -0.010235 0.000000 -0.003323 0.000000
# 2 -0.004376 0.011130 0.000798 0.000000 -0.002680 0.000000
# 3 -0.010235 0.000798 0.017100 0.000000 0.003214 0.000000
# 4 0.000000 0.000000 0.000000 0.038934 0.000000 -0.002108
# 5 -0.003323 -0.002680 0.003214 0.000000 0.020827 0.000000
# 6 0.000000 0.000000 0.000000 -0.002108 0.000000 0.017004
#
#
# Mechanical properties :
#
#
# Convention : Reuss Voigt Hill
#
# Bulk Modulus (GPa) = 33.20276 34.87496 34.03886
# Shear Modulus (GPa) = 29.04063 39.07516 34.05789
#
# Velocity S-wave (km/s) = 3.56099 4.13065 3.85635
# Velocity P-wave (km/s) = 5.60407 6.16262 5.88997
#
# Compressibility (1/GPa) = 0.03011798
#
# Stress axis : x y z
#
# Youngs Moduli (GPa) = 33.88385 89.84406 58.47902
#
# Poissons Ratio (x) = 0.39319 0.59851
# Poissons Ratio (y) = 0.14829 -0.04669
# Poissons Ratio (z) = 0.34679 -0.07173
#
# Static dielectric constant tensor:
#      x y z
#    x 1.898470 0.000000 0.044150 
#    y 0.000000 1.804000 0.000000 
#    z 0.044150 0.000000 1.889880 
# 
# From -- ./inp_files/70835.got.cif
#   From: 2010.05.17/outbox.cif.g08.bks.cpg/sg14_36_cif.got.tgz:70835.got - 2010.06.03 17:49:19.
