data_PCOD9251639
_publ_section_title
;
Structure prediction by ZEFSAII (Michael W. Deem and Ramdas Pophale) SiO2 
 PCOD9251639
Probable space group: P 21/C
;
_chemical_formula_sum "Si O2"
_cell_formula_units_Z 20
_cell_length_a 13.857957
_cell_length_b 8.789129
_cell_length_c 10.315380
_cell_angle_alpha 90.000000
_cell_angle_beta 35.144036
_cell_angle_gamma 90.000000
_cell_volume 723.230336
_symmetry_space_group_name_H-M "P 21/C"
_symmetry_group_IT_number 14
_symmetry_cell_setting 'monoclinic'
loop_
_space_group_symop_operation_xyz
x,y,z
-x,1/2+y,1/2-z
-x,-y,-z
x,1/2-y,1/2+z
loop_
_atom_site_type_symbol
_atom_site_label
_atom_site_fract_x
_atom_site_fract_y
_atom_site_fract_z
Si Si1 0.534440 0.495055 0.167071
Si Si2 0.034034 0.122947 0.153875
Si Si3 0.785357 0.310443 0.573384
Si Si4 0.213371 0.228347 0.705357
Si Si5 0.525457 0.182148 0.032367
O O1 0.378991 0.589112 0.276293
O O2 0.518018 0.536225 0.334735
O O3 0.706997 0.567373 0.925869
O O4 0.509516 0.324082 0.150232
O O5 0.145172 0.175026 0.158371
O O6 0.854970 0.187604 0.395510
O O7 0.084907 0.207256 0.965320
O O8 0.073040 0.944611 0.083038
O O9 0.711584 0.207484 0.770972
O O10 0.373928 0.298732 0.599681
#
# Coordination Sequence:
#
# PCOD9251639 Si02
#       5
#     4   4   4   4   4
#     4  11  21  47  77 104 140 195 247 300 364 436
#     4  12  26  47  73 106 154 195 242 305 374 428
#     4  11  26  47  69 107 153 195 241 305 365 441
#     4  11  22  46  75 103 146 194 237 304 368 430
#     4  11  23  48  78 107 146 195 247 306 368 435
#
# _framework density 27.653704000000001
#
# number of rings (size 3 to 8) (size 9 to 14) (size 15 to 20)
#    0.000    0.800    6.000    1.200    2.800    3.200 
#    3.600    7.000    0.000    0.000    0.000    0.000 
#    0.000    0.000    0.000    0.000    0.000    0.000 
#
# Total GULP energy -112061.217777 kJ/mol
# GULP energy per Si atom -5603.060889 kJ/mol
# Density = 2.759076 g / cm^3
# Si number density = 27.653704 Si / 1000 Ang^3
#
#
#
# Elastic Constant Matrix: (Units=GPa)
#
#
# Indices 1 2 3 4 5 6 
#
# 1 156.6129 52.5237 34.7491 0.0000 12.8305 0.0000
# 2 52.5237 130.9911 67.1939 0.0000 22.0490 0.0000
# 3 34.7491 67.1939 241.5486 0.0000 28.1656 0.0000
# 4 0.0000 0.0000 0.0000 44.5496 0.0000 4.2034
# 5 12.8305 22.0490 28.1656 0.0000 50.3408 0.0000
# 6 0.0000 0.0000 0.0000 4.2034 0.0000 46.4983
#
#
#
# Elastic Compliance Matrix: (Units=1/GPa)
#
#
# Indices 1 2 3 4 5 6 
#
# 1 0.007407 -0.002757 -0.000235 0.000000 -0.000549 0.000000
# 2 -0.002757 0.010285 -0.002162 0.000000 -0.002592 0.000000
# 3 -0.000235 -0.002162 0.004983 0.000000 -0.001781 0.000000
# 4 0.000000 0.000000 0.000000 0.022640 0.000000 -0.002047
# 5 -0.000549 -0.002592 -0.001781 0.000000 0.022136 0.000000
# 6 0.000000 0.000000 0.000000 -0.002047 0.000000 0.021691
#
#
# Mechanical properties :
#
#
# Convention : Reuss Voigt Hill
#
# Bulk Modulus (GPa) = 80.86049 93.12066 86.99058
# Shear Modulus (GPa) = 48.27520 53.25679 50.76600
#
# Velocity S-wave (km/s) = 4.18270 4.39321 4.28924
# Velocity P-wave (km/s) = 7.25469 7.71237 7.48703
#
# Compressibility (1/GPa) = 0.01236698
#
# Stress axis : x y z
#
# Youngs Moduli (GPa) = 135.00950 97.22740 200.68819
#
# Poissons Ratio (x) = 0.26808 0.04707
# Poissons Ratio (y) = 0.37225 0.43393
# Poissons Ratio (z) = 0.03166 0.21022
#
# Static dielectric constant tensor:
#      x y z
#    x 2.268780 0.000000 0.004180 
#    y 0.000000 2.129540 0.000000 
#    z 0.004180 0.000000 2.160920 
# 
# From -- ./inp_files/33656.got.cif
#   From: 2010.05.17/outbox.cif.g08.bks.cpg/sg14_17_cif.got.tgz:33656.got - 2010.06.03 17:49:19.
