data_PCOD9251547
_publ_section_title
;
Structure prediction by ZEFSAII (Michael W. Deem and Ramdas Pophale) SiO2 
 PCOD9251547
Probable space group: P 21/C
;
_chemical_formula_sum "Si O2"
_cell_formula_units_Z 32
_cell_length_a 10.557611
_cell_length_b 8.820894
_cell_length_c 23.956968
_cell_angle_alpha 90.000000
_cell_angle_beta 43.244414
_cell_angle_gamma 90.000000
_cell_volume 1528.521919
_symmetry_space_group_name_H-M "P 21/C"
_symmetry_group_IT_number 14
_symmetry_cell_setting 'monoclinic'
loop_
_space_group_symop_operation_xyz
x,y,z
-x,1/2+y,1/2-z
-x,-y,-z
x,1/2-y,1/2+z
loop_
_atom_site_type_symbol
_atom_site_label
_atom_site_fract_x
_atom_site_fract_y
_atom_site_fract_z
Si Si1 0.393000 0.364219 0.869430
Si Si2 0.674708 0.343855 0.497137
Si Si3 0.764549 0.877993 0.698309
Si Si4 0.661477 0.680325 0.929275
Si Si5 0.830495 0.027400 0.468155
Si Si6 0.711440 0.583107 0.789590
Si Si7 0.416297 0.563640 0.651336
Si Si8 0.111909 0.026826 0.160158
O O1 0.320525 0.319109 0.832123
O O2 0.547216 0.494625 0.812252
O O3 0.493710 0.228008 0.869949
O O4 0.222222 0.429959 0.960629
O O5 0.522797 0.279410 0.501591
O O6 0.763665 0.199500 0.498052
O O7 0.564249 0.452840 0.574108
O O8 0.827274 0.433881 0.413906
O O9 0.772290 0.736958 0.738873
O O10 0.959834 0.956195 0.620372
O O11 0.637419 0.999651 0.770781
O O12 0.712091 0.553091 0.957054
O O13 0.637195 0.616100 0.875187
O O14 0.825553 0.801702 0.870691
O O15 0.895407 0.485005 0.738317
O O16 0.231300 0.543752 0.672876
#
# Coordination Sequence:
#
# PCOD9251547 Si02
#       8
#     4   4   4   4   4   4   4   4
#     4  12  27  45  69  93 137 186 226 266 333 401
#     4  11  21  41  67  97 138 165 210 278 346 397
#     4  12  25  48  66  94 135 183 230 276 317 403
#     4  11  23  40  66  99 136 169 212 277 349 394
#     4  12  24  43  70 102 132 176 225 281 334 395
#     4  12  25  42  67 100 133 171 225 273 338 393
#     4  11  24  44  69  98 135 177 221 276 340 396
#     4  11  23  39  66 101 131 166 211 284 335 396
#
# _framework density 20.935255999999999
#
# number of rings (size 3 to 8) (size 9 to 14) (size 15 to 20)
#    0.000    0.500    5.000    5.250    5.250    0.000 
#    0.000    0.625    0.000    0.000    0.000    0.000 
#    0.000    0.000    0.000    0.000    0.000    0.000 
#
# Total GULP energy -178972.103863 kJ/mol
# GULP energy per Si atom -5592.878246 kJ/mol
# Density = 2.088761 g / cm^3
# Si number density = 20.935256 Si / 1000 Ang^3
#
#
#
# Elastic Constant Matrix: (Units=GPa)
#
#
# Indices 1 2 3 4 5 6 
#
# 1 22.9734 3.9719 28.0577 0.0000 9.5003 0.0000
# 2 3.9719 70.6160 20.5368 0.0000 -5.3276 0.0000
# 3 28.0577 20.5368 93.0523 0.0000 -0.4812 0.0000
# 4 0.0000 0.0000 0.0000 30.8192 0.0000 4.2584
# 5 9.5003 -5.3276 -0.4812 0.0000 30.2295 0.0000
# 6 0.0000 0.0000 0.0000 4.2584 0.0000 20.9284
#
#
#
# Elastic Compliance Matrix: (Units=1/GPa)
#
#
# Indices 1 2 3 4 5 6 
#
# 1 0.087484 0.000744 -0.026687 0.000000 -0.027787 0.000000
# 2 0.000744 0.015348 -0.003599 0.000000 0.002414 0.000000
# 3 -0.026687 -0.003599 0.019629 0.000000 0.008065 0.000000
# 4 0.000000 0.000000 0.000000 0.033386 0.000000 -0.006793
# 5 -0.027787 0.002414 0.008065 0.000000 0.042367 0.000000
# 6 0.000000 0.000000 0.000000 -0.006793 0.000000 0.049164
#
#
# Mechanical properties :
#
#
# Convention : Reuss Voigt Hill
#
# Bulk Modulus (GPa) = 15.77842 32.41939 24.09891
# Shear Modulus (GPa) = 15.26309 25.33376 20.29842
#
# Velocity S-wave (km/s) = 2.70304 3.48242 3.11719
# Velocity P-wave (km/s) = 4.15873 5.62929 4.94894
#
# Compressibility (1/GPa) = 0.06337770
#
# Stress axis : x y z
#
# Youngs Moduli (GPa) = 11.43070 65.15464 50.94400
#
# Poissons Ratio (x) = -0.04847 1.35952
# Poissons Ratio (y) = -0.00850 0.18336
# Poissons Ratio (z) = 0.30505 0.23450
#
# Static dielectric constant tensor:
#      x y z
#    x 1.744290 0.000000 -0.005990 
#    y 0.000000 1.769180 0.000000 
#    z -0.005990 0.000000 1.741710 
# 
# From -- ./inp_files/73105.got.cif
#   From: 2010.05.17/outbox.cif.g08.bks.cpg/sg14_37_cif.got.tgz:73105.got - 2010.06.03 17:49:19.
