data_PCOD9251086
_publ_section_title
;
Structure prediction by ZEFSAII (Michael W. Deem and Ramdas Pophale) SiO2 
 PCOD9251086
Probable space group: P 21/C
;
_chemical_formula_sum "Si O2"
_cell_formula_units_Z 20
_cell_length_a 16.090569
_cell_length_b 5.042175
_cell_length_c 9.033151
_cell_angle_alpha 90.000000
_cell_angle_beta 91.468630
_cell_angle_gamma 90.000000
_cell_volume 732.632029
_symmetry_space_group_name_H-M "P 21/C"
_symmetry_group_IT_number 14
_symmetry_cell_setting 'monoclinic'
loop_
_space_group_symop_operation_xyz
x,y,z
-x,1/2+y,1/2-z
-x,-y,-z
x,1/2-y,1/2+z
loop_
_atom_site_type_symbol
_atom_site_label
_atom_site_fract_x
_atom_site_fract_y
_atom_site_fract_z
Si Si1 0.292205 0.807364 0.235342
Si Si2 0.443761 0.363241 0.775118
Si Si3 0.322348 0.103875 0.513963
Si Si4 0.055856 0.029538 0.763963
Si Si5 0.839804 0.594255 0.444884
O O1 0.362044 0.023410 0.184558
O O2 0.301098 0.840130 0.410373
O O3 0.202017 0.889593 0.172420
O O4 0.319433 0.526286 0.175323
O O5 0.505398 0.612868 0.777543
O O6 0.406220 0.308156 0.935967
O O7 0.241008 0.276180 0.482846
O O8 0.112884 0.176667 0.644793
O O9 0.984842 0.254024 0.788451
O O10 0.103773 0.987051 0.920508
#
# Coordination Sequence:
#
# PCOD9251086 Si02
#       5
#     4   4   4   4   4
#     4  10  26  44  74 105 143 202 248 298 370 430
#     4  10  25  47  70 108 150 194 248 316 361 426
#     4  10  26  44  74 105 143 202 248 298 370 430
#     4  12  29  49  76 112 146 192 238 304 379 434
#     4  12  26  48  74 104 156 186 252 298 358 464
#
# _framework density 27.298835
#
# number of rings (size 3 to 8) (size 9 to 14) (size 15 to 20)
#    1.200    0.000    2.000    1.200   14.000    1.600 
#    0.000    0.000    0.000    0.000    0.000    0.000 
#    0.000    0.000    0.000    0.000    0.000    0.000 
#
# Total GULP energy -112088.776257 kJ/mol
# GULP energy per Si atom -5604.438813 kJ/mol
# Density = 2.723670 g / cm^3
# Si number density = 27.298835 Si / 1000 Ang^3
#
#
#
# Elastic Constant Matrix: (Units=GPa)
#
#
# Indices 1 2 3 4 5 6 
#
# 1 155.5287 22.9337 25.5282 0.0000 -3.4981 0.0000
# 2 22.9337 87.2943 -14.6585 0.0000 -12.3591 0.0000
# 3 25.5282 -14.6585 81.1418 0.0000 -3.8213 0.0000
# 4 0.0000 0.0000 0.0000 38.1766 0.0000 -7.8782
# 5 -3.4981 -12.3591 -3.8213 0.0000 55.8104 0.0000
# 6 0.0000 0.0000 0.0000 -7.8782 0.0000 40.8507
#
#
#
# Elastic Compliance Matrix: (Units=1/GPa)
#
#
# Indices 1 2 3 4 5 6 
#
# 1 0.007222 -0.002391 -0.002716 0.000000 -0.000263 0.000000
# 2 -0.002391 0.013049 0.003249 0.000000 0.002962 0.000000
# 3 -0.002716 0.003249 0.013836 0.000000 0.001497 0.000000
# 4 0.000000 0.000000 0.000000 0.027280 0.000000 0.005261
# 5 -0.000263 0.002962 0.001497 0.000000 0.018660 0.000000
# 6 0.000000 0.000000 0.000000 0.005261 0.000000 0.025494
#
#
# Mechanical properties :
#
#
# Convention : Reuss Voigt Hill
#
# Bulk Modulus (GPa) = 32.90524 43.50796 38.20660
# Shear Modulus (GPa) = 41.88061 46.31163 44.09612
#
# Velocity S-wave (km/s) = 3.92108 4.12329 4.02345
# Velocity P-wave (km/s) = 5.70786 6.21619 5.96744
#
# Compressibility (1/GPa) = 0.03039030
#
# Stress axis : x y z
#
# Youngs Moduli (GPa) = 138.46247 76.63701 72.27445
#
# Poissons Ratio (x) = 0.18322 0.19633
# Poissons Ratio (y) = 0.33103 -0.23481
# Poissons Ratio (z) = 0.37613 -0.24899
#
# Static dielectric constant tensor:
#      x y z
#    x 2.158580 0.000000 0.088850 
#    y 0.000000 2.135060 0.000000 
#    z 0.088850 0.000000 2.390040 
# 
# From -- ./inp_files/18409.got.cif
#   From: 2010.05.17/outbox.cif.g08.bks.cpg/sg14_10_cif.got.tgz:18409.got - 2010.06.03 17:49:19.
