data_PCOD9251553
_publ_section_title
;
Structure prediction by ZEFSAII (Michael W. Deem and Ramdas Pophale) SiO2 
 PCOD9251553
Probable space group: P 21/C
;
_chemical_formula_sum "Si O2"
_cell_formula_units_Z 20
_cell_length_a 8.178487
_cell_length_b 11.802423
_cell_length_c 11.156988
_cell_angle_alpha 90.000000
_cell_angle_beta 57.836470
_cell_angle_gamma 90.000000
_cell_volume 911.663531
_symmetry_space_group_name_H-M "P 21/C"
_symmetry_group_IT_number 14
_symmetry_cell_setting 'monoclinic'
loop_
_space_group_symop_operation_xyz
x,y,z
-x,1/2+y,1/2-z
-x,-y,-z
x,1/2-y,1/2+z
loop_
_atom_site_type_symbol
_atom_site_label
_atom_site_fract_x
_atom_site_fract_y
_atom_site_fract_z
Si Si1 0.656210 0.908288 0.270417
Si Si2 0.086434 0.220388 0.221593
Si Si3 0.705551 0.280897 0.984548
Si Si4 0.446339 0.379672 0.467469
Si Si5 0.865884 0.104469 0.106371
O O1 0.836276 0.840578 0.260114
O O2 0.454936 0.869078 0.408147
O O3 0.716753 0.039060 0.251568
O O4 0.629419 0.883992 0.138798
O O5 0.286389 0.157111 0.126647
O O6 0.920604 0.175020 0.374204
O O7 0.991311 0.196909 0.129196
O O8 0.615917 0.213105 0.906677
O O9 0.743365 0.175768 0.059912
O O10 0.500000 0.500000 0.500000
O O11 0.000000 0.000000 0.000000
#
# Coordination Sequence:
#
# PCOD9251553 Si02
#       5
#     4   4   4   4   4
#     4  11  24  41  67 100 136 177 222 278 334 404
#     4  11  23  39  67 101 130 173 230 279 321 400
#     4  11  23  40  67 101 132 170 228 284 319 398
#     4  11  21  41  69  92 128 181 223 258 345 403
#     4  12  21  44  72  92 135 186 221 263 352 402
#
# _framework density 21.937919000000001
#
# number of rings (size 3 to 8) (size 9 to 14) (size 15 to 20)
#    0.000    0.800    6.000    1.200    0.000    0.800 
#    0.000    1.000    0.000    0.000    0.000    0.000 
#    0.000    0.000    0.000    0.000    0.000    0.000 
#
# Total GULP energy -111420.103276 kJ/mol
# GULP energy per Si atom -5571.005164 kJ/mol
# Density = 2.188799 g / cm^3
# Si number density = 21.937919 Si / 1000 Ang^3
#
#
#
# Elastic Constant Matrix: (Units=GPa)
#
#
# Indices 1 2 3 4 5 6 
#
# 1 80.6729 26.7542 6.0065 0.0000 12.5912 0.0000
# 2 26.7542 47.3820 12.0001 0.0000 11.4997 0.0000
# 3 6.0065 12.0001 67.0610 0.0000 -16.2052 0.0000
# 4 0.0000 0.0000 0.0000 32.6590 0.0000 6.4335
# 5 12.5912 11.4997 -16.2052 0.0000 48.0456 0.0000
# 6 0.0000 0.0000 0.0000 6.4335 0.0000 37.3001
#
#
#
# Elastic Compliance Matrix: (Units=1/GPa)
#
#
# Indices 1 2 3 4 5 6 
#
# 1 0.015459 -0.008046 -0.000499 0.000000 -0.002294 0.000000
# 2 -0.008046 0.028857 -0.006100 0.000000 -0.006856 0.000000
# 3 -0.000499 -0.006100 0.017891 0.000000 0.007625 0.000000
# 4 0.000000 0.000000 0.000000 0.031696 0.000000 -0.005467
# 5 -0.002294 -0.006856 0.007625 0.000000 0.025628 0.000000
# 6 0.000000 0.000000 0.000000 -0.005467 0.000000 0.027752
#
#
# Mechanical properties :
#
#
# Convention : Reuss Voigt Hill
#
# Bulk Modulus (GPa) = 30.37942 31.62639 31.00290
# Shear Modulus (GPa) = 26.66022 33.62461 30.14241
#
# Velocity S-wave (km/s) = 3.48984 3.91924 3.71075
# Velocity P-wave (km/s) = 5.48786 5.91001 5.70284
#
# Compressibility (1/GPa) = 0.03291703
#
# Stress axis : x y z
#
# Youngs Moduli (GPa) = 64.68613 34.65374 55.89514
#
# Poissons Ratio (x) = 0.27882 0.02790
# Poissons Ratio (y) = 0.52046 0.34095
# Poissons Ratio (z) = 0.03229 0.21138
#
# Static dielectric constant tensor:
#      x y z
#    x 2.013690 0.000000 0.011990 
#    y 0.000000 1.865460 0.000000 
#    z 0.011990 0.000000 1.874360 
# 
# From -- ./inp_files/23752.got.cif
#   From: 2010.05.17/outbox.cif.g08.bks.cpg/sg14_12_cif.got.tgz:23752.got - 2010.06.03 17:49:19.
