data_PCOD9251320
_publ_section_title
;
Structure prediction by ZEFSAII (Michael W. Deem and Ramdas Pophale) SiO2 
 PCOD9251320
Probable space group: P 21/C
;
_chemical_formula_sum "Si O2"
_cell_formula_units_Z 32
_cell_length_a 23.408204
_cell_length_b 11.310442
_cell_length_c 28.546778
_cell_angle_alpha 90.000000
_cell_angle_beta 167.772418
_cell_angle_gamma 90.000000
_cell_volume 1600.741042
_symmetry_space_group_name_H-M "P 21/C"
_symmetry_group_IT_number 14
_symmetry_cell_setting 'monoclinic'
loop_
_space_group_symop_operation_xyz
x,y,z
-x,1/2+y,1/2-z
-x,-y,-z
x,1/2-y,1/2+z
loop_
_atom_site_type_symbol
_atom_site_label
_atom_site_fract_x
_atom_site_fract_y
_atom_site_fract_z
Si Si1 0.489395 0.558923 0.315839
Si Si2 0.517919 0.568586 0.943274
Si Si3 0.739321 0.815169 0.768647
Si Si4 0.880389 0.474872 0.551550
Si Si5 0.062294 0.955680 0.651306
Si Si6 0.976663 0.184371 0.904100
Si Si7 0.469435 0.445954 0.402283
Si Si8 0.670573 0.176259 0.803423
O O1 0.740629 0.514200 0.487329
O O2 0.474875 0.494891 0.354334
O O3 0.480110 0.699336 0.314953
O O4 0.217415 0.523778 0.070377
O O5 0.418241 0.433870 0.871508
O O6 0.461920 0.599448 0.844145
O O7 0.322871 0.652276 0.817444
O O8 0.828340 0.581917 0.205113
O O9 0.571417 0.695318 0.629000
O O10 0.834782 0.826603 0.899008
O O11 0.017207 0.805346 0.962221
O O12 0.934235 0.589143 0.562471
O O13 0.690337 0.388982 0.368845
O O14 0.011879 0.816391 0.605833
O O15 0.221064 0.997423 0.731896
O O16 0.260648 0.979157 0.853448
#
# Coordination Sequence:
#
# PCOD9251320 Si02
#       8
#     4   4   4   4   4   4   4   4
#     4  12  27  45  63  97 142 175 210 266 335 403
#     4  11  23  43  69  99 129 167 229 280 314 379
#     4  11  19  41  74  97 130 165 220 288 316 371
#     4  12  27  43  66  97 135 180 213 266 331 401
#     4  11  24  41  73  97 129 171 221 279 318 389
#     4  11  21  41  71  99 126 173 223 272 330 372
#     4  11  23  42  68 102 126 171 223 269 331 377
#     4  11  24  44  68  97 130 172 220 274 329 378
#
# _framework density 19.990742000000001
#
# number of rings (size 3 to 8) (size 9 to 14) (size 15 to 20)
#    0.000    0.750    5.000    3.750    3.500    2.000 
#    2.250    0.000    0.000    0.000    0.000    0.000 
#    0.000    0.000    0.000    0.000    0.000    0.000 
#
# Total GULP energy -179102.170285 kJ/mol
# GULP energy per Si atom -5596.942821 kJ/mol
# Density = 1.994524 g / cm^3
# Si number density = 19.990742 Si / 1000 Ang^3
#
#
#
# Elastic Constant Matrix: (Units=GPa)
#
#
# Indices 1 2 3 4 5 6 
#
# 1 56.3677 2.5909 15.2659 0.0000 -7.7728 0.0000
# 2 2.5909 72.7012 -22.5473 0.0000 -0.9165 0.0000
# 3 15.2659 -22.5473 35.7087 0.0000 -5.6751 0.0000
# 4 0.0000 0.0000 0.0000 8.0343 0.0000 -6.5078
# 5 -7.7728 -0.9165 -5.6751 0.0000 15.2475 0.0000
# 6 0.0000 0.0000 0.0000 -6.5078 0.0000 6.6358
#
#
#
# Elastic Compliance Matrix: (Units=1/GPa)
#
#
# Indices 1 2 3 4 5 6 
#
# 1 0.021788 -0.004030 -0.010770 0.000000 0.006856 0.000000
# 2 -0.004030 0.018273 0.013933 0.000000 0.004230 0.000000
# 3 -0.010770 0.013933 0.043224 0.000000 0.011435 0.000000
# 4 0.000000 0.000000 0.000000 0.605341 0.000000 0.593665
# 5 0.006856 0.004230 0.011435 0.000000 0.073590 0.000000
# 6 0.000000 0.000000 0.000000 0.593665 0.000000 0.732912
#
#
# Mechanical properties :
#
#
# Convention : Reuss Voigt Hill
#
# Bulk Modulus (GPa) = 12.26221 17.26632 14.76427
# Shear Modulus (GPa) = 3.28074 17.28139 10.28107
#
# Velocity S-wave (km/s) = 1.28246 2.94338 2.27026
# Velocity P-wave (km/s) = 2.88794 4.49524 3.77805
#
# Compressibility (1/GPa) = 0.08155137
#
# Stress axis : x y z
#
# Youngs Moduli (GPa) = 45.89669 54.72542 23.13547
#
# Poissons Ratio (x) = 0.22055 0.24916
# Poissons Ratio (y) = 0.18497 -0.32235
# Poissons Ratio (z) = 0.49430 -0.76250
#
# Static dielectric constant tensor:
#      x y z
#    x 1.691460 0.000000 -0.016230 
#    y 0.000000 1.684900 0.000000 
#    z -0.016230 0.000000 1.684280 
# 
# From -- ./inp_files/80687.got.cif
#   From: 2010.05.17/outbox.cif.g08.bks.cpg/sg14_41_cif.got.tgz:80687.got - 2010.06.03 17:49:19.
