data_PCOD9251101
_publ_section_title
;
Structure prediction by ZEFSAII (Michael W. Deem and Ramdas Pophale) SiO2 
 PCOD9251101
Probable space group: P 21/C
;
_chemical_formula_sum "Si O2"
_cell_formula_units_Z 28
_cell_length_a 11.365163
_cell_length_b 10.194963
_cell_length_c 10.880070
_cell_angle_alpha 90.000000
_cell_angle_beta 115.260162
_cell_angle_gamma 90.000000
_cell_volume 1140.102005
_symmetry_space_group_name_H-M "P 21/C"
_symmetry_group_IT_number 14
_symmetry_cell_setting 'monoclinic'
loop_
_space_group_symop_operation_xyz
x,y,z
-x,1/2+y,1/2-z
-x,-y,-z
x,1/2-y,1/2+z
loop_
_atom_site_type_symbol
_atom_site_label
_atom_site_fract_x
_atom_site_fract_y
_atom_site_fract_z
Si Si1 0.802661 0.389667 0.090518
Si Si2 0.944264 0.509397 0.659993
Si Si3 0.577040 0.300698 0.540264
Si Si4 0.641195 0.601453 0.146413
Si Si5 0.191575 0.025757 0.645510
Si Si6 0.888402 0.690559 0.409760
Si Si7 0.512666 0.996617 0.201156
O O1 0.928111 0.415678 0.229956
O O2 0.707809 0.513196 0.073878
O O3 0.716290 0.266951 0.090294
O O4 0.828875 0.406245 0.957831
O O5 0.993768 0.375855 0.615832
O O6 0.881466 0.604388 0.530219
O O7 0.854160 0.491271 0.737779
O O8 0.463683 0.200408 0.453217
O O9 0.567120 0.416556 0.435690
O O10 0.543509 0.360088 0.657896
O O11 0.760024 0.668200 0.271046
O O12 0.567620 0.509323 0.211092
O O13 0.111827 0.154380 0.566474
O O14 0.344065 0.061059 0.717734
#
# Coordination Sequence:
#
# PCOD9251101 Si02
#       7
#     4   4   4   4   4   4   4
#     4  11  26  47  74 107 146 191 242 308 367 433
#     4  10  26  50  68 109 141 200 245 298 374 428
#     4  11  25  45  68 108 150 183 241 297 360 445
#     4  11  24  44  74 105 147 187 238 298 372 431
#     4  12  25  46  77 110 142 193 248 300 371 440
#     4  10  25  47  76 101 150 189 244 307 357 450
#     4  11  27  43  72 111 143 197 238 295 371 430
#
# _framework density 24.559207000000001
#
# number of rings (size 3 to 8) (size 9 to 14) (size 15 to 20)
#    0.000    1.143    2.857    0.857   12.000    1.143 
#    7.714    0.000    0.000    0.000    0.000    0.000 
#    0.000    0.000    0.000    0.000    0.000    0.000 
#
# Total GULP energy -157002.715600 kJ/mol
# GULP energy per Si atom -5607.239843 kJ/mol
# Density = 2.450331 g / cm^3
# Si number density = 24.559207 Si / 1000 Ang^3
#
#
#
# Elastic Constant Matrix: (Units=GPa)
#
#
# Indices 1 2 3 4 5 6 
#
# 1 95.8699 3.1636 10.6472 0.0000 -15.4388 0.0000
# 2 3.1636 56.2337 8.9563 0.0000 5.2970 0.0000
# 3 10.6472 8.9563 63.9268 0.0000 -14.4096 0.0000
# 4 0.0000 0.0000 0.0000 35.5843 0.0000 12.8880
# 5 -15.4388 5.2970 -14.4096 0.0000 38.2046 0.0000
# 6 0.0000 0.0000 0.0000 12.8880 0.0000 4.2759
#
#
#
# Elastic Compliance Matrix: (Units=1/GPa)
#
#
# Indices 1 2 3 4 5 6 
#
# 1 0.011252 -0.000926 -0.000755 0.000000 0.004391 0.000000
# 2 -0.000926 0.018786 -0.003442 0.000000 -0.004277 0.000000
# 3 -0.000755 -0.003442 0.017803 0.000000 0.006887 0.000000
# 4 0.000000 0.000000 0.000000 -0.306658 0.000000 0.924290
# 5 0.004391 -0.004277 0.006887 0.000000 0.031140 0.000000
# 6 0.000000 0.000000 0.000000 0.924290 0.000000 -2.552011
#
#
# Mechanical properties :
#
#
# Convention : Reuss Voigt Hill
#
# Bulk Modulus (GPa) = 26.59858 29.06272 27.83065
# Shear Modulus (GPa) = -1.81362 28.49718 13.34178
#
# Velocity S-wave (km/s) = -0.86028 3.41008 2.33330
# Velocity P-wave (km/s) = 3.14120 5.23109 4.31459
#
# Compressibility (1/GPa) = 0.03759600
#
# Stress axis : x y z
#
# Youngs Moduli (GPa) = 88.87076 53.23081 56.16982
#
# Poissons Ratio (x) = 0.04932 0.04238
# Poissons Ratio (y) = 0.08234 0.19332
# Poissons Ratio (z) = 0.06706 0.18321
#
# Static dielectric constant tensor:
#      x y z
#    x 1.921870 0.000000 0.013160 
#    y 0.000000 1.973070 0.000000 
#    z 0.013160 0.000000 1.902430 
# 
# From -- ./inp_files/33835.got.cif
#   From: 2010.05.17/outbox.cif.g08.bks.cpg/sg14_17_cif.got.tgz:33835.got - 2010.06.03 17:49:19.
