data_PCOD9251966
_publ_section_title
;
Structure prediction by ZEFSAII (Michael W. Deem and Ramdas Pophale) SiO2 
 PCOD9251966
Probable space group: P 21/C
;
_chemical_formula_sum "Si O2"
_cell_formula_units_Z 20
_cell_length_a 7.562452
_cell_length_b 20.452341
_cell_length_c 8.494459
_cell_angle_alpha 90.000000
_cell_angle_beta 144.202062
_cell_angle_gamma 90.000000
_cell_volume 768.500496
_symmetry_space_group_name_H-M "P 21/C"
_symmetry_group_IT_number 14
_symmetry_cell_setting 'monoclinic'
loop_
_space_group_symop_operation_xyz
x,y,z
-x,1/2+y,1/2-z
-x,-y,-z
x,1/2-y,1/2+z
loop_
_atom_site_type_symbol
_atom_site_label
_atom_site_fract_x
_atom_site_fract_y
_atom_site_fract_z
Si Si1 0.694293 0.877633 0.821443
Si Si2 0.092229 0.234369 0.594991
Si Si3 0.719516 0.311871 0.559908
Si Si4 0.655270 0.479372 0.773526
Si Si5 0.653125 0.082724 0.740136
O O1 0.815974 0.803869 0.916049
O O2 0.550049 0.885311 0.542835
O O3 0.439269 0.905122 0.754507
O O4 0.999403 0.921243 0.066647
O O5 0.831179 0.252398 0.528233
O O6 0.974001 0.185996 0.375705
O O7 0.392825 0.206372 0.888958
O O8 0.685328 0.372740 0.419836
O O9 0.500000 0.500000 0.500000
O O10 0.514039 0.518335 0.819811
O O11 0.000000 0.500000 0.000000
#
# Coordination Sequence:
#
# PCOD9251966 Si02
#       5
#     4   4   4   4   4
#     4  11  23  44  67  91 130 181 218 256 322 404
#     4  11  23  40  63  93 126 168 215 262 317 379
#     4  11  23  40  63  93 126 168 215 262 317 379
#     4  12  26  42  66 104 132 164 218 280 330 372
#     4  11  23  44  67  91 130 181 218 256 322 404
#
# _framework density 26.024705000000001
#
# number of rings (size 3 to 8) (size 9 to 14) (size 15 to 20)
#    0.000    0.800    0.000    9.600    0.000    4.800 
#    0.000    0.000    0.000    0.000    0.000    0.000 
#    0.000    0.000    0.000    0.000    0.000    0.000 
#
# Total GULP energy -112134.552891 kJ/mol
# GULP energy per Si atom -5606.727645 kJ/mol
# Density = 2.596547 g / cm^3
# Si number density = 26.024705 Si / 1000 Ang^3
#
#
#
# Elastic Constant Matrix: (Units=GPa)
#
#
# Indices 1 2 3 4 5 6 
#
# 1 91.0334 28.6861 48.0462 0.0000 14.9340 0.0000
# 2 28.6861 83.3079 27.5707 0.0000 2.4180 0.0000
# 3 48.0462 27.5707 172.1247 0.0000 15.0461 0.0000
# 4 0.0000 0.0000 0.0000 32.5561 0.0000 0.6908
# 5 14.9340 2.4180 15.0461 0.0000 53.6841 0.0000
# 6 0.0000 0.0000 0.0000 0.6908 0.0000 54.3100
#
#
#
# Elastic Compliance Matrix: (Units=1/GPa)
#
#
# Indices 1 2 3 4 5 6 
#
# 1 0.014319 -0.003809 -0.003130 0.000000 -0.002934 0.000000
# 2 -0.003809 0.013689 -0.001197 0.000000 0.000779 0.000000
# 3 -0.003130 -0.001197 0.006965 0.000000 -0.001027 0.000000
# 4 0.000000 0.000000 0.000000 0.030725 0.000000 -0.000391
# 5 -0.002934 0.000779 -0.001027 0.000000 0.019697 0.000000
# 6 0.000000 0.000000 0.000000 -0.000391 0.000000 0.018418
#
#
# Mechanical properties :
#
#
# Convention : Reuss Voigt Hill
#
# Bulk Modulus (GPa) = 53.47902 61.67468 57.57685
# Shear Modulus (GPa) = 39.58230 44.25425 41.91827
#
# Velocity S-wave (km/s) = 3.90417 4.12815 4.01772
# Velocity P-wave (km/s) = 6.39666 6.81705 6.61020
#
# Compressibility (1/GPa) = 0.01869892
#
# Stress axis : x y z
#
# Youngs Moduli (GPa) = 69.83797 73.05091 143.57278
#
# Poissons Ratio (x) = 0.27828 0.44941
# Poissons Ratio (y) = 0.26604 0.17192
# Poissons Ratio (z) = 0.21861 0.08747
#
# Static dielectric constant tensor:
#      x y z
#    x 2.037950 0.000000 0.001010 
#    y 0.000000 2.122130 0.000000 
#    z 0.001010 0.000000 1.933230 
# 
# From -- ./inp_files/10766.got.cif
#   From: 2010.05.17/outbox.cif.g08.bks.cpg/sg14_6_cif.got.tgz:10766.got - 2010.06.03 17:49:19.
