data_PCOD9251178
_publ_section_title
;
Structure prediction by ZEFSAII (Michael W. Deem and Ramdas Pophale) SiO2 
 PCOD9251178
Probable space group: P 21/C
;
_chemical_formula_sum "Si O2"
_cell_formula_units_Z 30
_cell_length_a 14.013657
_cell_length_b 12.068991
_cell_length_c 8.990793
_cell_angle_alpha 90.000000
_cell_angle_beta 118.445627
_cell_angle_gamma 90.000000
_cell_volume 1337.034062
_symmetry_space_group_name_H-M "P 21/C"
_symmetry_group_IT_number 14
_symmetry_cell_setting 'monoclinic'
loop_
_space_group_symop_operation_xyz
x,y,z
-x,1/2+y,1/2-z
-x,-y,-z
x,1/2-y,1/2+z
loop_
_atom_site_type_symbol
_atom_site_label
_atom_site_fract_x
_atom_site_fract_y
_atom_site_fract_z
Si Si1 0.981579 0.559764 0.142737
Si Si2 0.502355 0.132532 0.502546
Si Si3 0.853357 0.190226 0.069760
Si Si4 0.047730 0.627717 0.663744
Si Si5 0.833693 0.759358 0.929189
Si Si6 0.678974 0.693406 0.561922
Si Si7 0.500000 0.500000 0.500000
Si Si8 0.602879 0.199426 0.877372
O O1 0.939555 0.489335 0.250357
O O2 0.100393 0.597904 0.285330
O O3 0.895889 0.657421 0.053677
O O4 0.000000 0.500000 0.000000
O O5 0.392305 0.194917 0.468454
O O6 0.585174 0.171901 0.692000
O O7 0.540919 0.187299 0.376649
O O8 0.500000 0.000000 0.500000
O O9 0.926695 0.293204 0.176247
O O10 0.874552 0.157688 0.915215
O O11 0.728768 0.214625 0.002471
O O12 0.928005 0.648890 0.508078
O O13 0.785968 0.709007 0.742779
O O14 0.728205 0.805906 0.934283
O O15 0.604977 0.587102 0.543505
O O16 0.445105 0.598350 0.562064
#
# Coordination Sequence:
#
# PCOD9251178 Si02
#       8
#     4   4   4   4   4   4   2   4
#     4  11  24  42  67 107 146 189 237 293 358 459
#     4  11  27  47  71 106 143 188 260 316 374 453
#     4  11  24  43  67 101 138 186 228 295 361 432
#     4  11  23  44  66 105 148 178 243 293 355 459
#     4  11  24  42  71 101 139 190 234 296 370 445
#     4  11  24  46  68 104 137 191 246 302 379 436
#     4  10  26  44  72  98 138 182 252 310 366 444
#     4  11  26  47  73 102 144 195 247 314 385 441
#
# _framework density 22.437725
#
# number of rings (size 3 to 8) (size 9 to 14) (size 15 to 20)
#    0.000    1.067    0.000    6.800    9.333    2.133 
#    2.400    0.000    0.000    0.000    0.000    0.000 
#    0.000    0.000    0.000    0.000    0.000    0.000 
#
# Total GULP energy -167156.560358 kJ/mol
# GULP energy per Si atom -5571.885345 kJ/mol
# Density = 2.238666 g / cm^3
# Si number density = 22.437725 Si / 1000 Ang^3
#
#
#
# Elastic Constant Matrix: (Units=GPa)
#
#
# Indices 1 2 3 4 5 6 
#
# 1 92.9198 2.8569 0.9670 0.0000 -3.7718 0.0000
# 2 2.8569 86.4905 34.8579 0.0000 -14.5587 0.0000
# 3 0.9670 34.8579 88.9482 0.0000 4.7790 0.0000
# 4 0.0000 0.0000 0.0000 26.5500 0.0000 -5.3153
# 5 -3.7718 -14.5587 4.7790 0.0000 27.7693 0.0000
# 6 0.0000 0.0000 0.0000 -5.3153 0.0000 24.7809
#
#
#
# Elastic Compliance Matrix: (Units=1/GPa)
#
#
# Indices 1 2 3 4 5 6 
#
# 1 0.010825 -0.000033 -0.000184 0.000000 0.001485 0.000000
# 2 -0.000033 0.015869 -0.006727 0.000000 0.009473 0.000000
# 3 -0.000184 -0.006727 0.014203 0.000000 -0.005996 0.000000
# 4 0.000000 0.000000 0.000000 0.039355 0.000000 0.008441
# 5 0.001485 0.009473 -0.005996 0.000000 0.042211 0.000000
# 6 0.000000 0.000000 0.000000 0.008441 0.000000 0.042164
#
#
# Mechanical properties :
#
#
# Convention : Reuss Voigt Hill
#
# Bulk Modulus (GPa) = 37.02773 38.41357 37.72065
# Shear Modulus (GPa) = 26.66385 31.13181 28.89783
#
# Velocity S-wave (km/s) = 3.45098 3.72893 3.59264
# Velocity P-wave (km/s) = 5.69362 5.97470 5.83586
#
# Compressibility (1/GPa) = 0.02700679
#
# Stress axis : x y z
#
# Youngs Moduli (GPa) = 92.37726 63.01610 70.40713
#
# Poissons Ratio (x) = 0.00210 0.01298
# Poissons Ratio (y) = 0.00308 0.47366
# Poissons Ratio (z) = 0.01703 0.42394
#
# Static dielectric constant tensor:
#      x y z
#    x 1.716180 0.000000 -0.011510 
#    y 0.000000 1.877180 0.000000 
#    z -0.011510 0.000000 1.886440 
# 
# From -- ./inp_files/15913.got.cif
#   From: 2010.05.17/outbox.cif.g08.bks.cpg/sg14_8_cif.got.tgz:15913.got - 2010.06.03 17:49:19.
