data_PCOD9251222
_publ_section_title
;
Structure prediction by ZEFSAII (Michael W. Deem and Ramdas Pophale) SiO2 
 PCOD9251222
Probable space group: P 21/C
;
_chemical_formula_sum "Si O2"
_cell_formula_units_Z 30
_cell_length_a 16.389202
_cell_length_b 4.823036
_cell_length_c 13.853332
_cell_angle_alpha 90.000000
_cell_angle_beta 108.960152
_cell_angle_gamma 90.000000
_cell_volume 1035.634485
_symmetry_space_group_name_H-M "P 21/C"
_symmetry_group_IT_number 14
_symmetry_cell_setting 'monoclinic'
loop_
_space_group_symop_operation_xyz
x,y,z
-x,1/2+y,1/2-z
-x,-y,-z
x,1/2-y,1/2+z
loop_
_atom_site_type_symbol
_atom_site_label
_atom_site_fract_x
_atom_site_fract_y
_atom_site_fract_z
Si Si1 0.973798 0.098368 0.699202
Si Si2 0.849365 0.531450 0.438172
Si Si3 0.665713 0.083436 0.048964
Si Si4 0.191140 0.507420 0.953677
Si Si5 0.000000 0.000000 0.500000
Si Si6 0.706201 0.763532 0.249859
Si Si7 0.455507 0.643593 0.854647
Si Si8 0.608394 0.347758 0.858075
O O1 0.874442 0.022672 0.658678
O O2 0.981732 0.424610 0.700912
O O3 0.012292 0.958806 0.619237
O O4 0.856338 0.212908 0.481484
O O5 0.786309 0.584166 0.322928
O O6 0.936111 0.709686 0.467026
O O7 0.800590 0.698823 0.505030
O O8 0.721176 0.359633 0.045955
O O9 0.580907 0.150432 0.079060
O O10 0.719587 0.915823 0.151765
O O11 0.634535 0.064719 0.924189
O O12 0.622772 0.573946 0.195261
O O13 0.683148 0.989402 0.326446
O O14 0.549051 0.518771 0.909974
O O15 0.458001 0.798524 0.753989
#
# Coordination Sequence:
#
# PCOD9251222 Si02
#       8
#     4   4   4   4   2   4   4   4
#     4  11  25  45  74 109 147 194 248 313 376 449
#     4  11  25  47  75 103 146 196 239 308 371 447
#     4  11  26  41  68 102 139 187 245 300 368 446
#     4  11  25  47  72 105 148 190 244 300 381 435
#     4  10  26  48  74 110 148 198 252 306 384 450
#     4  11  25  42  68 102 136 197 240 302 376 442
#     4  11  24  42  70 100 136 193 247 297 383 435
#     4  11  22  46  65  98 144 183 242 309 361 448
#
# _framework density 28.967748
#
# number of rings (size 3 to 8) (size 9 to 14) (size 15 to 20)
#    0.000    1.067    2.667    2.800    5.600    7.467 
#    0.000    0.000    0.000    0.000    0.000    0.000 
#    0.000    0.000    0.000    0.000    0.000    0.000 
#
# Total GULP energy -167251.050900 kJ/mol
# GULP energy per Si atom -5575.035030 kJ/mol
# Density = 2.890182 g / cm^3
# Si number density = 28.967748 Si / 1000 Ang^3
#
#
#
# Elastic Constant Matrix: (Units=GPa)
#
#
# Indices 1 2 3 4 5 6 
#
# 1 53.2964 1.9537 13.9351 0.0000 -7.5589 0.0000
# 2 1.9537 119.5091 32.4454 0.0000 -3.0089 0.0000
# 3 13.9351 32.4454 119.9679 0.0000 -16.1241 0.0000
# 4 0.0000 0.0000 0.0000 46.6880 0.0000 5.9913
# 5 -7.5589 -3.0089 -16.1241 0.0000 55.3762 0.0000
# 6 0.0000 0.0000 0.0000 5.9913 0.0000 52.3853
#
#
#
# Elastic Compliance Matrix: (Units=1/GPa)
#
#
# Indices 1 2 3 4 5 6 
#
# 1 0.019591 0.000296 -0.002075 0.000000 0.002086 0.000000
# 2 0.000296 0.009038 -0.002505 0.000000 -0.000198 0.000000
# 3 -0.002075 -0.002505 0.009572 0.000000 0.002368 0.000000
# 4 0.000000 0.000000 0.000000 0.021738 0.000000 -0.002486
# 5 0.002086 -0.000198 0.002368 0.000000 0.019022 0.000000
# 6 0.000000 0.000000 0.000000 -0.002486 0.000000 0.019374
#
#
# Mechanical properties :
#
#
# Convention : Reuss Voigt Hill
#
# Bulk Modulus (GPa) = 33.74810 43.27131 38.50970
# Shear Modulus (GPa) = 42.81525 47.18584 45.00054
#
# Velocity S-wave (km/s) = 3.84869 4.04035 3.94568
# Velocity P-wave (km/s) = 5.60584 6.06103 5.83787
#
# Compressibility (1/GPa) = 0.02963130
#
# Stress axis : x y z
#
# Youngs Moduli (GPa) = 51.04491 110.64520 104.46694
#
# Poissons Ratio (x) = -0.03271 0.21679
# Poissons Ratio (y) = -0.01509 0.26172
# Poissons Ratio (z) = 0.10593 0.27720
#
# Static dielectric constant tensor:
#      x y z
#    x 0.380280 0.000000 0.577130 
#    y 0.000000 0.728620 0.000000 
#    z 0.577130 0.000000 2.357310 
# 
# From -- ./inp_files/48193.got.cif
#   From: 2010.05.17/outbox.cif.g08.bks.cpg/sg14_25_cif.got.tgz:48193.got - 2010.06.03 17:49:19.
