data_PCOD9251736
_publ_section_title
;
Structure prediction by ZEFSAII (Michael W. Deem and Ramdas Pophale) SiO2 
 PCOD9251736
Probable space group: P 21/C
;
_chemical_formula_sum "Si O2"
_cell_formula_units_Z 22
_cell_length_a 7.772804
_cell_length_b 16.824782
_cell_length_c 8.818620
_cell_angle_alpha 90.000000
_cell_angle_beta 127.166403
_cell_angle_gamma 90.000000
_cell_volume 919.015983
_symmetry_space_group_name_H-M "P 21/C"
_symmetry_group_IT_number 14
_symmetry_cell_setting 'monoclinic'
loop_
_space_group_symop_operation_xyz
x,y,z
-x,1/2+y,1/2-z
-x,-y,-z
x,1/2-y,1/2+z
loop_
_atom_site_type_symbol
_atom_site_label
_atom_site_fract_x
_atom_site_fract_y
_atom_site_fract_z
Si Si1 0.266333 0.741299 0.283017
Si Si2 0.594169 0.626336 0.034841
Si Si3 0.215144 0.117155 0.693419
Si Si4 0.500000 0.000000 0.000000
Si Si5 0.037650 0.203396 0.107084
Si Si6 0.271313 0.584729 0.096692
O O1 0.476974 0.789395 0.438502
O O2 0.299863 0.675832 0.171223
O O3 0.143734 0.701822 0.358295
O O4 0.091112 0.802975 0.118247
O O5 0.788427 0.637835 0.256778
O O6 0.413421 0.575110 0.022361
O O7 0.688538 0.602031 0.923440
O O8 0.159420 0.211518 0.671738
O O9 0.979343 0.077207 0.577068
O O10 0.382680 0.087959 0.908828
O O11 0.643683 0.033434 0.218393
#
# Coordination Sequence:
#
# PCOD9251736 Si02
#       6
#     4   4   4   2   4   4
#     4  11  22  40  69 104 135 164 210 277 338 391
#     4  12  23  41  70  99 133 172 212 274 344 378
#     4  11  25  45  65  97 135 171 222 270 319 397
#     4  12  28  46  70  88 134 188 222 266 322 378
#     4  11  22  40  69 104 135 164 210 277 338 391
#     4  11  25  45  65  97 135 171 222 270 319 397
#
# _framework density 23.938649000000002
#
# number of rings (size 3 to 8) (size 9 to 14) (size 15 to 20)
#    0.000    0.727    7.273    2.727    5.091    0.727 
#    0.000    1.818    0.000    0.000    0.000    0.000 
#    0.000    0.000    0.000    0.000    0.000    0.000 
#
# Total GULP energy -122633.764227 kJ/mol
# GULP energy per Si atom -5574.262010 kJ/mol
# Density = 2.388416 g / cm^3
# Si number density = 23.938649 Si / 1000 Ang^3
#
#
#
# Elastic Constant Matrix: (Units=GPa)
#
#
# Indices 1 2 3 4 5 6 
#
# 1 151.5840 16.8096 19.8950 0.0000 18.9324 0.0000
# 2 16.8096 40.2645 6.5527 0.0000 3.3554 0.0000
# 3 19.8950 6.5527 112.8736 0.0000 12.4506 0.0000
# 4 0.0000 0.0000 0.0000 47.3565 0.0000 -14.8889
# 5 18.9324 3.3554 12.4506 0.0000 20.0924 0.0000
# 6 0.0000 0.0000 0.0000 -14.8889 0.0000 23.8805
#
#
#
# Elastic Compliance Matrix: (Units=1/GPa)
#
#
# Indices 1 2 3 4 5 6 
#
# 1 0.007774 -0.002617 -0.000492 0.000000 -0.006583 0.000000
# 2 -0.002617 0.026188 -0.000911 0.000000 -0.001343 0.000000
# 3 -0.000492 -0.000911 0.009586 0.000000 -0.005325 0.000000
# 4 0.000000 0.000000 0.000000 0.026265 0.000000 0.016376
# 5 -0.006583 -0.001343 -0.005325 0.000000 0.059497 0.000000
# 6 0.000000 0.000000 0.000000 0.016376 0.000000 0.052085
#
#
# Mechanical properties :
#
#
# Convention : Reuss Voigt Hill
#
# Bulk Modulus (GPa) = 28.16182 43.47074 35.81628
# Shear Modulus (GPa) = 24.84203 35.69687 30.26945
#
# Velocity S-wave (km/s) = 3.22489 3.86577 3.55978
# Velocity P-wave (km/s) = 5.06520 6.17448 5.64714
#
# Compressibility (1/GPa) = 0.03550907
#
# Stress axis : x y z
#
# Youngs Moduli (GPa) = 128.63380 38.18488 104.31419
#
# Poissons Ratio (x) = 0.09992 0.05134
# Poissons Ratio (y) = 0.33661 0.09502
# Poissons Ratio (z) = 0.06331 0.03478
#
# Static dielectric constant tensor:
#      x y z
#    x 1.917660 0.000000 -0.003130 
#    y 0.000000 2.083350 0.000000 
#    z -0.003130 0.000000 1.817770 
# 
# From -- ./inp_files/26527.got.cif
#   From: 2010.05.17/outbox.cif.g08.bks.cpg/sg14_14_cif.got.tgz:26527.got - 2010.06.03 17:49:19.
