data_PCOD9251634
_publ_section_title
;
Structure prediction by ZEFSAII (Michael W. Deem and Ramdas Pophale) SiO2 
 PCOD9251634
Probable space group: P 21/C
;
_chemical_formula_sum "Si O2"
_cell_formula_units_Z 28
_cell_length_a 20.801761
_cell_length_b 10.238198
_cell_length_c 14.354997
_cell_angle_alpha 90.000000
_cell_angle_beta 21.222022
_cell_angle_gamma 90.000000
_cell_volume 1106.661428
_symmetry_space_group_name_H-M "P 21/C"
_symmetry_group_IT_number 14
_symmetry_cell_setting 'monoclinic'
loop_
_space_group_symop_operation_xyz
x,y,z
-x,1/2+y,1/2-z
-x,-y,-z
x,1/2-y,1/2+z
loop_
_atom_site_type_symbol
_atom_site_label
_atom_site_fract_x
_atom_site_fract_y
_atom_site_fract_z
Si Si1 0.789364 0.297644 0.374145
Si Si2 0.319934 0.923052 0.732995
Si Si3 0.801527 0.148118 0.636704
Si Si4 0.199336 0.359670 0.525824
Si Si5 0.384520 0.261311 0.936157
Si Si6 0.806664 0.854117 0.622594
Si Si7 0.193435 0.519397 0.199175
O O1 0.784388 0.334909 0.271244
O O2 0.584177 0.314248 0.682287
O O3 0.810592 0.142264 0.362270
O O4 0.978821 0.355748 0.150327
O O5 0.300360 0.768448 0.773946
O O6 0.500000 0.000000 0.500000
O O7 0.287074 0.941609 0.668255
O O8 0.196803 0.006585 0.969304
O O9 0.744923 0.001802 0.688192
O O10 0.009000 0.161789 0.330655
O O11 0.350101 0.347172 0.402337
O O12 0.231790 0.244453 0.408705
O O13 0.291508 0.205196 0.154172
O O14 0.726120 0.612499 0.947783
O O15 0.000000 0.500000 0.500000
#
# Coordination Sequence:
#
# PCOD9251634 Si02
#       7
#     4   4   4   4   4   4   4
#     4  11  25  45  75 109 153 206 264 330 408 467
#     4  11  24  47  74 112 149 204 261 320 396 478
#     4  11  25  46  77 109 154 200 266 325 401 471
#     4  12  24  47  77 108 158 209 259 327 403 474
#     4  12  26  46  75 112 157 206 268 334 394 479
#     4  12  26  50  76 112 153 205 269 336 394 474
#     4  11  21  46  73 103 150 206 259 313 392 485
#
# _framework density 25.301324999999999
#
# number of rings (size 3 to 8) (size 9 to 14) (size 15 to 20)
#    0.000    0.571    4.286    3.857    2.000    3.429 
#    2.571    2.857    0.000    0.000    0.000    0.000 
#    0.000    0.000    0.000    0.000    0.000    0.000 
#
# Total GULP energy -156790.755190 kJ/mol
# GULP energy per Si atom -5599.669828 kJ/mol
# Density = 2.524374 g / cm^3
# Si number density = 25.301325 Si / 1000 Ang^3
#
#
#
# Elastic Constant Matrix: (Units=GPa)
#
#
# Indices 1 2 3 4 5 6 
#
# 1 99.1167 25.0440 26.1124 0.0000 21.1085 0.0000
# 2 25.0440 198.4935 44.6011 0.0000 13.3935 0.0000
# 3 26.1124 44.6011 157.8547 0.0000 11.2057 0.0000
# 4 0.0000 0.0000 0.0000 34.3741 0.0000 16.3156
# 5 21.1085 13.3935 11.2057 0.0000 36.7039 0.0000
# 6 0.0000 0.0000 0.0000 16.3156 0.0000 25.6684
#
#
#
# Elastic Compliance Matrix: (Units=1/GPa)
#
#
# Indices 1 2 3 4 5 6 
#
# 1 0.011953 -0.000796 -0.001314 0.000000 -0.006183 0.000000
# 2 -0.000796 0.005518 -0.001346 0.000000 -0.001145 0.000000
# 3 -0.001314 -0.001346 0.006996 0.000000 -0.000889 0.000000
# 4 0.000000 0.000000 0.000000 0.041661 0.000000 -0.026481
# 5 -0.006183 -0.001145 -0.000889 0.000000 0.031490 0.000000
# 6 0.000000 0.000000 0.000000 -0.026481 0.000000 0.055790
#
#
# Mechanical properties :
#
#
# Convention : Reuss Voigt Hill
#
# Bulk Modulus (GPa) = 56.96135 71.88666 64.42400
# Shear Modulus (GPa) = 30.08955 43.32976 36.70965
#
# Velocity S-wave (km/s) = 3.45229 4.14278 3.81320
# Velocity P-wave (km/s) = 6.20106 7.16641 6.70114
#
# Compressibility (1/GPa) = 0.01755577
#
# Stress axis : x y z
#
# Youngs Moduli (GPa) = 83.66127 181.22185 142.94481
#
# Poissons Ratio (x) = 0.14421 0.18776
# Poissons Ratio (y) = 0.06658 0.19243
# Poissons Ratio (z) = 0.10989 0.24396
#
# Static dielectric constant tensor:
#      x y z
#    x 1.982440 0.000000 0.007580 
#    y 0.000000 2.044450 0.000000 
#    z 0.007580 0.000000 2.027030 
# 
# From -- ./inp_files/50551.got.cif
#   From: 2010.05.17/outbox.cif.g08.bks.cpg/sg14_26_cif.got.tgz:50551.got - 2010.06.03 17:49:19.
