data_PCOD9251487
_publ_section_title
;
Structure prediction by ZEFSAII (Michael W. Deem and Ramdas Pophale) SiO2 
 PCOD9251487
Probable space group: P 21/C
;
_chemical_formula_sum "Si O2"
_cell_formula_units_Z 20
_cell_length_a 8.461036
_cell_length_b 23.526543
_cell_length_c 9.390356
_cell_angle_alpha 90.000000
_cell_angle_beta 31.823676
_cell_angle_gamma 90.000000
_cell_volume 985.660174
_symmetry_space_group_name_H-M "P 21/C"
_symmetry_group_IT_number 14
_symmetry_cell_setting 'monoclinic'
loop_
_space_group_symop_operation_xyz
x,y,z
-x,1/2+y,1/2-z
-x,-y,-z
x,1/2-y,1/2+z
loop_
_atom_site_type_symbol
_atom_site_label
_atom_site_fract_x
_atom_site_fract_y
_atom_site_fract_z
Si Si1 0.231173 0.541520 0.746198
Si Si2 0.464570 0.293834 0.502871
Si Si3 0.558052 0.841576 0.475883
Si Si4 0.813639 0.147618 0.508516
Si Si5 0.786353 0.131295 0.984741
O O1 0.500000 0.500000 0.500000
O O2 0.255354 0.592502 0.842498
O O3 0.177987 0.575285 0.639205
O O4 0.000000 0.500000 0.000000
O O5 0.430744 0.226738 0.539541
O O6 0.607197 0.304779 0.239552
O O7 0.696733 0.318809 0.441722
O O8 0.155335 0.329782 0.753217
O O9 0.308555 0.861837 0.555549
O O10 0.895456 0.859782 0.184289
O O11 0.468266 0.865542 0.699925
#
# Coordination Sequence:
#
# PCOD9251487 Si02
#       5
#     4   4   4   4   4
#     4  11  23  45  66  82 114 166 213 257 304 361
#     4  11  21  39  61  89 128 170 193 227 300 384
#     4  12  22  38  60  95 131 153 190 257 304 354
#     4  11  24  39  62  93 121 160 209 245 298 369
#     4  11  24  39  62  93 122 161 208 244 298 368
#
# _framework density 20.290969
#
# number of rings (size 3 to 8) (size 9 to 14) (size 15 to 20)
#    0.000    0.800    0.000   10.800    0.000    0.000 
#    0.000    6.000    0.000    0.000    0.000    0.000 
#    0.000    0.000    0.000    0.000    0.000    0.000 
#
# Total GULP energy -111634.041884 kJ/mol
# GULP energy per Si atom -5581.702094 kJ/mol
# Density = 2.024479 g / cm^3
# Si number density = 20.290969 Si / 1000 Ang^3
#
#
#
# Elastic Constant Matrix: (Units=GPa)
#
#
# Indices 1 2 3 4 5 6 
#
# 1 77.2612 20.3321 10.2909 0.0000 5.3490 0.0000
# 2 20.3321 77.2863 8.9646 0.0000 -9.7192 0.0000
# 3 10.2909 8.9646 111.2363 0.0000 -8.2003 0.0000
# 4 0.0000 0.0000 0.0000 8.3433 0.0000 -8.0013
# 5 5.3490 -9.7192 -8.2003 0.0000 34.9071 0.0000
# 6 0.0000 0.0000 0.0000 -8.0013 0.0000 10.1432
#
#
#
# Elastic Compliance Matrix: (Units=1/GPa)
#
#
# Indices 1 2 3 4 5 6 
#
# 1 0.014449 -0.004113 -0.001275 0.000000 -0.003659 0.000000
# 2 -0.004113 0.014653 -0.000461 0.000000 0.004602 0.000000
# 3 -0.001275 -0.000461 0.009311 0.000000 0.002254 0.000000
# 4 0.000000 0.000000 0.000000 0.492251 0.000000 0.388307
# 5 -0.003659 0.004602 0.002254 0.000000 0.031019 0.000000
# 6 0.000000 0.000000 0.000000 0.388307 0.000000 0.404900
#
#
# Mechanical properties :
#
#
# Convention : Reuss Voigt Hill
#
# Bulk Modulus (GPa) = 37.43314 38.32880 37.88097
# Shear Modulus (GPa) = 5.06490 25.75845 15.41167
#
# Velocity S-wave (km/s) = 1.58163 3.56680 2.75895
# Velocity P-wave (km/s) = 4.67158 5.99111 5.37201
#
# Compressibility (1/GPa) = 0.02671430
#
# Stress axis : x y z
#
# Youngs Moduli (GPa) = 69.21033 68.24435 107.39782
#
# Poissons Ratio (x) = 0.28071 0.13693
# Poissons Ratio (y) = 0.28469 0.04952
# Poissons Ratio (z) = 0.08824 0.03147
#
# Static dielectric constant tensor:
#      x y z
#    x 1.741230 0.000000 -0.000210 
#    y 0.000000 1.760900 0.000000 
#    z -0.000210 0.000000 1.690140 
# 
# From -- ./inp_files/5687.got.cif
#   From: 2010.05.17/outbox.cif.g08.bks.cpg/sg14_3_cif.got.tgz:5687.got - 2010.06.03 17:49:19.
