data_PCOD9251305
_publ_section_title
;
Structure prediction by ZEFSAII (Michael W. Deem and Ramdas Pophale) SiO2 
 PCOD9251305
Probable space group: P 21/C
;
_chemical_formula_sum "Si O2"
_cell_formula_units_Z 32
_cell_length_a 19.603099
_cell_length_b 6.598201
_cell_length_c 14.347795
_cell_angle_alpha 90.000000
_cell_angle_beta 62.807650
_cell_angle_gamma 90.000000
_cell_volume 1650.708370
_symmetry_space_group_name_H-M "P 21/C"
_symmetry_group_IT_number 14
_symmetry_cell_setting 'monoclinic'
loop_
_space_group_symop_operation_xyz
x,y,z
-x,1/2+y,1/2-z
-x,-y,-z
x,1/2-y,1/2+z
loop_
_atom_site_type_symbol
_atom_site_label
_atom_site_fract_x
_atom_site_fract_y
_atom_site_fract_z
Si Si1 0.088725 0.685863 0.631827
Si Si2 0.343194 0.443260 0.579049
Si Si3 0.588459 0.312999 0.623906
Si Si4 0.547656 0.104425 0.827898
Si Si5 0.167288 0.081960 0.230437
Si Si6 0.077880 0.482531 0.288464
Si Si7 0.567288 0.919977 0.522114
Si Si8 0.069473 0.664308 0.939195
O O1 0.131430 0.497107 0.654180
O O2 0.105600 0.875516 0.687583
O O3 0.101335 0.753317 0.517600
O O4 0.998267 0.637399 0.694028
O O5 0.356245 0.532667 0.466389
O O6 0.403776 0.553217 0.610342
O O7 0.257077 0.459989 0.667059
O O8 0.366484 0.207170 0.567670
O O9 0.598913 0.227749 0.721632
O O10 0.500982 0.404315 0.672524
O O11 0.596196 0.108707 0.560461
O O12 0.477841 0.255494 0.889844
O O13 0.142023 0.312960 0.266625
O O14 0.130049 0.953169 0.337138
O O15 0.052315 0.633838 0.388168
O O16 0.500000 0.000000 0.500000
O O17 0.000000 0.500000 0.000000
#
# Coordination Sequence:
#
# PCOD9251305 Si02
#       8
#     4   4   4   4   4   4   4   4
#     4  11  21  39  67  93 123 167 217 268 310 383
#     4  11  25  41  58  95 134 167 202 264 330 376
#     4  11  21  37  67  95 121 162 217 256 307 381
#     4  11  21  37  66  96 122 160 217 258 306 376
#     4  11  26  41  60  96 134 167 215 267 332 384
#     4  11  21  40  67  95 123 166 217 264 315 385
#     4  11  19  38  66  87 118 168 210 256 304 377
#     4  11  23  39  69  98 121 163 222 268 318 386
#
# _framework density 19.385617
#
# number of rings (size 3 to 8) (size 9 to 14) (size 15 to 20)
#    0.000    1.000    6.250    1.875    0.000    3.000 
#    0.000    1.250    0.000    0.000    0.000    0.000 
#    0.000    0.000    0.000    0.000    0.000    0.000 
#
# Total GULP energy -178259.046635 kJ/mol
# GULP energy per Si atom -5570.595207 kJ/mol
# Density = 1.934149 g / cm^3
# Si number density = 19.385617 Si / 1000 Ang^3
#
#
#
# Elastic Constant Matrix: (Units=GPa)
#
#
# Indices 1 2 3 4 5 6 
#
# 1 37.7890 14.5513 33.2123 0.0000 -13.6542 0.0000
# 2 14.5513 100.2597 29.5651 0.0000 -2.0310 0.0000
# 3 33.2123 29.5651 91.4993 0.0000 -2.4286 0.0000
# 4 0.0000 0.0000 0.0000 30.5648 0.0000 3.5553
# 5 -13.6542 -2.0310 -2.4286 0.0000 38.8916 0.0000
# 6 0.0000 0.0000 0.0000 3.5553 0.0000 19.7365
#
#
#
# Elastic Compliance Matrix: (Units=1/GPa)
#
#
# Indices 1 2 3 4 5 6 
#
# 1 0.046721 -0.001757 -0.015985 0.000000 0.015313 0.000000
# 2 -0.001757 0.011095 -0.002953 0.000000 -0.000222 0.000000
# 3 -0.015985 -0.002953 0.017561 0.000000 -0.004670 0.000000
# 4 0.000000 0.000000 0.000000 0.033418 0.000000 -0.006020
# 5 0.015313 -0.000222 -0.004670 0.000000 0.030785 0.000000
# 6 0.000000 0.000000 0.000000 -0.006020 0.000000 0.051752
#
#
# Mechanical properties :
#
#
# Convention : Reuss Voigt Hill
#
# Bulk Modulus (GPa) = 29.42207 42.68948 36.05578
# Shear Modulus (GPa) = 20.48744 27.98652 24.23698
#
# Velocity S-wave (km/s) = 3.25443 3.80369 3.53973
# Velocity P-wave (km/s) = 5.41590 6.43116 5.94524
#
# Compressibility (1/GPa) = 0.03398809
#
# Stress axis : x y z
#
# Youngs Moduli (GPa) = 21.40369 90.12673 56.94310
#
# Poissons Ratio (x) = 0.15836 0.91021
# Poissons Ratio (y) = 0.03761 0.16817
# Poissons Ratio (z) = 0.34213 0.26617
#
# Static dielectric constant tensor:
#      x y z
#    x 1.668910 0.000000 0.026420 
#    y 0.000000 1.928150 0.000000 
#    z 0.026420 0.000000 1.734930 
# 
# From -- ./inp_files/49686.got.cif
#   From: 2010.05.17/outbox.cif.g08.bks.cpg/sg14_25_cif.got.tgz:49686.got - 2010.06.03 17:49:19.
