data_PCOD9251820
_publ_section_title
;
Structure prediction by ZEFSAII (Michael W. Deem and Ramdas Pophale) SiO2 
 PCOD9251820
Probable space group: P 21/C
;
_chemical_formula_sum "Si O2"
_cell_formula_units_Z 24
_cell_length_a 16.397998
_cell_length_b 9.140117
_cell_length_c 11.286153
_cell_angle_alpha 90.000000
_cell_angle_beta 34.485966
_cell_angle_gamma 90.000000
_cell_volume 957.771095
_symmetry_space_group_name_H-M "P 21/C"
_symmetry_group_IT_number 14
_symmetry_cell_setting 'monoclinic'
loop_
_space_group_symop_operation_xyz
x,y,z
-x,1/2+y,1/2-z
-x,-y,-z
x,1/2-y,1/2+z
loop_
_atom_site_type_symbol
_atom_site_label
_atom_site_fract_x
_atom_site_fract_y
_atom_site_fract_z
Si Si1 0.841100 0.732290 0.111725
Si Si2 0.156468 0.621623 0.488218
Si Si3 0.615477 0.118409 0.105023
Si Si4 0.165135 0.645158 0.228707
Si Si5 0.085446 0.950081 0.588243
Si Si6 0.317665 0.220588 0.952284
O O1 0.774401 0.761348 0.320482
O O2 0.854403 0.555090 0.083745
O O3 0.757609 0.775665 0.088717
O O4 0.004312 0.791226 0.907321
O O5 0.314059 0.648732 0.350337
O O6 0.168279 0.554559 0.344935
O O7 0.080318 0.779549 0.562840
O O8 0.371331 0.444383 0.418678
O O9 0.456170 0.175721 0.280742
O O10 0.721023 0.222565 0.900871
O O11 0.185614 0.550908 0.085862
O O12 0.937430 0.025020 0.809800
#
# Coordination Sequence:
#
# PCOD9251820 Si02
#       6
#     4   4   4   4   4   4
#     4  12  27  48  83 111 152 195 261 311 381 441
#     4  11  24  43  75 109 152 193 253 311 380 444
#     4  11  28  50  74 108 155 200 254 307 384 448
#     4  11  25  46  79 109 148 197 256 318 372 450
#     4  11  22  43  70 114 143 188 247 315 371 435
#     4  12  31  52  75 113 155 207 247 313 379 459
#
# _framework density 25.05818
#
# number of rings (size 3 to 8) (size 9 to 14) (size 15 to 20)
#    0.000    0.667    3.333    3.500    9.333    4.000 
#    0.000    0.000    0.000    0.000    0.000    0.000 
#    0.000    0.000    0.000    0.000    0.000    0.000 
#
# Total GULP energy -134307.307093 kJ/mol
# GULP energy per Si atom -5596.137796 kJ/mol
# Density = 2.500115 g / cm^3
# Si number density = 25.058180 Si / 1000 Ang^3
#
#
#
# Elastic Constant Matrix: (Units=GPa)
#
#
# Indices 1 2 3 4 5 6 
#
# 1 140.0743 20.6449 68.3394 0.0000 2.5086 0.0000
# 2 20.6449 114.4514 39.6313 0.0000 -12.7879 0.0000
# 3 68.3394 39.6313 120.3420 0.0000 -6.4692 0.0000
# 4 0.0000 0.0000 0.0000 47.2522 0.0000 0.5256
# 5 2.5086 -12.7879 -6.4692 0.0000 45.1891 0.0000
# 6 0.0000 0.0000 0.0000 0.5256 0.0000 35.2146
#
#
#
# Elastic Compliance Matrix: (Units=1/GPa)
#
#
# Indices 1 2 3 4 5 6 
#
# 1 0.009959 0.000039 -0.005742 0.000000 -0.001364 0.000000
# 2 0.000039 0.010115 -0.003224 0.000000 0.002399 0.000000
# 3 -0.005742 -0.003224 0.012698 0.000000 0.001224 0.000000
# 4 0.000000 0.000000 0.000000 0.021167 0.000000 -0.000316
# 5 -0.001364 0.002399 0.001224 0.000000 0.023059 0.000000
# 6 0.000000 0.000000 0.000000 -0.000316 0.000000 0.028402
#
#
# Mechanical properties :
#
#
# Convention : Reuss Voigt Hill
#
# Bulk Modulus (GPa) = 67.03270 70.23319 68.63294
# Shear Modulus (GPa) = 38.99381 41.94798 40.47090
#
# Velocity S-wave (km/s) = 3.94906 4.09592 4.02316
# Velocity P-wave (km/s) = 6.89945 7.10336 7.00214
#
# Compressibility (1/GPa) = 0.01491809
#
# Stress axis : x y z
#
# Youngs Moduli (GPa) = 100.41201 98.86543 78.75286
#
# Poissons Ratio (x) = -0.00390 0.45218
# Poissons Ratio (y) = -0.00396 0.25394
# Poissons Ratio (z) = 0.57654 0.31879
#
# Static dielectric constant tensor:
#      x y z
#    x 1.997480 0.000000 0.051050 
#    y 0.000000 2.115520 0.000000 
#    z 0.051050 0.000000 1.962760 
# 
# From -- ./inp_files/33849.got.cif
#   From: 2010.05.17/outbox.cif.g08.bks.cpg/sg14_17_cif.got.tgz:33849.got - 2010.06.03 17:49:19.
