data_PCOD9251926
_publ_section_title
;
Structure prediction by ZEFSAII (Michael W. Deem and Ramdas Pophale) SiO2 
 PCOD9251926
Probable space group: P 21/C
;
_chemical_formula_sum "Si O2"
_cell_formula_units_Z 32
_cell_length_a 10.678962
_cell_length_b 16.211883
_cell_length_c 15.757940
_cell_angle_alpha 90.000000
_cell_angle_beta 138.620306
_cell_angle_gamma 90.000000
_cell_volume 1803.406425
_symmetry_space_group_name_H-M "P 21/C"
_symmetry_group_IT_number 14
_symmetry_cell_setting 'monoclinic'
loop_
_space_group_symop_operation_xyz
x,y,z
-x,1/2+y,1/2-z
-x,-y,-z
x,1/2-y,1/2+z
loop_
_atom_site_type_symbol
_atom_site_label
_atom_site_fract_x
_atom_site_fract_y
_atom_site_fract_z
Si Si1 0.477167 0.366998 0.697194
Si Si2 0.229989 0.138420 0.680639
Si Si3 0.790288 0.357331 0.989836
Si Si4 0.536116 0.096268 0.509480
Si Si5 0.479776 0.975598 0.086160
Si Si6 0.531923 0.322379 0.191868
Si Si7 0.789313 0.162875 0.980952
Si Si8 0.231524 0.175568 0.229478
O O1 0.654912 0.390426 0.846982
O O2 0.432818 0.440977 0.612348
O O3 0.520190 0.277277 0.678768
O O4 0.309721 0.353996 0.678773
O O5 0.327991 0.063848 0.779354
O O6 0.343844 0.148720 0.649248
O O7 0.261373 0.225645 0.744850
O O8 0.004224 0.129257 0.568019
O O9 0.722570 0.392832 0.045361
O O10 0.747639 0.259305 0.976975
O O11 0.549371 0.137292 0.608792
O O12 0.360430 0.135996 0.367893
O O13 0.500000 0.000000 0.500000
O O14 0.327387 0.903390 0.024717
O O15 0.500000 0.000000 0.000000
O O16 0.709023 0.346348 0.343550
O O17 0.010165 0.154237 0.114717
#
# Coordination Sequence:
#
# PCOD9251926 Si02
#       8
#     4   4   4   4   4   4   4   4
#     4   9  20  37  59  82 115 151 186 237 290 342
#     4   9  20  41  61  80 113 156 190 233 290 340
#     4   9  20  41  61  81 113 154 191 234 290 340
#     4  11  23  36  60  89 119 146 195 240 284 336
#     4  11  23  34  56  87 119 148 193 232 280 340
#     4   9  20  39  61  84 113 151 194 239 286 342
#     4   9  20  41  61  80 113 156 190 233 290 340
#     4   9  20  41  61  81 113 154 191 234 290 340
#
# _framework density 17.744198999999998
#
# number of rings (size 3 to 8) (size 9 to 14) (size 15 to 20)
#    0.000    2.500    0.000    2.250   10.500    2.000 
#    4.500    2.500    0.000    0.000    0.000    0.000 
#    0.000    0.000    0.000    0.000    0.000    0.000 
#
# Total GULP energy -178332.600439 kJ/mol
# GULP energy per Si atom -5572.893764 kJ/mol
# Density = 1.770381 g / cm^3
# Si number density = 17.744199 Si / 1000 Ang^3
#
#
#
# Elastic Constant Matrix: (Units=GPa)
#
#
# Indices 1 2 3 4 5 6 
#
# 1 41.3959 10.6129 16.9162 0.0000 -8.6212 0.0000
# 2 10.6129 47.3951 6.1390 0.0000 -20.2986 0.0000
# 3 16.9162 6.1390 25.9176 0.0000 -9.7779 0.0000
# 4 0.0000 0.0000 0.0000 25.8571 0.0000 -2.5870
# 5 -8.6212 -20.2986 -9.7779 0.0000 35.8008 0.0000
# 6 0.0000 0.0000 0.0000 -2.5870 0.0000 15.0227
#
#
#
# Elastic Compliance Matrix: (Units=1/GPa)
#
#
# Indices 1 2 3 4 5 6 
#
# 1 0.034013 -0.005075 -0.021176 0.000000 -0.000470 0.000000
# 2 -0.005075 0.028635 0.002446 0.000000 0.015682 0.000000
# 3 -0.021176 0.002446 0.056218 0.000000 0.011642 0.000000
# 4 0.000000 0.000000 0.000000 0.039352 0.000000 0.006777
# 5 -0.000470 0.015682 0.011642 0.000000 0.039890 0.000000
# 6 0.000000 0.000000 0.000000 0.006777 0.000000 0.067733
#
#
# Mechanical properties :
#
#
# Convention : Reuss Voigt Hill
#
# Bulk Modulus (GPa) = 14.03371 20.22719 17.13045
# Shear Modulus (GPa) = 14.82787 20.73882 17.78334
#
# Velocity S-wave (km/s) = 2.89389 3.42243 3.16920
# Velocity P-wave (km/s) = 4.36946 5.20014 4.80279
#
# Compressibility (1/GPa) = 0.07125698
#
# Stress axis : x y z
#
# Youngs Moduli (GPa) = 29.40017 34.92223 17.78799
#
# Poissons Ratio (x) = 0.17723 0.37667
# Poissons Ratio (y) = 0.14920 -0.04351
# Poissons Ratio (z) = 0.62257 -0.08542
#
# Static dielectric constant tensor:
#      x y z
#    x 1.608780 0.000000 0.022270 
#    y 0.000000 1.613200 0.000000 
#    z 0.022270 0.000000 1.602670 
# 
# From -- ./inp_files/45109.got.cif
#   From: 2010.05.17/outbox.cif.g08.bks.cpg/sg14_23_cif.got.tgz:45109.got - 2010.06.03 17:49:19.
