data_PCOD9251623
_publ_section_title
;
Structure prediction by ZEFSAII (Michael W. Deem and Ramdas Pophale) SiO2 
 PCOD9251623
Probable space group: P 21/C
;
_chemical_formula_sum "Si O2"
_cell_formula_units_Z 32
_cell_length_a 13.617227
_cell_length_b 13.411416
_cell_length_c 18.240285
_cell_angle_alpha 90.000000
_cell_angle_beta 21.716751
_cell_angle_gamma 90.000000
_cell_volume 1232.588841
_symmetry_space_group_name_H-M "P 21/C"
_symmetry_group_IT_number 14
_symmetry_cell_setting 'monoclinic'
loop_
_space_group_symop_operation_xyz
x,y,z
-x,1/2+y,1/2-z
-x,-y,-z
x,1/2-y,1/2+z
loop_
_atom_site_type_symbol
_atom_site_label
_atom_site_fract_x
_atom_site_fract_y
_atom_site_fract_z
Si Si1 0.070868 0.385421 0.444402
Si Si2 0.690150 0.965873 0.720455
Si Si3 0.673978 0.813720 0.372579
Si Si4 0.495934 0.143188 0.292530
Si Si5 0.841284 0.971513 0.376865
Si Si6 0.601156 0.648984 0.645824
Si Si7 0.657276 0.152769 0.937131
Si Si8 0.162155 0.685794 0.074264
O O1 0.302853 0.354386 0.226901
O O2 0.150406 0.359578 0.472036
O O3 0.000000 0.500000 0.500000
O O4 0.806861 0.342161 0.589322
O O5 0.623827 0.883867 0.703536
O O6 0.586682 0.917963 0.867977
O O7 0.487474 0.057402 0.843104
O O8 0.000000 0.000000 0.500000
O O9 0.759140 0.909092 0.361904
O O10 0.414975 0.744310 0.567503
O O11 0.891163 0.728457 0.231458
O O12 0.411979 0.047275 0.396608
O O13 0.367481 0.243746 0.413801
O O14 0.887268 0.088802 0.340715
O O15 0.087720 0.918305 0.247920
O O16 0.354318 0.659697 0.873685
O O17 0.729826 0.219972 0.956801
#
# Coordination Sequence:
#
# PCOD9251623 Si02
#       8
#     4   4   4   4   4   4   4   4
#     4  12  23  44  75 107 137 191 246 309 364 433
#     4  12  25  45  76 106 137 196 250 306 368 437
#     4  11  24  46  73 103 146 194 237 301 376 439
#     4  12  25  45  66 110 146 181 250 301 367 442
#     4  11  27  45  69 107 148 196 245 297 369 452
#     4  12  24  42  75 105 145 186 248 312 365 433
#     4  11  25  47  71 104 143 195 241 294 376 437
#     4  11  21  45  70  99 146 189 237 299 367 436
#
# _framework density 25.961617
#
# number of rings (size 3 to 8) (size 9 to 14) (size 15 to 20)
#    0.000    0.500    6.250    1.500    1.750    4.000 
#    0.000    0.000    0.000    0.000    0.000    0.000 
#    0.000    0.000    0.000    0.000    0.000    0.000 
#
# Total GULP energy -178785.203633 kJ/mol
# GULP energy per Si atom -5587.037614 kJ/mol
# Density = 2.590253 g / cm^3
# Si number density = 25.961617 Si / 1000 Ang^3
#
#
#
# Elastic Constant Matrix: (Units=GPa)
#
#
# Indices 1 2 3 4 5 6 
#
# 1 80.1155 39.5596 14.0811 0.0000 -20.3384 0.0000
# 2 39.5596 156.4848 22.4489 0.0000 -16.9567 0.0000
# 3 14.0811 22.4489 91.4142 0.0000 -19.5081 0.0000
# 4 0.0000 0.0000 0.0000 37.5844 0.0000 0.4612
# 5 -20.3384 -16.9567 -19.5081 0.0000 28.7335 0.0000
# 6 0.0000 0.0000 0.0000 0.4612 0.0000 43.8801
#
#
#
# Elastic Compliance Matrix: (Units=1/GPa)
#
#
# Indices 1 2 3 4 5 6 
#
# 1 0.016531 -0.003138 0.000381 0.000000 0.010108 0.000000
# 2 -0.003138 0.007495 -0.001038 0.000000 0.001497 0.000000
# 3 0.000381 -0.001038 0.012937 0.000000 0.008441 0.000000
# 4 0.000000 0.000000 0.000000 0.026610 0.000000 -0.000280
# 5 0.010108 0.001497 0.008441 0.000000 0.048571 0.000000
# 6 0.000000 0.000000 0.000000 -0.000280 0.000000 0.022792
#
#
# Mechanical properties :
#
#
# Convention : Reuss Voigt Hill
#
# Bulk Modulus (GPa) = 34.04509 53.35485 43.69997
# Shear Modulus (GPa) = 32.82647 38.83458 35.83052
#
# Velocity S-wave (km/s) = 3.55973 3.87181 3.71905
# Velocity P-wave (km/s) = 5.48066 6.37055 5.94229
#
# Compressibility (1/GPa) = 0.02937281
#
# Stress axis : x y z
#
# Youngs Moduli (GPa) = 60.49376 133.42454 77.30037
#
# Poissons Ratio (x) = 0.41874 -0.02948
# Poissons Ratio (y) = 0.18985 0.08021
# Poissons Ratio (z) = -0.02307 0.13845
#
# Static dielectric constant tensor:
#      x y z
#    x 2.213020 0.000000 -0.095550 
#    y 0.000000 2.208390 0.000000 
#    z -0.095550 0.000000 2.149050 
# 
# From -- ./inp_files/68685.got.cif
#   From: 2010.05.17/outbox.cif.g08.bks.cpg/sg14_35_cif.got.tgz:68685.got - 2010.06.03 17:49:19.
