data_PCOD9251904
_publ_section_title
;
Structure prediction by ZEFSAII (Michael W. Deem and Ramdas Pophale) SiO2 
 PCOD9251904
Probable space group: P 21/C
;
_chemical_formula_sum "Si O2"
_cell_formula_units_Z 24
_cell_length_a 21.093769
_cell_length_b 10.787654
_cell_length_c 14.894072
_cell_angle_alpha 90.000000
_cell_angle_beta 161.115865
_cell_angle_gamma 90.000000
_cell_volume 1096.926559
_symmetry_space_group_name_H-M "P 21/C"
_symmetry_group_IT_number 14
_symmetry_cell_setting 'monoclinic'
loop_
_space_group_symop_operation_xyz
x,y,z
-x,1/2+y,1/2-z
-x,-y,-z
x,1/2-y,1/2+z
loop_
_atom_site_type_symbol
_atom_site_label
_atom_site_fract_x
_atom_site_fract_y
_atom_site_fract_z
Si Si1 0.983517 0.829636 0.734025
Si Si2 0.494871 0.271516 0.664219
Si Si3 0.713351 0.364897 0.799535
Si Si4 0.651176 0.023587 0.780764
Si Si5 0.573018 0.754003 0.728408
Si Si6 0.127558 0.412939 0.103411
O O1 0.763441 0.832808 0.474944
O O2 0.982131 0.835392 0.622617
O O3 0.087155 0.709280 0.914736
O O4 0.131014 0.939745 0.957813
O O5 0.617105 0.370485 0.769169
O O6 0.558593 0.139561 0.708869
O O7 0.536060 0.252500 0.823594
O O8 0.272108 0.318814 0.349207
O O9 0.569415 0.282254 0.544117
O O10 0.751451 0.489443 0.796114
O O11 0.500000 0.000000 0.500000
O O12 0.654797 0.893589 0.835122
O O13 0.000000 0.500000 0.000000
#
# Coordination Sequence:
#
# PCOD9251904 Si02
#       6
#     4   4   4   4   4   4
#     4  11  23  43  69 102 138 186 235 295 366 423
#     4  11  25  42  73 104 136 195 237 294 375 426
#     4  11  25  45  70 104 145 189 238 305 361 433
#     4  11  22  47  70  96 145 187 231 301 359 429
#     4  12  25  46  72 103 147 189 245 298 368 438
#     4  12  25  44  74 106 146 187 251 306 362 437
#
# _framework density 21.879314000000001
#
# number of rings (size 3 to 8) (size 9 to 14) (size 15 to 20)
#    0.000    0.667    5.000    3.500    7.000    0.000 
#    0.000    0.833    0.000    0.000    0.000    0.000 
#    0.000    0.000    0.000    0.000    0.000    0.000 
#
# Total GULP energy -133963.696394 kJ/mol
# GULP energy per Si atom -5581.820683 kJ/mol
# Density = 2.182952 g / cm^3
# Si number density = 21.879314 Si / 1000 Ang^3
#
#
#
# Elastic Constant Matrix: (Units=GPa)
#
#
# Indices 1 2 3 4 5 6 
#
# 1 122.9721 18.1531 28.4267 0.0000 7.3424 0.0000
# 2 18.1531 108.4371 22.2360 0.0000 11.0518 0.0000
# 3 28.4267 22.2360 98.3697 0.0000 -2.5341 0.0000
# 4 0.0000 0.0000 0.0000 40.1174 0.0000 9.0979
# 5 7.3424 11.0518 -2.5341 0.0000 25.4580 0.0000
# 6 0.0000 0.0000 0.0000 9.0979 0.0000 29.8425
#
#
#
# Elastic Compliance Matrix: (Units=1/GPa)
#
#
# Indices 1 2 3 4 5 6 
#
# 1 0.008966 -0.000734 -0.002490 0.000000 -0.002515 0.000000
# 2 -0.000734 0.010255 -0.002221 0.000000 -0.004461 0.000000
# 3 -0.002490 -0.002221 0.011460 0.000000 0.002823 0.000000
# 4 0.000000 0.000000 0.000000 0.026778 0.000000 -0.008164
# 5 -0.002515 -0.004461 0.002823 0.000000 0.042223 0.000000
# 6 0.000000 0.000000 0.000000 -0.008164 0.000000 0.035998
#
#
# Mechanical properties :
#
#
# Convention : Reuss Voigt Hill
#
# Bulk Modulus (GPa) = 50.52713 51.93449 51.23081
# Shear Modulus (GPa) = 32.64403 36.48111 34.56257
#
# Velocity S-wave (km/s) = 3.86684 4.08779 3.97885
# Velocity P-wave (km/s) = 6.56356 6.78736 6.67640
#
# Compressibility (1/GPa) = 0.01979135
#
# Stress axis : x y z
#
# Youngs Moduli (GPa) = 111.53216 97.51422 87.26013
#
# Poissons Ratio (x) = 0.07158 0.21726
# Poissons Ratio (y) = 0.08187 0.19379
# Poissons Ratio (z) = 0.27770 0.21657
#
# Static dielectric constant tensor:
#      x y z
#    x 2.018850 0.000000 0.025620 
#    y 0.000000 2.409270 0.000000 
#    z 0.025620 0.000000 1.829760 
# 
# From -- ./inp_files/50463.got.cif
#   From: 2010.05.17/outbox.cif.g08.bks.cpg/sg14_26_cif.got.tgz:50463.got - 2010.06.03 17:49:19.
