data_PCOD9251211
_publ_section_title
;
Structure prediction by ZEFSAII (Michael W. Deem and Ramdas Pophale) SiO2 
 PCOD9251211
Probable space group: P 21/C
;
_chemical_formula_sum "Si O2"
_cell_formula_units_Z 28
_cell_length_a 9.547604
_cell_length_b 7.821181
_cell_length_c 24.095328
_cell_angle_alpha 90.000000
_cell_angle_beta 144.747916
_cell_angle_gamma 90.000000
_cell_volume 1038.501213
_symmetry_space_group_name_H-M "P 21/C"
_symmetry_group_IT_number 14
_symmetry_cell_setting 'monoclinic'
loop_
_space_group_symop_operation_xyz
x,y,z
-x,1/2+y,1/2-z
-x,-y,-z
x,1/2-y,1/2+z
loop_
_atom_site_type_symbol
_atom_site_label
_atom_site_fract_x
_atom_site_fract_y
_atom_site_fract_z
Si Si1 0.526629 0.841601 0.660517
Si Si2 0.287292 0.170370 0.400867
Si Si3 0.945244 0.633983 0.828847
Si Si4 0.133476 0.644562 0.714859
Si Si5 0.175830 0.399539 0.488306
Si Si6 0.997975 0.228895 0.529136
Si Si7 0.651055 0.304883 0.604982
O O1 0.573278 0.863411 0.610270
O O2 0.242216 0.845612 0.577625
O O3 0.666301 0.668394 0.723127
O O4 0.682892 0.991061 0.738696
O O5 0.474422 0.179111 0.511788
O O6 0.135780 0.348097 0.343098
O O7 0.079007 0.029596 0.345765
O O8 0.104361 0.791037 0.853021
O O9 0.953806 0.632372 0.898028
O O10 0.020192 0.683671 0.617356
O O11 0.275030 0.744848 0.809576
O O12 0.196024 0.268072 0.546267
O O13 0.074935 0.580898 0.474322
O O14 0.437073 0.441773 0.545789
#
# Coordination Sequence:
#
# PCOD9251211 Si02
#       7
#     4   4   4   4   4   4   4
#     4  12  22  39  69 102 135 178 224 283 344 405
#     4  11  22  39  64 105 141 168 221 288 348 403
#     4  12  23  39  71 104 129 174 232 282 341 407
#     4  11  23  42  65 100 139 173 224 282 340 407
#     4  10  26  47  64  97 141 187 225 286 339 410
#     4  11  25  46  67  95 140 181 234 277 341 410
#     4  11  22  39  70  92 138 172 221 286 342 399
#
# _framework density 26.961936000000001
#
# number of rings (size 3 to 8) (size 9 to 14) (size 15 to 20)
#    0.000    0.857    5.714    1.286    2.000    2.857 
#    0.000    6.429    0.000    0.000    0.000    0.000 
#    0.000    0.000    0.000    0.000    0.000    0.000 
#
# Total GULP energy -156265.471447 kJ/mol
# GULP energy per Si atom -5580.909695 kJ/mol
# Density = 2.690057 g / cm^3
# Si number density = 26.961936 Si / 1000 Ang^3
#
#
#
# Elastic Constant Matrix: (Units=GPa)
#
#
# Indices 1 2 3 4 5 6 
#
# 1 112.2589 7.6353 36.2273 0.0000 -5.2358 0.0000
# 2 7.6353 30.3919 19.8133 0.0000 -10.9199 0.0000
# 3 36.2273 19.8133 156.6313 0.0000 2.1404 0.0000
# 4 0.0000 0.0000 0.0000 42.4563 0.0000 -0.0945
# 5 -5.2358 -10.9199 2.1404 0.0000 30.9354 0.0000
# 6 0.0000 0.0000 0.0000 -0.0945 0.0000 27.1338
#
#
#
# Elastic Compliance Matrix: (Units=1/GPa)
#
#
# Indices 1 2 3 4 5 6 
#
# 1 0.009730 -0.000399 -0.002223 0.000000 0.001660 0.000000
# 2 -0.000399 0.041974 -0.005424 0.000000 0.015124 0.000000
# 3 -0.002223 -0.005424 0.007623 0.000000 -0.002818 0.000000
# 4 0.000000 0.000000 0.000000 0.023554 0.000000 0.000082
# 5 0.001660 0.015124 -0.002818 0.000000 0.038140 0.000000
# 6 0.000000 0.000000 0.000000 0.000082 0.000000 0.036855
#
#
# Mechanical properties :
#
#
# Convention : Reuss Voigt Hill
#
# Bulk Modulus (GPa) = 23.12910 47.40379 35.26644
# Shear Modulus (GPa) = 26.54231 35.81219 31.17725
#
# Velocity S-wave (km/s) = 3.14098 3.64847 3.40419
# Velocity P-wave (km/s) = 4.66384 5.94713 5.34414
#
# Compressibility (1/GPa) = 0.04323559
#
# Stress axis : x y z
#
# Youngs Moduli (GPa) = 102.77716 23.82431 131.18016
#
# Poissons Ratio (x) = 0.00951 0.29156
# Poissons Ratio (y) = 0.04102 0.71151
# Poissons Ratio (z) = 0.22843 0.12922
#
# Static dielectric constant tensor:
#      x y z
#    x 2.097300 0.000000 -0.000080 
#    y 0.000000 2.400080 0.000000 
#    z -0.000080 0.000000 2.071160 
# 
# From -- ./inp_files/77148.got.cif
#   From: 2010.05.17/outbox.cif.g08.bks.cpg/sg14_39_cif.got.tgz:77148.got - 2010.06.03 17:49:19.
