data_PCOD9251747
_publ_section_title
;
Structure prediction by ZEFSAII (Michael W. Deem and Ramdas Pophale) SiO2 
 PCOD9251747
Probable space group: P 21/C
;
_chemical_formula_sum "Si O2"
_cell_formula_units_Z 32
_cell_length_a 9.563822
_cell_length_b 18.159833
_cell_length_c 12.588433
_cell_angle_alpha 90.000000
_cell_angle_beta 48.582551
_cell_angle_gamma 90.000000
_cell_volume 1639.547271
_symmetry_space_group_name_H-M "P 21/C"
_symmetry_group_IT_number 14
_symmetry_cell_setting 'monoclinic'
loop_
_space_group_symop_operation_xyz
x,y,z
-x,1/2+y,1/2-z
-x,-y,-z
x,1/2-y,1/2+z
loop_
_atom_site_type_symbol
_atom_site_label
_atom_site_fract_x
_atom_site_fract_y
_atom_site_fract_z
Si Si1 0.972371 0.448859 0.411770
Si Si2 0.577458 0.834680 0.098617
Si Si3 0.989660 0.930267 0.340738
Si Si4 0.905342 0.820095 0.764206
Si Si5 0.162332 0.727534 0.777427
Si Si6 0.197308 0.439284 0.847704
Si Si7 0.554584 0.495313 0.594743
Si Si8 0.103384 0.288746 0.411075
O O1 0.757311 0.461109 0.495229
O O2 0.000000 0.500000 0.500000
O O3 0.064413 0.461542 0.248377
O O4 0.028829 0.369439 0.424815
O O5 0.383145 0.791356 0.175149
O O6 0.544998 0.920940 0.144468
O O7 0.703250 0.793662 0.122557
O O8 0.727957 0.838859 0.926675
O O9 0.837186 0.926984 0.510724
O O10 0.073334 0.849201 0.281366
O O11 0.138145 0.981723 0.328394
O O12 0.918691 0.884082 0.669363
O O13 0.857227 0.749608 0.719160
O O14 0.087140 0.795111 0.740795
O O15 0.056302 0.745881 0.941591
O O16 0.416142 0.438297 0.719415
O O17 0.500000 0.500000 0.500000
#
# Coordination Sequence:
#
# PCOD9251747 Si02
#       8
#     4   4   4   4   4   4   4   4
#     4  12  24  43  69  98 135 175 224 281 337 396
#     4  11  23  42  64  95 129 172 224 269 325 404
#     4  11  22  41  65  93 131 174 218 274 332 390
#     4  11  23  40  64  95 129 168 215 278 332 388
#     4  11  23  42  65  95 131 173 220 272 335 401
#     4  11  23  39  66  98 128 172 227 276 327 398
#     4  12  21  40  71  97 124 174 235 269 317 405
#     4  11  25  42  64  95 136 173 211 280 344 388
#
# _framework density 19.517582999999998
#
# number of rings (size 3 to 8) (size 9 to 14) (size 15 to 20)
#    0.000    0.750    7.500    0.000    1.750    2.000 
#    0.000    0.625    0.000    0.000    0.000    0.000 
#    0.000    0.000    0.000    0.000    0.000    0.000 
#
# Total GULP energy -178282.896082 kJ/mol
# GULP energy per Si atom -5571.340503 kJ/mol
# Density = 1.947316 g / cm^3
# Si number density = 19.517583 Si / 1000 Ang^3
#
#
#
# Elastic Constant Matrix: (Units=GPa)
#
#
# Indices 1 2 3 4 5 6 
#
# 1 86.3571 10.3755 53.7521 0.0000 2.2607 0.0000
# 2 10.3755 69.1655 11.5088 0.0000 -3.6126 0.0000
# 3 53.7521 11.5088 77.5103 0.0000 7.3300 0.0000
# 4 0.0000 0.0000 0.0000 29.0688 0.0000 4.0884
# 5 2.2607 -3.6126 7.3300 0.0000 28.4511 0.0000
# 6 0.0000 0.0000 0.0000 4.0884 0.0000 33.4910
#
#
#
# Elastic Compliance Matrix: (Units=1/GPa)
#
#
# Indices 1 2 3 4 5 6 
#
# 1 0.020518 -0.000590 -0.014329 0.000000 0.001986 0.000000
# 2 -0.000590 0.015018 -0.002056 0.000000 0.002483 0.000000
# 3 -0.014329 -0.002056 0.023636 0.000000 -0.005212 0.000000
# 4 0.000000 0.000000 0.000000 0.035002 0.000000 -0.004273
# 5 0.001986 0.002483 -0.005212 0.000000 0.036648 0.000000
# 6 0.000000 0.000000 0.000000 -0.004273 0.000000 0.030380
#
#
# Mechanical properties :
#
#
# Convention : Reuss Voigt Hill
#
# Bulk Modulus (GPa) = 39.64562 42.70065 41.17313
# Shear Modulus (GPa) = 24.56281 28.69528 26.62904
#
# Velocity S-wave (km/s) = 3.55138 3.83851 3.69773
# Velocity P-wave (km/s) = 6.09699 6.44757 6.27473
#
# Compressibility (1/GPa) = 0.02522347
#
# Stress axis : x y z
#
# Youngs Moduli (GPa) = 48.73881 66.58529 42.30753
#
# Poissons Ratio (x) = 0.03927 0.60622
# Poissons Ratio (y) = 0.02875 0.08697
# Poissons Ratio (z) = 0.69837 0.13688
#
# Static dielectric constant tensor:
#      x y z
#    x 1.626270 0.000000 -0.011980 
#    y 0.000000 1.734300 0.000000 
#    z -0.011980 0.000000 1.726520 
# 
# From -- ./inp_files/26768.got.cif
#   From: 2010.05.17/outbox.cif.g08.bks.cpg/sg14_14_cif.got.tgz:26768.got - 2010.06.03 17:49:19.
