data_PCOD9251897
_publ_section_title
;
Structure prediction by ZEFSAII (Michael W. Deem and Ramdas Pophale) SiO2 
 PCOD9251897
Probable space group: P 21/C
;
_chemical_formula_sum "Si O2"
_cell_formula_units_Z 20
_cell_length_a 19.887292
_cell_length_b 7.907140
_cell_length_c 12.631253
_cell_angle_alpha 90.000000
_cell_angle_beta 27.448506
_cell_angle_gamma 90.000000
_cell_volume 915.580418
_symmetry_space_group_name_H-M "P 21/C"
_symmetry_group_IT_number 14
_symmetry_cell_setting 'monoclinic'
loop_
_space_group_symop_operation_xyz
x,y,z
-x,1/2+y,1/2-z
-x,-y,-z
x,1/2-y,1/2+z
loop_
_atom_site_type_symbol
_atom_site_label
_atom_site_fract_x
_atom_site_fract_y
_atom_site_fract_z
Si Si1 0.651607 0.784975 0.407028
Si Si2 0.942166 0.918137 0.471045
Si Si3 0.540939 0.187965 0.985297
Si Si4 0.595031 0.373675 0.109494
Si Si5 0.182765 0.689548 0.023653
O O1 0.814373 0.713590 0.181173
O O2 0.601705 0.786636 0.353888
O O3 0.548121 0.656876 0.619043
O O4 0.611699 0.964122 0.512369
O O5 0.065640 0.818263 0.233154
O O6 0.880216 0.057753 0.474629
O O7 0.000000 0.000000 0.500000
O O8 0.677315 0.265683 0.731490
O O9 0.585039 0.214064 0.044085
O O10 0.500000 0.000000 0.000000
O O11 0.736090 0.388054 0.987582
#
# Coordination Sequence:
#
# PCOD9251897 Si02
#       5
#     4   4   4   4   4
#     4  11  26  42  75 102 144 186 246 298 370 438
#     4  12  29  48  72 108 152 195 246 304 373 446
#     4  11  22  46  73 103 141 187 248 304 366 438
#     4  11  25  45  73 105 141 192 248 307 366 433
#     4  11  27  45  73 100 148 189 246 302 373 440
#
# _framework density 21.844066000000002
#
# number of rings (size 3 to 8) (size 9 to 14) (size 15 to 20)
#    0.000    0.800    2.000    4.200   11.200    0.800 
#    0.000    0.000    0.000    0.000    0.000    0.000 
#    0.000    0.000    0.000    0.000    0.000    0.000 
#
# Total GULP energy -111512.750091 kJ/mol
# GULP energy per Si atom -5575.637505 kJ/mol
# Density = 2.179435 g / cm^3
# Si number density = 21.844066 Si / 1000 Ang^3
#
#
#
# Elastic Constant Matrix: (Units=GPa)
#
#
# Indices 1 2 3 4 5 6 
#
# 1 127.6034 35.0810 20.5500 0.0000 15.9261 0.0000
# 2 35.0810 97.7616 26.4264 0.0000 7.9513 0.0000
# 3 20.5500 26.4264 113.9837 0.0000 -10.1392 0.0000
# 4 0.0000 0.0000 0.0000 34.4170 0.0000 9.4814
# 5 15.9261 7.9513 -10.1392 0.0000 35.0988 0.0000
# 6 0.0000 0.0000 0.0000 9.4814 0.0000 31.7601
#
#
#
# Elastic Compliance Matrix: (Units=1/GPa)
#
#
# Indices 1 2 3 4 5 6 
#
# 1 0.009290 -0.002620 -0.001426 0.000000 -0.004034 0.000000
# 2 -0.002620 0.012034 -0.002519 0.000000 -0.002265 0.000000
# 3 -0.001426 -0.002519 0.009979 0.000000 0.004101 0.000000
# 4 0.000000 0.000000 0.000000 0.031659 0.000000 -0.009451
# 5 -0.004034 -0.002265 0.004101 0.000000 0.032019 0.000000
# 6 0.000000 0.000000 0.000000 -0.009451 0.000000 0.034308
#
#
# Mechanical properties :
#
#
# Convention : Reuss Voigt Hill
#
# Bulk Modulus (GPa) = 55.02797 55.94039 55.48418
# Shear Modulus (GPa) = 33.67495 37.40794 35.54145
#
# Velocity S-wave (km/s) = 3.93059 4.14272 4.03805
# Velocity P-wave (km/s) = 6.77092 6.96760 6.86996
#
# Compressibility (1/GPa) = 0.01817258
#
# Stress axis : x y z
#
# Youngs Moduli (GPa) = 107.63937 83.09524 100.20888
#
# Poissons Ratio (x) = 0.21772 0.14293
# Poissons Ratio (y) = 0.28203 0.25245
# Poissons Ratio (z) = 0.15353 0.20933
#
# Static dielectric constant tensor:
#      x y z
#    x 1.922950 0.000000 0.041880 
#    y 0.000000 1.877460 0.000000 
#    z 0.041880 0.000000 1.791330 
# 
# From -- ./inp_files/43251.got.cif
#   From: 2010.05.17/outbox.cif.g08.bks.cpg/sg14_22_cif.got.tgz:43251.got - 2010.06.03 17:49:19.
