data_PCOD9251902
_publ_section_title
;
Structure prediction by ZEFSAII (Michael W. Deem and Ramdas Pophale) SiO2 
 PCOD9251902
Probable space group: P 21/C
;
_chemical_formula_sum "Si O2"
_cell_formula_units_Z 24
_cell_length_a 11.159745
_cell_length_b 7.524987
_cell_length_c 23.292298
_cell_angle_alpha 90.000000
_cell_angle_beta 33.073837
_cell_angle_gamma 90.000000
_cell_volume 1067.435733
_symmetry_space_group_name_H-M "P 21/C"
_symmetry_group_IT_number 14
_symmetry_cell_setting 'monoclinic'
loop_
_space_group_symop_operation_xyz
x,y,z
-x,1/2+y,1/2-z
-x,-y,-z
x,1/2-y,1/2+z
loop_
_atom_site_type_symbol
_atom_site_label
_atom_site_fract_x
_atom_site_fract_y
_atom_site_fract_z
Si Si1 0.788511 0.275867 0.164990
Si Si2 0.934317 0.422372 0.716433
Si Si3 0.305566 0.916133 0.986073
Si Si4 0.696927 0.584696 0.634321
Si Si5 0.214065 0.203536 0.208044
Si Si6 0.975887 0.629335 0.090229
O O1 0.829723 0.215111 0.213873
O O2 0.556020 0.373620 0.250503
O O3 0.777035 0.095730 0.133080
O O4 0.967813 0.423885 0.076751
O O5 0.768392 0.583305 0.795308
O O6 0.143445 0.511270 0.599898
O O7 0.025096 0.337854 0.737953
O O8 0.557779 0.887405 0.900725
O O9 0.287643 0.049308 0.939482
O O10 0.208782 0.725780 0.004218
O O11 0.836456 0.744003 0.604737
O O12 0.142421 0.139350 0.299867
#
# Coordination Sequence:
#
# PCOD9251902 Si02
#       6
#     4   4   4   4   4   4
#     4  12  23  43  70 102 137 191 226 281 350 405
#     4  11  26  45  71 101 137 182 237 287 348 407
#     4  11  24  44  70 103 143 182 231 289 343 413
#     4  12  23  43  69 102 145 181 233 280 343 418
#     4  11  22  47  69  97 139 183 229 289 341 410
#     4  11  24  44  68 103 140 183 230 282 347 403
#
# _framework density 22.483789999999999
#
# number of rings (size 3 to 8) (size 9 to 14) (size 15 to 20)
#    0.000    0.667    6.667    2.000    0.000    0.667 
#    3.000    4.167    0.000    0.000    0.000    0.000 
#    0.000    0.000    0.000    0.000    0.000    0.000 
#
# Total GULP energy -134397.469546 kJ/mol
# GULP energy per Si atom -5599.894564 kJ/mol
# Density = 2.243262 g / cm^3
# Si number density = 22.483790 Si / 1000 Ang^3
#
#
#
# Elastic Constant Matrix: (Units=GPa)
#
#
# Indices 1 2 3 4 5 6 
#
# 1 102.8678 43.7994 -0.7113 0.0000 1.2803 0.0000
# 2 43.7994 139.8663 -6.1787 0.0000 15.3007 0.0000
# 3 -0.7113 -6.1787 28.7235 0.0000 4.7740 0.0000
# 4 0.0000 0.0000 0.0000 30.3067 0.0000 1.5501
# 5 1.2803 15.3007 4.7740 0.0000 25.1209 0.0000
# 6 0.0000 0.0000 0.0000 1.5501 0.0000 32.9774
#
#
#
# Elastic Compliance Matrix: (Units=1/GPa)
#
#
# Indices 1 2 3 4 5 6 
#
# 1 0.011303 -0.003784 -0.000848 0.000000 0.001890 0.000000
# 2 -0.003784 0.009105 0.002844 0.000000 -0.005893 0.000000
# 3 -0.000848 0.002844 0.036850 0.000000 -0.008692 0.000000
# 4 0.000000 0.000000 0.000000 0.033076 0.000000 -0.001555
# 5 0.001890 -0.005893 -0.008692 0.000000 0.044953 0.000000
# 6 0.000000 0.000000 0.000000 -0.001555 0.000000 0.030397
#
#
# Mechanical properties :
#
#
# Convention : Reuss Voigt Hill
#
# Bulk Modulus (GPa) = 18.62781 38.36405 28.49593
# Shear Modulus (GPa) = 26.71622 33.31755 30.01688
#
# Velocity S-wave (km/s) = 3.45083 3.85365 3.65779
# Velocity P-wave (km/s) = 4.91738 6.07461 5.52637
#
# Compressibility (1/GPa) = 0.05368317
#
# Stress axis : x y z
#
# Youngs Moduli (GPa) = 88.47312 109.83080 27.13686
#
# Poissons Ratio (x) = 0.41557 0.02301
# Poissons Ratio (y) = 0.33476 -0.07719
# Poissons Ratio (z) = 0.07503 -0.31240
#
# Static dielectric constant tensor:
#      x y z
#    x 1.793390 0.000000 0.010910 
#    y 0.000000 1.839000 0.000000 
#    z 0.010910 0.000000 1.822290 
# 
# From -- ./inp_files/73035.got.cif
#   From: 2010.05.17/outbox.cif.g08.bks.cpg/sg14_37_cif.got.tgz:73035.got - 2010.06.03 17:49:19.
