data_PCOD9251891
_publ_section_title
;
Structure prediction by ZEFSAII (Michael W. Deem and Ramdas Pophale) SiO2 
 PCOD9251891
Probable space group: P 21/C
;
_chemical_formula_sum "Si O2"
_cell_formula_units_Z 24
_cell_length_a 6.470455
_cell_length_b 9.285563
_cell_length_c 17.448407
_cell_angle_alpha 90.000000
_cell_angle_beta 104.296278
_cell_angle_gamma 90.000000
_cell_volume 1015.867024
_symmetry_space_group_name_H-M "P 21/C"
_symmetry_group_IT_number 14
_symmetry_cell_setting 'monoclinic'
loop_
_space_group_symop_operation_xyz
x,y,z
-x,1/2+y,1/2-z
-x,-y,-z
x,1/2-y,1/2+z
loop_
_atom_site_type_symbol
_atom_site_label
_atom_site_fract_x
_atom_site_fract_y
_atom_site_fract_z
Si Si1 0.666167 0.082703 0.306683
Si Si2 0.976140 0.553503 0.623448
Si Si3 0.856042 0.297659 0.516470
Si Si4 0.315719 0.645062 0.781373
Si Si5 0.584130 0.749332 0.081019
Si Si6 0.879050 0.007527 0.586251
O O1 0.671622 0.185321 0.233267
O O2 0.537168 0.176222 0.358384
O O3 0.538004 0.935270 0.285295
O O4 0.903760 0.051850 0.357410
O O5 0.950856 0.389016 0.595074
O O6 0.751199 0.629219 0.621143
O O7 0.059870 0.633381 0.554420
O O8 0.142153 0.581241 0.705996
O O9 0.600199 0.309690 0.490060
O O10 0.913842 0.129649 0.526115
O O11 0.239663 0.599315 0.857928
O O12 0.717748 0.621725 0.053172
#
# Coordination Sequence:
#
# PCOD9251891 Si02
#       6
#     4   4   4   4   4   4
#     4  11  26  45  70  99 133 179 223 285 330 401
#     4  11  25  44  69  98 139 179 221 280 334 400
#     4  11  25  43  68 102 133 180 222 276 337 403
#     4  11  26  44  69  99 133 181 224 279 340 393
#     4  11  22  46  67  98 132 177 224 275 337 395
#     4  11  26  42  71  98 134 176 227 280 335 400
#
# _framework density 23.625142
#
# number of rings (size 3 to 8) (size 9 to 14) (size 15 to 20)
#    0.000    1.000    3.333    1.000    7.000    5.333 
#    3.000    0.000    0.000    0.000    0.000    0.000 
#    0.000    0.000    0.000    0.000    0.000    0.000 
#
# Total GULP energy -134495.691864 kJ/mol
# GULP energy per Si atom -5603.987161 kJ/mol
# Density = 2.357137 g / cm^3
# Si number density = 23.625142 Si / 1000 Ang^3
#
#
#
# Elastic Constant Matrix: (Units=GPa)
#
#
# Indices 1 2 3 4 5 6 
#
# 1 105.2245 15.8331 -1.3382 0.0000 9.0140 0.0000
# 2 15.8331 81.1218 -10.8398 0.0000 2.3585 0.0000
# 3 -1.3382 -10.8398 29.7090 0.0000 -7.6227 0.0000
# 4 0.0000 0.0000 0.0000 46.3137 0.0000 3.4430
# 5 9.0140 2.3585 -7.6227 0.0000 28.5472 0.0000
# 6 0.0000 0.0000 0.0000 3.4430 0.0000 39.1604
#
#
#
# Elastic Compliance Matrix: (Units=1/GPa)
#
#
# Indices 1 2 3 4 5 6 
#
# 1 0.010078 -0.002022 -0.001135 0.000000 -0.003318 0.000000
# 2 -0.002022 0.013366 0.005009 0.000000 0.000872 0.000000
# 3 -0.001135 0.005009 0.038028 0.000000 0.010099 0.000000
# 4 0.000000 0.000000 0.000000 0.021734 0.000000 -0.001911
# 5 -0.003318 0.000872 0.010099 0.000000 0.038702 0.000000
# 6 0.000000 0.000000 0.000000 -0.001911 0.000000 0.025704
#
#
# Mechanical properties :
#
#
# Convention : Reuss Voigt Hill
#
# Bulk Modulus (GPa) = 15.34332 24.81837 20.08085
# Shear Modulus (GPa) = 30.18744 36.96428 33.57586
#
# Velocity S-wave (km/s) = 3.57847 3.95981 3.77396
# Velocity P-wave (km/s) = 4.85618 5.60667 5.24486
#
# Compressibility (1/GPa) = 0.06517493
#
# Stress axis : x y z
#
# Youngs Moduli (GPa) = 99.23030 74.81763 26.29675
#
# Poissons Ratio (x) = 0.15129 0.02985
# Poissons Ratio (y) = 0.20066 -0.13173
# Poissons Ratio (z) = 0.11265 -0.37479
#
# Static dielectric constant tensor:
#      x y z
#    x 1.902770 0.000000 -0.064570 
#    y 0.000000 1.884580 0.000000 
#    z -0.064570 0.000000 1.871390 
# 
# From -- ./inp_files/71072.got.cif
#   From: 2010.05.17/outbox.cif.g08.bks.cpg/sg14_36_cif.got.tgz:71072.got - 2010.06.03 17:49:19.
