data_PCOD9251098
_publ_section_title
;
Structure prediction by ZEFSAII (Michael W. Deem and Ramdas Pophale) SiO2 
 PCOD9251098
Probable space group: P 21/C
;
_chemical_formula_sum "Si O2"
_cell_formula_units_Z 20
_cell_length_a 4.766157
_cell_length_b 18.505439
_cell_length_c 8.924591
_cell_angle_alpha 90.000000
_cell_angle_beta 110.899201
_cell_angle_gamma 90.000000
_cell_volume 735.360527
_symmetry_space_group_name_H-M "P 21/C"
_symmetry_group_IT_number 14
_symmetry_cell_setting 'monoclinic'
loop_
_space_group_symop_operation_xyz
x,y,z
-x,1/2+y,1/2-z
-x,-y,-z
x,1/2-y,1/2+z
loop_
_atom_site_type_symbol
_atom_site_label
_atom_site_fract_x
_atom_site_fract_y
_atom_site_fract_z
Si Si1 0.961586 0.912633 0.469971
Si Si2 0.343588 0.702026 0.867651
Si Si3 0.238256 0.081896 0.239637
Si Si4 0.046980 0.211913 0.006124
Si Si5 0.698264 0.991087 0.184926
O O1 0.842341 0.888145 0.610754
O O2 0.229576 0.866830 0.445695
O O3 0.706499 0.918824 0.287135
O O4 0.000000 0.000000 0.500000
O O5 0.692580 0.727244 0.912270
O O6 0.111320 0.704827 0.684360
O O7 0.237162 0.768916 0.947396
O O8 0.166379 0.137555 0.095730
O O9 0.568438 0.054373 0.267558
O O10 0.031549 0.010491 0.193509
O O11 0.500000 0.000000 0.000000
#
# Coordination Sequence:
#
# PCOD9251098 Si02
#       5
#     4   4   4   4   4
#     4  10  25  47  74 107 148 195 247 314 387 458
#     4  12  27  48  74 107 148 196 255 315 385 464
#     4  11  24  45  70 104 147 191 246 308 381 461
#     4  12  27  48  75 109 149 202 255 320 386 458
#     4  11  23  42  72 109 148 192 243 307 381 461
#
# _framework density 27.197547
#
# number of rings (size 3 to 8) (size 9 to 14) (size 15 to 20)
#    0.000    0.800    0.000    6.000    0.000   14.400 
#    0.000    0.000    0.000    0.000    0.000    0.000 
#    0.000    0.000    0.000    0.000    0.000    0.000 
#
# Total GULP energy -111655.996153 kJ/mol
# GULP energy per Si atom -5582.799808 kJ/mol
# Density = 2.713564 g / cm^3
# Si number density = 27.197547 Si / 1000 Ang^3
#
#
#
# Elastic Constant Matrix: (Units=GPa)
#
#
# Indices 1 2 3 4 5 6 
#
# 1 117.3464 3.1040 42.0053 0.0000 -6.1168 0.0000
# 2 3.1040 48.6291 30.6717 0.0000 8.8499 0.0000
# 3 42.0053 30.6717 198.3740 0.0000 -7.5401 0.0000
# 4 0.0000 0.0000 0.0000 70.5487 0.0000 -2.9286
# 5 -6.1168 8.8499 -7.5401 0.0000 31.2049 0.0000
# 6 0.0000 0.0000 0.0000 -2.9286 0.0000 35.7995
#
#
#
# Elastic Compliance Matrix: (Units=1/GPa)
#
#
# Indices 1 2 3 4 5 6 
#
# 1 0.009285 0.000440 -0.001988 0.000000 0.001215 0.000000
# 2 0.000440 0.024626 -0.004201 0.000000 -0.007913 0.000000
# 3 -0.001988 -0.004201 0.006199 0.000000 0.002300 0.000000
# 4 0.000000 0.000000 0.000000 0.014223 0.000000 0.001164
# 5 0.001215 -0.007913 0.002300 0.000000 0.035084 0.000000
# 6 0.000000 0.000000 0.000000 0.001164 0.000000 0.028029
#
#
# Mechanical properties :
#
#
# Convention : Reuss Voigt Hill
#
# Bulk Modulus (GPa) = 34.95146 57.32350 46.13748
# Shear Modulus (GPa) = 36.10598 46.74851 41.42724
#
# Velocity S-wave (km/s) = 3.64750 4.15040 3.90705
# Velocity P-wave (km/s) = 5.53334 6.64005 6.11180
#
# Compressibility (1/GPa) = 0.02861110
#
# Stress axis : x y z
#
# Youngs Moduli (GPa) = 107.69967 40.60787 161.31741
#
# Poissons Ratio (x) = -0.01787 0.32069
# Poissons Ratio (y) = -0.04740 0.67777
# Poissons Ratio (z) = 0.21410 0.17061
#
# Static dielectric constant tensor:
#      x y z
#    x 2.102940 0.000000 0.208450 
#    y 0.000000 2.257250 0.000000 
#    z 0.208450 0.000000 2.540530 
# 
# From -- ./inp_files/5764.got.cif
#   From: 2010.05.17/outbox.cif.g08.bks.cpg/sg14_3_cif.got.tgz:5764.got - 2010.06.03 17:49:19.
