data_PCOD9251490
_publ_section_title
;
Structure prediction by ZEFSAII (Michael W. Deem and Ramdas Pophale) SiO2 
 PCOD9251490
Probable space group: P 21/C
;
_chemical_formula_sum "Si O2"
_cell_formula_units_Z 20
_cell_length_a 7.824789
_cell_length_b 5.108439
_cell_length_c 32.823889
_cell_angle_alpha 90.000000
_cell_angle_beta 36.116520
_cell_angle_gamma 90.000000
_cell_volume 773.361597
_symmetry_space_group_name_H-M "P 21/C"
_symmetry_group_IT_number 14
_symmetry_cell_setting 'monoclinic'
loop_
_space_group_symop_operation_xyz
x,y,z
-x,1/2+y,1/2-z
-x,-y,-z
x,1/2-y,1/2+z
loop_
_atom_site_type_symbol
_atom_site_label
_atom_site_fract_x
_atom_site_fract_y
_atom_site_fract_z
Si Si1 0.606868 0.777785 0.336814
Si Si2 0.087250 0.272673 0.031766
Si Si3 0.892840 0.257095 0.418648
Si Si4 0.371671 0.730821 0.619666
Si Si5 0.516946 0.489807 0.222546
O O1 0.693273 0.493198 0.335208
O O2 0.255747 0.794071 0.408920
O O3 0.730820 0.993938 0.343141
O O4 0.664555 0.865351 0.279428
O O5 0.213368 0.526952 0.030853
O O6 0.123916 0.024750 0.053879
O O7 0.279308 0.232035 0.954710
O O8 0.751497 0.301737 0.401860
O O9 0.216586 0.155731 0.346797
O O10 0.630045 0.225596 0.223551
#
# Coordination Sequence:
#
# PCOD9251490 Si02
#       5
#     4   4   4   4   4
#     4  11  23  38  62  92 120 159 203 243 297 359
#     4  11  21  39  61  91 130 169 191 224 296 380
#     4  11  23  39  63  92 121 162 205 239 294 364
#     4  12  22  38  61  97 131 152 189 254 299 350
#     4  11  23  44  66  82 111 162 212 254 298 357
#
# _framework density 25.861121000000001
#
# number of rings (size 3 to 8) (size 9 to 14) (size 15 to 20)
#    0.000    0.800    0.000   10.800    0.000    0.000 
#    0.000    4.000    0.000    2.400    0.000    0.000 
#    0.000    0.000    0.000    0.000    0.000    0.000 
#
# Total GULP energy -112093.978883 kJ/mol
# GULP energy per Si atom -5604.698944 kJ/mol
# Density = 2.580226 g / cm^3
# Si number density = 25.861121 Si / 1000 Ang^3
#
#
#
# Elastic Constant Matrix: (Units=GPa)
#
#
# Indices 1 2 3 4 5 6 
#
# 1 79.0021 23.4229 3.0976 0.0003 7.9417 0.0001
# 2 23.4229 146.0669 15.5769 0.0000 37.8943 0.0001
# 3 3.0976 15.5769 58.9923 0.0012 15.3086 -0.0002
# 4 0.0003 0.0000 0.0012 33.4486 -0.0006 24.5634
# 5 7.9417 37.8943 15.3086 -0.0006 39.4314 -0.0002
# 6 0.0001 0.0001 -0.0002 24.5634 -0.0002 28.2573
#
#
#
# Elastic Compliance Matrix: (Units=1/GPa)
#
#
# Indices 1 2 3 4 5 6 
#
# 1 0.013311 -0.001917 0.000028 0.000000 -0.000849 0.000000
# 2 -0.001917 0.009397 -0.000153 0.000000 -0.008585 0.000000
# 3 0.000028 -0.000153 0.018853 -0.000002 -0.007178 0.000002
# 4 0.000000 0.000000 -0.000002 0.082671 0.000002 -0.071864
# 5 -0.000849 -0.008585 -0.007178 0.000002 0.036569 -0.000002
# 6 0.000000 0.000000 0.000002 -0.071864 -0.000002 0.097859
#
#
# Mechanical properties :
#
#
# Convention : Reuss Voigt Hill
#
# Bulk Modulus (GPa) = 26.68339 40.91734 33.80036
# Shear Modulus (GPa) = 18.16626 36.35839 27.26232
#
# Velocity S-wave (km/s) = 2.65326 3.75361 3.25034
# Velocity P-wave (km/s) = 4.44148 5.88578 5.21389
#
# Compressibility (1/GPa) = 0.03747650
#
# Stress axis : x y z
#
# Youngs Moduli (GPa) = 75.12832 106.41441 53.04196
#
# Poissons Ratio (x) = 0.20400 -0.00147
# Poissons Ratio (y) = 0.14403 0.00810
# Poissons Ratio (z) = -0.00208 0.01625
#
# Static dielectric constant tensor:
#      x y z
#    x 2.055800 0.000000 -0.055820 
#    y 0.000000 1.976370 0.000000 
#    z -0.055820 0.000000 2.113710 
# 
# From -- ./inp_files/75991.got.cif
#   From: 2010.05.17/outbox.cif.g08.bks.cpg/sg14_38_cif.got.tgz:75991.got - 2010.06.03 17:49:19.
