data_PCOD9251441
_publ_section_title
;
Structure prediction by ZEFSAII (Michael W. Deem and Ramdas Pophale) SiO2 
 PCOD9251441
Probable space group: P 21/C
;
_chemical_formula_sum "Si O2"
_cell_formula_units_Z 24
_cell_length_a 12.804370
_cell_length_b 9.006923
_cell_length_c 10.070710
_cell_angle_alpha 90.000000
_cell_angle_beta 102.563957
_cell_angle_gamma 90.000000
_cell_volume 1133.622638
_symmetry_space_group_name_H-M "P 21/C"
_symmetry_group_IT_number 14
_symmetry_cell_setting 'monoclinic'
loop_
_space_group_symop_operation_xyz
x,y,z
-x,1/2+y,1/2-z
-x,-y,-z
x,1/2-y,1/2+z
loop_
_atom_site_type_symbol
_atom_site_label
_atom_site_fract_x
_atom_site_fract_y
_atom_site_fract_z
Si Si1 0.480504 0.431518 0.808164
Si Si2 0.060270 0.089818 0.630580
Si Si3 0.743466 0.218980 0.113751
Si Si4 0.957531 0.411480 0.610422
Si Si5 0.488536 0.742658 0.924589
Si Si6 0.737439 0.071401 0.383129
O O1 0.444113 0.599008 0.828991
O O2 0.451612 0.348703 0.663225
O O3 0.610224 0.451453 0.840023
O O4 0.455935 0.327368 0.929876
O O5 0.019282 0.256015 0.630102
O O6 0.027307 0.006591 0.754532
O O7 0.186592 0.064810 0.635973
O O8 0.000000 0.000000 0.500000
O O9 0.830521 0.115650 0.068949
O O10 0.619684 0.176893 0.056277
O O11 0.762988 0.196801 0.276952
O O12 0.759741 0.372531 0.038636
O O13 0.000000 0.500000 0.500000
#
# Coordination Sequence:
#
# PCOD9251441 Si02
#       6
#     4   4   4   4   4   4
#     4   9  18  34  57  80 111 143 184 225 272 327
#     4  11  21  36  57  81 112 147 186 233 278 330
#     4   9  18  33  56  80 108 144 184 221 276 332
#     4  11  23  37  57  83 110 145 189 231 278 337
#     4   9  18  34  57  80 107 144 179 226 271 327
#     4   9  18  33  56  79 111 146 184 230 271 326
#
# _framework density 21.171068000000002
#
# number of rings (size 3 to 8) (size 9 to 14) (size 15 to 20)
#    0.000    2.333    1.667    1.000    2.333    0.667 
#    0.000    1.667   29.333    0.000    0.000    0.000 
#    0.000    0.000    0.000    0.000    0.000    0.000 
#
# Total GULP energy -133768.332194 kJ/mol
# GULP energy per Si atom -5573.680508 kJ/mol
# Density = 2.112288 g / cm^3
# Si number density = 21.171068 Si / 1000 Ang^3
#
#
#
# Elastic Constant Matrix: (Units=GPa)
#
#
# Indices 1 2 3 4 5 6 
#
# 1 48.3489 22.7721 29.2437 0.0000 -19.7871 0.0000
# 2 22.7721 88.9209 27.4359 0.0000 -11.1769 0.0000
# 3 29.2437 27.4359 63.1467 0.0000 -26.7323 0.0000
# 4 0.0000 0.0000 0.0000 38.0087 0.0000 -8.8241
# 5 -19.7871 -11.1769 -26.7323 0.0000 27.8152 0.0000
# 6 0.0000 0.0000 0.0000 -8.8241 0.0000 19.2862
#
#
#
# Elastic Compliance Matrix: (Units=1/GPa)
#
#
# Indices 1 2 3 4 5 6 
#
# 1 0.033209 -0.004427 -0.007094 0.000000 0.015027 0.000000
# 2 -0.004427 0.013579 -0.004844 0.000000 -0.002348 0.000000
# 3 -0.007094 -0.004844 0.030795 0.000000 0.022603 0.000000
# 4 0.000000 0.000000 0.000000 0.029437 0.000000 0.013468
# 5 0.015027 -0.002348 0.022603 0.000000 0.067420 0.000000
# 6 0.000000 0.000000 0.000000 0.013468 0.000000 0.058013
#
#
# Mechanical properties :
#
#
# Convention : Reuss Voigt Hill
#
# Bulk Modulus (GPa) = 22.29524 39.92445 31.10984
# Shear Modulus (GPa) = 17.84867 25.08634 21.46751
#
# Velocity S-wave (km/s) = 2.90671 3.44602 3.18779
# Velocity P-wave (km/s) = 4.67110 5.89342 5.31750
#
# Compressibility (1/GPa) = 0.04485262
#
# Stress axis : x y z
#
# Youngs Moduli (GPa) = 30.11237 73.64315 32.47329
#
# Poissons Ratio (x) = 0.32601 0.23038
# Poissons Ratio (y) = 0.13330 0.15729
# Poissons Ratio (z) = 0.21363 0.35670
#
# Static dielectric constant tensor:
#      x y z
#    x 1.820370 0.000000 -0.002020 
#    y 0.000000 1.778930 0.000000 
#    z -0.002020 0.000000 1.786190 
# 
# From -- ./inp_files/15151.got.cif
#   From: 2010.05.17/outbox.cif.g08.bks.cpg/sg14_8_cif.got.tgz:15151.got - 2010.06.03 17:49:19.
