data_PCOD9251424
_publ_section_title
;
Structure prediction by ZEFSAII (Michael W. Deem and Ramdas Pophale) SiO2 
 PCOD9251424
Probable space group: P 21/C
;
_chemical_formula_sum "Si O2"
_cell_formula_units_Z 24
_cell_length_a 8.177125
_cell_length_b 14.741193
_cell_length_c 8.251983
_cell_angle_alpha 90.000000
_cell_angle_beta 95.141407
_cell_angle_gamma 90.000000
_cell_volume 990.696690
_symmetry_space_group_name_H-M "P 21/C"
_symmetry_group_IT_number 14
_symmetry_cell_setting 'monoclinic'
loop_
_space_group_symop_operation_xyz
x,y,z
-x,1/2+y,1/2-z
-x,-y,-z
x,1/2-y,1/2+z
loop_
_atom_site_type_symbol
_atom_site_label
_atom_site_fract_x
_atom_site_fract_y
_atom_site_fract_z
Si Si1 0.920036 0.979937 0.318898
Si Si2 0.013324 0.836203 0.792451
Si Si3 0.235363 0.193585 0.792373
Si Si4 0.601223 0.067888 0.400133
Si Si5 0.227426 0.765408 0.528380
Si Si6 0.546286 0.691667 0.395314
O O1 0.907125 0.874911 0.276913
O O2 0.996956 0.055703 0.208764
O O3 0.729592 0.007932 0.311870
O O4 0.000000 0.000000 0.500000
O O5 0.169095 0.799298 0.700201
O O6 0.067043 0.790116 0.962455
O O7 0.851130 0.791989 0.704807
O O8 0.379617 0.214979 0.674806
O O9 0.313263 0.160492 0.967107
O O10 0.708427 0.135739 0.525053
O O11 0.498129 0.127678 0.261274
O O12 0.500000 0.000000 0.500000
O O13 0.386603 0.706255 0.496083
#
# Coordination Sequence:
#
# PCOD9251424 Si02
#       6
#     4   4   4   4   4   4
#     4  11  24  44  70  96 138 185 234 283 349 420
#     4  11  24  44  69  97 137 181 233 285 351 414
#     4  12  25  44  71 109 138 187 234 301 345 423
#     4  11  24  42  69 101 135 183 230 287 353 420
#     4  11  20  45  67  95 133 183 225 280 350 415
#     4  12  23  43  71 101 144 180 233 294 355 413
#
# _framework density 24.225375
#
# number of rings (size 3 to 8) (size 9 to 14) (size 15 to 20)
#    0.000    0.667    5.000    5.000    2.333    0.667 
#    3.000    1.667    0.000    0.000    0.000    0.000 
#    0.000    0.000    0.000    0.000    0.000    0.000 
#
# Total GULP energy -133833.328232 kJ/mol
# GULP energy per Si atom -5576.388676 kJ/mol
# Density = 2.417024 g / cm^3
# Si number density = 24.225375 Si / 1000 Ang^3
#
#
#
# Elastic Constant Matrix: (Units=GPa)
#
#
# Indices 1 2 3 4 5 6 
#
# 1 86.5107 8.5107 7.8033 0.0000 4.4926 0.0000
# 2 8.5107 81.4055 8.8390 0.0000 6.3980 0.0000
# 3 7.8033 8.8390 69.4999 0.0000 18.1499 0.0000
# 4 0.0000 0.0000 0.0000 37.9200 0.0000 5.4156
# 5 4.4926 6.3980 18.1499 0.0000 38.4304 0.0000
# 6 0.0000 0.0000 0.0000 5.4156 0.0000 48.3257
#
#
#
# Elastic Compliance Matrix: (Units=1/GPa)
#
#
# Indices 1 2 3 4 5 6 
#
# 1 0.011792 -0.001067 -0.000998 0.000000 -0.000730 0.000000
# 2 -0.001067 0.012630 -0.001106 0.000000 -0.001455 0.000000
# 3 -0.000998 -0.001106 0.016611 0.000000 -0.007544 0.000000
# 4 0.000000 0.000000 0.000000 0.026800 0.000000 -0.003003
# 5 -0.000730 -0.001455 -0.007544 0.000000 0.029912 0.000000
# 6 0.000000 0.000000 0.000000 -0.003003 0.000000 0.021029
#
#
# Mechanical properties :
#
#
# Convention : Reuss Voigt Hill
#
# Bulk Modulus (GPa) = 28.82568 31.96911 30.39739
# Shear Modulus (GPa) = 36.58134 39.08609 37.83372
#
# Velocity S-wave (km/s) = 3.89014 4.02112 3.95617
# Velocity P-wave (km/s) = 5.66590 5.89783 5.78303
#
# Compressibility (1/GPa) = 0.03469130
#
# Stress axis : x y z
#
# Youngs Moduli (GPa) = 84.80227 79.17485 60.19937
#
# Poissons Ratio (x) = 0.08449 0.06006
# Poissons Ratio (y) = 0.09050 0.06661
# Poissons Ratio (z) = 0.08461 0.08760
#
# Static dielectric constant tensor:
#      x y z
#    x 1.999460 0.000000 -0.047050 
#    y 0.000000 1.985120 0.000000 
#    z -0.047050 0.000000 2.015600 
# 
# From -- ./inp_files/8547.got.cif
#   From: 2010.05.17/outbox.cif.g08.bks.cpg/sg14_5_cif.got.tgz:8547.got - 2010.06.03 17:49:19.
