data_PCOD9251802
_publ_section_title
;
Structure prediction by ZEFSAII (Michael W. Deem and Ramdas Pophale) SiO2 
 PCOD9251802
Probable space group: P 21/C
;
_chemical_formula_sum "Si O2"
_cell_formula_units_Z 16
_cell_length_a 8.114268
_cell_length_b 8.341496
_cell_length_c 12.219755
_cell_angle_alpha 90.000000
_cell_angle_beta 49.751545
_cell_angle_gamma 90.000000
_cell_volume 631.280746
_symmetry_space_group_name_H-M "P 21/C"
_symmetry_group_IT_number 14
_symmetry_cell_setting 'monoclinic'
loop_
_space_group_symop_operation_xyz
x,y,z
-x,1/2+y,1/2-z
-x,-y,-z
x,1/2-y,1/2+z
loop_
_atom_site_type_symbol
_atom_site_label
_atom_site_fract_x
_atom_site_fract_y
_atom_site_fract_z
Si Si1 0.092062 0.641819 0.651485
Si Si2 0.573901 0.120605 0.373657
Si Si3 0.391836 0.440996 0.362348
Si Si4 0.887109 0.943945 0.658854
O O1 0.258728 0.762438 0.638645
O O2 0.223843 0.525607 0.515162
O O3 0.999816 0.539152 0.790173
O O4 0.930090 0.757561 0.658124
O O5 0.410454 0.252496 0.386949
O O6 0.500000 0.000000 0.500000
O O7 0.656079 0.010885 0.238023
O O8 0.636163 0.509380 0.274651
O O9 0.000000 0.000000 0.500000
#
# Coordination Sequence:
#
# PCOD9251802 Si02
#       4
#     4   4   4   4
#     4  11  25  45  68 102 140 183 228 283 344 407
#     4  11  22  42  72 101 133 179 225 280 344 406
#     4  11  25  45  70 102 140 181 231 285 342 410
#     4  11  24  44  68  99 136 179 231 286 342 409
#
# _framework density 25.345299000000001
#
# number of rings (size 3 to 8) (size 9 to 14) (size 15 to 20)
#    0.000    1.000    0.000    9.000    0.000   10.000 
#    0.000    3.750    0.000    0.000    0.000    0.000 
#    0.000    0.000    0.000    0.000    0.000    0.000 
#
# Total GULP energy -89636.219542 kJ/mol
# GULP energy per Si atom -5602.263721 kJ/mol
# Density = 2.528761 g / cm^3
# Si number density = 25.345299 Si / 1000 Ang^3
#
#
#
# Elastic Constant Matrix: (Units=GPa)
#
#
# Indices 1 2 3 4 5 6 
#
# 1 33.5947 41.1884 48.3355 0.0000 14.9239 0.0000
# 2 41.1884 243.9923 117.1912 0.0000 20.8791 0.0000
# 3 48.3355 117.1912 221.4717 0.0000 46.6041 0.0000
# 4 0.0000 0.0000 0.0000 56.7315 0.0000 -6.4153
# 5 14.9239 20.8791 46.6041 0.0000 50.9923 0.0000
# 6 0.0000 0.0000 0.0000 -6.4153 0.0000 59.8990
#
#
#
# Elastic Compliance Matrix: (Units=1/GPa)
#
#
# Indices 1 2 3 4 5 6 
#
# 1 0.047440 -0.004192 -0.006903 0.000000 -0.005859 0.000000
# 2 -0.004192 0.005876 -0.002410 0.000000 0.001023 0.000000
# 3 -0.006903 -0.002410 0.008251 0.000000 -0.004534 0.000000
# 4 0.000000 0.000000 0.000000 0.017843 0.000000 0.001911
# 5 -0.005859 0.001023 -0.004534 0.000000 0.025051 0.000000
# 6 0.000000 0.000000 0.000000 0.001911 0.000000 0.016899
#
#
# Mechanical properties :
#
#
# Convention : Reuss Voigt Hill
#
# Bulk Modulus (GPa) = 28.93610 101.38765 65.16188
# Shear Modulus (GPa) = 31.27197 53.01411 42.14304
#
# Velocity S-wave (km/s) = 3.51641 4.57844 4.08211
# Velocity P-wave (km/s) = 5.28473 8.24857 6.92702
#
# Compressibility (1/GPa) = 0.03455891
#
# Stress axis : x y z
#
# Youngs Moduli (GPa) = 21.07923 170.18577 121.19829
#
# Poissons Ratio (x) = 0.71334 0.83660
# Poissons Ratio (y) = 0.08835 0.29206
# Poissons Ratio (z) = 0.14550 0.41011
#
# Static dielectric constant tensor:
#      x y z
#    x 2.403680 0.000000 -0.042810 
#    y 0.000000 1.991030 0.000000 
#    z -0.042810 0.000000 1.893750 
# 
# From -- ./inp_files/22678.got.cif
#   From: 2010.05.17/outbox.cif.g08.bks.cpg/sg14_12_cif.got.tgz:22678.got - 2010.06.03 17:49:19.
