data_PCOD9251183
_publ_section_title
;
Structure prediction by ZEFSAII (Michael W. Deem and Ramdas Pophale) SiO2 
 PCOD9251183
Probable space group: P 21/C
;
_chemical_formula_sum "Si O2"
_cell_formula_units_Z 30
_cell_length_a 6.611210
_cell_length_b 11.717079
_cell_length_c 19.219484
_cell_angle_alpha 90.000000
_cell_angle_beta 84.113084
_cell_angle_gamma 90.000000
_cell_volume 1480.967812
_symmetry_space_group_name_H-M "P 21/C"
_symmetry_group_IT_number 14
_symmetry_cell_setting 'monoclinic'
loop_
_space_group_symop_operation_xyz
x,y,z
-x,1/2+y,1/2-z
-x,-y,-z
x,1/2-y,1/2+z
loop_
_atom_site_type_symbol
_atom_site_label
_atom_site_fract_x
_atom_site_fract_y
_atom_site_fract_z
Si Si1 0.000000 0.000000 0.500000
Si Si2 0.853747 0.913274 0.112204
Si Si3 0.360835 0.191532 0.197055
Si Si4 0.946786 0.846208 0.370924
Si Si5 0.736261 0.342150 0.585814
Si Si6 0.549944 0.294669 0.328781
Si Si7 0.110603 0.970995 0.234458
Si Si8 0.808830 0.270452 0.944215
O O1 0.908692 0.910550 0.443946
O O2 0.100980 0.890937 0.537416
O O3 0.636417 0.854069 0.125467
O O4 0.014075 0.822443 0.077019
O O5 0.834639 0.033172 0.073112
O O6 0.928415 0.946090 0.187366
O O7 0.536448 0.144828 0.140197
O O8 0.463461 0.229232 0.265307
O O9 0.190649 0.098463 0.222035
O O10 0.248407 0.293571 0.160450
O O11 0.104897 0.743053 0.381675
O O12 0.049510 0.935182 0.313895
O O13 0.687740 0.282994 0.513956
O O14 0.705267 0.389568 0.295529
O O15 0.672328 0.220087 0.380243
#
# Coordination Sequence:
#
# PCOD9251183 Si02
#       8
#     2   4   4   4   4   4   4   4
#     4  10  26  48  66  94 140 188 228 276 342 422
#     4  11  22  42  70  99 132 175 226 285 339 401
#     4  12  24  41  72  99 134 180 231 284 344 404
#     4  11  24  44  67  97 139 182 227 280 347 415
#     4  11  23  44  66  98 136 175 222 281 341 415
#     4  11  24  41  67 105 134 172 231 284 343 406
#     4  11  23  40  67 102 132 175 228 285 340 406
#     4  10  26  45  66  99 137 181 228 277 345 412
#
# _framework density 20.257024000000001
#
# number of rings (size 3 to 8) (size 9 to 14) (size 15 to 20)
#    0.000    1.067    5.333    0.400    1.867    4.800 
#    0.000    2.000    0.000    0.000    0.000    0.000 
#    0.000    0.000    0.000    0.000    0.000    0.000 
#
# Total GULP energy -167151.430850 kJ/mol
# GULP energy per Si atom -5571.714362 kJ/mol
# Density = 2.021092 g / cm^3
# Si number density = 20.257024 Si / 1000 Ang^3
#
#
#
# Elastic Constant Matrix: (Units=GPa)
#
#
# Indices 1 2 3 4 5 6 
#
# 1 65.8771 40.5773 38.4732 0.0000 23.1625 0.0000
# 2 40.5773 121.3720 42.5818 0.0000 21.1239 0.0000
# 3 38.4732 42.5818 92.6603 0.0000 35.3310 0.0000
# 4 0.0000 0.0000 0.0000 24.2046 0.0000 12.5209
# 5 23.1625 21.1239 35.3310 0.0000 30.0621 0.0000
# 6 0.0000 0.0000 0.0000 12.5209 0.0000 17.0632
#
#
#
# Elastic Compliance Matrix: (Units=1/GPa)
#
#
# Indices 1 2 3 4 5 6 
#
# 1 0.024148 -0.004907 -0.003609 0.000000 -0.010916 0.000000
# 2 -0.004907 0.010961 -0.002726 0.000000 -0.000717 0.000000
# 3 -0.003609 -0.002726 0.021296 0.000000 -0.020332 0.000000
# 4 0.000000 0.000000 0.000000 0.066592 0.000000 -0.048865
# 5 -0.010916 -0.000717 -0.020332 0.000000 0.066075 0.000000
# 6 0.000000 0.000000 0.000000 -0.048865 0.000000 0.094463
#
#
# Mechanical properties :
#
#
# Convention : Reuss Voigt Hill
#
# Bulk Modulus (GPa) = 29.48093 58.13048 43.80571
# Shear Modulus (GPa) = 15.75658 24.81777 20.28717
#
# Velocity S-wave (km/s) = 2.79199 3.50400 3.16806
# Velocity P-wave (km/s) = 4.99786 6.71785 5.92065
#
# Compressibility (1/GPa) = 0.03392023
#
# Stress axis : x y z
#
# Youngs Moduli (GPa) = 41.41071 91.23289 46.95709
#
# Poissons Ratio (x) = 0.44770 0.16948
# Poissons Ratio (y) = 0.20321 0.12801
# Poissons Ratio (z) = 0.14946 0.24871
#
# Static dielectric constant tensor:
#      x y z
#    x 1.698650 0.000000 -0.004150 
#    y 0.000000 1.691380 0.000000 
#    z -0.004150 0.000000 1.718370 
# 
# From -- ./inp_files/63341.got.cif
#   From: 2010.05.17/outbox.cif.g08.bks.cpg/sg14_32_cif.got.tgz:63341.got - 2010.06.03 17:49:19.
