data_PCOD9251434
_publ_section_title
;
Structure prediction by ZEFSAII (Michael W. Deem and Ramdas Pophale) SiO2 
 PCOD9251434
Probable space group: P 21/C
;
_chemical_formula_sum "Si O2"
_cell_formula_units_Z 32
_cell_length_a 11.850632
_cell_length_b 30.272472
_cell_length_c 4.948379
_cell_angle_alpha 90.000000
_cell_angle_beta 115.208921
_cell_angle_gamma 90.000000
_cell_volume 1606.150007
_symmetry_space_group_name_H-M "P 21/C"
_symmetry_group_IT_number 14
_symmetry_cell_setting 'monoclinic'
loop_
_space_group_symop_operation_xyz
x,y,z
-x,1/2+y,1/2-z
-x,-y,-z
x,1/2-y,1/2+z
loop_
_atom_site_type_symbol
_atom_site_label
_atom_site_fract_x
_atom_site_fract_y
_atom_site_fract_z
Si Si1 0.701577 0.635700 0.166008
Si Si2 0.454735 0.120017 0.992652
Si Si3 0.286918 0.863274 0.989293
Si Si4 0.192898 0.276529 0.008698
Si Si5 0.956166 0.173924 0.372641
Si Si6 0.971901 0.617011 0.549072
Si Si7 0.552094 0.026791 0.303796
Si Si8 0.216433 0.578697 0.923447
O O1 0.614940 0.645233 0.336331
O O2 0.824005 0.611128 0.408253
O O3 0.633376 0.609581 0.854170
O O4 0.746227 0.680152 0.058589
O O5 0.573109 0.143875 0.972447
O O6 0.500792 0.075934 0.191670
O O7 0.190945 0.823251 0.836837
O O8 0.235174 0.901767 0.740299
O O9 0.273195 0.884242 0.273153
O O10 0.226159 0.263699 0.346184
O O11 0.044264 0.286091 0.874243
O O12 0.989142 0.157016 0.706784
O O13 0.999555 0.133932 0.222095
O O14 0.069127 0.578090 0.712878
O O15 0.699558 0.035180 0.501459
O O16 0.500000 0.000000 0.500000
O O17 0.500000 0.000000 0.000000
#
# Coordination Sequence:
#
# PCOD9251434 Si02
#       8
#     4   4   4   4   4   4   4   4
#     4  11  21  35  55  80 109 144 184 221 262 327
#     4  11  21  35  55  81 110 144 185 224 269 332
#     4   9  17  31  52  78 102 129 172 225 267 304
#     4  11  21  35  55  80 109 140 176 219 266 317
#     4   9  17  31  52  77 102 129 171 223 264 298
#     4   9  17  31  52  77 102 134 179 224 257 300
#     4  11  21  35  55  80 109 141 182 236 287 327
#     4   9  17  31  52  77 103 133 175 222 272 317
#
# _framework density 19.923418000000002
#
# number of rings (size 3 to 8) (size 9 to 14) (size 15 to 20)
#    0.000    2.000    0.000    7.500    0.000    0.000 
#    0.000    0.000    0.000    9.000    0.000    0.000 
#    0.000    0.000    0.000    0.000    0.000    0.000 
#
# Total GULP energy -178213.745224 kJ/mol
# GULP energy per Si atom -5569.179538 kJ/mol
# Density = 1.987807 g / cm^3
# Si number density = 19.923418 Si / 1000 Ang^3
#
#
#
# Elastic Constant Matrix: (Units=GPa)
#
#
# Indices 1 2 3 4 5 6 
#
# 1 109.1248 14.3664 29.8183 0.0000 -0.6564 0.0000
# 2 14.3664 24.0811 7.5093 0.0000 0.2726 0.0000
# 3 29.8183 7.5093 93.4184 0.0000 -2.6652 0.0000
# 4 0.0000 0.0000 0.0000 24.8930 0.0000 -3.4811
# 5 -0.6564 0.2726 -2.6652 0.0000 41.3171 0.0000
# 6 0.0000 0.0000 0.0000 -3.4811 0.0000 22.3307
#
#
#
# Elastic Compliance Matrix: (Units=1/GPa)
#
#
# Indices 1 2 3 4 5 6 
#
# 1 0.010695 -0.005453 -0.002975 0.000000 0.000014 0.000000
# 2 -0.005453 0.045385 -0.001922 0.000000 -0.000510 0.000000
# 3 -0.002975 -0.001922 0.011829 0.000000 0.000728 0.000000
# 4 0.000000 0.000000 0.000000 0.041067 0.000000 0.006402
# 5 0.000014 -0.000510 0.000728 0.000000 0.024254 0.000000
# 6 0.000000 0.000000 0.000000 0.006402 0.000000 0.045779
#
#
# Mechanical properties :
#
#
# Convention : Reuss Voigt Hill
#
# Bulk Modulus (GPa) = 21.18249 36.66804 28.92527
# Shear Modulus (GPa) = 23.20779 29.37019 26.28899
#
# Velocity S-wave (km/s) = 3.41669 3.84364 3.63644
# Velocity P-wave (km/s) = 5.12056 6.17596 5.67286
#
# Compressibility (1/GPa) = 0.04720879
#
# Stress axis : x y z
#
# Youngs Moduli (GPa) = 93.50455 22.03391 84.53515
#
# Poissons Ratio (x) = 0.12015 0.25149
# Poissons Ratio (y) = 0.50986 0.16250
# Poissons Ratio (z) = 0.27817 0.04235
#
# Static dielectric constant tensor:
#      x y z
#    x 1.792600 0.000000 0.061770 
#    y 0.000000 1.715440 0.000000 
#    z 0.061770 0.000000 1.719690 
# 
# From -- ./inp_files/3389.got.cif
#   From: 2010.05.17/outbox.cif.g08.bks.cpg/sg14_2_cif.got.tgz:3389.got - 2010.06.03 17:49:19.
