data_PCOD9251017
_publ_section_title
;
Structure prediction by ZEFSAII (Michael W. Deem and Ramdas Pophale) SiO2 
 PCOD9251017
Probable space group: P 21/C
;
_chemical_formula_sum "Si O2"
_cell_formula_units_Z 24
_cell_length_a 10.053129
_cell_length_b 9.018517
_cell_length_c 20.378821
_cell_angle_alpha 90.000000
_cell_angle_beta 145.598711
_cell_angle_gamma 90.000000
_cell_volume 1043.885322
_symmetry_space_group_name_H-M "P 21/C"
_symmetry_group_IT_number 14
_symmetry_cell_setting 'monoclinic'
loop_
_space_group_symop_operation_xyz
x,y,z
-x,1/2+y,1/2-z
-x,-y,-z
x,1/2-y,1/2+z
loop_
_atom_site_type_symbol
_atom_site_label
_atom_site_fract_x
_atom_site_fract_y
_atom_site_fract_z
Si Si1 0.681174 0.058351 0.017197
Si Si2 0.459545 0.328023 0.974322
Si Si3 0.906863 0.514532 0.856779
Si Si4 0.824956 0.662265 0.259278
Si Si5 0.549897 0.323852 0.650674
Si Si6 0.617665 0.971658 0.370897
O O1 0.954306 0.051383 0.144238
O O2 0.628948 0.232898 0.995672
O O3 0.500000 0.000000 0.000000
O O4 0.615220 0.968884 0.925139
O O5 0.219442 0.308485 0.836116
O O6 0.500000 0.500000 0.000000
O O7 0.508224 0.260910 0.065215
O O8 0.868843 0.679141 0.811876
O O9 0.807592 0.391077 0.766400
O O10 0.736221 0.491851 0.849931
O O11 0.169665 0.484732 0.989528
O O12 0.599256 0.576791 0.197386
O O13 0.472727 0.198350 0.669776
#
# Coordination Sequence:
#
# PCOD9251017 Si02
#       6
#     4   4   4   4   4   4
#     4  10  25  45  67 107 141 184 236 294 369 439
#     4  11  23  43  68 103 140 187 235 289 369 429
#     4  11  26  47  73 101 153 186 254 304 356 443
#     4  12  24  46  75 102 150 191 239 306 364 444
#     4  11  24  45  71 104 145 185 241 305 366 435
#     4  11  26  47  72 110 137 201 243 302 371 429
#
# _framework density 22.991029999999999
#
# number of rings (size 3 to 8) (size 9 to 14) (size 15 to 20)
#    0.000    1.000    3.333    2.000    2.333    5.333 
#    0.000    1.667    0.000    0.000    0.000    0.000 
#    0.000    0.000    0.000    0.000    0.000    0.000 
#
# Total GULP energy -133983.073850 kJ/mol
# GULP energy per Si atom -5582.628077 kJ/mol
# Density = 2.293870 g / cm^3
# Si number density = 22.991030 Si / 1000 Ang^3
#
#
#
# Elastic Constant Matrix: (Units=GPa)
#
#
# Indices 1 2 3 4 5 6 
#
# 1 85.2870 44.3526 52.6875 0.0000 22.3017 0.0000
# 2 44.3526 135.0634 39.6467 0.0000 15.7092 0.0000
# 3 52.6875 39.6467 148.9307 0.0000 20.1017 0.0000
# 4 0.0000 0.0000 0.0000 32.7695 0.0000 -6.0130
# 5 22.3017 15.7092 20.1017 0.0000 37.7063 0.0000
# 6 0.0000 0.0000 0.0000 -6.0130 0.0000 36.2353
#
#
#
# Elastic Compliance Matrix: (Units=1/GPa)
#
#
# Indices 1 2 3 4 5 6 
#
# 1 0.018329 -0.003898 -0.004528 0.000000 -0.006802 0.000000
# 2 -0.003898 0.009063 -0.000900 0.000000 -0.000991 0.000000
# 3 -0.004528 -0.000900 0.008775 0.000000 -0.001625 0.000000
# 4 0.000000 0.000000 0.000000 0.031475 0.000000 0.005223
# 5 -0.006802 -0.000991 -0.001625 0.000000 0.031823 0.000000
# 6 0.000000 0.000000 0.000000 0.005223 0.000000 0.028464
#
#
# Mechanical properties :
#
#
# Convention : Reuss Voigt Hill
#
# Bulk Modulus (GPa) = 57.09600 71.40610 64.25105
# Shear Modulus (GPa) = 32.80401 36.84852 34.82626
#
# Velocity S-wave (km/s) = 3.78142 4.00776 3.89623
# Velocity P-wave (km/s) = 6.62974 7.24858 6.94605
#
# Compressibility (1/GPa) = 0.01751436
#
# Stress axis : x y z
#
# Youngs Moduli (GPa) = 54.55960 110.33297 113.95490
#
# Poissons Ratio (x) = 0.43012 0.51601
# Poissons Ratio (y) = 0.21269 0.10255
# Poissons Ratio (z) = 0.24706 0.09929
#
# Static dielectric constant tensor:
#      x y z
#    x 1.920360 0.000000 -0.021210 
#    y 0.000000 1.906720 0.000000 
#    z -0.021210 0.000000 1.939680 
# 
# From -- ./inp_files/73137.got.cif
#   From: 2010.05.17/outbox.cif.g08.bks.cpg/sg14_37_cif.got.tgz:73137.got - 2010.06.03 17:49:19.
