data_PCOD9251538
_publ_section_title
;
Structure prediction by ZEFSAII (Michael W. Deem and Ramdas Pophale) SiO2 
 PCOD9251538
Probable space group: P 21/C
;
_chemical_formula_sum "Si O2"
_cell_formula_units_Z 20
_cell_length_a 8.351044
_cell_length_b 12.658195
_cell_length_c 8.490575
_cell_angle_alpha 90.000000
_cell_angle_beta 89.847386
_cell_angle_gamma 90.000000
_cell_volume 897.528226
_symmetry_space_group_name_H-M "P 21/C"
_symmetry_group_IT_number 14
_symmetry_cell_setting 'monoclinic'
loop_
_space_group_symop_operation_xyz
x,y,z
-x,1/2+y,1/2-z
-x,-y,-z
x,1/2-y,1/2+z
loop_
_atom_site_type_symbol
_atom_site_label
_atom_site_fract_x
_atom_site_fract_y
_atom_site_fract_z
Si Si1 0.471906 0.127177 0.014783
Si Si2 0.274068 0.254758 0.779172
Si Si3 0.035214 0.426368 0.852412
Si Si4 0.956665 0.128972 0.812364
Si Si5 0.186677 0.696976 0.363265
O O1 0.338592 0.174680 0.134725
O O2 0.638671 0.168453 0.082019
O O3 0.418017 0.187769 0.855853
O O4 0.500000 0.000000 0.000000
O O5 0.178974 0.344359 0.880177
O O6 0.131468 0.169243 0.756681
O O7 0.069993 0.505725 0.707886
O O8 0.879506 0.364576 0.789682
O O9 0.000000 0.500000 0.000000
O O10 0.833550 0.183621 0.692170
O O11 0.925827 0.167484 0.989129
#
# Coordination Sequence:
#
# PCOD9251538 Si02
#       5
#     4   4   4   4   4
#     4  12  25  44  66  99 142 181 220 284 352 408
#     4  11  24  42  67  98 133 178 231 278 338 416
#     4  11  22  40  66  94 126 173 227 279 330 397
#     4  11  21  41  64  92 127 172 227 281 330 397
#     4  11  23  39  63  93 128 172 220 276 337 404
#
# _framework density 22.283422000000002
#
# number of rings (size 3 to 8) (size 9 to 14) (size 15 to 20)
#    0.000    0.800    0.000   10.200    0.000    0.000 
#    0.000    3.000    0.000    0.000    0.000    0.000 
#    0.000    0.000    0.000    0.000    0.000    0.000 
#
# Total GULP energy -111654.713861 kJ/mol
# GULP energy per Si atom -5582.735693 kJ/mol
# Density = 2.223270 g / cm^3
# Si number density = 22.283422 Si / 1000 Ang^3
#
#
#
# Elastic Constant Matrix: (Units=GPa)
#
#
# Indices 1 2 3 4 5 6 
#
# 1 115.3777 42.6337 16.6581 0.0000 15.6799 0.0000
# 2 42.6337 146.1299 23.4192 0.0000 16.6782 0.0000
# 3 16.6581 23.4192 81.9643 0.0000 -4.2069 0.0000
# 4 0.0000 0.0000 0.0000 49.6445 0.0000 6.5576
# 5 15.6799 16.6782 -4.2069 0.0000 30.4157 0.0000
# 6 0.0000 0.0000 0.0000 6.5576 0.0000 36.7727
#
#
#
# Elastic Compliance Matrix: (Units=1/GPa)
#
#
# Indices 1 2 3 4 5 6 
#
# 1 0.010329 -0.002251 -0.001678 0.000000 -0.004322 0.000000
# 2 -0.002251 0.008252 -0.002088 0.000000 -0.003653 0.000000
# 3 -0.001678 -0.002088 0.013336 0.000000 0.003854 0.000000
# 4 0.000000 0.000000 0.000000 0.020629 0.000000 -0.003679
# 5 -0.004322 -0.003653 0.003854 0.000000 0.037642 0.000000
# 6 0.000000 0.000000 0.000000 -0.003679 0.000000 0.027850
#
#
# Mechanical properties :
#
#
# Convention : Reuss Voigt Hill
#
# Bulk Modulus (GPa) = 50.29500 56.54376 53.41938
# Shear Modulus (GPa) = 36.57699 40.75065 38.66382
#
# Velocity S-wave (km/s) = 4.05587 4.28102 4.16996
# Velocity P-wave (km/s) = 6.67481 7.06159 6.87092
#
# Compressibility (1/GPa) = 0.01988269
#
# Stress axis : x y z
#
# Youngs Moduli (GPa) = 96.81785 121.19007 74.98659
#
# Poissons Ratio (x) = 0.27283 0.12581
# Poissons Ratio (y) = 0.21796 0.15654
# Poissons Ratio (z) = 0.16244 0.25300
#
# Static dielectric constant tensor:
#      x y z
#    x 1.808070 0.000000 -0.043660 
#    y 0.000000 1.945180 0.000000 
#    z -0.043660 0.000000 1.891570 
# 
# From -- ./inp_files/7849.got.cif
#   From: 2010.05.17/outbox.cif.g08.bks.cpg/sg14_4_cif.got.tgz:7849.got - 2010.06.03 17:49:19.
