data_PCOD9251072
_publ_section_title
;
Structure prediction by ZEFSAII (Michael W. Deem and Ramdas Pophale) SiO2 
 PCOD9251072
Probable space group: P 21/C
;
_chemical_formula_sum "Si O2"
_cell_formula_units_Z 16
_cell_length_a 4.644799
_cell_length_b 27.503923
_cell_length_c 4.937314
_cell_angle_alpha 90.000000
_cell_angle_beta 118.073473
_cell_angle_gamma 90.000000
_cell_volume 556.532675
_symmetry_space_group_name_H-M "P 21/C"
_symmetry_group_IT_number 14
_symmetry_cell_setting 'monoclinic'
loop_
_space_group_symop_operation_xyz
x,y,z
-x,1/2+y,1/2-z
-x,-y,-z
x,1/2-y,1/2+z
loop_
_atom_site_type_symbol
_atom_site_label
_atom_site_fract_x
_atom_site_fract_y
_atom_site_fract_z
Si Si1 0.714946 0.714598 0.308234
Si Si2 0.075561 0.965380 0.782042
Si Si3 0.684407 0.350241 0.264180
Si Si4 0.725835 0.592954 0.498875
O O1 0.692805 0.741027 0.586064
O O2 0.053169 0.685236 0.476571
O O3 0.465825 0.676588 0.060560
O O4 0.822157 0.920487 0.725595
O O5 0.000000 0.000000 0.500000
O O6 0.556462 0.053817 0.066774
O O7 0.000000 0.000000 0.000000
O O8 0.893872 0.396930 0.251406
O O9 0.431709 0.364176 0.386983
#
# Coordination Sequence:
#
# PCOD9251072 Si02
#       4
#     4   4   4   4
#     4  12  27  50  77 110 150 200 254 314 377 450
#     4  11  24  46  74 109 148 196 248 305 370 446
#     4  11  26  48  76 113 154 202 254 313 380 450
#     4  10  25  46  75 110 152 198 248 310 375 446
#
# _framework density 28.74944
#
# number of rings (size 3 to 8) (size 9 to 14) (size 15 to 20)
#    0.000    1.000    0.000    4.500    0.000   14.000 
#    0.000    0.000    0.000    0.000    0.000    0.000 
#    0.000    0.000    0.000    0.000    0.000    0.000 
#
# Total GULP energy -89432.385019 kJ/mol
# GULP energy per Si atom -5589.524064 kJ/mol
# Density = 2.868400 g / cm^3
# Si number density = 28.749440 Si / 1000 Ang^3
#
#
#
# Elastic Constant Matrix: (Units=GPa)
#
#
# Indices 1 2 3 4 5 6 
#
# 1 206.6443 33.1509 49.5566 0.0000 15.8739 0.0000
# 2 33.1509 97.9928 38.9862 0.0000 -8.4603 0.0000
# 3 49.5566 38.9862 186.4502 0.0000 -1.7262 0.0000
# 4 0.0000 0.0000 0.0000 49.7251 0.0000 20.6421
# 5 15.8739 -8.4603 -1.7262 0.0000 50.0291 0.0000
# 6 0.0000 0.0000 0.0000 20.6421 0.0000 55.5869
#
#
#
# Elastic Compliance Matrix: (Units=1/GPa)
#
#
# Indices 1 2 3 4 5 6 
#
# 1 0.005530 -0.001589 -0.001157 0.000000 -0.002063 0.000000
# 2 -0.001589 0.011752 -0.002013 0.000000 0.002422 0.000000
# 3 -0.001157 -0.002013 0.006094 0.000000 0.000237 0.000000
# 4 0.000000 0.000000 0.000000 0.023776 0.000000 -0.008829
# 5 -0.002063 0.002422 0.000237 0.000000 0.021061 0.000000
# 6 0.000000 0.000000 0.000000 -0.008829 0.000000 0.021269
#
#
# Mechanical properties :
#
#
# Convention : Reuss Voigt Hill
#
# Bulk Modulus (GPa) = 72.15121 81.60829 76.87975
# Shear Modulus (GPa) = 48.25457 55.69446 51.97452
#
# Velocity S-wave (km/s) = 4.10134 4.40618 4.25649
# Velocity P-wave (km/s) = 6.89775 7.37113 7.13837
#
# Compressibility (1/GPa) = 0.01385978
#
# Stress axis : x y z
#
# Youngs Moduli (GPa) = 180.83197 85.09098 164.10016
#
# Poissons Ratio (x) = 0.13519 0.18982
# Poissons Ratio (y) = 0.28729 0.33028
# Poissons Ratio (z) = 0.20917 0.17126
#
# Static dielectric constant tensor:
#      x y z
#    x 2.169250 0.000000 -0.025010 
#    y 0.000000 2.752460 0.000000 
#    z -0.025010 0.000000 2.268600 
# 
# From -- ./inp_files/638.got.cif
#   From: 2010.05.17/outbox.cif.g08.bks.cpg/sg14_1_cif.got.tgz:638.got - 2010.06.03 17:49:19.
