data_PCOD9251534
_publ_section_title
;
Structure prediction by ZEFSAII (Michael W. Deem and Ramdas Pophale) SiO2 
 PCOD9251534
Probable space group: P 21/C
;
_chemical_formula_sum "Si O2"
_cell_formula_units_Z 24
_cell_length_a 14.474520
_cell_length_b 8.196898
_cell_length_c 14.834912
_cell_angle_alpha 90.000000
_cell_angle_beta 30.928615
_cell_angle_gamma 90.000000
_cell_volume 904.640895
_symmetry_space_group_name_H-M "P 21/C"
_symmetry_group_IT_number 14
_symmetry_cell_setting 'monoclinic'
loop_
_space_group_symop_operation_xyz
x,y,z
-x,1/2+y,1/2-z
-x,-y,-z
x,1/2-y,1/2+z
loop_
_atom_site_type_symbol
_atom_site_label
_atom_site_fract_x
_atom_site_fract_y
_atom_site_fract_z
Si Si1 0.861009 0.700737 0.677644
Si Si2 0.245551 0.762447 0.103457
Si Si3 0.269100 0.862973 0.772388
Si Si4 0.052646 0.085402 0.238538
Si Si5 0.745226 0.596935 0.109304
Si Si6 0.492447 0.690445 0.732564
O O1 0.736169 0.545222 0.762879
O O2 0.799393 0.842062 0.661577
O O3 0.068896 0.662763 0.479893
O O4 0.858957 0.767038 0.780230
O O5 0.299048 0.757297 0.162576
O O6 0.067781 0.648305 0.242843
O O7 0.391393 0.692590 0.913523
O O8 0.187444 0.937282 0.113462
O O9 0.409247 0.823396 0.733425
O O10 0.905216 0.006022 0.431278
O O11 0.571527 0.479526 0.256557
O O12 0.690843 0.753905 0.094418
#
# Coordination Sequence:
#
# PCOD9251534 Si02
#       6
#     4   4   4   4   4   4
#     4  11  21  40  70  95 124 176 215 262 326 386
#     4  11  23  39  66  97 129 165 220 272 315 390
#     4  11  22  41  67  97 130 168 216 269 322 386
#     4  11  22  40  64  98 129 168 221 268 321 375
#     4  11  22  42  64  92 132 174 211 264 326 383
#     4  11  25  43  65  96 133 173 213 266 335 381
#
# _framework density 26.529862999999999
#
# number of rings (size 3 to 8) (size 9 to 14) (size 15 to 20)
#    0.000    1.000    5.000    3.500    2.333    1.333 
#    0.000   12.500    0.000    0.000    0.000    0.000 
#    0.000    0.000    0.000    0.000    0.000    0.000 
#
# Total GULP energy -134674.369601 kJ/mol
# GULP energy per Si atom -5611.432067 kJ/mol
# Density = 2.646948 g / cm^3
# Si number density = 26.529863 Si / 1000 Ang^3
#
#
#
# Elastic Constant Matrix: (Units=GPa)
#
#
# Indices 1 2 3 4 5 6 
#
# 1 124.4445 -12.0920 26.5440 0.0000 10.6498 0.0000
# 2 -12.0920 73.3936 -5.0846 0.0000 -8.6377 0.0000
# 3 26.5440 -5.0846 72.0139 0.0000 -5.6262 0.0000
# 4 0.0000 0.0000 0.0000 24.2560 0.0000 2.0807
# 5 10.6498 -8.6377 -5.6262 0.0000 35.8346 0.0000
# 6 0.0000 0.0000 0.0000 2.0807 0.0000 56.6841
#
#
#
# Elastic Compliance Matrix: (Units=1/GPa)
#
#
# Indices 1 2 3 4 5 6 
#
# 1 0.009141 0.000901 -0.003544 0.000000 -0.003056 0.000000
# 2 0.000901 0.014227 0.000931 0.000000 0.003308 0.000000
# 3 -0.003544 0.000931 0.015549 0.000000 0.003719 0.000000
# 4 0.000000 0.000000 0.000000 0.041357 0.000000 -0.001518
# 5 -0.003056 0.003308 0.003719 0.000000 0.030195 0.000000
# 6 0.000000 0.000000 0.000000 -0.001518 0.000000 0.017697
#
#
# Mechanical properties :
#
#
# Convention : Reuss Voigt Hill
#
# Bulk Modulus (GPa) = 28.17556 32.06522 30.12039
# Shear Modulus (GPa) = 34.86191 40.72057 37.79124
#
# Velocity S-wave (km/s) = 3.62893 3.92202 3.77832
# Velocity P-wave (km/s) = 5.31058 5.71160 5.51474
#
# Compressibility (1/GPa) = 0.03549175
#
# Stress axis : x y z
#
# Youngs Moduli (GPa) = 109.39981 70.28701 64.31300
#
# Poissons Ratio (x) = -0.06331 0.22795
# Poissons Ratio (y) = -0.09855 -0.05987
# Poissons Ratio (z) = 0.38776 -0.06543
#
# Static dielectric constant tensor:
#      x y z
#    x 1.938830 0.000000 -0.057890 
#    y 0.000000 2.144800 0.000000 
#    z -0.057890 0.000000 2.093150 
# 
# From -- ./inp_files/46373.got.cif
#   From: 2010.05.17/outbox.cif.g08.bks.cpg/sg14_24_cif.got.tgz:46373.got - 2010.06.03 17:49:19.
