data_PCOD9251795
_publ_section_title
;
Structure prediction by ZEFSAII (Michael W. Deem and Ramdas Pophale) SiO2 
 PCOD9251795
Probable space group: P 21/C
;
_chemical_formula_sum "Si O2"
_cell_formula_units_Z 28
_cell_length_a 20.205278
_cell_length_b 8.857843
_cell_length_c 14.213790
_cell_angle_alpha 90.000000
_cell_angle_beta 29.266818
_cell_angle_gamma 90.000000
_cell_volume 1243.662664
_symmetry_space_group_name_H-M "P 21/C"
_symmetry_group_IT_number 14
_symmetry_cell_setting 'monoclinic'
loop_
_space_group_symop_operation_xyz
x,y,z
-x,1/2+y,1/2-z
-x,-y,-z
x,1/2-y,1/2+z
loop_
_atom_site_type_symbol
_atom_site_label
_atom_site_fract_x
_atom_site_fract_y
_atom_site_fract_z
Si Si1 0.238153 0.582943 0.535227
Si Si2 0.083585 0.397088 0.469520
Si Si3 0.321378 0.441715 0.930968
Si Si4 0.565974 0.221728 0.585244
Si Si5 0.349797 0.559776 0.188996
Si Si6 0.104297 0.209490 0.282303
Si Si7 0.091749 0.647353 0.138772
O O1 0.340209 0.665986 0.475589
O O2 0.310852 0.569295 0.345107
O O3 0.188675 0.434956 0.647464
O O4 0.118412 0.696842 0.659861
O O5 0.237212 0.451839 0.284566
O O6 0.076736 0.234879 0.426671
O O7 0.000000 0.500000 0.500000
O O8 0.022861 0.418975 0.649106
O O9 0.420379 0.308939 0.767256
O O10 0.408083 0.560004 0.890168
O O11 0.201713 0.349099 0.131564
O O12 0.229588 0.547430 0.974403
O O13 0.632816 0.203631 0.399565
O O14 0.500000 0.500000 0.000000
O O15 0.968524 0.190481 0.387845
#
# Coordination Sequence:
#
# PCOD9251795 Si02
#       7
#     4   4   4   4   4   4   4
#     4  11  25  43  71 106 148 190 244 312 366 443
#     4  12  23  44  75 104 140 194 246 299 372 454
#     4  11  22  42  70 104 144 192 248 301 372 443
#     4  11  24  45  72 107 145 194 249 305 374 442
#     4  12  24  47  73 107 141 195 250 296 378 456
#     4  12  22  41  72 105 145 189 244 305 370 436
#     4  11  24  43  67 109 144 192 244 302 376 440
#
# _framework density 22.514142
#
# number of rings (size 3 to 8) (size 9 to 14) (size 15 to 20)
#    0.000    0.571    4.286    5.143    0.000    0.571 
#    0.000    5.714    0.000    0.000    0.000    0.000 
#    0.000    0.000    0.000    0.000    0.000    0.000 
#
# Total GULP energy -156197.213253 kJ/mol
# GULP energy per Si atom -5578.471902 kJ/mol
# Density = 2.246290 g / cm^3
# Si number density = 22.514142 Si / 1000 Ang^3
#
#
#
# Elastic Constant Matrix: (Units=GPa)
#
#
# Indices 1 2 3 4 5 6 
#
# 1 123.2857 40.3465 56.1371 0.0000 -12.0395 0.0000
# 2 40.3465 129.9503 60.5681 0.0000 1.9658 0.0000
# 3 56.1371 60.5681 123.9452 0.0000 -3.3397 0.0000
# 4 0.0000 0.0000 0.0000 45.2913 0.0000 2.5123
# 5 -12.0395 1.9658 -3.3397 0.0000 31.6345 0.0000
# 6 0.0000 0.0000 0.0000 2.5123 0.0000 32.1880
#
#
#
# Elastic Compliance Matrix: (Units=1/GPa)
#
#
# Indices 1 2 3 4 5 6 
#
# 1 0.010828 -0.001529 -0.004055 0.000000 0.003788 0.000000
# 2 -0.001529 0.010222 -0.004348 0.000000 -0.001676 0.000000
# 3 -0.004055 -0.004348 0.012029 0.000000 -0.000003 0.000000
# 4 0.000000 0.000000 0.000000 0.022175 0.000000 -0.001731
# 5 0.003788 -0.001676 -0.000003 0.000000 0.033156 0.000000
# 6 0.000000 0.000000 0.000000 -0.001731 0.000000 0.031203
#
#
# Mechanical properties :
#
#
# Convention : Reuss Voigt Hill
#
# Bulk Modulus (GPa) = 75.66913 76.80942 76.23927
# Shear Modulus (GPa) = 34.75080 36.49804 35.62442
#
# Velocity S-wave (km/s) = 3.93302 4.03068 3.98215
# Velocity P-wave (km/s) = 7.36935 7.47342 7.42157
#
# Compressibility (1/GPa) = 0.01321543
#
# Stress axis : x y z
#
# Youngs Moduli (GPa) = 92.35375 97.83056 83.13209
#
# Poissons Ratio (x) = 0.14960 0.33709
# Poissons Ratio (y) = 0.14123 0.36143
# Poissons Ratio (z) = 0.37448 0.42533
#
# Static dielectric constant tensor:
#      x y z
#    x 1.773660 0.000000 -0.049870 
#    y 0.000000 1.913300 0.000000 
#    z -0.049870 0.000000 1.778990 
# 
# From -- ./inp_files/50192.got.cif
#   From: 2010.05.17/outbox.cif.g08.bks.cpg/sg14_26_cif.got.tgz:50192.got - 2010.06.03 17:49:19.
