data_PCOD9251732
_publ_section_title
;
Structure prediction by ZEFSAII (Michael W. Deem and Ramdas Pophale) SiO2 
 PCOD9251732
Probable space group: P 21/C
;
_chemical_formula_sum "Si O2"
_cell_formula_units_Z 32
_cell_length_a 14.930898
_cell_length_b 24.188748
_cell_length_c 8.453855
_cell_angle_alpha 90.000000
_cell_angle_beta 148.141095
_cell_angle_gamma 90.000000
_cell_volume 1611.564125
_symmetry_space_group_name_H-M "P 21/C"
_symmetry_group_IT_number 14
_symmetry_cell_setting 'monoclinic'
loop_
_space_group_symop_operation_xyz
x,y,z
-x,1/2+y,1/2-z
-x,-y,-z
x,1/2-y,1/2+z
loop_
_atom_site_type_symbol
_atom_site_label
_atom_site_fract_x
_atom_site_fract_y
_atom_site_fract_z
Si Si1 0.498976 0.697095 0.286092
Si Si2 0.191262 0.124454 0.870819
Si Si3 0.823905 0.885575 0.773246
Si Si4 0.303950 0.502639 0.897933
Si Si5 0.696030 0.997015 0.986212
Si Si6 0.174704 0.886228 0.799379
Si Si7 0.501034 0.179310 0.840310
Si Si8 0.810049 0.376046 0.298964
O O1 0.666453 0.667654 0.468036
O O2 0.496968 0.688618 0.470085
O O3 0.498449 0.761394 0.243324
O O4 0.334136 0.666953 0.966573
O O5 0.002862 0.137002 0.528516
O O6 0.190110 0.120453 0.058821
O O7 0.240889 0.063948 0.876733
O O8 0.666466 0.854033 0.460426
O O9 0.804825 0.950923 0.704853
O O10 0.003113 0.862794 0.983371
O O11 0.301619 0.499888 0.702342
O O12 0.239802 0.563472 0.844356
O O13 0.500034 0.495763 0.241494
O O14 0.805838 0.048469 0.211557
O O15 0.334089 0.854842 0.964752
O O16 0.184939 0.880371 0.003916
#
# Coordination Sequence:
#
# PCOD9251732 Si02
#       8
#     4   4   4   4   4   4   4   4
#     4  12  26  45  66  91 121 162 212 262 315 370
#     4  11  22  40  65  95 130 167 207 254 308 368
#     4  11  22  40  65  95 130 167 207 254 308 368
#     4   9  17  34  62  93 128 168 204 247 306 367
#     4   9  17  34  62  93 128 168 204 247 306 367
#     4  11  22  40  65  95 130 167 207 254 308 368
#     4  12  26  45  66  91 121 162 212 262 315 370
#     4  11  22  40  65  95 130 167 207 254 308 368
#
# _framework density 19.856484999999999
#
# number of rings (size 3 to 8) (size 9 to 14) (size 15 to 20)
#    0.000    1.250    2.500    4.500    0.000    1.000 
#    0.000   10.000    0.000    0.000    0.000    0.000 
#    0.000    0.000    0.000    0.000    0.000    0.000 
#
# Total GULP energy -178968.965966 kJ/mol
# GULP energy per Si atom -5592.780186 kJ/mol
# Density = 1.981129 g / cm^3
# Si number density = 19.856485 Si / 1000 Ang^3
#
#
#
# Elastic Constant Matrix: (Units=GPa)
#
#
# Indices 1 2 3 4 5 6 
#
# 1 46.0741 -17.2433 -1.9424 0.0000 0.3302 0.0000
# 2 -17.2433 65.6606 -12.3115 0.0000 4.6239 0.0000
# 3 -1.9424 -12.3115 76.2608 0.0000 19.8320 0.0000
# 4 0.0000 0.0000 0.0000 5.7069 0.0000 -10.1221
# 5 0.3302 4.6239 19.8320 0.0000 38.3860 0.0000
# 6 0.0000 0.0000 0.0000 -10.1221 0.0000 19.1092
#
#
#
# Elastic Compliance Matrix: (Units=1/GPa)
#
#
# Indices 1 2 3 4 5 6 
#
# 1 0.024446 0.007019 0.002346 0.000000 -0.002268 0.000000
# 2 0.007019 0.018189 0.004275 0.000000 -0.004460 0.000000
# 3 0.002346 0.004275 0.016175 0.000000 -0.008892 0.000000
# 4 0.000000 0.000000 0.000000 2.896401 0.000000 1.534218
# 5 -0.002268 -0.004460 -0.008892 0.000000 0.031202 0.000000
# 6 0.000000 0.000000 0.000000 1.534218 0.000000 0.865003
#
#
# Mechanical properties :
#
#
# Convention : Reuss Voigt Hill
#
# Bulk Modulus (GPa) = 11.61570 13.88904 12.75237
# Shear Modulus (GPa) = 1.29775 27.27327 14.28551
#
# Velocity S-wave (km/s) = 0.80931 3.71012 2.68514
# Velocity P-wave (km/s) = 2.59535 5.03619 4.00619
#
# Compressibility (1/GPa) = 0.08609037
#
# Stress axis : x y z
#
# Youngs Moduli (GPa) = 40.90599 54.97869 61.82307
#
# Poissons Ratio (x) = -0.38592 -0.14501
# Poissons Ratio (y) = -0.28713 -0.26430
# Poissons Ratio (z) = -0.09595 -0.23504
#
# Static dielectric constant tensor:
#      x y z
#    x 1.671450 0.000000 -0.001120 
#    y 0.000000 1.692220 0.000000 
#    z -0.001120 0.000000 1.671040 
# 
# From -- ./inp_files/13357.got.cif
#   From: 2010.05.17/outbox.cif.g08.bks.cpg/sg14_7_cif.got.tgz:13357.got - 2010.06.03 17:49:19.
