data_PCOD9251092
_publ_section_title
;
Structure prediction by ZEFSAII (Michael W. Deem and Ramdas Pophale) SiO2 
 PCOD9251092
Probable space group: P 21/C
;
_chemical_formula_sum "Si O2"
_cell_formula_units_Z 28
_cell_length_a 11.872489
_cell_length_b 5.640721
_cell_length_c 21.167964
_cell_angle_alpha 90.000000
_cell_angle_beta 63.611384
_cell_angle_gamma 90.000000
_cell_volume 1269.891404
_symmetry_space_group_name_H-M "P 21/C"
_symmetry_group_IT_number 14
_symmetry_cell_setting 'monoclinic'
loop_
_space_group_symop_operation_xyz
x,y,z
-x,1/2+y,1/2-z
-x,-y,-z
x,1/2-y,1/2+z
loop_
_atom_site_type_symbol
_atom_site_label
_atom_site_fract_x
_atom_site_fract_y
_atom_site_fract_z
Si Si1 0.047064 0.784112 0.323113
Si Si2 0.221993 0.173363 0.317717
Si Si3 0.986781 0.426244 0.432011
Si Si4 0.274127 0.718220 0.486707
Si Si5 0.636615 0.775593 0.596844
Si Si6 0.410319 0.649197 0.068709
Si Si7 0.812937 0.933748 0.298925
O O1 0.149081 0.653489 0.254259
O O2 0.956534 0.634301 0.391209
O O3 0.945118 0.895252 0.301500
O O4 0.138798 0.937430 0.344043
O O5 0.342160 0.192867 0.333015
O O6 0.229401 0.233813 0.241438
O O7 0.121228 0.352237 0.372713
O O8 0.872075 0.245800 0.459425
O O9 0.000000 0.500000 0.500000
O O10 0.295897 0.471790 0.442332
O O11 0.346136 0.674095 0.535013
O O12 0.315393 0.968032 0.443610
O O13 0.495816 0.752791 0.604168
O O14 0.299541 0.492399 0.126144
O O15 0.500000 0.500000 0.000000
#
# Coordination Sequence:
#
# PCOD9251092 Si02
#       7
#     4   4   4   4   4   4   4
#     4  11  24  42  69 101 142 181 237 294 359 425
#     4  11  24  42  68  98 146 186 233 296 355 428
#     4  11  23  38  69 106 139 183 230 300 362 415
#     4  11  24  43  73 104 144 182 238 296 354 421
#     4  11  25  47  67 105 144 186 238 289 356 418
#     4  10  25  47  72 102 138 188 241 297 348 426
#     4  11  24  46  67 106 136 187 241 289 359 429
#
# _framework density 22.049129000000001
#
# number of rings (size 3 to 8) (size 9 to 14) (size 15 to 20)
#    0.000    1.143    2.857    2.143   10.000    1.143 
#    7.714    0.000    0.000    0.000    0.000    0.000 
#    0.000    0.000    0.000    0.000    0.000    0.000 
#
# Total GULP energy -155963.671491 kJ/mol
# GULP energy per Si atom -5570.131125 kJ/mol
# Density = 2.199894 g / cm^3
# Si number density = 22.049129 Si / 1000 Ang^3
#
#
#
# Elastic Constant Matrix: (Units=GPa)
#
#
# Indices 1 2 3 4 5 6 
#
# 1 80.3973 -7.4065 -9.3260 0.0000 7.5491 0.0000
# 2 -7.4065 67.6900 11.3877 0.0000 0.3232 0.0000
# 3 -9.3260 11.3877 62.4361 0.0000 -11.3081 0.0000
# 4 0.0000 0.0000 0.0000 16.6330 0.0000 0.1559
# 5 7.5491 0.3232 -11.3081 0.0000 34.2531 0.0000
# 6 0.0000 0.0000 0.0000 0.1559 0.0000 19.1193
#
#
#
# Elastic Compliance Matrix: (Units=1/GPa)
#
#
# Indices 1 2 3 4 5 6 
#
# 1 0.012926 0.001213 0.001267 0.000000 -0.002442 0.000000
# 2 0.001213 0.015396 -0.002873 0.000000 -0.001361 0.000000
# 3 0.001267 -0.002873 0.017745 0.000000 0.005606 0.000000
# 4 0.000000 0.000000 0.000000 0.060126 0.000000 -0.000490
# 5 -0.002442 -0.001361 0.005606 0.000000 0.031596 0.000000
# 6 0.000000 0.000000 0.000000 -0.000490 0.000000 0.052307
#
#
# Mechanical properties :
#
#
# Convention : Reuss Voigt Hill
#
# Bulk Modulus (GPa) = 22.08451 22.20376 22.14413
# Shear Modulus (GPa) = 24.27458 28.39229 26.33343
#
# Velocity S-wave (km/s) = 3.32163 3.59232 3.45962
# Velocity P-wave (km/s) = 4.97481 5.22478 5.10133
#
# Compressibility (1/GPa) = 0.04528061
#
# Stress axis : x y z
#
# Youngs Moduli (GPa) = 77.36188 64.95265 56.35356
#
# Poissons Ratio (x) = -0.07878 -0.07142
# Poissons Ratio (y) = -0.09383 0.16193
# Poissons Ratio (z) = -0.09804 0.18664
#
# Static dielectric constant tensor:
#      x y z
#    x 1.866310 0.000000 0.037420 
#    y 0.000000 1.959150 0.000000 
#    z 0.037420 0.000000 1.812070 
# 
# From -- ./inp_files/66403.got.cif
#   From: 2010.05.17/outbox.cif.g08.bks.cpg/sg14_34_cif.got.tgz:66403.got - 2010.06.03 17:49:19.
