data_PCOD9251003
_publ_section_title
;
Structure prediction by ZEFSAII (Michael W. Deem and Ramdas Pophale) SiO2 
 PCOD9251003
Probable space group: P 21/C
;
_chemical_formula_sum "Si O2"
_cell_formula_units_Z 20
_cell_length_a 6.979550
_cell_length_b 7.711643
_cell_length_c 17.193373
_cell_angle_alpha 90.000000
_cell_angle_beta 125.684398
_cell_angle_gamma 90.000000
_cell_volume 751.659377
_symmetry_space_group_name_H-M "P 21/C"
_symmetry_group_IT_number 14
_symmetry_cell_setting 'monoclinic'
loop_
_space_group_symop_operation_xyz
x,y,z
-x,1/2+y,1/2-z
-x,-y,-z
x,1/2-y,1/2+z
loop_
_atom_site_type_symbol
_atom_site_label
_atom_site_fract_x
_atom_site_fract_y
_atom_site_fract_z
Si Si1 0.195099 0.397675 0.757356
Si Si2 0.031089 0.061576 0.395383
Si Si3 0.295203 0.149237 0.037703
Si Si4 0.437710 0.354391 0.221251
Si Si5 0.757756 0.207355 0.044922
O O1 0.126024 0.422475 0.829909
O O2 0.316496 0.567551 0.749019
O O3 0.962773 0.343400 0.655105
O O4 0.382539 0.241043 0.789328
O O5 0.085740 0.233920 0.454910
O O6 0.759909 0.005037 0.329818
O O7 0.181050 0.901293 0.467046
O O8 0.361804 0.211376 0.139089
O O9 0.513380 0.198174 0.033278
O O10 0.754818 0.052786 0.982484
#
# Coordination Sequence:
#
# PCOD9251003 Si02
#       5
#     4   4   4   4   4
#     4  11  27  45  72 105 149 188 250 291 367 426
#     4  11  25  47  74 104 144 192 238 307 359 425
#     4  11  24  46  76 105 147 186 243 297 368 423
#     4  11  27  45  73 110 139 197 245 296 362 436
#     4  10  25  44  72 106 142 190 236 300 360 427
#
# _framework density 26.607797000000001
#
# number of rings (size 3 to 8) (size 9 to 14) (size 15 to 20)
#    0.000    1.200    2.000    1.200   11.200    4.800 
#    0.000    0.000    0.000    0.000    0.000    0.000 
#    0.000    0.000    0.000    0.000    0.000    0.000 
#
# Total GULP energy -112335.689682 kJ/mol
# GULP energy per Si atom -5616.784484 kJ/mol
# Density = 2.654724 g / cm^3
# Si number density = 26.607797 Si / 1000 Ang^3
#
#
#
# Elastic Constant Matrix: (Units=GPa)
#
#
# Indices 1 2 3 4 5 6 
#
# 1 137.0890 35.3264 29.4195 0.0000 -16.0516 0.0000
# 2 35.3264 117.0317 51.8682 0.0000 5.9577 0.0000
# 3 29.4195 51.8682 64.9084 0.0000 -6.1987 0.0000
# 4 0.0000 0.0000 0.0000 45.7419 0.0000 0.3237
# 5 -16.0516 5.9577 -6.1987 0.0000 28.9881 0.0000
# 6 0.0000 0.0000 0.0000 0.3237 0.0000 57.9555
#
#
#
# Elastic Compliance Matrix: (Units=1/GPa)
#
#
# Indices 1 2 3 4 5 6 
#
# 1 0.008805 -0.002085 -0.001856 0.000000 0.004907 0.000000
# 2 -0.002085 0.014501 -0.011268 0.000000 -0.006544 0.000000
# 3 -0.001856 -0.011268 0.025904 0.000000 0.006827 0.000000
# 4 0.000000 0.000000 0.000000 0.021863 0.000000 -0.000122
# 5 0.004907 -0.006544 0.006827 0.000000 0.040019 0.000000
# 6 0.000000 0.000000 0.000000 -0.000122 0.000000 0.017255
#
#
# Mechanical properties :
#
#
# Convention : Reuss Voigt Hill
#
# Bulk Modulus (GPa) = 53.21429 61.36190 57.28810
# Shear Modulus (GPa) = 30.29800 40.03143 35.16471
#
# Velocity S-wave (km/s) = 3.37811 3.88300 3.63932
# Velocity P-wave (km/s) = 5.93788 6.57383 6.26393
#
# Compressibility (1/GPa) = 0.01879194
#
# Stress axis : x y z
#
# Youngs Moduli (GPa) = 113.57623 68.96069 38.60474
#
# Poissons Ratio (x) = 0.14378 0.07165
# Poissons Ratio (y) = 0.23680 0.43499
# Poissons Ratio (z) = 0.21080 0.77703
#
# Static dielectric constant tensor:
#      x y z
#    x 2.028860 0.000000 0.023850 
#    y 0.000000 2.087060 0.000000 
#    z 0.023850 0.000000 2.038040 
# 
# From -- ./inp_files/52852.got.cif
#   From: 2010.05.17/outbox.cif.g08.bks.cpg/sg14_27_cif.got.tgz:52852.got - 2010.06.03 17:49:19.
