data_PCOD9251962
_publ_section_title
;
Structure prediction by ZEFSAII (Michael W. Deem and Ramdas Pophale) SiO2 
 PCOD9251962
Probable space group: P 21/C
;
_chemical_formula_sum "Si O2"
_cell_formula_units_Z 16
_cell_length_a 27.545845
_cell_length_b 5.241366
_cell_length_c 8.948010
_cell_angle_alpha 90.000000
_cell_angle_beta 32.596824
_cell_angle_gamma 90.000000
_cell_volume 695.974680
_symmetry_space_group_name_H-M "P 21/C"
_symmetry_group_IT_number 14
_symmetry_cell_setting 'monoclinic'
loop_
_space_group_symop_operation_xyz
x,y,z
-x,1/2+y,1/2-z
-x,-y,-z
x,1/2-y,1/2+z
loop_
_atom_site_type_symbol
_atom_site_label
_atom_site_fract_x
_atom_site_fract_y
_atom_site_fract_z
Si Si1 0.833265 0.554120 0.206674
Si Si2 0.629466 0.540969 0.818714
Si Si3 0.458616 0.780608 0.210269
Si Si4 0.102066 0.538277 0.291526
O O1 0.730158 0.612012 0.521444
O O2 0.883531 0.811231 0.126585
O O3 0.872281 0.308017 0.196459
O O4 0.841017 0.501926 0.009335
O O5 0.585258 0.424977 0.785449
O O6 0.548168 0.728368 0.077268
O O7 0.624432 0.346570 0.967417
O O8 0.500000 0.000000 0.000000
O O9 0.000000 0.500000 0.500000
#
# Coordination Sequence:
#
# PCOD9251962 Si02
#       4
#     4   4   4   4
#     4  12  27  44  77 103 143 180 240 286 343 431
#     4  11  25  40  65  95 129 180 223 273 332 393
#     4  11  23  40  61  88 134 172 217 270 326 388
#     4  12  26  49  73 106 140 183 227 296 361 416
#
# _framework density 22.989339999999999
#
# number of rings (size 3 to 8) (size 9 to 14) (size 15 to 20)
#    0.000    0.500    2.500    5.250    7.000    0.000 
#    0.000    0.000    0.000    0.000    0.000    0.000 
#    0.000    0.000    0.000    0.000    0.000    0.000 
#
# Total GULP energy -89295.955422 kJ/mol
# GULP energy per Si atom -5580.997214 kJ/mol
# Density = 2.293702 g / cm^3
# Si number density = 22.989340 Si / 1000 Ang^3
#
#
#
# Elastic Constant Matrix: (Units=GPa)
#
#
# Indices 1 2 3 4 5 6 
#
# 1 52.3239 11.9494 -18.1967 0.0000 9.2815 0.0000
# 2 11.9494 76.9894 -27.0820 0.0000 -7.6373 0.0000
# 3 -18.1967 -27.0820 68.8585 0.0000 2.3937 0.0000
# 4 0.0000 0.0000 0.0000 24.1185 0.0000 -2.5918
# 5 9.2815 -7.6373 2.3937 0.0000 56.4744 0.0000
# 6 0.0000 0.0000 0.0000 -2.5918 0.0000 35.0935
#
#
#
# Elastic Compliance Matrix: (Units=1/GPa)
#
#
# Indices 1 2 3 4 5 6 
#
# 1 0.022110 -0.002014 0.005194 0.000000 -0.004126 0.000000
# 2 -0.002014 0.015441 0.005465 0.000000 0.002187 0.000000
# 3 0.005194 0.005465 0.018075 0.000000 -0.000881 0.000000
# 4 0.000000 0.000000 0.000000 0.041794 0.000000 0.003087
# 5 -0.004126 0.002187 -0.000881 0.000000 0.018718 0.000000
# 6 0.000000 0.000000 0.000000 0.003087 0.000000 0.028723
#
#
# Mechanical properties :
#
#
# Convention : Reuss Voigt Hill
#
# Bulk Modulus (GPa) = 13.71453 14.61259 14.16356
# Shear Modulus (GPa) = 32.92156 38.57068 35.74612
#
# Velocity S-wave (km/s) = 3.78833 4.10050 3.94750
# Velocity P-wave (km/s) = 5.01137 5.36552 5.19146
#
# Compressibility (1/GPa) = 0.07291538
#
# Stress axis : x y z
#
# Youngs Moduli (GPa) = 45.22845 64.76442 55.32508
#
# Poissons Ratio (x) = 0.13043 -0.28737
# Poissons Ratio (y) = 0.09108 -0.30233
# Poissons Ratio (z) = -0.23493 -0.35391
#
# Static dielectric constant tensor:
#      x y z
#    x 2.154360 0.000000 -0.396000 
#    y 0.000000 2.260930 0.000000 
#    z -0.396000 0.000000 2.774180 
# 
# From -- ./inp_files/14709.got.cif
#   From: 2010.05.17/outbox.cif.g08.bks.cpg/sg14_8_cif.got.tgz:14709.got - 2010.06.03 17:49:19.
