data_PCOD9251079
_publ_section_title
;
Structure prediction by ZEFSAII (Michael W. Deem and Ramdas Pophale) SiO2 
 PCOD9251079
Probable space group: P 21/C
;
_chemical_formula_sum "Si O2"
_cell_formula_units_Z 16
_cell_length_a 12.866421
_cell_length_b 7.217035
_cell_length_c 7.164083
_cell_angle_alpha 90.000000
_cell_angle_beta 117.992216
_cell_angle_gamma 90.000000
_cell_volume 587.412889
_symmetry_space_group_name_H-M "P 21/C"
_symmetry_group_IT_number 14
_symmetry_cell_setting 'monoclinic'
loop_
_space_group_symop_operation_xyz
x,y,z
-x,1/2+y,1/2-z
-x,-y,-z
x,1/2-y,1/2+z
loop_
_atom_site_type_symbol
_atom_site_label
_atom_site_fract_x
_atom_site_fract_y
_atom_site_fract_z
Si Si1 0.117507 0.570227 0.194636
Si Si2 0.668716 0.661736 0.682691
Si Si3 0.449571 0.557572 0.754103
Si Si4 0.213527 0.557608 0.669880
O O1 0.223485 0.470142 0.174211
O O2 0.135579 0.507745 0.423631
O O3 0.137745 0.792059 0.217083
O O4 0.000000 0.500000 0.000000
O O5 0.556018 0.635017 0.721822
O O6 0.615626 0.919631 0.945865
O O7 0.730691 0.864063 0.709366
O O8 0.500000 0.500000 0.000000
O O9 0.333362 0.672386 0.712568
#
# Coordination Sequence:
#
# PCOD9251079 Si02
#       4
#     4   4   4   4
#     4  11  29  52  80 117 163 221 292 358 424 509
#     4  10  26  52  78 122 171 217 274 352 425 512
#     4  10  25  46  83 123 168 216 273 345 429 518
#     4  11  28  50  80 118 162 221 280 349 435 506
#
# _framework density 27.238081000000001
#
# number of rings (size 3 to 8) (size 9 to 14) (size 15 to 20)
#    0.000    1.500    0.000    0.000   17.500    3.000 
#    0.000    0.000    0.000    0.000    0.000    0.000 
#    0.000    0.000    0.000    0.000    0.000    0.000 
#
# Total GULP energy -89326.450587 kJ/mol
# GULP energy per Si atom -5582.903162 kJ/mol
# Density = 2.717609 g / cm^3
# Si number density = 27.238081 Si / 1000 Ang^3
#
#
#
# Elastic Constant Matrix: (Units=GPa)
#
#
# Indices 1 2 3 4 5 6 
#
# 1 82.4289 67.6205 67.0597 0.0000 21.4278 0.0000
# 2 67.6205 199.7748 86.9079 0.0000 33.9170 0.0000
# 3 67.0597 86.9079 249.3592 0.0000 40.9039 0.0000
# 4 0.0000 0.0000 0.0000 49.8895 0.0000 5.4824
# 5 21.4278 33.9170 40.9039 0.0000 56.1374 0.0000
# 6 0.0000 0.0000 0.0000 5.4824 0.0000 19.2007
#
#
#
# Elastic Compliance Matrix: (Units=1/GPa)
#
#
# Indices 1 2 3 4 5 6 
#
# 1 0.019140 -0.004748 -0.003140 0.000000 -0.002149 0.000000
# 2 -0.004748 0.007363 -0.000973 0.000000 -0.001927 0.000000
# 3 -0.003140 -0.000973 0.005566 0.000000 -0.002269 0.000000
# 4 0.000000 0.000000 0.000000 0.020694 0.000000 -0.005909
# 5 -0.002149 -0.001927 -0.002269 0.000000 0.021452 0.000000
# 6 0.000000 0.000000 0.000000 -0.005909 0.000000 0.053769
#
#
# Mechanical properties :
#
#
# Convention : Reuss Voigt Hill
#
# Bulk Modulus (GPa) = 69.69997 108.30436 89.00216
# Shear Modulus (GPa) = 33.22548 45.71052 39.46800
#
# Velocity S-wave (km/s) = 3.49638 4.10101 3.81070
# Velocity P-wave (km/s) = 6.47644 7.89131 7.21862
#
# Compressibility (1/GPa) = 0.01434721
#
# Stress axis : x y z
#
# Youngs Moduli (GPa) = 52.24790 135.80938 179.65702
#
# Poissons Ratio (x) = 0.64476 0.56411
# Poissons Ratio (y) = 0.24805 0.17487
# Poissons Ratio (z) = 0.16406 0.13219
#
# Static dielectric constant tensor:
#      x y z
#    x 2.239400 0.000000 -0.077060 
#    y 0.000000 2.366790 0.000000 
#    z -0.077060 0.000000 2.069860 
# 
# From -- ./inp_files/17408.got.cif
#   From: 2010.05.17/outbox.cif.g08.bks.cpg/sg14_9_cif.got.tgz:17408.got - 2010.06.03 17:49:19.
