data_PCOD9251351
_publ_section_title
;
Structure prediction by ZEFSAII (Michael W. Deem and Ramdas Pophale) SiO2 
 PCOD9251351
Probable space group: P 21/C
;
_chemical_formula_sum "Si O2"
_cell_formula_units_Z 32
_cell_length_a 11.745260
_cell_length_b 13.865655
_cell_length_c 8.953482
_cell_angle_alpha 90.000000
_cell_angle_beta 91.316831
_cell_angle_gamma 90.000000
_cell_volume 1457.740696
_symmetry_space_group_name_H-M "P 21/C"
_symmetry_group_IT_number 14
_symmetry_cell_setting 'monoclinic'
loop_
_space_group_symop_operation_xyz
x,y,z
-x,1/2+y,1/2-z
-x,-y,-z
x,1/2-y,1/2+z
loop_
_atom_site_type_symbol
_atom_site_label
_atom_site_fract_x
_atom_site_fract_y
_atom_site_fract_z
Si Si1 0.653234 0.284714 0.170674
Si Si2 0.181207 0.883018 0.875400
Si Si3 0.755616 0.483209 0.133433
Si Si4 0.614334 0.978264 0.096430
Si Si5 0.507904 0.714574 0.577172
Si Si6 0.095927 0.022343 0.625577
Si Si7 0.046947 0.573312 0.629949
Si Si8 0.522996 0.562285 0.147841
O O1 0.751013 0.206880 0.187198
O O2 0.707547 0.376683 0.090632
O O3 0.595427 0.321093 0.320209
O O4 0.550785 0.229251 0.084154
O O5 0.115597 0.931085 0.734839
O O6 0.269004 0.966856 0.935806
O O7 0.108085 0.852201 0.019099
O O8 0.856348 0.470191 0.256993
O O9 0.648786 0.534595 0.206534
O O10 0.796426 0.535797 0.981761
O O11 0.610190 0.861516 0.095645
O O12 0.578132 0.026277 0.251141
O O13 0.500000 0.000000 0.000000
O O14 0.530068 0.824607 0.620634
O O15 0.000000 0.000000 0.500000
O O16 0.050991 0.098396 0.750227
O O17 0.000000 0.500000 0.500000
O O18 0.500000 0.500000 0.000000
#
# Coordination Sequence:
#
# PCOD9251351 Si02
#       8
#     4   4   4   4   4   4   4   4
#     4  12  22  34  60  92 126 158 204 258 300 352
#     4  11  20  36  60  89 121 162 202 245 313 357
#     4  11  20  36  60  89 121 162 202 245 313 357
#     4  12  22  37  58  87 126 170 195 243 306 366
#     4  12  22  38  54  88 134 164 210 248 284 368
#     4   9  20  38  61  83 111 151 202 256 309 356
#     4   9  20  38  61  83 111 151 202 256 309 356
#     4  12  22  37  58  87 126 170 195 243 306 366
#
# _framework density 21.951778000000001
#
# number of rings (size 3 to 8) (size 9 to 14) (size 15 to 20)
#    0.000    1.000    5.000    3.000    0.000    0.000 
#    0.000    0.000    0.000   30.000    0.000    0.000 
#    0.000    0.000    0.000    0.000    0.000    0.000 
#
# Total GULP energy -178299.615181 kJ/mol
# GULP energy per Si atom -5571.862974 kJ/mol
# Density = 2.190182 g / cm^3
# Si number density = 21.951778 Si / 1000 Ang^3
#
#
#
# Elastic Constant Matrix: (Units=GPa)
#
#
# Indices 1 2 3 4 5 6 
#
# 1 56.1975 17.0112 12.0812 0.0000 -2.5247 0.0000
# 2 17.0112 84.7370 3.7346 0.0000 3.5342 0.0000
# 3 12.0812 3.7346 102.2497 0.0000 -13.0321 0.0000
# 4 0.0000 0.0000 0.0000 22.7653 0.0000 1.3870
# 5 -2.5247 3.5342 -13.0321 0.0000 41.9317 0.0000
# 6 0.0000 0.0000 0.0000 1.3870 0.0000 10.1802
#
#
#
# Elastic Compliance Matrix: (Units=1/GPa)
#
#
# Indices 1 2 3 4 5 6 
#
# 1 0.019438 -0.003848 -0.002047 0.000000 0.000859 0.000000
# 2 -0.003848 0.012638 -0.000179 0.000000 -0.001353 0.000000
# 3 -0.002047 -0.000179 0.010428 0.000000 0.003133 0.000000
# 4 0.000000 0.000000 0.000000 0.044294 0.000000 -0.006035
# 5 0.000859 -0.001353 0.003133 0.000000 0.024988 0.000000
# 6 0.000000 0.000000 0.000000 -0.006035 0.000000 0.099052
#
#
# Mechanical properties :
#
#
# Convention : Reuss Voigt Hill
#
# Bulk Modulus (GPa) = 32.94276 34.31535 33.62905
# Shear Modulus (GPa) = 21.44972 28.99925 25.22448
#
# Velocity S-wave (km/s) = 3.12930 3.63856 3.39349
# Velocity P-wave (km/s) = 5.30058 5.77219 5.54141
#
# Compressibility (1/GPa) = 0.03035569
#
# Stress axis : x y z
#
# Youngs Moduli (GPa) = 51.44643 79.12642 95.89904
#
# Poissons Ratio (x) = 0.30446 0.19627
# Poissons Ratio (y) = 0.19796 0.01720
# Poissons Ratio (z) = 0.10529 0.01419
#
# Static dielectric constant tensor:
#      x y z
#    x 1.885460 0.000000 0.083090 
#    y 0.000000 1.674150 0.000000 
#    z 0.083090 0.000000 1.641680 
# 
# From -- ./inp_files/13315.got.cif
#   From: 2010.05.17/outbox.cif.g08.bks.cpg/sg14_7_cif.got.tgz:13315.got - 2010.06.03 17:49:19.
