data_PCOD9251708
_publ_section_title
;
Structure prediction by ZEFSAII (Michael W. Deem and Ramdas Pophale) SiO2 
 PCOD9251708
Probable space group: P 21/C
;
_chemical_formula_sum "Si O2"
_cell_formula_units_Z 32
_cell_length_a 10.227661
_cell_length_b 8.675409
_cell_length_c 28.163947
_cell_angle_alpha 90.000000
_cell_angle_beta 34.964045
_cell_angle_gamma 90.000000
_cell_volume 1432.061351
_symmetry_space_group_name_H-M "P 21/C"
_symmetry_group_IT_number 14
_symmetry_cell_setting 'monoclinic'
loop_
_space_group_symop_operation_xyz
x,y,z
-x,1/2+y,1/2-z
-x,-y,-z
x,1/2-y,1/2+z
loop_
_atom_site_type_symbol
_atom_site_label
_atom_site_fract_x
_atom_site_fract_y
_atom_site_fract_z
Si Si1 0.254436 0.386457 0.237561
Si Si2 0.918754 0.377038 0.637345
Si Si3 0.383717 0.888531 0.861403
Si Si4 0.660201 0.074749 0.014833
Si Si5 0.231423 0.597456 0.661025
Si Si6 0.798528 0.439776 0.221938
Si Si7 0.199955 0.591425 0.065047
Si Si8 0.557729 0.420437 0.906729
O O1 0.227778 0.493730 0.291300
O O2 0.425473 0.245709 0.193715
O O3 0.352546 0.482150 0.163932
O O4 0.992727 0.350840 0.300350
O O5 0.811690 0.349823 0.617525
O O6 0.892980 0.223582 0.676266
O O7 0.171212 0.445524 0.555826
O O8 0.302130 0.913213 0.939513
O O9 0.527302 0.036470 0.800218
O O10 0.393206 0.030515 0.089005
O O11 0.719605 0.238606 0.973694
O O12 0.155694 0.541582 0.735448
O O13 0.397389 0.743004 0.618049
O O14 0.932202 0.565303 0.150771
O O15 0.303634 0.549394 0.085738
O O16 0.304226 0.473289 0.995703
#
# Coordination Sequence:
#
# PCOD9251708 Si02
#       8
#     4   4   4   4   4   4   4   4
#     4  12  24  43  73 100 139 182 228 286 350 416
#     4  12  25  44  70  98 136 191 240 278 338 412
#     4  11  25  46  67  98 138 187 238 287 334 405
#     4  11  25  44  70 100 141 180 229 288 344 411
#     4  11  24  42  68 105 137 174 223 286 360 405
#     4  11  23  41  68  96 136 176 228 294 339 407
#     4  11  23  41  65 100 138 176 218 280 354 409
#     4  11  22  39  64  97 139 168 216 277 345 418
#
# _framework density 22.345412
#
# number of rings (size 3 to 8) (size 9 to 14) (size 15 to 20)
#    0.000    0.750    3.750    4.125    1.750    4.000 
#    0.000    0.625    0.000    0.000    0.000    0.000 
#    0.000    0.000    0.000    0.000    0.000    0.000 
#
# Total GULP energy -179019.409093 kJ/mol
# GULP energy per Si atom -5594.356534 kJ/mol
# Density = 2.229455 g / cm^3
# Si number density = 22.345412 Si / 1000 Ang^3
#
#
#
# Elastic Constant Matrix: (Units=GPa)
#
#
# Indices 1 2 3 4 5 6 
#
# 1 93.4040 9.9838 31.7053 0.0000 9.2666 0.0000
# 2 9.9838 97.1167 45.4538 0.0000 6.8661 0.0000
# 3 31.7053 45.4538 143.1351 0.0000 27.8152 0.0000
# 4 0.0000 0.0000 0.0000 53.7891 0.0000 8.1317
# 5 9.2666 6.8661 27.8152 0.0000 19.3813 0.0000
# 6 0.0000 0.0000 0.0000 8.1317 0.0000 17.7728
#
#
#
# Elastic Compliance Matrix: (Units=1/GPa)
#
#
# Indices 1 2 3 4 5 6 
#
# 1 0.011670 -0.000050 -0.002064 0.000000 -0.002600 0.000000
# 2 -0.000050 0.012135 -0.004177 0.000000 0.001719 0.000000
# 3 -0.002064 -0.004177 0.011497 0.000000 -0.014034 0.000000
# 4 0.000000 0.000000 0.000000 0.019973 0.000000 -0.009138
# 5 -0.002600 0.001719 -0.014034 0.000000 0.072371 0.000000
# 6 0.000000 0.000000 0.000000 -0.009138 0.000000 0.060447
#
#
# Mechanical properties :
#
#
# Convention : Reuss Voigt Hill
#
# Bulk Modulus (GPa) = 44.01123 56.43796 50.22459
# Shear Modulus (GPa) = 24.00991 34.62283 29.31637
#
# Velocity S-wave (km/s) = 3.28150 3.94056 3.62603
# Velocity P-wave (km/s) = 5.83920 6.78350 6.32899
#
# Compressibility (1/GPa) = 0.02272147
#
# Stress axis : x y z
#
# Youngs Moduli (GPa) = 85.68960 82.40419 86.97895
#
# Poissons Ratio (x) = 0.00411 0.17951
# Poissons Ratio (y) = 0.00428 0.36328
# Poissons Ratio (z) = 0.17685 0.34417
#
# Static dielectric constant tensor:
#      x y z
#    x 1.815600 0.000000 -0.021870 
#    y 0.000000 1.858580 0.000000 
#    z -0.021870 0.000000 1.838530 
# 
# From -- ./inp_files/79948.got.cif
#   From: 2010.05.17/outbox.cif.g08.bks.cpg/sg14_40_cif.got.tgz:79948.got - 2010.06.03 17:49:19.
