data_PCOD9251970
_publ_section_title
;
Structure prediction by ZEFSAII (Michael W. Deem and Ramdas Pophale) SiO2 
 PCOD9251970
Probable space group: P 21/C
;
_chemical_formula_sum "Si O2"
_cell_formula_units_Z 32
_cell_length_a 15.539633
_cell_length_b 12.281817
_cell_length_c 17.708810
_cell_angle_alpha 90.000000
_cell_angle_beta 29.243175
_cell_angle_gamma 90.000000
_cell_volume 1651.097474
_symmetry_space_group_name_H-M "P 21/C"
_symmetry_group_IT_number 14
_symmetry_cell_setting 'monoclinic'
loop_
_space_group_symop_operation_xyz
x,y,z
-x,1/2+y,1/2-z
-x,-y,-z
x,1/2-y,1/2+z
loop_
_atom_site_type_symbol
_atom_site_label
_atom_site_fract_x
_atom_site_fract_y
_atom_site_fract_z
Si Si1 0.219254 0.987309 0.178330
Si Si2 0.182109 0.626738 0.317052
Si Si3 0.958432 0.715418 0.193463
Si Si4 0.806239 0.876303 0.193831
Si Si5 0.342609 0.287317 0.806596
Si Si6 0.577342 0.480303 0.323922
Si Si7 0.010377 0.729601 0.824562
Si Si8 0.660483 0.234457 0.673143
O O1 0.099741 0.887473 0.244402
O O2 0.109652 0.096376 0.277481
O O3 0.318224 0.953138 0.179312
O O4 0.371246 0.013531 0.001655
O O5 0.239210 0.502452 0.259146
O O6 0.312922 0.690449 0.273029
O O7 0.994204 0.624173 0.505453
O O8 0.142295 0.692822 0.270963
O O9 0.838255 0.807008 0.245257
O O10 0.959591 0.722837 0.282567
O O11 0.155143 0.733279 0.012235
O O12 0.672382 0.810025 0.242944
O O13 0.359260 0.402110 0.751912
O O14 0.507119 0.274643 0.736013
O O15 0.163695 0.284512 0.991809
O O16 0.616319 0.386858 0.234380
#
# Coordination Sequence:
#
# PCOD9251970 Si02
#       8
#     4   4   4   4   4   4   4   4
#     4  11  23  41  65  90 123 164 213 267 314 365
#     4   9  20  39  61  86 122 165 203 246 307 374
#     4  11  23  40  64  93 126 164 208 257 314 376
#     4   9  20  39  61  86 122 165 203 246 307 374
#     4  11  23  40  64  93 126 164 208 257 314 376
#     4  11  23  41  65  90 123 164 213 267 314 365
#     4  11  23  40  64  93 126 164 208 257 314 376
#     4  11  23  40  64  93 126 164 208 257 314 376
#
# _framework density 19.381048
#
# number of rings (size 3 to 8) (size 9 to 14) (size 15 to 20)
#    0.000    1.500    2.500    2.250    3.500    1.000 
#    0.000    0.000    0.000    6.000    0.000    0.000 
#    0.000    0.000    0.000    0.000    0.000    0.000 
#
# Total GULP energy -178833.074045 kJ/mol
# GULP energy per Si atom -5588.533564 kJ/mol
# Density = 1.933694 g / cm^3
# Si number density = 19.381048 Si / 1000 Ang^3
#
#
#
# Elastic Constant Matrix: (Units=GPa)
#
#
# Indices 1 2 3 4 5 6 
#
# 1 100.2567 24.7815 11.9276 0.0000 -9.7767 0.0000
# 2 24.7815 98.5300 -5.2702 0.0000 -8.1711 0.0000
# 3 11.9276 -5.2702 27.4885 0.0000 -16.6539 0.0000
# 4 0.0000 0.0000 0.0000 20.1328 0.0000 -5.5124
# 5 -9.7767 -8.1711 -16.6539 0.0000 18.9468 0.0000
# 6 0.0000 0.0000 0.0000 -5.5124 0.0000 -27.3129
#
#
#
# Elastic Compliance Matrix: (Units=1/GPa)
#
#
# Indices 1 2 3 4 5 6 
#
# 1 0.011426 -0.003278 -0.006141 0.000000 -0.000916 0.000000
# 2 -0.003278 0.012998 0.013446 0.000000 0.015733 0.000000
# 3 -0.006141 0.013446 0.092444 0.000000 0.083886 0.000000
# 4 0.000000 0.000000 0.000000 0.047069 0.000000 -0.009500
# 5 -0.000916 0.015733 0.083886 0.000000 0.132826 0.000000
# 6 0.000000 0.000000 0.000000 -0.009500 0.000000 -0.034695
#
#
# Mechanical properties :
#
#
# Convention : Reuss Voigt Hill
#
# Bulk Modulus (GPa) = 8.00510 32.12812 20.06661
# Shear Modulus (GPa) = 16.91159 15.34242 16.12700
#
# Velocity S-wave (km/s) = 2.95716 2.81663 2.88775
# Velocity P-wave (km/s) = 3.97480 5.21449 4.63627
#
# Compressibility (1/GPa) = 0.12492043
#
# Stress axis : x y z
#
# Youngs Moduli (GPa) = 87.51939 76.93724 10.81733
#
# Poissons Ratio (x) = 0.25222 0.06643
# Poissons Ratio (y) = 0.28691 -0.14545
# Poissons Ratio (z) = 0.53750 -1.03450
#
# Static dielectric constant tensor:
#      x y z
#    x 1.656490 0.000000 -0.001220 
#    y 0.000000 1.641040 0.000000 
#    z -0.001220 0.000000 1.664140 
# 
# From -- ./inp_files/59384.got.cif
#   From: 2010.05.17/outbox.cif.g08.bks.cpg/sg14_30_cif.got.tgz:59384.got - 2010.06.03 17:49:19.
