data_PCOD9251202
_publ_section_title
;
Structure prediction by ZEFSAII (Michael W. Deem and Ramdas Pophale) SiO2 
 PCOD9251202
Probable space group: P 21/C
;
_chemical_formula_sum "Si O2"
_cell_formula_units_Z 26
_cell_length_a 17.404125
_cell_length_b 6.592147
_cell_length_c 23.267468
_cell_angle_alpha 90.000000
_cell_angle_beta 24.238834
_cell_angle_gamma 90.000000
_cell_volume 1095.935272
_symmetry_space_group_name_H-M "P 21/C"
_symmetry_group_IT_number 14
_symmetry_cell_setting 'monoclinic'
loop_
_space_group_symop_operation_xyz
x,y,z
-x,1/2+y,1/2-z
-x,-y,-z
x,1/2-y,1/2+z
loop_
_atom_site_type_symbol
_atom_site_label
_atom_site_fract_x
_atom_site_fract_y
_atom_site_fract_z
Si Si1 0.488502 0.399125 0.606158
Si Si2 0.000000 0.500000 0.500000
Si Si3 0.529401 0.769592 0.655440
Si Si4 0.906913 0.995521 0.381951
Si Si5 0.667905 0.860431 0.182513
Si Si6 0.820416 0.349856 0.820024
Si Si7 0.846838 0.793625 0.220027
O O1 0.531137 0.624598 0.599302
O O2 0.434887 0.282008 0.701783
O O3 0.656436 0.284354 0.459968
O O4 0.310277 0.374321 0.686582
O O5 0.888192 0.672254 0.534305
O O6 0.914278 0.611609 0.614923
O O7 0.694251 0.933871 0.538606
O O8 0.572853 0.654399 0.685277
O O9 0.340549 0.903181 0.789465
O O10 0.034298 0.802138 0.308048
O O11 0.923977 0.043488 0.302932
O O12 0.979522 0.188472 0.366854
O O13 0.760996 0.528174 0.817816
#
# Coordination Sequence:
#
# PCOD9251202 Si02
#       7
#     4   2   4   4   4   4   4
#     4  11  26  45  71 105 146 190 242 301 370 430
#     4  10  26  46  74 100 146 186 236 304 366 428
#     4  12  25  43  72 106 142 197 245 297 365 437
#     4  12  26  43  75 105 145 191 244 296 367 442
#     4  11  24  44  70 103 143 190 239 303 359 437
#     4  12  24  46  71 107 146 191 243 302 363 441
#     4  11  27  49  73 110 146 190 244 306 366 438
#
# _framework density 23.724032000000001
#
# number of rings (size 3 to 8) (size 9 to 14) (size 15 to 20)
#    0.000    0.615    4.615    2.308    4.308    4.308 
#    0.000    5.385    0.000    0.000    0.000    0.000 
#    0.000    0.000    0.000    0.000    0.000    0.000 
#
# Total GULP energy -145038.205372 kJ/mol
# GULP energy per Si atom -5578.392514 kJ/mol
# Density = 2.367003 g / cm^3
# Si number density = 23.724032 Si / 1000 Ang^3
#
#
#
# Elastic Constant Matrix: (Units=GPa)
#
#
# Indices 1 2 3 4 5 6 
#
# 1 90.1185 23.5423 1.0481 0.0000 23.1951 0.0000
# 2 23.5423 67.6876 8.2269 0.0000 10.7466 0.0000
# 3 1.0481 8.2269 41.9793 0.0000 12.1815 0.0000
# 4 0.0000 0.0000 0.0000 31.6761 0.0000 -3.2123
# 5 23.1951 10.7466 12.1815 0.0000 20.3955 0.0000
# 6 0.0000 0.0000 0.0000 -3.2123 0.0000 34.6433
#
#
#
# Elastic Compliance Matrix: (Units=1/GPa)
#
#
# Indices 1 2 3 4 5 6 
#
# 1 0.017639 -0.003414 0.006686 0.000000 -0.022254 0.000000
# 2 -0.003414 0.016808 -0.002136 0.000000 -0.003698 0.000000
# 3 0.006686 -0.002136 0.031394 0.000000 -0.025229 0.000000
# 4 0.000000 0.000000 0.000000 0.031869 0.000000 0.002955
# 5 -0.022254 -0.003698 -0.025229 0.000000 0.091356 0.000000
# 6 0.000000 0.000000 0.000000 0.002955 0.000000 0.029140
#
#
# Mechanical properties :
#
#
# Convention : Reuss Voigt Hill
#
# Bulk Modulus (GPa) = 14.68145 29.49112 22.08629
# Shear Modulus (GPa) = 20.95236 28.47419 24.71327
#
# Velocity S-wave (km/s) = 2.97504 3.46819 3.23104
# Velocity P-wave (km/s) = 4.24300 5.33813 4.82176
#
# Compressibility (1/GPa) = 0.06811314
#
# Stress axis : x y z
#
# Youngs Moduli (GPa) = 56.69411 59.49574 31.85341
#
# Poissons Ratio (x) = 0.20313 -0.21298
# Poissons Ratio (y) = 0.19357 0.06803
# Poissons Ratio (z) = -0.37908 0.12706
#
# Static dielectric constant tensor:
#      x y z
#    x 2.061370 0.000000 -0.271210 
#    y 0.000000 2.035660 0.000000 
#    z -0.271210 0.000000 2.218410 
# 
# From -- ./inp_files/74060.got.cif
#   From: 2010.05.17/outbox.cif.g08.bks.cpg/sg14_38_cif.got.tgz:74060.got - 2010.06.03 17:49:19.
