data_PCOD9251509
_publ_section_title
;
Structure prediction by ZEFSAII (Michael W. Deem and Ramdas Pophale) SiO2 
 PCOD9251509
Probable space group: P 21/C
;
_chemical_formula_sum "Si O2"
_cell_formula_units_Z 16
_cell_length_a 9.884431
_cell_length_b 10.538563
_cell_length_c 13.767817
_cell_angle_alpha 90.000000
_cell_angle_beta 30.427022
_cell_angle_gamma 90.000000
_cell_volume 726.317611
_symmetry_space_group_name_H-M "P 21/C"
_symmetry_group_IT_number 14
_symmetry_cell_setting 'monoclinic'
loop_
_space_group_symop_operation_xyz
x,y,z
-x,1/2+y,1/2-z
-x,-y,-z
x,1/2-y,1/2+z
loop_
_atom_site_type_symbol
_atom_site_label
_atom_site_fract_x
_atom_site_fract_y
_atom_site_fract_z
Si Si1 0.879443 0.926860 0.944159
Si Si2 0.582497 0.059989 0.289084
Si Si3 0.877490 0.303438 0.107402
Si Si4 0.996560 0.957652 0.655503
O O1 0.170037 0.986623 0.796363
O O2 0.905723 0.789448 0.977780
O O3 0.862553 0.921951 0.839519
O O4 0.655480 0.008144 0.136786
O O5 0.622033 0.211541 0.265427
O O6 0.295190 0.008756 0.493606
O O7 0.851412 0.427856 0.189004
O O8 0.966004 0.345531 0.945599
#
# Coordination Sequence:
#
# PCOD9251509 Si02
#       4
#     4   4   4   4
#     4   9  21  38  60  86 117 155 196 234 291 346
#     4   9  21  38  60  86 117 155 196 234 291 346
#     4   9  23  37  58  95 114 145 208 239 278 367
#     4  11  21  40  62  86 121 155 188 246 298 333
#
# _framework density 22.028931
#
# number of rings (size 3 to 8) (size 9 to 14) (size 15 to 20)
#    1.500    1.000    0.000    0.750    7.000    0.000 
#    0.000   10.000    0.000    0.000    0.000    0.000 
#    0.000    0.000    0.000    0.000    0.000    0.000 
#
# Total GULP energy -89253.376085 kJ/mol
# GULP energy per Si atom -5578.336005 kJ/mol
# Density = 2.197879 g / cm^3
# Si number density = 22.028931 Si / 1000 Ang^3
#
#
#
# Elastic Constant Matrix: (Units=GPa)
#
#
# Indices 1 2 3 4 5 6 
#
# 1 63.2535 0.0058 31.3090 0.0000 20.8244 0.0000
# 2 0.0058 52.8203 10.2108 0.0000 2.9358 0.0000
# 3 31.3090 10.2108 73.4154 0.0000 14.2212 0.0000
# 4 0.0000 0.0000 0.0000 -3.8191 0.0000 11.8918
# 5 20.8244 2.9358 14.2212 0.0000 52.0142 0.0000
# 6 0.0000 0.0000 0.0000 11.8918 0.0000 2.0006
#
#
#
# Elastic Compliance Matrix: (Units=1/GPa)
#
#
# Indices 1 2 3 4 5 6 
#
# 1 0.022192 0.002002 -0.008447 0.000000 -0.006688 0.000000
# 2 0.002002 0.019643 -0.003396 0.000000 -0.000982 0.000000
# 3 -0.008447 -0.003396 0.017954 0.000000 -0.001335 0.000000
# 4 0.000000 0.000000 0.000000 -0.013422 0.000000 0.079781
# 5 -0.006688 -0.000982 -0.001335 0.000000 0.022324 0.000000
# 6 0.000000 0.000000 0.000000 0.079781 0.000000 0.025623
#
#
# Mechanical properties :
#
#
# Convention : Reuss Voigt Hill
#
# Bulk Modulus (GPa) = 24.93230 30.28227 27.60729
# Shear Modulus (GPa) = 39.25735 19.90338 29.58036
#
# Velocity S-wave (km/s) = 4.22605 3.00911 3.66839
# Velocity P-wave (km/s) = 5.92918 5.08423 5.52289
#
# Compressibility (1/GPa) = 0.04010861
#
# Stress axis : x y z
#
# Youngs Moduli (GPa) = 45.06075 50.90906 55.69659
#
# Poissons Ratio (x) = -0.10193 0.47047
# Poissons Ratio (y) = -0.09022 0.18913
# Poissons Ratio (z) = 0.38063 0.17287
#
# Static dielectric constant tensor:
#      x y z
#    x 1.860170 0.000000 -0.039350 
#    y 0.000000 1.818020 0.000000 
#    z -0.039350 0.000000 1.755440 
# 
# From -- ./inp_files/20232.got.cif
#   From: 2010.05.17/outbox.cif.g08.bks.cpg/sg14_11_cif.got.tgz:20232.got - 2010.06.03 17:49:19.
