data_PCOD9251542
_publ_section_title
;
Structure prediction by ZEFSAII (Michael W. Deem and Ramdas Pophale) SiO2 
 PCOD9251542
Probable space group: P 21/C
;
_chemical_formula_sum "Si O2"
_cell_formula_units_Z 32
_cell_length_a 11.502572
_cell_length_b 13.650872
_cell_length_c 14.351088
_cell_angle_alpha 90.000000
_cell_angle_beta 138.335878
_cell_angle_gamma 90.000000
_cell_volume 1497.982767
_symmetry_space_group_name_H-M "P 21/C"
_symmetry_group_IT_number 14
_symmetry_cell_setting 'monoclinic'
loop_
_space_group_symop_operation_xyz
x,y,z
-x,1/2+y,1/2-z
-x,-y,-z
x,1/2-y,1/2+z
loop_
_atom_site_type_symbol
_atom_site_label
_atom_site_fract_x
_atom_site_fract_y
_atom_site_fract_z
Si Si1 0.843785 0.274510 0.430971
Si Si2 0.791315 0.837241 0.870573
Si Si3 0.860478 0.509059 0.768447
Si Si4 0.325574 0.611537 0.498258
Si Si5 0.541914 0.712969 0.859393
Si Si6 0.185081 0.939848 0.549779
Si Si7 0.672639 0.712218 0.631605
Si Si8 0.454027 0.497038 0.738188
O O1 0.787666 0.332176 0.491232
O O2 0.664490 0.259886 0.266025
O O3 0.904392 0.164678 0.489138
O O4 0.005874 0.328722 0.479981
O O5 0.663037 0.774581 0.860956
O O6 0.770749 0.786205 0.758578
O O7 0.718500 0.947544 0.824208
O O8 0.781483 0.426443 0.654383
O O9 0.811263 0.494660 0.848348
O O10 0.784587 0.612573 0.688208
O O11 0.070731 0.506859 0.903072
O O12 0.488088 0.678070 0.565615
O O13 0.408161 0.518371 0.602905
O O14 0.526555 0.599427 0.820884
O O15 0.626290 0.734517 0.008606
O O16 0.386222 0.924720 0.645733
#
# Coordination Sequence:
#
# PCOD9251542 Si02
#       8
#     4   4   4   4   4   4   4   4
#     4  11  24  45  66  97 143 181 218 289 349 409
#     4  12  24  46  69  99 141 180 228 285 347 419
#     4  11  23  36  69 101 129 175 237 291 338 406
#     4  11  23  42  65 101 133 178 232 278 343 416
#     4  11  25  44  70 102 137 185 229 286 346 408
#     4  11  21  41  65  98 133 174 230 289 343 400
#     4  12  22  45  68  99 138 177 231 287 343 410
#     4  11  23  44  71  95 137 185 223 282 356 409
#
# _framework density 21.362061000000001
#
# number of rings (size 3 to 8) (size 9 to 14) (size 15 to 20)
#    0.000    0.750    6.250    1.875    1.750    3.500 
#    2.250    2.500    0.000    0.000    0.000    0.000 
#    0.000    0.000    0.000    0.000    0.000    0.000 
#
# Total GULP energy -178678.679213 kJ/mol
# GULP energy per Si atom -5583.708725 kJ/mol
# Density = 2.131344 g / cm^3
# Si number density = 21.362061 Si / 1000 Ang^3
#
#
#
# Elastic Constant Matrix: (Units=GPa)
#
#
# Indices 1 2 3 4 5 6 
#
# 1 46.0072 8.7372 36.4392 0.0000 12.2903 0.0000
# 2 8.7372 43.8758 16.8630 0.0000 -0.6237 0.0000
# 3 36.4392 16.8630 128.2143 0.0000 0.0922 0.0000
# 4 0.0000 0.0000 0.0000 34.3392 0.0000 0.5395
# 5 12.2903 -0.6237 0.0922 0.0000 37.2036 0.0000
# 6 0.0000 0.0000 0.0000 0.5395 0.0000 24.2353
#
#
#
# Elastic Compliance Matrix: (Units=1/GPa)
#
#
# Indices 1 2 3 4 5 6 
#
# 1 0.032058 -0.003198 -0.008683 0.000000 -0.010622 0.000000
# 2 -0.003198 0.024330 -0.002292 0.000000 0.001470 0.000000
# 3 -0.008683 -0.002292 0.010567 0.000000 0.002804 0.000000
# 4 0.000000 0.000000 0.000000 0.029131 0.000000 -0.000648
# 5 -0.010622 0.001470 0.002804 0.000000 0.030406 0.000000
# 6 0.000000 0.000000 0.000000 -0.000648 0.000000 0.041277
#
#
# Mechanical properties :
#
#
# Convention : Reuss Voigt Hill
#
# Bulk Modulus (GPa) = 25.90060 38.01957 31.96008
# Shear Modulus (GPa) = 23.92535 29.55949 26.74242
#
# Velocity S-wave (km/s) = 3.35026 3.72390 3.54201
# Velocity P-wave (km/s) = 5.20736 6.02712 5.63217
#
# Compressibility (1/GPa) = 0.03860915
#
# Stress axis : x y z
#
# Youngs Moduli (GPa) = 31.19382 41.10109 94.63800
#
# Poissons Ratio (x) = 0.13143 0.82172
# Poissons Ratio (y) = 0.09975 0.21693
# Poissons Ratio (z) = 0.27085 0.09421
#
# Static dielectric constant tensor:
#      x y z
#    x 1.803230 0.000000 0.052220 
#    y 0.000000 1.826650 0.000000 
#    z 0.052220 0.000000 1.777780 
# 
# From -- ./inp_files/45130.got.cif
#   From: 2010.05.17/outbox.cif.g08.bks.cpg/sg14_23_cif.got.tgz:45130.got - 2010.06.03 17:49:19.
