data_PCOD9251829
_publ_section_title
;
Structure prediction by ZEFSAII (Michael W. Deem and Ramdas Pophale) SiO2 
 PCOD9251829
Probable space group: P 21/C
;
_chemical_formula_sum "Si O2"
_cell_formula_units_Z 24
_cell_length_a 13.268461
_cell_length_b 7.237711
_cell_length_c 14.574951
_cell_angle_alpha 90.000000
_cell_angle_beta 137.248863
_cell_angle_gamma 90.000000
_cell_volume 950.124522
_symmetry_space_group_name_H-M "P 21/C"
_symmetry_group_IT_number 14
_symmetry_cell_setting 'monoclinic'
loop_
_space_group_symop_operation_xyz
x,y,z
-x,1/2+y,1/2-z
-x,-y,-z
x,1/2-y,1/2+z
loop_
_atom_site_type_symbol
_atom_site_label
_atom_site_fract_x
_atom_site_fract_y
_atom_site_fract_z
Si Si1 0.868456 0.776594 0.065437
Si Si2 0.470588 0.180658 0.117613
Si Si3 0.467546 0.746900 0.139192
Si Si4 0.711359 0.212086 0.641833
Si Si5 0.929707 0.554197 0.795476
Si Si6 0.197088 0.111879 0.172156
O O1 0.952788 0.860446 0.209676
O O2 0.698706 0.759795 0.984726
O O3 0.628581 0.837988 0.725770
O O4 0.865755 0.904377 0.973028
O O5 0.555976 0.235200 0.267876
O O6 0.553582 0.264955 0.087278
O O7 0.473490 0.960333 0.115269
O O8 0.802038 0.435088 0.261730
O O9 0.334637 0.660052 0.991749
O O10 0.794185 0.408065 0.699455
O O11 0.885864 0.719100 0.833519
O O12 0.065019 0.422851 0.914680
#
# Coordination Sequence:
#
# PCOD9251829 Si02
#       6
#     4   4   4   4   4   4
#     4  11  27  50  74 109 155 195 256 307 369 452
#     4  11  22  45  75 113 151 193 252 310 373 448
#     4  11  22  43  74 116 151 189 248 311 374 447
#     4  12  25  46  80 110 151 196 247 316 373 445
#     4  12  27  52  75 110 150 205 248 310 374 451
#     4  11  26  49  76 113 148 198 250 308 379 442
#
# _framework density 25.259848000000002
#
# number of rings (size 3 to 8) (size 9 to 14) (size 15 to 20)
#    0.000    0.667    3.333    4.500    2.333    3.333 
#    3.000    0.000    0.000    0.000    0.000    0.000 
#    0.000    0.000    0.000    0.000    0.000    0.000 
#
# Total GULP energy -134703.379793 kJ/mol
# GULP energy per Si atom -5612.640825 kJ/mol
# Density = 2.520235 g / cm^3
# Si number density = 25.259848 Si / 1000 Ang^3
#
#
#
# Elastic Constant Matrix: (Units=GPa)
#
#
# Indices 1 2 3 4 5 6 
#
# 1 58.0226 -7.4096 9.4279 0.0000 2.7084 0.0000
# 2 -7.4096 95.3297 1.1840 0.0000 -5.2245 0.0000
# 3 9.4279 1.1840 96.5694 0.0000 -10.9357 0.0000
# 4 0.0000 0.0000 0.0000 18.6398 0.0000 -3.5027
# 5 2.7084 -5.2245 -10.9357 0.0000 28.0012 0.0000
# 6 0.0000 0.0000 0.0000 -3.5027 0.0000 40.7550
#
#
#
# Elastic Compliance Matrix: (Units=1/GPa)
#
#
# Indices 1 2 3 4 5 6 
#
# 1 0.017832 0.001287 -0.002014 0.000000 -0.002271 0.000000
# 2 0.001287 0.010692 -0.000047 0.000000 0.001852 0.000000
# 3 -0.002014 -0.000047 0.011063 0.000000 0.004507 0.000000
# 4 0.000000 0.000000 0.000000 0.054529 0.000000 0.004686
# 5 -0.002271 0.001852 0.004507 0.000000 0.038038 0.000000
# 6 0.000000 0.000000 0.000000 0.004686 0.000000 0.024940
#
#
# Mechanical properties :
#
#
# Convention : Reuss Voigt Hill
#
# Bulk Modulus (GPa) = 26.28924 28.48070 27.38497
# Shear Modulus (GPa) = 29.18481 33.92715 31.55598
#
# Velocity S-wave (km/s) = 3.40278 3.66884 3.53831
# Velocity P-wave (km/s) = 5.08613 5.40803 5.24955
#
# Compressibility (1/GPa) = 0.03803838
#
# Stress axis : x y z
#
# Youngs Moduli (GPa) = 56.07833 93.52792 90.39327
#
# Poissons Ratio (x) = -0.12033 0.18204
# Poissons Ratio (y) = -0.07215 0.00424
# Poissons Ratio (z) = 0.11294 0.00439
#
# Static dielectric constant tensor:
#      x y z
#    x 1.960580 0.000000 0.020540 
#    y 0.000000 1.944770 0.000000 
#    z 0.020540 0.000000 2.007380 
# 
# From -- ./inp_files/46834.got.cif
#   From: 2010.05.17/outbox.cif.g08.bks.cpg/sg14_24_cif.got.tgz:46834.got - 2010.06.03 17:49:19.
