data_PCOD9251412
_publ_section_title
;
Structure prediction by ZEFSAII (Michael W. Deem and Ramdas Pophale) SiO2 
 PCOD9251412
Probable space group: P 21/C
;
_chemical_formula_sum "Si O2"
_cell_formula_units_Z 28
_cell_length_a 9.914646
_cell_length_b 18.572355
_cell_length_c 12.725257
_cell_angle_alpha 90.000000
_cell_angle_beta 35.747392
_cell_angle_gamma 90.000000
_cell_volume 1368.931643
_symmetry_space_group_name_H-M "P 21/C"
_symmetry_group_IT_number 14
_symmetry_cell_setting 'monoclinic'
loop_
_space_group_symop_operation_xyz
x,y,z
-x,1/2+y,1/2-z
-x,-y,-z
x,1/2-y,1/2+z
loop_
_atom_site_type_symbol
_atom_site_label
_atom_site_fract_x
_atom_site_fract_y
_atom_site_fract_z
Si Si1 0.171256 0.491597 0.295666
Si Si2 0.550522 0.424985 0.409641
Si Si3 0.198831 0.313426 0.731861
Si Si4 0.403634 0.524976 0.838189
Si Si5 0.691713 0.843905 0.399262
Si Si6 0.087060 0.112759 0.524525
Si Si7 0.197748 0.621804 0.135967
O O1 0.423581 0.507375 0.184726
O O2 0.193537 0.412692 0.231539
O O3 0.107845 0.549933 0.249107
O O4 0.000000 0.500000 0.500000
O O5 0.500000 0.500000 0.500000
O O6 0.413402 0.362002 0.555749
O O7 0.468195 0.443333 0.343578
O O8 0.821511 0.404492 0.223989
O O9 0.250930 0.229262 0.697730
O O10 0.002435 0.324396 0.767319
O O11 0.119186 0.342920 0.896129
O O12 0.220648 0.463509 0.925128
O O13 0.290036 0.592566 0.966738
O O14 0.787666 0.847183 0.457188
O O15 0.414101 0.850379 0.565679
#
# Coordination Sequence:
#
# PCOD9251412 Si02
#       7
#     4   4   4   4   4   4   4
#     4  11  23  41  73 102 136 187 245 289 338 431
#     4  12  25  40  75 109 134 185 243 279 350 431
#     4  12  28  46  71 106 147 186 228 299 362 421
#     4  11  20  42  70 104 134 181 235 296 340 401
#     4  11  27  47  69 101 142 189 232 287 368 413
#     4  12  24  47  71 103 146 183 232 298 349 414
#     4  11  22  48  70  98 139 186 237 288 343 418
#
# _framework density 20.453906
#
# number of rings (size 3 to 8) (size 9 to 14) (size 15 to 20)
#    0.000    0.571    5.714    3.000    4.000    3.429 
#    0.000    0.000    0.000    0.000    0.000    0.000 
#    0.000    0.000    0.000    0.000    0.000    0.000 
#
# Total GULP energy -156429.352937 kJ/mol
# GULP energy per Si atom -5586.762605 kJ/mol
# Density = 2.040735 g / cm^3
# Si number density = 20.453906 Si / 1000 Ang^3
#
#
#
# Elastic Constant Matrix: (Units=GPa)
#
#
# Indices 1 2 3 4 5 6 
#
# 1 108.1268 50.3986 42.8885 0.0000 7.8336 0.0000
# 2 50.3986 87.3509 43.9130 0.0000 -9.5002 0.0000
# 3 42.8885 43.9130 118.1021 0.0000 6.4760 0.0000
# 4 0.0000 0.0000 0.0000 18.5965 0.0000 -1.3375
# 5 7.8336 -9.5002 6.4760 0.0000 37.8847 0.0000
# 6 0.0000 0.0000 0.0000 -1.3375 0.0000 21.2504
#
#
#
# Elastic Compliance Matrix: (Units=1/GPa)
#
#
# Indices 1 2 3 4 5 6 
#
# 1 0.013836 -0.007447 -0.002015 0.000000 -0.004384 0.000000
# 2 -0.007447 0.018879 -0.004703 0.000000 0.007078 0.000000
# 3 -0.002015 -0.004703 0.011094 0.000000 -0.002659 0.000000
# 4 0.000000 0.000000 0.000000 0.054018 0.000000 0.003400
# 5 -0.004384 0.007078 -0.002659 0.000000 0.029532 0.000000
# 6 0.000000 0.000000 0.000000 0.003400 0.000000 0.047272
#
#
# Mechanical properties :
#
#
# Convention : Reuss Voigt Hill
#
# Bulk Modulus (GPa) = 64.60820 65.33110 64.96965
# Shear Modulus (GPa) = 24.02444 27.30498 25.66471
#
# Velocity S-wave (km/s) = 3.43091 3.65766 3.54610
# Velocity P-wave (km/s) = 6.88118 7.06031 6.97132
#
# Compressibility (1/GPa) = 0.01547791
#
# Stress axis : x y z
#
# Youngs Moduli (GPa) = 72.27312 52.96910 90.14052
#
# Poissons Ratio (x) = 0.39445 0.18167
# Poissons Ratio (y) = 0.53820 0.42397
# Poissons Ratio (z) = 0.14566 0.24914
#
# Static dielectric constant tensor:
#      x y z
#    x 1.782120 0.000000 -0.058920 
#    y 0.000000 1.709550 0.000000 
#    z -0.058920 0.000000 1.872470 
# 
# From -- ./inp_files/26727.got.cif
#   From: 2010.05.17/outbox.cif.g08.bks.cpg/sg14_14_cif.got.tgz:26727.got - 2010.06.03 17:49:19.
