data_PCOD9251709
_publ_section_title
;
Structure prediction by ZEFSAII (Michael W. Deem and Ramdas Pophale) SiO2 
 PCOD9251709
Probable space group: P 21/C
;
_chemical_formula_sum "Si O2"
_cell_formula_units_Z 32
_cell_length_a 6.885197
_cell_length_b 10.411173
_cell_length_c 22.311148
_cell_angle_alpha 90.000000
_cell_angle_beta 69.234499
_cell_angle_gamma 90.000000
_cell_volume 1495.435986
_symmetry_space_group_name_H-M "P 21/C"
_symmetry_group_IT_number 14
_symmetry_cell_setting 'monoclinic'
loop_
_space_group_symop_operation_xyz
x,y,z
-x,1/2+y,1/2-z
-x,-y,-z
x,1/2-y,1/2+z
loop_
_atom_site_type_symbol
_atom_site_label
_atom_site_fract_x
_atom_site_fract_y
_atom_site_fract_z
Si Si1 0.565206 0.886058 0.911277
Si Si2 0.065104 0.241661 0.874865
Si Si3 0.832716 0.465931 0.968055
Si Si4 0.832165 0.025535 0.969274
Si Si5 0.765401 0.972184 0.777770
Si Si6 0.475885 0.121053 0.315037
Si Si7 0.922260 0.249460 0.255095
Si Si8 0.441730 0.403686 0.093438
O O1 0.609945 0.985593 0.851960
O O2 0.558124 0.742971 0.885561
O O3 0.743890 0.906633 0.941347
O O4 0.359236 0.911985 0.973122
O O5 0.304932 0.278899 0.860217
O O6 0.931454 0.353039 0.919391
O O7 0.959579 0.114354 0.910274
O O8 0.018954 0.242452 0.810308
O O9 0.758967 0.568516 0.926305
O O10 0.632386 0.421429 0.026873
O O11 0.000000 0.500000 0.000000
O O12 0.000000 0.000000 0.000000
O O13 0.630180 0.930222 0.734663
O O14 0.924751 0.862678 0.785912
O O15 0.891935 0.099441 0.742711
O O16 0.691023 0.192218 0.278784
O O17 0.525516 0.006400 0.356780
#
# Coordination Sequence:
#
# PCOD9251709 Si02
#       8
#     4   4   4   4   4   4   4   4
#     4  11  26  45  66 103 141 177 232 284 349 417
#     4  11  22  44  67 101 136 179 226 274 349 408
#     4  11  22  39  65 101 138 174 221 275 340 407
#     4  11  26  43  69 100 140 184 222 282 349 420
#     4  11  28  48  72 100 137 190 239 289 351 413
#     4  11  26  42  74 100 136 185 231 289 350 409
#     4  11  26  49  70  98 142 182 237 295 337 417
#     4  11  24  39  66 102 138 175 220 288 340 411
#
# _framework density 21.398440999999998
#
# number of rings (size 3 to 8) (size 9 to 14) (size 15 to 20)
#    0.000    1.000    5.000    0.000    7.000    2.000 
#    0.000    0.000    0.000    0.000    0.000    0.000 
#    0.000    0.000    0.000    0.000    0.000    0.000 
#
# Total GULP energy -178479.215352 kJ/mol
# GULP energy per Si atom -5577.475480 kJ/mol
# Density = 2.134974 g / cm^3
# Si number density = 21.398441 Si / 1000 Ang^3
#
#
#
# Elastic Constant Matrix: (Units=GPa)
#
#
# Indices 1 2 3 4 5 6 
#
# 1 127.8407 38.4355 21.2948 0.0000 8.2513 0.0000
# 2 38.4355 79.2731 7.9079 0.0000 -12.0370 0.0000
# 3 21.2948 7.9079 53.9543 0.0000 -4.3348 0.0000
# 4 0.0000 0.0000 0.0000 28.4814 0.0000 2.1934
# 5 8.2513 -12.0370 -4.3348 0.0000 33.2829 0.0000
# 6 0.0000 0.0000 0.0000 2.1934 0.0000 23.6733
#
#
#
# Elastic Compliance Matrix: (Units=1/GPa)
#
#
# Indices 1 2 3 4 5 6 
#
# 1 0.010399 -0.005435 -0.003712 0.000000 -0.005027 0.000000
# 2 -0.005435 0.016324 0.000339 0.000000 0.007295 0.000000
# 3 -0.003712 0.000339 0.020245 0.000000 0.003679 0.000000
# 4 0.000000 0.000000 0.000000 0.035363 0.000000 -0.003277
# 5 -0.005027 0.007295 0.003679 0.000000 0.034409 0.000000
# 6 0.000000 0.000000 0.000000 -0.003277 0.000000 0.042545
#
#
# Mechanical properties :
#
#
# Convention : Reuss Voigt Hill
#
# Bulk Modulus (GPa) = 34.06928 44.03828 39.05378
# Shear Modulus (GPa) = 26.78306 29.98284 28.38295
#
# Velocity S-wave (km/s) = 3.54168 3.74728 3.64593
# Velocity P-wave (km/s) = 5.71670 6.27277 6.00118
#
# Compressibility (1/GPa) = 0.02935195
#
# Stress axis : x y z
#
# Youngs Moduli (GPa) = 96.16319 61.26061 49.39470
#
# Poissons Ratio (x) = 0.33295 0.18333
# Poissons Ratio (y) = 0.52265 -0.01673
# Poissons Ratio (z) = 0.35692 -0.02075
#
# Static dielectric constant tensor:
#      x y z
#    x 1.534920 0.000000 -0.493020 
#    y 0.000000 1.711300 0.000000 
#    z -0.493020 0.000000 0.866350 
# 
# From -- ./inp_files/71309.got.cif
#   From: 2010.05.17/outbox.cif.g08.bks.cpg/sg14_36_cif.got.tgz:71309.got - 2010.06.03 17:49:19.
