data_PCOD9251967
_publ_section_title
;
Structure prediction by ZEFSAII (Michael W. Deem and Ramdas Pophale) SiO2 
 PCOD9251967
Probable space group: P 21/C
;
_chemical_formula_sum "Si O2"
_cell_formula_units_Z 32
_cell_length_a 29.817712
_cell_length_b 5.107351
_cell_length_c 8.926390
_cell_angle_alpha 90.000000
_cell_angle_beta 77.063546
_cell_angle_gamma 90.000000
_cell_volume 1324.892778
_symmetry_space_group_name_H-M "P 21/C"
_symmetry_group_IT_number 14
_symmetry_cell_setting 'monoclinic'
loop_
_space_group_symop_operation_xyz
x,y,z
-x,1/2+y,1/2-z
-x,-y,-z
x,1/2-y,1/2+z
loop_
_atom_site_type_symbol
_atom_site_label
_atom_site_fract_x
_atom_site_fract_y
_atom_site_fract_z
Si Si1 0.515454 0.873606 0.648287
Si Si2 0.876425 0.575720 0.990360
Si Si3 0.747607 0.448033 0.658955
Si Si4 0.293040 0.326638 0.560336
Si Si5 0.982706 0.910254 0.349675
Si Si6 0.655547 0.242323 0.770711
Si Si7 0.154968 0.595523 0.311344
Si Si8 0.381598 0.423479 0.939357
O O1 0.509292 0.111076 0.773015
O O2 0.569239 0.792540 0.592870
O O3 0.500000 0.000000 0.500000
O O4 0.928317 0.639260 0.902158
O O5 0.851065 0.474609 0.858453
O O6 0.855273 0.832541 0.085098
O O7 0.876280 0.335718 0.109153
O O8 0.727157 0.620703 0.807269
O O9 0.752164 0.608551 0.503467
O O10 0.702673 0.288214 0.643178
O O11 0.793164 0.316744 0.684145
O O12 0.322148 0.539991 0.629380
O O13 0.334870 0.223479 0.425747
O O14 0.007058 0.647736 0.272326
O O15 0.000000 0.000000 0.500000
O O16 0.617057 0.147505 0.686152
O O17 0.632045 0.464720 0.888705
#
# Coordination Sequence:
#
# PCOD9251967 Si02
#       8
#     4   4   4   4   4   4   4   4
#     4  12  29  49  76 106 143 183 230 280 353 431
#     4  12  26  47  68 107 137 193 233 286 361 416
#     4  11  25  40  65  95 129 177 223 273 332 393
#     4  11  23  40  63  94 126 164 225 269 326 387
#     4  12  24  44  74 103 140 180 237 302 351 416
#     4  11  23  40  64  95 125 167 219 273 324 389
#     4  12  27  44  72  96 151 184 234 286 343 431
#     4  11  25  42  70  94 132 170 217 283 332 393
#
# _framework density 24.152899000000001
#
# number of rings (size 3 to 8) (size 9 to 14) (size 15 to 20)
#    0.000    0.500    2.500    5.250    7.000    0.000 
#    0.000    0.000    0.000    0.000    0.000    0.000 
#    0.000    0.000    0.000    0.000    0.000    0.000 
#
# Total GULP energy -178820.532084 kJ/mol
# GULP energy per Si atom -5588.141628 kJ/mol
# Density = 2.409793 g / cm^3
# Si number density = 24.152899 Si / 1000 Ang^3
#
#
#
# Elastic Constant Matrix: (Units=GPa)
#
#
# Indices 1 2 3 4 5 6 
#
# 1 48.6810 -22.2326 -5.1782 0.0000 6.8594 0.0000
# 2 -22.2326 66.4003 7.8695 0.0000 -12.4370 0.0000
# 3 -5.1782 7.8695 80.1516 0.0000 8.7353 0.0000
# 4 0.0000 0.0000 0.0000 44.1375 0.0000 0.7451
# 5 6.8594 -12.4370 8.7353 0.0000 30.1497 0.0000
# 6 0.0000 0.0000 0.0000 0.7451 0.0000 24.8729
#
#
#
# Elastic Compliance Matrix: (Units=1/GPa)
#
#
# Indices 1 2 3 4 5 6 
#
# 1 0.024504 0.007545 0.001147 0.000000 -0.002795 0.000000
# 2 0.007545 0.019109 -0.002128 0.000000 0.006783 0.000000
# 3 0.001147 -0.002128 0.013304 0.000000 -0.004993 0.000000
# 4 0.000000 0.000000 0.000000 0.022668 0.000000 -0.000679
# 5 -0.002795 0.006783 -0.004993 0.000000 0.038048 0.000000
# 6 0.000000 0.000000 0.000000 -0.000679 0.000000 0.040225
#
#
# Mechanical properties :
#
#
# Convention : Reuss Voigt Hill
#
# Bulk Modulus (GPa) = 14.27671 17.35001 15.81336
# Shear Modulus (GPa) = 29.74826 34.15029 31.94928
#
# Velocity S-wave (km/s) = 3.51331 3.76429 3.64097
# Velocity P-wave (km/s) = 4.73092 5.10805 4.92310
#
# Compressibility (1/GPa) = 0.07004413
#
# Stress axis : x y z
#
# Youngs Moduli (GPa) = 40.81049 52.33121 75.16791
#
# Poissons Ratio (x) = -0.39484 -0.08621
# Poissons Ratio (y) = -0.30792 0.15995
# Poissons Ratio (z) = -0.04680 0.11136
#
# Static dielectric constant tensor:
#      x y z
#    x 2.053350 0.000000 0.121850 
#    y 0.000000 3.036040 0.000000 
#    z 0.121850 0.000000 2.103220 
# 
# From -- ./inp_files/19890.got.cif
#   From: 2010.05.17/outbox.cif.g08.bks.cpg/sg14_10_cif.got.tgz:19890.got - 2010.06.03 17:49:19.
