data_PCOD9251262
_publ_section_title
;
Structure prediction by ZEFSAII (Michael W. Deem and Ramdas Pophale) SiO2 
 PCOD9251262
Probable space group: P 21/C
;
_chemical_formula_sum "Si O2"
_cell_formula_units_Z 32
_cell_length_a 14.912605
_cell_length_b 16.297091
_cell_length_c 15.406889
_cell_angle_alpha 90.000000
_cell_angle_beta 161.134028
_cell_angle_gamma 90.000000
_cell_volume 1210.762008
_symmetry_space_group_name_H-M "P 21/C"
_symmetry_group_IT_number 14
_symmetry_cell_setting 'monoclinic'
loop_
_space_group_symop_operation_xyz
x,y,z
-x,1/2+y,1/2-z
-x,-y,-z
x,1/2-y,1/2+z
loop_
_atom_site_type_symbol
_atom_site_label
_atom_site_fract_x
_atom_site_fract_y
_atom_site_fract_z
Si Si1 0.843403 0.783963 0.207936
Si Si2 0.431683 0.341893 0.366123
Si Si3 0.525778 0.413906 0.970176
Si Si4 0.042487 0.637096 0.515988
Si Si5 0.818433 0.066756 0.020676
Si Si6 0.962724 0.044511 0.375947
Si Si7 0.723268 0.480609 0.979185
Si Si8 0.412971 0.746963 0.657433
O O1 0.670972 0.830323 0.127442
O O2 0.939498 0.707180 0.357000
O O3 0.145114 0.801799 0.439280
O O4 0.646964 0.769344 0.943643
O O5 0.178428 0.380585 0.080093
O O6 0.517934 0.264349 0.382727
O O7 0.673114 0.411323 0.591039
O O8 0.700285 0.426758 0.043351
O O9 0.684502 0.350243 0.178316
O O10 0.500000 0.500000 0.000000
O O11 0.219139 0.385242 0.666592
O O12 0.119467 0.561957 0.523743
O O13 0.590739 0.998844 0.836947
O O14 0.675521 0.152926 0.906019
O O15 0.118500 0.062144 0.338781
O O16 0.066026 0.972471 0.406329
O O17 0.000000 0.000000 0.500000
#
# Coordination Sequence:
#
# PCOD9251262 Si02
#       8
#     4   4   4   4   4   4   4   4
#     4  11  25  42  68 104 134 179 231 288 335 417
#     4  12  25  47  76 102 134 184 230 282 366 406
#     4  12  21  32  55  90 134 178 212 267 331 401
#     4  11  21  36  54  91 140 171 208 270 333 394
#     4  11  18  33  60  89 125 162 223 269 306 397
#     4  12  26  47  72 101 134 174 234 300 338 408
#     4  12  21  35  58  95 121 173 228 265 335 389
#     4  11  21  41  69 101 131 173 233 286 327 404
#
# _framework density 26.429637
#
# number of rings (size 3 to 8) (size 9 to 14) (size 15 to 20)
#    0.000    0.500    5.000    6.000    0.000    0.000 
#    0.000    3.750    0.000    0.000    0.000    0.000 
#    0.000    0.000    0.000    0.000    0.000    0.000 
#
# Total GULP energy -178561.406214 kJ/mol
# GULP energy per Si atom -5580.043944 kJ/mol
# Density = 2.636948 g / cm^3
# Si number density = 26.429637 Si / 1000 Ang^3
#
#
#
# Elastic Constant Matrix: (Units=GPa)
#
#
# Indices 1 2 3 4 5 6 
#
# 1 187.8442 30.5163 45.9208 0.0000 -14.3892 0.0000
# 2 30.5163 42.9316 15.9387 0.0000 -4.6472 0.0000
# 3 45.9208 15.9387 122.8730 0.0000 -5.4044 0.0000
# 4 0.0000 0.0000 0.0000 2.4568 0.0000 -5.6471
# 5 -14.3892 -4.6472 -5.4044 0.0000 36.3116 0.0000
# 6 0.0000 0.0000 0.0000 -5.6471 0.0000 45.6593
#
#
#
# Elastic Compliance Matrix: (Units=1/GPa)
#
#
# Indices 1 2 3 4 5 6 
#
# 1 0.006531 -0.003748 -0.001874 0.000000 0.001829 0.000000
# 2 -0.003748 0.026884 -0.002014 0.000000 0.001656 0.000000
# 3 -0.001874 -0.002014 0.009116 0.000000 0.000356 0.000000
# 4 0.000000 0.000000 0.000000 0.568692 0.000000 0.070335
# 5 0.001829 0.001656 0.000356 0.000000 0.028529 0.000000
# 6 0.000000 0.000000 0.000000 0.070335 0.000000 0.030600
#
#
# Mechanical properties :
#
#
# Convention : Reuss Voigt Hill
#
# Bulk Modulus (GPa) = 36.68584 59.82225 48.25405
# Shear Modulus (GPa) = 7.19725 34.30376 20.75051
#
# Velocity S-wave (km/s) = 1.65199 3.60659 2.80504
# Velocity P-wave (km/s) = 4.18921 6.32669 5.36547
#
# Compressibility (1/GPa) = 0.02725847
#
# Stress axis : x y z
#
# Youngs Moduli (GPa) = 153.12150 37.19680 109.70051
#
# Poissons Ratio (x) = 0.13943 0.20558
# Poissons Ratio (y) = 0.57396 0.22090
# Poissons Ratio (z) = 0.28695 0.07490
#
# Static dielectric constant tensor:
#      x y z
#    x 2.257710 0.000000 -0.014230 
#    y 0.000000 2.269970 0.000000 
#    z -0.014230 0.000000 2.035850 
# 
# From -- ./inp_files/47637.got.cif
#   From: 2010.05.17/outbox.cif.g08.bks.cpg/sg14_24_cif.got.tgz:47637.got - 2010.06.03 17:49:19.
