data_PCOD9251581
_publ_section_title
;
Structure prediction by ZEFSAII (Michael W. Deem and Ramdas Pophale) SiO2 
 PCOD9251581
Probable space group: P 21/C
;
_chemical_formula_sum "Si O2"
_cell_formula_units_Z 28
_cell_length_a 8.168410
_cell_length_b 6.605443
_cell_length_c 29.443042
_cell_angle_alpha 90.000000
_cell_angle_beta 123.034919
_cell_angle_gamma 90.000000
_cell_volume 1331.807811
_symmetry_space_group_name_H-M "P 21/C"
_symmetry_group_IT_number 14
_symmetry_cell_setting 'monoclinic'
loop_
_space_group_symop_operation_xyz
x,y,z
-x,1/2+y,1/2-z
-x,-y,-z
x,1/2-y,1/2+z
loop_
_atom_site_type_symbol
_atom_site_label
_atom_site_fract_x
_atom_site_fract_y
_atom_site_fract_z
Si Si1 0.255849 0.919724 0.305019
Si Si2 0.654836 0.476255 0.910219
Si Si3 0.195820 0.909578 0.874310
Si Si4 0.052475 0.787840 0.697419
Si Si5 0.669010 0.789207 0.505698
Si Si6 0.603843 0.382757 0.463481
Si Si7 0.000656 0.447222 0.103863
O O1 0.463929 0.014972 0.349686
O O2 0.223051 0.740981 0.336229
O O3 0.228002 0.813571 0.252163
O O4 0.089652 0.088832 0.289493
O O5 0.687051 0.251788 0.935565
O O6 0.836902 0.561473 0.910260
O O7 0.623917 0.607457 0.950952
O O8 0.090042 0.766776 0.895208
O O9 0.406292 0.002552 0.918063
O O10 0.064747 0.100360 0.841427
O O11 0.091086 0.943188 0.662153
O O12 0.736394 0.560632 0.503443
O O13 0.479514 0.759824 0.508930
O O14 0.829157 0.910423 0.558269
#
# Coordination Sequence:
#
# PCOD9251581 Si02
#       7
#     4   4   4   4   4   4   4
#     4  11  22  41  69  92 120 162 228 269 320 378
#     4  12  25  43  61  99 134 173 209 271 327 402
#     4  11  21  43  66  91 125 166 216 274 316 379
#     4  11  22  42  67  92 120 168 218 277 317 383
#     4  11  24  41  66  97 130 172 216 272 320 393
#     4  11  23  39  72  93 120 169 229 265 316 380
#     4  11  27  42  60  96 142 169 209 262 347 389
#
# _framework density 21.024054
#
# number of rings (size 3 to 8) (size 9 to 14) (size 15 to 20)
#    0.000    0.857    5.714    1.714    4.000    1.714 
#    2.571    0.000    0.000    0.000    0.000    0.000 
#    0.000    0.000    0.000    0.000    0.000    0.000 
#
# Total GULP energy -156491.824672 kJ/mol
# GULP energy per Si atom -5588.993738 kJ/mol
# Density = 2.097620 g / cm^3
# Si number density = 21.024054 Si / 1000 Ang^3
#
#
#
# Elastic Constant Matrix: (Units=GPa)
#
#
# Indices 1 2 3 4 5 6 
#
# 1 34.7276 22.3719 13.0091 0.0000 -11.2807 0.0000
# 2 22.3719 101.6197 31.5258 0.0000 -10.2168 0.0000
# 3 13.0091 31.5258 103.7731 0.0000 -6.6694 0.0000
# 4 0.0000 0.0000 0.0000 40.5490 0.0000 4.5354
# 5 -11.2807 -10.2168 -6.6694 0.0000 13.3499 0.0000
# 6 0.0000 0.0000 0.0000 4.5354 0.0000 17.3794
#
#
#
# Elastic Compliance Matrix: (Units=1/GPa)
#
#
# Indices 1 2 3 4 5 6 
#
# 1 0.043382 -0.005894 -0.001634 0.000000 0.031331 0.000000
# 2 -0.005894 0.012315 -0.002807 0.000000 0.003042 0.000000
# 3 -0.001634 -0.002807 0.010814 0.000000 0.001874 0.000000
# 4 0.000000 0.000000 0.000000 0.025403 0.000000 -0.006629
# 5 0.031331 0.003042 0.001874 0.000000 0.104645 0.000000
# 6 0.000000 0.000000 0.000000 -0.006629 0.000000 0.059270
#
#
# Mechanical properties :
#
#
# Convention : Reuss Voigt Hill
#
# Bulk Modulus (GPa) = 21.81432 41.54819 31.68125
# Shear Modulus (GPa) = 17.13626 25.80324 21.46975
#
# Velocity S-wave (km/s) = 2.85806 3.50711 3.19909
# Velocity P-wave (km/s) = 4.61408 6.01705 5.36165
#
# Compressibility (1/GPa) = 0.04584145
#
# Stress axis : x y z
#
# Youngs Moduli (GPa) = 23.05113 81.20358 92.46930
#
# Poissons Ratio (x) = 0.47858 0.15112
# Poissons Ratio (y) = 0.13586 0.25954
# Poissons Ratio (z) = 0.03767 0.22792
#
# Static dielectric constant tensor:
#      x y z
#    x 1.723360 0.000000 0.004200 
#    y 0.000000 1.805200 0.000000 
#    z 0.004200 0.000000 1.798330 
# 
# From -- ./inp_files/79300.got.cif
#   From: 2010.05.17/outbox.cif.g08.bks.cpg/sg14_40_cif.got.tgz:79300.got - 2010.06.03 17:49:19.
