data_PCOD9251690
_publ_section_title
;
Structure prediction by ZEFSAII (Michael W. Deem and Ramdas Pophale) SiO2 
 PCOD9251690
Probable space group: P 21/C
;
_chemical_formula_sum "Si O2"
_cell_formula_units_Z 26
_cell_length_a 7.001130
_cell_length_b 17.772100
_cell_length_c 9.446401
_cell_angle_alpha 90.000000
_cell_angle_beta 50.084468
_cell_angle_gamma 90.000000
_cell_volume 901.495721
_symmetry_space_group_name_H-M "P 21/C"
_symmetry_group_IT_number 14
_symmetry_cell_setting 'monoclinic'
loop_
_space_group_symop_operation_xyz
x,y,z
-x,1/2+y,1/2-z
-x,-y,-z
x,1/2-y,1/2+z
loop_
_atom_site_type_symbol
_atom_site_label
_atom_site_fract_x
_atom_site_fract_y
_atom_site_fract_z
Si Si1 0.843367 0.261007 0.194917
Si Si2 0.805728 0.763899 0.724773
Si Si3 0.000000 0.000000 0.000000
Si Si4 0.292932 0.099699 0.770626
Si Si5 0.122278 0.575970 0.756017
Si Si6 0.715348 0.398886 0.851129
Si Si7 0.798821 0.921417 0.685972
O O1 0.101876 0.252121 0.161215
O O2 0.749680 0.343645 0.283759
O O3 0.692167 0.187284 0.309078
O O4 0.937775 0.263660 0.989589
O O5 0.674536 0.688569 0.735150
O O6 0.662765 0.841962 0.771474
O O7 0.785580 0.936691 0.046470
O O8 0.764820 0.047516 0.195410
O O9 0.013937 0.072085 0.833827
O O10 0.494040 0.078400 0.560740
O O11 0.279092 0.503701 0.726325
O O12 0.893894 0.575316 0.978342
O O13 0.951735 0.406448 0.841699
#
# Coordination Sequence:
#
# PCOD9251690 Si02
#       7
#     4   4   2   4   4   4   4
#     4   9  18  35  57  83 120 159 195 240 303 351
#     4   9  18  35  57  83 120 159 195 240 303 351
#     4  12  22  36  62  92 124 146 192 258 312 338
#     4  11  22  38  64  91 115 153 204 250 294 356
#     4   9  18  35  61  84 119 163 189 237 306 348
#     4  11  22  38  64  91 115 153 204 250 294 356
#     4   9  18  35  61  84 119 163 189 237 306 348
#
# _framework density 28.840955999999998
#
# number of rings (size 3 to 8) (size 9 to 14) (size 15 to 20)
#    0.000    2.154    3.077    0.462    0.000    0.000 
#    0.000   13.846    0.000    2.769    0.000    0.000 
#    0.000    0.000    0.000    0.000    0.000    0.000 
#
# Total GULP energy -145202.270324 kJ/mol
# GULP energy per Si atom -5584.702705 kJ/mol
# Density = 2.877531 g / cm^3
# Si number density = 28.840956 Si / 1000 Ang^3
#
#
#
# Elastic Constant Matrix: (Units=GPa)
#
#
# Indices 1 2 3 4 5 6 
#
# 1 97.0520 -1.6761 10.8909 0.0000 11.6243 0.0000
# 2 -1.6761 251.1071 61.1529 0.0000 -16.6732 0.0000
# 3 10.8909 61.1529 203.6025 0.0000 -0.9478 0.0000
# 4 0.0000 0.0000 0.0000 46.5980 0.0000 13.2561
# 5 11.6243 -16.6732 -0.9478 0.0000 35.1428 0.0000
# 6 0.0000 0.0000 0.0000 13.2561 0.0000 18.8150
#
#
#
# Elastic Compliance Matrix: (Units=1/GPa)
#
#
# Indices 1 2 3 4 5 6 
#
# 1 0.010800 -0.000024 -0.000587 0.000000 -0.003600 0.000000
# 2 -0.000024 0.004443 -0.001323 0.000000 0.002080 0.000000
# 3 -0.000587 -0.001323 0.005339 0.000000 -0.000290 0.000000
# 4 0.000000 0.000000 0.000000 0.026840 0.000000 -0.018910
# 5 -0.003600 0.002080 -0.000290 0.000000 0.030625 0.000000
# 6 0.000000 0.000000 0.000000 -0.018910 0.000000 0.066472
#
#
# Mechanical properties :
#
#
# Convention : Reuss Voigt Hill
#
# Bulk Modulus (GPa) = 59.83404 76.94411 68.38908
# Shear Modulus (GPa) = 32.47626 52.20411 42.34018
#
# Velocity S-wave (km/s) = 3.35930 4.25911 3.83568
# Velocity P-wave (km/s) = 5.98647 7.13606 6.58639
#
# Compressibility (1/GPa) = 0.01671289
#
# Stress axis : x y z
#
# Youngs Moduli (GPa) = 92.58925 225.09333 187.29802
#
# Poissons Ratio (x) = 0.00538 0.11000
# Poissons Ratio (y) = 0.00221 0.24787
# Poissons Ratio (z) = 0.05438 0.29789
#
# Static dielectric constant tensor:
#      x y z
#    x 2.321620 0.000000 0.090220 
#    y 0.000000 2.640170 0.000000 
#    z 0.090220 0.000000 2.382880 
# 
# From -- ./inp_files/30407.got.cif
#   From: 2010.05.17/outbox.cif.g08.bks.cpg/sg14_16_cif.got.tgz:30407.got - 2010.06.03 17:49:19.
