data_PCOD9251108
_publ_section_title
;
Structure prediction by ZEFSAII (Michael W. Deem and Ramdas Pophale) SiO2 
 PCOD9251108
Probable space group: P 21/C
;
_chemical_formula_sum "Si O2"
_cell_formula_units_Z 32
_cell_length_a 14.710535
_cell_length_b 22.271679
_cell_length_c 9.153472
_cell_angle_alpha 90.000000
_cell_angle_beta 29.211147
_cell_angle_gamma 90.000000
_cell_volume 1463.569462
_symmetry_space_group_name_H-M "P 21/C"
_symmetry_group_IT_number 14
_symmetry_cell_setting 'monoclinic'
loop_
_space_group_symop_operation_xyz
x,y,z
-x,1/2+y,1/2-z
-x,-y,-z
x,1/2-y,1/2+z
loop_
_atom_site_type_symbol
_atom_site_label
_atom_site_fract_x
_atom_site_fract_y
_atom_site_fract_z
Si Si1 0.011861 0.562621 0.898595
Si Si2 0.052464 0.613632 0.148328
Si Si3 0.805509 0.021223 0.334967
Si Si4 0.402066 0.820415 0.149182
Si Si5 0.410058 0.245505 0.846097
Si Si6 0.690856 0.662068 0.776923
Si Si7 0.618902 0.941776 0.783678
Si Si8 0.380565 0.937421 0.676150
O O1 0.199504 0.560887 0.536902
O O2 0.025223 0.609474 0.013102
O O3 0.000000 0.500000 0.000000
O O4 0.815750 0.570255 0.089314
O O5 0.151320 0.554308 0.073857
O O6 0.865386 0.619833 0.501975
O O7 0.189516 0.668408 0.986565
O O8 0.704027 0.066296 0.368568
O O9 0.679885 0.962601 0.537447
O O10 0.000000 0.000000 0.000000
O O11 0.511058 0.795844 0.136151
O O12 0.428155 0.776456 0.976222
O O13 0.493591 0.883467 0.973028
O O14 0.306254 0.206758 0.868207
O O15 0.303267 0.298430 0.083793
O O16 0.507449 0.620372 0.029707
O O17 0.500000 0.000000 0.000000
O O18 0.500000 0.000000 0.500000
#
# Coordination Sequence:
#
# PCOD9251108 Si02
#       8
#     4   4   4   4   4   4   4   4
#     4  12  23  42  60 101 143 179 217 264 338 418
#     4  12  25  41  70 100 137 175 225 280 343 405
#     4  12  24  42  61 106 142 178 216 273 341 417
#     4  11  24  46  69  98 130 181 226 283 336 406
#     4  10  25  48  70  91 132 181 237 279 336 394
#     4  11  25  46  70 101 134 180 229 286 337 408
#     4  12  25  41  71 100 143 179 220 276 350 410
#     4  12  27  41  70 102 140 176 221 281 347 405
#
# _framework density 21.864353000000001
#
# number of rings (size 3 to 8) (size 9 to 14) (size 15 to 20)
#    0.000    0.500    3.750    3.750    8.750    1.000 
#    0.000    5.000    0.000    0.000    0.000    0.000 
#    0.000    0.000    0.000    0.000    0.000    0.000 
#
# Total GULP energy -178830.280287 kJ/mol
# GULP energy per Si atom -5588.446259 kJ/mol
# Density = 2.181459 g / cm^3
# Si number density = 21.864353 Si / 1000 Ang^3
#
#
#
# Elastic Constant Matrix: (Units=GPa)
#
#
# Indices 1 2 3 4 5 6 
#
# 1 74.6450 14.4732 29.0975 0.0000 15.4839 0.0000
# 2 14.4732 69.7088 20.3825 0.0000 0.7676 0.0000
# 3 29.0975 20.3825 129.2374 0.0000 -4.6932 0.0000
# 4 0.0000 0.0000 0.0000 41.3529 0.0000 9.3279
# 5 15.4839 0.7676 -4.6932 0.0000 33.8358 0.0000
# 6 0.0000 0.0000 0.0000 9.3279 0.0000 29.3877
#
#
#
# Elastic Compliance Matrix: (Units=1/GPa)
#
#
# Indices 1 2 3 4 5 6 
#
# 1 0.017033 -0.002345 -0.003765 0.000000 -0.008264 0.000000
# 2 -0.002345 0.015377 -0.001880 0.000000 0.000463 0.000000
# 3 -0.003765 -0.001880 0.008991 0.000000 0.003013 0.000000
# 4 0.000000 0.000000 0.000000 0.026047 0.000000 -0.008267
# 5 -0.008264 0.000463 0.003013 0.000000 0.033744 0.000000
# 6 0.000000 0.000000 0.000000 -0.008267 0.000000 0.036652
#
#
# Mechanical properties :
#
#
# Convention : Reuss Voigt Hill
#
# Bulk Modulus (GPa) = 39.33761 44.61084 41.97422
# Shear Modulus (GPa) = 30.80744 34.89116 32.84930
#
# Velocity S-wave (km/s) = 3.75777 3.99908 3.88030
# Velocity P-wave (km/s) = 6.07112 6.46307 6.27016
#
# Compressibility (1/GPa) = 0.02542097
#
# Stress axis : x y z
#
# Youngs Moduli (GPa) = 58.70852 65.03253 111.21696
#
# Poissons Ratio (x) = 0.15247 0.41877
# Poissons Ratio (y) = 0.13765 0.20914
# Poissons Ratio (z) = 0.22106 0.12229
#
# Static dielectric constant tensor:
#      x y z
#    x 1.648480 0.000000 0.326580 
#    y 0.000000 1.930200 0.000000 
#    z 0.326580 0.000000 1.196540 
# 
# From -- ./inp_files/17022.got.cif
#   From: 2010.05.17/outbox.cif.g08.bks.cpg/sg14_9_cif.got.tgz:17022.got - 2010.06.03 17:49:19.
