data_PCOD9251214
_publ_section_title
;
Structure prediction by ZEFSAII (Michael W. Deem and Ramdas Pophale) SiO2 
 PCOD9251214
Probable space group: P 21/C
;
_chemical_formula_sum "Si O2"
_cell_formula_units_Z 30
_cell_length_a 22.718931
_cell_length_b 8.131371
_cell_length_c 9.241838
_cell_angle_alpha 90.000000
_cell_angle_beta 139.179934
_cell_angle_gamma 90.000000
_cell_volume 1116.038020
_symmetry_space_group_name_H-M "P 21/C"
_symmetry_group_IT_number 14
_symmetry_cell_setting 'monoclinic'
loop_
_space_group_symop_operation_xyz
x,y,z
-x,1/2+y,1/2-z
-x,-y,-z
x,1/2-y,1/2+z
loop_
_atom_site_type_symbol
_atom_site_label
_atom_site_fract_x
_atom_site_fract_y
_atom_site_fract_z
Si Si1 0.500000 0.500000 0.500000
Si Si2 0.442304 0.246125 0.632198
Si Si3 0.850366 0.783557 0.227065
Si Si4 0.372549 0.685521 0.182907
Si Si5 0.659081 0.558763 0.312597
Si Si6 0.809030 0.289716 0.281819
Si Si7 0.928605 0.916433 0.115981
Si Si8 0.130396 0.560974 0.885046
O O1 0.615310 0.476880 0.700766
O O2 0.478330 0.678286 0.324797
O O3 0.381110 0.143410 0.406643
O O4 0.393773 0.379172 0.642602
O O5 0.488110 0.131536 0.836580
O O6 0.930429 0.868990 0.286432
O O7 0.880874 0.737031 0.444583
O O8 0.837924 0.602972 0.133937
O O9 0.761006 0.884822 0.027784
O O10 0.355263 0.862370 0.218661
O O11 0.295300 0.663625 0.922869
O O12 0.868482 0.423657 0.475996
O O13 0.820540 0.115657 0.378580
O O14 0.845864 0.298501 0.187920
O O15 0.024885 0.943206 0.223008
#
# Coordination Sequence:
#
# PCOD9251214 Si02
#       8
#     2   4   4   4   4   4   4   4
#     4   8  24  46  74 106 142 196 244 302 370 436
#     4  10  26  47  75 105 153 200 242 311 364 463
#     4  11  26  44  74 108 150 196 254 323 376 466
#     4  10  26  48  73 110 149 194 256 309 377 450
#     4  12  26  48  73 115 150 199 255 307 388 449
#     4  11  26  44  75 109 147 193 254 321 376 461
#     4  11  24  48  73 107 148 199 257 314 393 462
#     4  11  25  47  74 108 151 198 252 320 391 461
#
# _framework density 26.880801999999999
#
# number of rings (size 3 to 8) (size 9 to 14) (size 15 to 20)
#    0.800    0.533    0.000    4.400   11.200    1.067 
#    2.400    2.667    0.000    0.000    0.000    0.000 
#    0.000    0.000    0.000    0.000    0.000    0.000 
#
# Total GULP energy -167975.086328 kJ/mol
# GULP energy per Si atom -5599.169544 kJ/mol
# Density = 2.681962 g / cm^3
# Si number density = 26.880802 Si / 1000 Ang^3
#
#
#
# Elastic Constant Matrix: (Units=GPa)
#
#
# Indices 1 2 3 4 5 6 
#
# 1 71.2637 25.7249 36.1316 0.0000 -25.9468 0.0000
# 2 25.7249 87.0568 37.7847 0.0000 2.6887 0.0000
# 3 36.1316 37.7847 120.8629 0.0000 -2.6619 0.0000
# 4 0.0000 0.0000 0.0000 53.3813 0.0000 -2.5048
# 5 -25.9468 2.6887 -2.6619 0.0000 50.3073 0.0000
# 6 0.0000 0.0000 0.0000 -2.5048 0.0000 48.6692
#
#
#
# Elastic Compliance Matrix: (Units=1/GPa)
#
#
# Indices 1 2 3 4 5 6 
#
# 1 0.022534 -0.004865 -0.004960 0.000000 0.011620 0.000000
# 2 -0.004865 0.014384 -0.003118 0.000000 -0.003443 0.000000
# 3 -0.004960 -0.003118 0.010691 0.000000 -0.001826 0.000000
# 4 0.000000 0.000000 0.000000 0.018778 0.000000 0.000966
# 5 0.011620 -0.003443 -0.001826 0.000000 0.025958 0.000000
# 6 0.000000 0.000000 0.000000 0.000966 0.000000 0.020597
#
#
# Mechanical properties :
#
#
# Convention : Reuss Voigt Hill
#
# Bulk Modulus (GPa) = 46.03332 53.16286 49.59809
# Shear Modulus (GPa) = 34.23035 42.44105 38.33570
#
# Velocity S-wave (km/s) = 3.57236 3.97780 3.78052
# Velocity P-wave (km/s) = 5.84618 6.39667 6.12761
#
# Compressibility (1/GPa) = 0.02172340
#
# Stress axis : x y z
#
# Youngs Moduli (GPa) = 44.37773 69.52144 93.53547
#
# Poissons Ratio (x) = 0.33822 0.46390
# Poissons Ratio (y) = 0.21589 0.29167
# Poissons Ratio (z) = 0.22010 0.21679
#
# Static dielectric constant tensor:
#      x y z
#    x 2.183130 0.000000 -0.079060 
#    y 0.000000 2.281320 0.000000 
#    z -0.079060 0.000000 2.109600 
# 
# From -- ./inp_files/19776.got.cif
#   From: 2010.05.17/outbox.cif.g08.bks.cpg/sg14_10_cif.got.tgz:19776.got - 2010.06.03 17:49:19.
