data_PCOD9251578
_publ_section_title
;
Structure prediction by ZEFSAII (Michael W. Deem and Ramdas Pophale) SiO2 
 PCOD9251578
Probable space group: P 21/C
;
_chemical_formula_sum "Si O2"
_cell_formula_units_Z 16
_cell_length_a 8.908370
_cell_length_b 9.931231
_cell_length_c 9.525679
_cell_angle_alpha 90.000000
_cell_angle_beta 135.329937
_cell_angle_gamma 90.000000
_cell_volume 592.470784
_symmetry_space_group_name_H-M "P 21/C"
_symmetry_group_IT_number 14
_symmetry_cell_setting 'monoclinic'
loop_
_space_group_symop_operation_xyz
x,y,z
-x,1/2+y,1/2-z
-x,-y,-z
x,1/2-y,1/2+z
loop_
_atom_site_type_symbol
_atom_site_label
_atom_site_fract_x
_atom_site_fract_y
_atom_site_fract_z
Si Si1 0.738801 0.381833 0.391002
Si Si2 0.514299 0.726119 0.550106
Si Si3 0.333142 0.973807 0.718121
Si Si4 0.173267 0.465683 0.819517
O O1 0.648786 0.351136 0.662416
O O2 0.574626 0.503271 0.318390
O O3 0.787930 0.408871 0.260069
O O4 0.958947 0.399724 0.619010
O O5 0.689019 0.610578 0.703197
O O6 0.639059 0.854167 0.574406
O O7 0.388248 0.738801 0.614284
O O8 0.175341 0.990220 0.482306
#
# Coordination Sequence:
#
# PCOD9251578 Si02
#       4
#     4   4   4   4
#     4   9  22  43  65 104 127 173 236 271 327 406
#     4   9  22  42  65 100 133 173 220 272 339 391
#     4   9  21  42  63  97 138 165 224 277 320 406
#     4  11  21  42  73  92 138 178 218 282 332 390
#
# _framework density 27.005552999999999
#
# number of rings (size 3 to 8) (size 9 to 14) (size 15 to 20)
#    1.500    1.000    0.000    0.750    3.500    1.000 
#    4.500    2.500    0.000    0.000    0.000    0.000 
#    0.000    0.000    0.000    0.000    0.000    0.000 
#
# Total GULP energy -89380.545216 kJ/mol
# GULP energy per Si atom -5586.284076 kJ/mol
# Density = 2.694409 g / cm^3
# Si number density = 27.005553 Si / 1000 Ang^3
#
#
#
# Elastic Constant Matrix: (Units=GPa)
#
#
# Indices 1 2 3 4 5 6 
#
# 1 73.1739 30.6757 36.2534 0.0000 -24.3651 0.0000
# 2 30.6757 139.4012 50.4087 0.0000 -13.9756 0.0000
# 3 36.2534 50.4087 188.9310 0.0000 -31.2656 0.0000
# 4 0.0000 0.0000 0.0000 14.3276 0.0000 -10.7077
# 5 -24.3651 -13.9756 -31.2656 0.0000 74.4056 0.0000
# 6 0.0000 0.0000 0.0000 -10.7077 0.0000 36.6977
#
#
#
# Elastic Compliance Matrix: (Units=1/GPa)
#
#
# Indices 1 2 3 4 5 6 
#
# 1 0.017149 -0.002666 -0.001862 0.000000 0.004332 0.000000
# 2 -0.002666 0.008383 -0.001729 0.000000 -0.000025 0.000000
# 3 -0.001862 -0.001729 0.006402 0.000000 0.001756 0.000000
# 4 0.000000 0.000000 0.000000 0.089260 0.000000 0.026044
# 5 0.004332 -0.000025 0.001756 0.000000 0.015592 0.000000
# 6 0.000000 0.000000 0.000000 0.026044 0.000000 0.034849
#
#
# Mechanical properties :
#
#
# Convention : Reuss Voigt Hill
#
# Bulk Modulus (GPa) = 51.49597 70.68686 61.09142
# Shear Modulus (GPa) = 26.22986 44.03073 35.13029
#
# Velocity S-wave (km/s) = 3.11991 4.04224 3.61065
# Velocity P-wave (km/s) = 5.66467 6.92951 6.32877
#
# Compressibility (1/GPa) = 0.01941899
#
# Stress axis : x y z
#
# Youngs Moduli (GPa) = 58.31261 119.28938 156.19576
#
# Poissons Ratio (x) = 0.31801 0.29091
# Poissons Ratio (y) = 0.15545 0.27010
# Poissons Ratio (z) = 0.10860 0.20628
#
# Static dielectric constant tensor:
#      x y z
#    x 2.057440 0.000000 -0.073110 
#    y 0.000000 2.220270 0.000000 
#    z -0.073110 0.000000 2.132310 
# 
# From -- ./inp_files/7732.got.cif
#   From: 2010.05.17/outbox.cif.g08.bks.cpg/sg14_4_cif.got.tgz:7732.got - 2010.06.03 17:49:19.
