data_PCOD9251717
_publ_section_title
;
Structure prediction by ZEFSAII (Michael W. Deem and Ramdas Pophale) SiO2 
 PCOD9251717
Probable space group: P 21/C
;
_chemical_formula_sum "Si O2"
_cell_formula_units_Z 28
_cell_length_a 11.471015
_cell_length_b 8.261337
_cell_length_c 14.795181
_cell_angle_alpha 90.000000
_cell_angle_beta 124.627719
_cell_angle_gamma 90.000000
_cell_volume 1153.716866
_symmetry_space_group_name_H-M "P 21/C"
_symmetry_group_IT_number 14
_symmetry_cell_setting 'monoclinic'
loop_
_space_group_symop_operation_xyz
x,y,z
-x,1/2+y,1/2-z
-x,-y,-z
x,1/2-y,1/2+z
loop_
_atom_site_type_symbol
_atom_site_label
_atom_site_fract_x
_atom_site_fract_y
_atom_site_fract_z
Si Si1 0.043631 0.351855 0.585034
Si Si2 0.340606 0.380118 0.495973
Si Si3 0.850493 0.356072 0.673329
Si Si4 0.404831 0.834419 0.165373
Si Si5 0.286490 0.177456 0.628120
Si Si6 0.423877 0.833144 0.491707
Si Si7 0.147235 0.843182 0.622025
O O1 0.970821 0.361495 0.650037
O O2 0.971749 0.200476 0.502175
O O3 0.000000 0.500000 0.500000
O O4 0.209334 0.311990 0.656897
O O5 0.241489 0.480890 0.384926
O O6 0.383439 0.506131 0.594555
O O7 0.261291 0.236533 0.514547
O O8 0.476378 0.306288 0.507115
O O9 0.737319 0.209206 0.608930
O O10 0.905088 0.348515 0.798745
O O11 0.546111 0.833838 0.284833
O O12 0.421182 0.693388 0.097779
O O13 0.267949 0.794619 0.164058
O O14 0.223712 0.008000 0.630095
O O15 0.500000 0.000000 0.500000
#
# Coordination Sequence:
#
# PCOD9251717 Si02
#       7
#     4   4   4   4   4   4   4
#     4  12  26  50  69 101 150 192 230 296 361 435
#     4  11  22  43  71 100 145 187 233 302 357 420
#     4  11  24  47  71 100 145 189 239 291 360 431
#     4  11  22  43  68 103 140 186 236 293 363 419
#     4  12  24  41  71 102 139 185 237 293 358 417
#     4  11  22  39  68 107 142 179 242 301 348 420
#     4  12  25  46  74 106 139 188 245 297 353 431
#
# _framework density 24.269386000000001
#
# number of rings (size 3 to 8) (size 9 to 14) (size 15 to 20)
#    0.000    0.571    4.286    6.429    0.000    3.429 
#    2.571    0.000    0.000    0.000    0.000    0.000 
#    0.000    0.000    0.000    0.000    0.000    0.000 
#
# Total GULP energy -156866.383853 kJ/mol
# GULP energy per Si atom -5602.370852 kJ/mol
# Density = 2.421415 g / cm^3
# Si number density = 24.269386 Si / 1000 Ang^3
#
#
#
# Elastic Constant Matrix: (Units=GPa)
#
#
# Indices 1 2 3 4 5 6 
#
# 1 136.8495 7.6955 24.9548 0.0000 -27.5823 0.0000
# 2 7.6955 72.8722 14.3354 0.0000 -12.3419 0.0000
# 3 24.9548 14.3354 72.4465 0.0000 -25.1656 0.0000
# 4 0.0000 0.0000 0.0000 2.9396 0.0000 -13.8253
# 5 -27.5823 -12.3419 -25.1656 0.0000 54.3466 0.0000
# 6 0.0000 0.0000 0.0000 -13.8253 0.0000 38.0004
#
#
#
# Elastic Compliance Matrix: (Units=1/GPa)
#
#
# Indices 1 2 3 4 5 6 
#
# 1 0.008305 0.000036 -0.001669 0.000000 0.003450 0.000000
# 2 0.000036 0.014525 -0.002067 0.000000 0.002360 0.000000
# 3 -0.001669 -0.002067 0.017077 0.000000 0.006591 0.000000
# 4 0.000000 0.000000 0.000000 -0.478396 0.000000 -0.174050
# 5 0.003450 0.002360 0.006591 0.000000 0.023739 0.000000
# 6 0.000000 0.000000 0.000000 -0.174050 0.000000 -0.037008
#
#
# Mechanical properties :
#
#
# Convention : Reuss Voigt Hill
#
# Bulk Modulus (GPa) = 30.76351 41.79329 36.27840
# Shear Modulus (GPa) = -11.53346 34.73617 11.60136
#
# Velocity S-wave (km/s) = -2.18233 3.78732 2.18875
# Velocity P-wave (km/s) = 2.52057 6.03184 4.62257
#
# Compressibility (1/GPa) = 0.03250604
#
# Stress axis : x y z
#
# Youngs Moduli (GPa) = 120.40828 68.84635 58.55910
#
# Poissons Ratio (x) = -0.00246 0.09776
# Poissons Ratio (y) = -0.00430 0.12103
# Poissons Ratio (z) = 0.20100 0.14229
#
# Static dielectric constant tensor:
#      x y z
#    x 1.958510 0.000000 0.016730 
#    y 0.000000 2.022310 0.000000 
#    z 0.016730 0.000000 1.894470 
# 
# From -- ./inp_files/43468.got.cif
#   From: 2010.05.17/outbox.cif.g08.bks.cpg/sg14_22_cif.got.tgz:43468.got - 2010.06.03 17:49:19.
