data_PCOD9251291
_publ_section_title
;
Structure prediction by ZEFSAII (Michael W. Deem and Ramdas Pophale) SiO2 
 PCOD9251291
Probable space group: P 21/C
;
_chemical_formula_sum "Si O2"
_cell_formula_units_Z 24
_cell_length_a 10.019405
_cell_length_b 7.071164
_cell_length_c 16.955490
_cell_angle_alpha 90.000000
_cell_angle_beta 44.586364
_cell_angle_gamma 90.000000
_cell_volume 843.276772
_symmetry_space_group_name_H-M "P 21/C"
_symmetry_group_IT_number 14
_symmetry_cell_setting 'monoclinic'
loop_
_space_group_symop_operation_xyz
x,y,z
-x,1/2+y,1/2-z
-x,-y,-z
x,1/2-y,1/2+z
loop_
_atom_site_type_symbol
_atom_site_label
_atom_site_fract_x
_atom_site_fract_y
_atom_site_fract_z
Si Si1 0.730080 0.621374 0.161545
Si Si2 0.192616 0.738012 0.309232
Si Si3 0.244653 0.803181 0.121944
Si Si4 0.019584 0.891690 0.084978
Si Si5 0.399238 0.285217 0.614226
Si Si6 0.229901 0.230631 0.521100
O O1 0.647849 0.727055 0.273641
O O2 0.662507 0.658759 0.101323
O O3 0.949166 0.705362 0.069074
O O4 0.697696 0.400083 0.192233
O O5 0.251896 0.677052 0.196653
O O6 0.141531 0.544667 0.374132
O O7 0.987364 0.837692 0.380568
O O8 0.038342 0.822773 0.168647
O O9 0.330606 0.997849 0.122404
O O10 0.379279 0.741805 0.993864
O O11 0.194210 0.044124 0.018164
O O12 0.317490 0.191140 0.568781
#
# Coordination Sequence:
#
# PCOD9251291 Si02
#       6
#     4   4   4   4   4   4
#     4  11  19  36  63  82 119 153 192 243 299 342
#     4   9  20  33  58  87 111 151 194 243 288 345
#     4   9  17  36  56  85 117 150 190 242 292 350
#     4   9  20  33  59  88 110 149 197 241 290 346
#     4   9  19  34  60  83 117 162 190 231 301 360
#     4   9  19  36  56  88 114 151 196 242 285 349
#
# _framework density 28.460405999999999
#
# number of rings (size 3 to 8) (size 9 to 14) (size 15 to 20)
#    1.000    1.667    0.000    2.000    2.333    0.000 
#    0.000    2.500    7.333    0.000    0.000    0.000 
#    0.000    0.000    0.000    0.000    0.000    0.000 
#
# Total GULP energy -133647.338283 kJ/mol
# GULP energy per Si atom -5568.639095 kJ/mol
# Density = 2.839563 g / cm^3
# Si number density = 28.460406 Si / 1000 Ang^3
#
#
#
# Elastic Constant Matrix: (Units=GPa)
#
#
# Indices 1 2 3 4 5 6 
#
# 1 108.4211 29.1313 53.0079 0.0000 35.8316 0.0000
# 2 29.1313 84.9103 7.3946 0.0000 4.1333 0.0000
# 3 53.0079 7.3946 162.9203 0.0000 48.1013 0.0000
# 4 0.0000 0.0000 0.0000 29.1819 0.0000 16.9849
# 5 35.8316 4.1333 48.1013 0.0000 40.1286 0.0000
# 6 0.0000 0.0000 0.0000 16.9849 0.0000 20.0007
#
#
#
# Elastic Compliance Matrix: (Units=1/GPa)
#
#
# Indices 1 2 3 4 5 6 
#
# 1 0.014719 -0.004395 -0.001304 0.000000 -0.011127 0.000000
# 2 -0.004395 0.013156 0.000115 0.000000 0.002431 0.000000
# 3 -0.001304 0.000115 0.009622 0.000000 -0.010381 0.000000
# 4 0.000000 0.000000 0.000000 0.067760 0.000000 -0.057543
# 5 -0.011127 0.002431 -0.010381 0.000000 0.047048 0.000000
# 6 0.000000 0.000000 0.000000 -0.057543 0.000000 0.098864
#
#
# Mechanical properties :
#
#
# Convention : Reuss Voigt Hill
#
# Bulk Modulus (GPa) = 37.98062 59.47991 48.73026
# Shear Modulus (GPa) = 18.44239 35.64344 27.04292
#
# Velocity S-wave (km/s) = 2.54835 3.54275 3.08587
# Velocity P-wave (km/s) = 4.69391 6.13835 5.46407
#
# Compressibility (1/GPa) = 0.02632922
#
# Stress axis : x y z
#
# Youngs Moduli (GPa) = 67.93929 76.00810 103.92803
#
# Poissons Ratio (x) = 0.33403 0.13557
# Poissons Ratio (y) = 0.29857 -0.01194
# Poissons Ratio (z) = 0.08862 -0.00873
#
# Static dielectric constant tensor:
#      x y z
#    x 2.209740 0.000000 -0.052270 
#    y 0.000000 2.253540 0.000000 
#    z -0.052270 0.000000 2.496520 
# 
# From -- ./inp_files/57388.got.cif
#   From: 2010.05.17/outbox.cif.g08.bks.cpg/sg14_29_cif.got.tgz:57388.got - 2010.06.03 17:49:19.
