data_PCOD9251354
_publ_section_title
;
Structure prediction by ZEFSAII (Michael W. Deem and Ramdas Pophale) SiO2 
 PCOD9251354
Probable space group: P 21/C
;
_chemical_formula_sum "Si O2"
_cell_formula_units_Z 32
_cell_length_a 15.696114
_cell_length_b 6.122998
_cell_length_c 23.045078
_cell_angle_alpha 90.000000
_cell_angle_beta 41.409091
_cell_angle_gamma 90.000000
_cell_volume 1464.936865
_symmetry_space_group_name_H-M "P 21/C"
_symmetry_group_IT_number 14
_symmetry_cell_setting 'monoclinic'
loop_
_space_group_symop_operation_xyz
x,y,z
-x,1/2+y,1/2-z
-x,-y,-z
x,1/2-y,1/2+z
loop_
_atom_site_type_symbol
_atom_site_label
_atom_site_fract_x
_atom_site_fract_y
_atom_site_fract_z
Si Si1 0.647802 0.272813 0.612337
Si Si2 0.537686 0.479598 0.863752
Si Si3 0.586921 0.406442 0.259496
Si Si4 0.961569 0.123752 0.686899
Si Si5 0.275045 0.345082 0.706783
Si Si6 0.639751 0.783588 0.462313
Si Si7 0.837292 0.350353 0.848859
Si Si8 0.167039 0.467130 0.555558
O O1 0.579012 0.145640 0.593869
O O2 0.540350 0.450710 0.684097
O O3 0.663626 0.118744 0.660229
O O4 0.776899 0.395198 0.526627
O O5 0.547826 0.327960 0.803177
O O6 0.670817 0.607999 0.803291
O O7 0.498853 0.339524 0.940227
O O8 0.662404 0.505909 0.275546
O O9 0.859914 0.271596 0.772617
O O10 0.052120 0.291168 0.604166
O O11 0.875090 0.914610 0.712750
O O12 0.058514 0.030993 0.685751
O O13 0.332831 0.353313 0.610835
O O14 0.714285 0.666369 0.476988
O O15 0.706195 0.018084 0.419953
O O16 0.858732 0.149666 0.881893
#
# Coordination Sequence:
#
# PCOD9251354 Si02
#       8
#     4   4   4   4   4   4   4   4
#     4  11  22  44  67  96 120 163 239 274 321 388
#     4  11  23  39  64  97 129 172 213 277 335 386
#     4  11  24  42  69  89 127 174 214 279 333 387
#     4  11  22  39  59  93 133 174 218 254 322 401
#     4  11  26  39  59  99 141 176 208 259 343 411
#     4  11  22  38  61  98 135 167 214 268 330 401
#     4  11  20  36  64  90 125 176 214 262 312 379
#     4  11  22  37  68  96 124 170 222 282 311 372
#
# _framework density 21.843945000000001
#
# number of rings (size 3 to 8) (size 9 to 14) (size 15 to 20)
#    0.000    1.000    6.250    1.125    1.750    0.500 
#    0.000    0.625    0.000    1.500    0.000    0.000 
#    0.000    0.000    0.000    0.000    0.000    0.000 
#
# Total GULP energy -178390.072318 kJ/mol
# GULP energy per Si atom -5574.689760 kJ/mol
# Density = 2.179423 g / cm^3
# Si number density = 21.843945 Si / 1000 Ang^3
#
#
#
# Elastic Constant Matrix: (Units=GPa)
#
#
# Indices 1 2 3 4 5 6 
#
# 1 68.4757 23.3565 46.6296 0.0000 6.2957 0.0000
# 2 23.3565 67.7651 39.5575 0.0000 -1.8687 0.0000
# 3 46.6296 39.5575 111.3279 0.0000 8.3279 0.0000
# 4 0.0000 0.0000 0.0000 44.3726 0.0000 -4.8031
# 5 6.2957 -1.8687 8.3279 0.0000 18.3924 0.0000
# 6 0.0000 0.0000 0.0000 -4.8031 0.0000 15.2207
#
#
#
# Elastic Compliance Matrix: (Units=1/GPa)
#
#
# Indices 1 2 3 4 5 6 
#
# 1 0.021091 -0.003039 -0.007443 0.000000 -0.004158 0.000000
# 2 -0.003039 0.019523 -0.006097 0.000000 0.005784 0.000000
# 3 -0.007443 -0.006097 0.014617 0.000000 -0.004690 0.000000
# 4 0.000000 0.000000 0.000000 0.023333 0.000000 0.007363
# 5 -0.004158 0.005784 -0.004690 0.000000 0.058505 0.000000
# 6 0.000000 0.000000 0.000000 0.007363 0.000000 0.068024
#
#
# Mechanical properties :
#
#
# Convention : Reuss Voigt Hill
#
# Bulk Modulus (GPa) = 45.30388 51.85066 48.57727
# Shear Modulus (GPa) = 20.35757 24.79881 22.57819
#
# Velocity S-wave (km/s) = 3.05611 3.37303 3.21847
# Velocity P-wave (km/s) = 5.76523 6.24165 6.00816
#
# Compressibility (1/GPa) = 0.02207316
#
# Stress axis : x y z
#
# Youngs Moduli (GPa) = 47.41326 51.22225 68.41306
#
# Poissons Ratio (x) = 0.15568 0.50920
# Poissons Ratio (y) = 0.14410 0.41709
# Poissons Ratio (z) = 0.35290 0.31228
#
# Static dielectric constant tensor:
#      x y z
#    x 1.825690 0.000000 -0.020280 
#    y 0.000000 1.881590 0.000000 
#    z -0.020280 0.000000 1.821300 
# 
# From -- ./inp_files/74072.got.cif
#   From: 2010.05.17/outbox.cif.g08.bks.cpg/sg14_38_cif.got.tgz:74072.got - 2010.06.03 17:49:19.
