data_PCOD9251744
_publ_section_title
;
Structure prediction by ZEFSAII (Michael W. Deem and Ramdas Pophale) SiO2 
 PCOD9251744
Probable space group: P 21/C
;
_chemical_formula_sum "Si O2"
_cell_formula_units_Z 28
_cell_length_a 11.746793
_cell_length_b 22.177808
_cell_length_c 7.764862
_cell_angle_alpha 90.000000
_cell_angle_beta 140.355525
_cell_angle_gamma 90.000000
_cell_volume 1290.646360
_symmetry_space_group_name_H-M "P 21/C"
_symmetry_group_IT_number 14
_symmetry_cell_setting 'monoclinic'
loop_
_space_group_symop_operation_xyz
x,y,z
-x,1/2+y,1/2-z
-x,-y,-z
x,1/2-y,1/2+z
loop_
_atom_site_type_symbol
_atom_site_label
_atom_site_fract_x
_atom_site_fract_y
_atom_site_fract_z
Si Si1 0.965803 0.104131 0.037417
Si Si2 0.752530 0.695259 0.291605
Si Si3 0.899312 0.435071 0.090991
Si Si4 0.169696 0.054103 0.599829
Si Si5 0.706284 0.186725 0.268963
Si Si6 0.658680 0.316593 0.305660
Si Si7 0.689022 0.674202 0.606207
O O1 0.105943 0.157529 0.153748
O O2 0.036576 0.071445 0.289769
O O3 0.950614 0.063663 0.849697
O O4 0.771208 0.130372 0.851639
O O5 0.768729 0.674581 0.507971
O O6 0.548070 0.683752 0.992205
O O7 0.772059 0.767777 0.299511
O O8 0.065541 0.448151 0.159624
O O9 0.761526 0.488047 0.874169
O O10 0.828660 0.368131 0.969224
O O11 0.292407 0.112277 0.768431
O O12 0.761542 0.255309 0.368541
O O13 0.521521 0.184003 0.158038
O O14 0.667866 0.179995 0.022182
#
# Coordination Sequence:
#
# PCOD9251744 Si02
#       7
#     4   4   4   4   4   4   4
#     4  12  23  42  70  92 127 166 208 260 318 372
#     4  11  23  39  64  99 128 162 206 259 319 376
#     4  11  24  42  63  90 125 167 214 258 306 369
#     4  11  24  42  63  90 125 167 214 258 306 369
#     4  11  22  41  63  92 131 162 207 262 312 376
#     4  11  23  39  64  99 128 162 206 259 319 376
#     4  11  22  41  63  92 131 162 207 262 312 376
#
# _framework density 21.694555000000001
#
# number of rings (size 3 to 8) (size 9 to 14) (size 15 to 20)
#    0.000    0.857    2.857    7.286    2.000    2.857 
#    0.000    0.000    0.000    4.286    0.000    0.000 
#    0.000    0.000    0.000    0.000    0.000    0.000 
#
# Total GULP energy -156506.096319 kJ/mol
# GULP energy per Si atom -5589.503440 kJ/mol
# Density = 2.164518 g / cm^3
# Si number density = 21.694555 Si / 1000 Ang^3
#
#
#
# Elastic Constant Matrix: (Units=GPa)
#
#
# Indices 1 2 3 4 5 6 
#
# 1 91.4646 6.2663 17.8444 0.0000 -15.9640 0.0000
# 2 6.2663 60.5019 21.3360 0.0000 0.0403 0.0000
# 3 17.8444 21.3360 60.9555 0.0000 -19.4941 0.0000
# 4 0.0000 0.0000 0.0000 26.0229 0.0000 -7.5319
# 5 -15.9640 0.0403 -19.4941 0.0000 36.8308 0.0000
# 6 0.0000 0.0000 0.0000 -7.5319 0.0000 25.1465
#
#
#
# Elastic Compliance Matrix: (Units=1/GPa)
#
#
# Indices 1 2 3 4 5 6 
#
# 1 0.012092 -0.000545 -0.002014 0.000000 0.004176 0.000000
# 2 -0.000545 0.019444 -0.008100 0.000000 -0.004545 0.000000
# 3 -0.002014 -0.008100 0.023538 0.000000 0.011595 0.000000
# 4 0.000000 0.000000 0.000000 0.042075 0.000000 0.012602
# 5 0.004176 -0.004545 0.011595 0.000000 0.035103 0.000000
# 6 0.000000 0.000000 0.000000 0.012602 0.000000 0.043542
#
#
# Mechanical properties :
#
#
# Convention : Reuss Voigt Hill
#
# Bulk Modulus (GPa) = 29.62304 33.75726 31.69015
# Shear Modulus (GPa) = 23.99645 28.76507 26.38076
#
# Velocity S-wave (km/s) = 3.32942 3.64526 3.49091
# Velocity P-wave (km/s) = 5.33520 5.77159 5.55768
#
# Compressibility (1/GPa) = 0.03375751
#
# Stress axis : x y z
#
# Youngs Moduli (GPa) = 82.69746 51.42891 42.48435
#
# Poissons Ratio (x) = 0.02803 0.08555
# Poissons Ratio (y) = 0.04508 0.34412
# Poissons Ratio (z) = 0.16652 0.41657
#
# Static dielectric constant tensor:
#      x y z
#    x 1.772420 0.000000 0.009780 
#    y 0.000000 1.864030 0.000000 
#    z 0.009780 0.000000 1.786970 
# 
# From -- ./inp_files/14368.got.cif
#   From: 2010.05.17/outbox.cif.g08.bks.cpg/sg14_8_cif.got.tgz:14368.got - 2010.06.03 17:49:19.
