data_PCOD9251968
_publ_section_title
;
Structure prediction by ZEFSAII (Michael W. Deem and Ramdas Pophale) SiO2 
 PCOD9251968
Probable space group: P 21/C
;
_chemical_formula_sum "Si O2"
_cell_formula_units_Z 20
_cell_length_a 7.371390
_cell_length_b 21.385442
_cell_length_c 7.415467
_cell_angle_alpha 90.000000
_cell_angle_beta 139.243591
_cell_angle_gamma 90.000000
_cell_volume 763.160473
_symmetry_space_group_name_H-M "P 21/C"
_symmetry_group_IT_number 14
_symmetry_cell_setting 'monoclinic'
loop_
_space_group_symop_operation_xyz
x,y,z
-x,1/2+y,1/2-z
-x,-y,-z
x,1/2-y,1/2+z
loop_
_atom_site_type_symbol
_atom_site_label
_atom_site_fract_x
_atom_site_fract_y
_atom_site_fract_z
Si Si1 0.056760 0.264371 0.971362
Si Si2 0.714972 0.537510 0.784298
Si Si3 0.448556 0.590301 0.932779
Si Si4 0.346368 0.704717 0.595604
Si Si5 0.845916 0.880591 0.063014
O O1 0.794190 0.262415 0.906658
O O2 0.925164 0.312933 0.727279
O O3 0.364371 0.276062 0.275330
O O4 0.088279 0.192772 0.921375
O O5 0.500000 0.500000 0.500000
O O6 0.593529 0.546125 0.893793
O O7 0.759846 0.601199 0.701780
O O8 0.000000 0.500000 0.000000
O O9 0.433559 0.654688 0.808029
O O10 0.125385 0.579869 0.732668
O O11 0.618105 0.599440 0.243835
#
# Coordination Sequence:
#
# PCOD9251968 Si02
#       5
#     4   4   4   4   4
#     4  11  23  40  64 100 136 183 226 273 346 412
#     4  12  28  46  74 106 130 184 244 288 356 406
#     4  11  25  47  69 100 146 181 229 291 349 416
#     4  11  23  40  64 100 136 183 226 273 346 412
#     4  11  25  47  69 100 146 181 229 291 349 416
#
# _framework density 26.206807999999999
#
# number of rings (size 3 to 8) (size 9 to 14) (size 15 to 20)
#    0.000    0.800    0.000    8.400    5.600    4.800 
#    0.000    0.000    0.000    0.000    0.000    0.000 
#    0.000    0.000    0.000    0.000    0.000    0.000 
#
# Total GULP energy -111835.260217 kJ/mol
# GULP energy per Si atom -5591.763011 kJ/mol
# Density = 2.614716 g / cm^3
# Si number density = 26.206808 Si / 1000 Ang^3
#
#
#
# Elastic Constant Matrix: (Units=GPa)
#
#
# Indices 1 2 3 4 5 6 
#
# 1 110.1097 16.4168 28.6614 0.0000 15.6102 0.0000
# 2 16.4168 58.0597 15.8297 0.0000 4.3131 0.0000
# 3 28.6614 15.8297 205.7138 0.0000 20.7554 0.0000
# 4 0.0000 0.0000 0.0000 21.6096 0.0000 -10.3279
# 5 15.6102 4.3131 20.7554 0.0000 55.4482 0.0000
# 6 0.0000 0.0000 0.0000 -10.3279 0.0000 34.2651
#
#
#
# Elastic Compliance Matrix: (Units=1/GPa)
#
#
# Indices 1 2 3 4 5 6 
#
# 1 0.010016 -0.002396 -0.000983 0.000000 -0.002266 0.000000
# 2 -0.002396 0.018209 -0.001031 0.000000 -0.000356 0.000000
# 3 -0.000983 -0.001031 0.005239 0.000000 -0.001604 0.000000
# 4 0.000000 0.000000 0.000000 0.054064 0.000000 0.016296
# 5 -0.002266 -0.000356 -0.001604 0.000000 0.019301 0.000000
# 6 0.000000 0.000000 0.000000 0.016296 0.000000 0.034096
#
#
# Mechanical properties :
#
#
# Convention : Reuss Voigt Hill
#
# Bulk Modulus (GPa) = 40.57749 55.07768 47.82758
# Shear Modulus (GPa) = 31.65372 43.12961 37.39166
#
# Velocity S-wave (km/s) = 3.47917 4.06117 3.78139
# Velocity P-wave (km/s) = 5.62643 6.56148 6.11186
#
# Compressibility (1/GPa) = 0.02464421
#
# Stress axis : x y z
#
# Youngs Moduli (GPa) = 99.84008 54.91864 190.86688
#
# Poissons Ratio (x) = 0.13158 0.18753
# Poissons Ratio (y) = 0.23921 0.19687
# Poissons Ratio (z) = 0.09810 0.05665
#
# Static dielectric constant tensor:
#      x y z
#    x 2.183870 0.000000 -0.104270 
#    y 0.000000 2.155830 0.000000 
#    z -0.104270 0.000000 2.029250 
# 
# From -- ./inp_files/10771.got.cif
#   From: 2010.05.17/outbox.cif.g08.bks.cpg/sg14_6_cif.got.tgz:10771.got - 2010.06.03 17:49:19.
