data_PCOD9251229
_publ_section_title
;
Structure prediction by ZEFSAII (Michael W. Deem and Ramdas Pophale) SiO2 
 PCOD9251229
Probable space group: P 21/C
;
_chemical_formula_sum "Si O2"
_cell_formula_units_Z 18
_cell_length_a 8.892329
_cell_length_b 8.836358
_cell_length_c 9.484918
_cell_angle_alpha 90.000000
_cell_angle_beta 70.806126
_cell_angle_gamma 90.000000
_cell_volume 703.855786
_symmetry_space_group_name_H-M "P 21/C"
_symmetry_group_IT_number 14
_symmetry_cell_setting 'monoclinic'
loop_
_space_group_symop_operation_xyz
x,y,z
-x,1/2+y,1/2-z
-x,-y,-z
x,1/2-y,1/2+z
loop_
_atom_site_type_symbol
_atom_site_label
_atom_site_fract_x
_atom_site_fract_y
_atom_site_fract_z
Si Si1 0.821669 0.313483 0.890909
Si Si2 0.018218 0.162846 0.062332
Si Si3 0.391197 0.953984 0.164136
Si Si4 0.640543 0.741998 0.148962
Si Si5 0.500000 0.500000 0.000000
O O1 0.965591 0.346941 0.739690
O O2 0.739212 0.161862 0.852006
O O3 0.695939 0.449538 0.939237
O O4 0.895465 0.273587 0.019360
O O5 0.197118 0.204402 0.967878
O O6 0.000000 0.000000 0.000000
O O7 0.518328 0.876609 0.238095
O O8 0.331439 0.110314 0.247320
O O9 0.500000 0.000000 0.000000
O O10 0.540221 0.661471 0.059010
#
# Coordination Sequence:
#
# PCOD9251229 Si02
#       5
#     4   4   4   4   2
#     4  11  28  49  77 112 157 203 265 314 403 460
#     4  12  30  49  76 118 157 203 258 330 393 472
#     4  11  27  46  77 112 148 207 261 320 382 485
#     4  11  28  47  81 108 161 197 265 318 400 456
#     4  10  26  48  80 108 144 208 252 314 382 472
#
# _framework density 25.573421
#
# number of rings (size 3 to 8) (size 9 to 14) (size 15 to 20)
#    0.000    0.889    0.000    2.667   28.000    1.778 
#    0.000    0.000    0.000    0.000    0.000    0.000 
#    0.000    0.000    0.000    0.000    0.000    0.000 
#
# Total GULP energy -100519.719965 kJ/mol
# GULP energy per Si atom -5584.428887 kJ/mol
# Density = 2.551521 g / cm^3
# Si number density = 25.573421 Si / 1000 Ang^3
#
#
#
# Elastic Constant Matrix: (Units=GPa)
#
#
# Indices 1 2 3 4 5 6 
#
# 1 102.7254 8.3923 9.4285 0.0000 -22.0026 0.0000
# 2 8.3923 86.6740 19.4540 0.0000 -22.4718 0.0000
# 3 9.4285 19.4540 133.1567 0.0000 -24.0943 0.0000
# 4 0.0000 0.0000 0.0000 49.5119 0.0000 -16.1134
# 5 -22.0026 -22.4718 -24.0943 0.0000 47.8242 0.0000
# 6 0.0000 0.0000 0.0000 -16.1134 0.0000 48.0082
#
#
#
# Elastic Compliance Matrix: (Units=1/GPa)
#
#
# Indices 1 2 3 4 5 6 
#
# 1 0.010807 0.000262 0.000130 0.000000 0.005161 0.000000
# 2 0.000262 0.013239 -0.000886 0.000000 0.005895 0.000000
# 3 0.000130 -0.000886 0.008325 0.000000 0.003838 0.000000
# 4 0.000000 0.000000 0.000000 0.022674 0.000000 0.007610
# 5 0.005161 0.005895 0.003838 0.000000 0.027988 0.000000
# 6 0.000000 0.000000 0.000000 0.007610 0.000000 0.023384
#
#
# Mechanical properties :
#
#
# Convention : Reuss Voigt Hill
#
# Bulk Modulus (GPa) = 31.86345 44.12287 37.99316
# Shear Modulus (GPa) = 42.42160 48.08762 45.25461
#
# Velocity S-wave (km/s) = 4.07728 4.34103 4.21122
# Velocity P-wave (km/s) = 5.88661 6.51283 6.20762
#
# Compressibility (1/GPa) = 0.03138392
#
# Stress axis : x y z
#
# Youngs Moduli (GPa) = 92.53537 75.53198 120.12613
#
# Poissons Ratio (x) = -0.01982 -0.01565
# Poissons Ratio (y) = -0.02428 0.10644
# Poissons Ratio (z) = -0.01206 0.06693
#
# Static dielectric constant tensor:
#      x y z
#    x 3.779840 0.000000 1.777180 
#    y 0.000000 1.965920 0.000000 
#    z 1.777180 0.000000 3.517680 
# 
# From -- ./inp_files/22938.got.cif
#   From: 2010.05.17/outbox.cif.g08.bks.cpg/sg14_12_cif.got.tgz:22938.got - 2010.06.03 17:49:19.
