data_PCOD9251046
_publ_section_title
;
Structure prediction by ZEFSAII (Michael W. Deem and Ramdas Pophale) SiO2 
 PCOD9251046
Probable space group: P 21/C
;
_chemical_formula_sum "Si O2"
_cell_formula_units_Z 16
_cell_length_a 5.729098
_cell_length_b 23.197754
_cell_length_c 5.042743
_cell_angle_alpha 90.000000
_cell_angle_beta 105.278818
_cell_angle_gamma 90.000000
_cell_volume 646.503681
_symmetry_space_group_name_H-M "P 21/C"
_symmetry_group_IT_number 14
_symmetry_cell_setting 'monoclinic'
loop_
_space_group_symop_operation_xyz
x,y,z
-x,1/2+y,1/2-z
-x,-y,-z
x,1/2-y,1/2+z
loop_
_atom_site_type_symbol
_atom_site_label
_atom_site_fract_x
_atom_site_fract_y
_atom_site_fract_z
Si Si1 0.209746 0.489817 0.846635
Si Si2 0.029819 0.213144 0.141490
Si Si3 0.715181 0.106980 0.839168
Si Si4 0.584316 0.875066 0.758379
O O1 0.176126 0.542571 0.630263
O O2 0.224768 0.422364 0.786721
O O3 0.500000 0.500000 0.000000
O O4 0.000000 0.500000 0.000000
O O5 0.989254 0.234875 0.425553
O O6 0.301116 0.187991 0.203529
O O7 0.868503 0.159910 0.996526
O O8 0.635693 0.121182 0.514999
O O9 0.487714 0.105788 0.969234
#
# Coordination Sequence:
#
# PCOD9251046 Si02
#       4
#     4   4   4   4
#     4  10  25  45  79 115 152 194 246 309 389 457
#     4  12  28  45  74 105 144 200 256 306 368 442
#     4  11  26  47  74 108 150 193 244 312 378 448
#     4  11  26  47  74 108 150 193 244 312 378 448
#
# _framework density 24.748505999999999
#
# number of rings (size 3 to 8) (size 9 to 14) (size 15 to 20)
#    0.000    1.000    0.000    3.750   17.500    7.000 
#    0.000    0.000    0.000    0.000    0.000    0.000 
#    0.000    0.000    0.000    0.000    0.000    0.000 
#
# Total GULP energy -89476.756655 kJ/mol
# GULP energy per Si atom -5592.297291 kJ/mol
# Density = 2.469218 g / cm^3
# Si number density = 24.748506 Si / 1000 Ang^3
#
#
#
# Elastic Constant Matrix: (Units=GPa)
#
#
# Indices 1 2 3 4 5 6 
#
# 1 80.7353 24.0267 3.5038 0.0000 -17.4548 0.0000
# 2 24.0267 119.9499 10.9273 0.0000 8.4356 0.0000
# 3 3.5038 10.9273 63.2104 0.0000 3.0144 0.0000
# 4 0.0000 0.0000 0.0000 53.1706 0.0000 4.5340
# 5 -17.4548 8.4356 3.0144 0.0000 49.8938 0.0000
# 6 0.0000 0.0000 0.0000 4.5340 0.0000 60.9104
#
#
#
# Elastic Compliance Matrix: (Units=1/GPa)
#
#
# Indices 1 2 3 4 5 6 
#
# 1 0.014617 -0.003282 -0.000515 0.000000 0.005700 0.000000
# 2 -0.003282 0.009298 -0.001300 0.000000 -0.002642 0.000000
# 3 -0.000515 -0.001300 0.016118 0.000000 -0.000934 0.000000
# 4 0.000000 0.000000 0.000000 0.018928 0.000000 -0.001409
# 5 0.005700 -0.002642 -0.000934 0.000000 0.022540 0.000000
# 6 0.000000 0.000000 0.000000 -0.001409 0.000000 0.016522
#
#
# Mechanical properties :
#
#
# Convention : Reuss Voigt Hill
#
# Bulk Modulus (GPa) = 33.51049 37.86792 35.68920
# Shear Modulus (GPa) = 42.31452 47.82415 45.06933
#
# Velocity S-wave (km/s) = 4.13944 4.40068 4.27206
# Velocity P-wave (km/s) = 6.03460 6.41527 6.22784
#
# Compressibility (1/GPa) = 0.02984140
#
# Stress axis : x y z
#
# Youngs Moduli (GPa) = 68.41138 107.54578 62.04277
#
# Poissons Ratio (x) = 0.35296 0.03193
# Poissons Ratio (y) = 0.22452 0.08063
# Poissons Ratio (z) = 0.03521 0.13976
#
# Static dielectric constant tensor:
#      x y z
#    x 2.068160 0.000000 0.111150 
#    y 0.000000 1.929430 0.000000 
#    z 0.111150 0.000000 1.977270 
# 
# From -- ./inp_files/294.got.cif
#   From: 2010.05.17/outbox.cif.g08.bks.cpg/sg14_1_cif.got.tgz:294.got - 2010.06.03 17:49:19.
