data_PCOD9251712
_publ_section_title
;
Structure prediction by ZEFSAII (Michael W. Deem and Ramdas Pophale) SiO2 
 PCOD9251712
Probable space group: P 21/C
;
_chemical_formula_sum "Si O2"
_cell_formula_units_Z 32
_cell_length_a 19.184667
_cell_length_b 12.245274
_cell_length_c 11.784832
_cell_angle_alpha 90.000000
_cell_angle_beta 34.238883
_cell_angle_gamma 90.000000
_cell_volume 1557.687280
_symmetry_space_group_name_H-M "P 21/C"
_symmetry_group_IT_number 14
_symmetry_cell_setting 'monoclinic'
loop_
_space_group_symop_operation_xyz
x,y,z
-x,1/2+y,1/2-z
-x,-y,-z
x,1/2-y,1/2+z
loop_
_atom_site_type_symbol
_atom_site_label
_atom_site_fract_x
_atom_site_fract_y
_atom_site_fract_z
Si Si1 0.659281 0.221085 0.772617
Si Si2 0.819570 0.409962 0.444730
Si Si3 0.287663 0.129536 0.498908
Si Si4 0.483121 0.950461 0.184180
Si Si5 0.229838 0.385294 0.332457
Si Si6 0.552839 0.678267 0.796228
Si Si7 0.100250 0.341035 0.051696
Si Si8 0.754561 0.473312 0.274542
O O1 0.723840 0.322705 0.625084
O O2 0.575488 0.155023 0.795959
O O3 0.757500 0.136426 0.694929
O O4 0.567953 0.261005 0.995051
O O5 0.821823 0.514602 0.524634
O O6 0.781580 0.446634 0.369234
O O7 0.954480 0.355970 0.256754
O O8 0.252978 0.090178 0.670176
O O9 0.361496 0.244335 0.398133
O O10 0.168149 0.140675 0.580687
O O11 0.382780 0.045528 0.314217
O O12 0.512011 0.923515 0.276139
O O13 0.612948 0.984895 0.955373
O O14 0.360328 0.353609 0.215601
O O15 0.142173 0.279172 0.456642
O O16 0.155808 0.432794 0.892649
#
# Coordination Sequence:
#
# PCOD9251712 Si02
#       8
#     4   4   4   4   4   4   4   4
#     4  12  25  41  69 110 140 183 231 294 355 416
#     4  12  29  47  72 106 141 192 242 294 346 421
#     4  11  23  43  68 102 138 184 226 294 356 418
#     4  12  22  40  70 103 141 176 231 289 358 427
#     4  11  26  44  71 103 141 185 238 287 360 419
#     4  11  22  39  67 101 143 176 223 284 362 425
#     4  11  27  47  72  97 141 198 239 290 345 425
#     4  12  24  48  72 104 143 190 235 292 363 420
#
# _framework density 20.543275999999999
#
# number of rings (size 3 to 8) (size 9 to 14) (size 15 to 20)
#    0.000    0.500    3.750    5.250    5.250    2.500 
#    0.000    0.000    0.000    0.000    0.000    0.000 
#    0.000    0.000    0.000    0.000    0.000    0.000 
#
# Total GULP energy -179145.846622 kJ/mol
# GULP energy per Si atom -5598.307707 kJ/mol
# Density = 2.049652 g / cm^3
# Si number density = 20.543276 Si / 1000 Ang^3
#
#
#
# Elastic Constant Matrix: (Units=GPa)
#
#
# Indices 1 2 3 4 5 6 
#
# 1 82.3388 21.4402 42.4789 0.0000 10.3183 0.0000
# 2 21.4402 82.2593 27.0687 0.0000 2.3439 0.0000
# 3 42.4789 27.0687 65.3263 0.0000 3.5489 0.0000
# 4 0.0000 0.0000 0.0000 22.0827 0.0000 10.6912
# 5 10.3183 2.3439 3.5489 0.0000 36.3341 0.0000
# 6 0.0000 0.0000 0.0000 10.6912 0.0000 26.2602
#
#
#
# Elastic Compliance Matrix: (Units=1/GPa)
#
#
# Indices 1 2 3 4 5 6 
#
# 1 0.018956 -0.000973 -0.011696 0.000000 -0.004178 0.000000
# 2 -0.000973 0.014130 -0.005216 0.000000 -0.000126 0.000000
# 3 -0.011696 -0.005216 0.025008 0.000000 0.001215 0.000000
# 4 0.000000 0.000000 0.000000 0.056401 0.000000 -0.022963
# 5 -0.004178 -0.000126 0.001215 0.000000 0.028598 0.000000
# 6 0.000000 0.000000 0.000000 -0.022963 0.000000 0.047429
#
#
# Mechanical properties :
#
#
# Convention : Reuss Voigt Hill
#
# Bulk Modulus (GPa) = 44.79215 45.76665 45.27940
# Shear Modulus (GPa) = 21.39186 26.19785 23.79485
#
# Velocity S-wave (km/s) = 3.23043 3.57494 3.40704
# Velocity P-wave (km/s) = 5.98042 6.27430 6.12912
#
# Compressibility (1/GPa) = 0.02232534
#
# Stress axis : x y z
#
# Youngs Moduli (GPa) = 52.75404 70.77101 39.98667
#
# Poissons Ratio (x) = 0.06885 0.46769
# Poissons Ratio (y) = 0.05132 0.20855
# Poissons Ratio (z) = 0.61702 0.36911
#
# Static dielectric constant tensor:
#      x y z
#    x 1.715240 0.000000 0.011190 
#    y 0.000000 1.745050 0.000000 
#    z 0.011190 0.000000 1.681640 
# 
# From -- ./inp_files/35264.got.cif
#   From: 2010.05.17/outbox.cif.g08.bks.cpg/sg14_18_cif.got.tgz:35264.got - 2010.06.03 17:49:19.
