data_PCOD9251486
_publ_section_title
;
Structure prediction by ZEFSAII (Michael W. Deem and Ramdas Pophale) SiO2 
 PCOD9251486
Probable space group: P 21/C
;
_chemical_formula_sum "Si O2"
_cell_formula_units_Z 20
_cell_length_a 22.709335
_cell_length_b 5.068461
_cell_length_c 15.296057
_cell_angle_alpha 90.000000
_cell_angle_beta 24.817047
_cell_angle_gamma 90.000000
_cell_volume 738.961666
_symmetry_space_group_name_H-M "P 21/C"
_symmetry_group_IT_number 14
_symmetry_cell_setting 'monoclinic'
loop_
_space_group_symop_operation_xyz
x,y,z
-x,1/2+y,1/2-z
-x,-y,-z
x,1/2-y,1/2+z
loop_
_atom_site_type_symbol
_atom_site_label
_atom_site_fract_x
_atom_site_fract_y
_atom_site_fract_z
Si Si1 0.169983 0.315291 0.717857
Si Si2 0.051622 0.453683 0.223040
Si Si3 0.339483 0.857612 0.269692
Si Si4 0.562444 0.851298 0.271184
Si Si5 0.253178 0.814408 0.692847
O O1 0.310036 0.321309 0.468150
O O2 0.155549 0.607863 0.773588
O O3 0.050010 0.190122 0.818406
O O4 0.199801 0.110168 0.754752
O O5 0.052810 0.195458 0.157525
O O6 0.196553 0.610304 0.017703
O O7 0.430515 0.633258 0.192454
O O8 0.284865 0.777049 0.248209
O O9 0.413787 0.136605 0.184027
O O10 0.408955 0.806259 0.438607
#
# Coordination Sequence:
#
# PCOD9251486 Si02
#       5
#     4   4   4   4   4
#     4  11  23  38  61  91 120 158 204 245 300 363
#     4  11  23  44  65  82 114 166 216 258 302 361
#     4  11  23  39  62  91 120 160 206 242 297 368
#     4  11  21  39  61  89 127 168 192 227 300 384
#     4  12  22  38  60  95 129 152 190 256 303 354
#
# _framework density 27.065006
#
# number of rings (size 3 to 8) (size 9 to 14) (size 15 to 20)
#    0.000    0.800    0.000   10.800    0.000    0.000 
#    0.000    6.000    0.000    0.000    0.000    0.000 
#    0.000    0.000    0.000    0.000    0.000    0.000 
#
# Total GULP energy -112192.722409 kJ/mol
# GULP energy per Si atom -5609.636120 kJ/mol
# Density = 2.700340 g / cm^3
# Si number density = 27.065006 Si / 1000 Ang^3
#
#
#
# Elastic Constant Matrix: (Units=GPa)
#
#
# Indices 1 2 3 4 5 6 
#
# 1 102.0133 47.0202 8.2617 0.0000 1.3801 0.0000
# 2 47.0202 171.7668 18.6326 0.0000 1.5328 0.0000
# 3 8.2617 18.6326 59.3920 0.0000 8.8972 0.0000
# 4 0.0000 0.0000 0.0000 34.2127 0.0000 -2.8476
# 5 1.3801 1.5328 8.8972 0.0000 39.7290 0.0000
# 6 0.0000 0.0000 0.0000 -2.8476 0.0000 69.9920
#
#
#
# Elastic Compliance Matrix: (Units=1/GPa)
#
#
# Indices 1 2 3 4 5 6 
#
# 1 0.011241 -0.003011 -0.000598 0.000000 -0.000140 0.000000
# 2 -0.003011 0.006835 -0.001761 0.000000 0.000235 0.000000
# 3 -0.000598 -0.001761 0.018066 0.000000 -0.003957 0.000000
# 4 0.000000 0.000000 0.000000 0.029328 0.000000 0.001193
# 5 -0.000140 0.000235 -0.003957 0.000000 0.026053 0.000000
# 6 0.000000 0.000000 0.000000 0.001193 0.000000 0.014336
#
#
# Mechanical properties :
#
#
# Convention : Reuss Voigt Hill
#
# Bulk Modulus (GPa) = 39.36689 53.44457 46.40573
# Shear Modulus (GPa) = 39.97930 46.07057 43.02494
#
# Velocity S-wave (km/s) = 3.84755 4.13027 3.99142
# Velocity P-wave (km/s) = 5.85791 6.52190 6.19880
#
# Compressibility (1/GPa) = 0.02540206
#
# Stress axis : x y z
#
# Youngs Moduli (GPa) = 88.96168 146.30625 55.35378
#
# Poissons Ratio (x) = 0.44053 0.03310
# Poissons Ratio (y) = 0.26786 0.09746
# Poissons Ratio (z) = 0.05320 0.25760
#
# Static dielectric constant tensor:
#      x y z
#    x 2.077910 0.000000 0.030040 
#    y 0.000000 1.985970 0.000000 
#    z 0.030040 0.000000 2.204670 
# 
# From -- ./inp_files/42511.got.cif
#   From: 2010.05.17/outbox.cif.g08.bks.cpg/sg14_22_cif.got.tgz:42511.got - 2010.06.03 17:49:19.
