data_PCOD9251165
_publ_section_title
;
Structure prediction by ZEFSAII (Michael W. Deem and Ramdas Pophale) SiO2 
 PCOD9251165
Probable space group: P 21/C
;
_chemical_formula_sum "Si O2"
_cell_formula_units_Z 20
_cell_length_a 16.545013
_cell_length_b 6.128344
_cell_length_c 9.251992
_cell_angle_alpha 90.000000
_cell_angle_beta 104.069102
_cell_angle_gamma 90.000000
_cell_volume 909.952423
_symmetry_space_group_name_H-M "P 21/C"
_symmetry_group_IT_number 14
_symmetry_cell_setting 'monoclinic'
loop_
_space_group_symop_operation_xyz
x,y,z
-x,1/2+y,1/2-z
-x,-y,-z
x,1/2-y,1/2+z
loop_
_atom_site_type_symbol
_atom_site_label
_atom_site_fract_x
_atom_site_fract_y
_atom_site_fract_z
Si Si1 0.723199 0.568239 0.571837
Si Si2 0.598093 0.972548 0.517054
Si Si3 0.999520 0.303543 0.111907
Si Si4 0.899362 0.573965 0.569165
Si Si5 0.321503 0.730135 0.198465
O O1 0.645295 0.736765 0.541045
O O2 0.811960 0.675590 0.576050
O O3 0.714889 0.394060 0.437361
O O4 0.731089 0.439281 0.727057
O O5 0.500000 0.000000 0.500000
O O6 0.617319 0.079517 0.369882
O O7 0.637769 0.116671 0.662349
O O8 0.031508 0.361090 0.283019
O O9 0.069479 0.146734 0.072754
O O10 0.909489 0.188166 0.076400
O O11 0.000000 0.500000 0.000000
#
# Coordination Sequence:
#
# PCOD9251165 Si02
#       5
#     4   4   4   4   4
#     4  11  26  45  70 104 141 182 235 292 347 420
#     4  11  26  45  74  99 139 179 235 291 360 421
#     4  11  24  44  64 102 134 186 228 283 345 401
#     4  11  26  42  71  96 141 182 234 282 342 407
#     4  10  26  44  67 107 133 181 229 286 354 417
#
# _framework density 21.979171000000001
#
# number of rings (size 3 to 8) (size 9 to 14) (size 15 to 20)
#    0.000    1.200    2.000    1.200   14.000    3.200 
#    0.000    0.000    0.000    0.000    0.000    0.000 
#    0.000    0.000    0.000    0.000    0.000    0.000 
#
# Total GULP energy -111540.330075 kJ/mol
# GULP energy per Si atom -5577.016504 kJ/mol
# Density = 2.192915 g / cm^3
# Si number density = 21.979171 Si / 1000 Ang^3
#
#
#
# Elastic Constant Matrix: (Units=GPa)
#
#
# Indices 1 2 3 4 5 6 
#
# 1 104.8029 26.1695 26.4299 0.0000 -13.1812 0.0000
# 2 26.1695 79.4738 25.5416 0.0000 -3.3085 0.0000
# 3 26.4299 25.5416 116.3942 0.0000 -36.1846 0.0000
# 4 0.0000 0.0000 0.0000 49.9971 0.0000 -10.7213
# 5 -13.1812 -3.3085 -36.1846 0.0000 26.1376 0.0000
# 6 0.0000 0.0000 0.0000 -10.7213 0.0000 25.2942
#
#
#
# Elastic Compliance Matrix: (Units=1/GPa)
#
#
# Indices 1 2 3 4 5 6 
#
# 1 0.011048 -0.003343 -0.000307 0.000000 0.004724 0.000000
# 2 -0.003343 0.014818 -0.004272 0.000000 -0.005725 0.000000
# 3 -0.000307 -0.004272 0.016471 0.000000 0.022107 0.000000
# 4 0.000000 0.000000 0.000000 0.022001 0.000000 0.009325
# 5 0.004724 -0.005725 0.022107 0.000000 0.070522 0.000000
# 6 0.000000 0.000000 0.000000 0.009325 0.000000 0.043487
#
#
# Mechanical properties :
#
#
# Convention : Reuss Voigt Hill
#
# Bulk Modulus (GPa) = 37.74415 50.77253 44.25834
# Shear Modulus (GPa) = 24.62784 35.12111 29.87448
#
# Velocity S-wave (km/s) = 3.35103 4.00174 3.69076
# Velocity P-wave (km/s) = 5.67296 6.67101 6.19213
#
# Compressibility (1/GPa) = 0.02649417
#
# Stress axis : x y z
#
# Youngs Moduli (GPa) = 90.51543 67.48450 60.71135
#
# Poissons Ratio (x) = 0.22558 0.01861
# Poissons Ratio (y) = 0.30257 0.25938
# Poissons Ratio (z) = 0.02775 0.28832
#
# Static dielectric constant tensor:
#      x y z
#    x 1.806780 0.000000 0.003140 
#    y 0.000000 2.160870 0.000000 
#    z 0.003140 0.000000 1.752700 
# 
# From -- ./inp_files/17228.got.cif
#   From: 2010.05.17/outbox.cif.g08.bks.cpg/sg14_9_cif.got.tgz:17228.got - 2010.06.03 17:49:19.
