data_PCOD9251121
_publ_section_title
;
Structure prediction by ZEFSAII (Michael W. Deem and Ramdas Pophale) SiO2 
 PCOD9251121
Probable space group: P 21/C
;
_chemical_formula_sum "Si O2"
_cell_formula_units_Z 28
_cell_length_a 9.362752
_cell_length_b 8.005761
_cell_length_c 31.191666
_cell_angle_alpha 90.000000
_cell_angle_beta 152.531764
_cell_angle_gamma 90.000000
_cell_volume 1078.418899
_symmetry_space_group_name_H-M "P 21/C"
_symmetry_group_IT_number 14
_symmetry_cell_setting 'monoclinic'
loop_
_space_group_symop_operation_xyz
x,y,z
-x,1/2+y,1/2-z
-x,-y,-z
x,1/2-y,1/2+z
loop_
_atom_site_type_symbol
_atom_site_label
_atom_site_fract_x
_atom_site_fract_y
_atom_site_fract_z
Si Si1 0.173546 0.331723 0.532688
Si Si2 0.403120 0.537762 0.522382
Si Si3 0.902206 0.382957 0.029763
Si Si4 0.689718 0.125050 0.240426
Si Si5 0.022192 0.092249 0.206446
Si Si6 0.268846 0.543256 0.857302
Si Si7 0.449884 0.956405 0.253013
O O1 0.237110 0.378470 0.500328
O O2 0.980367 0.179515 0.501816
O O3 0.493023 0.330187 0.645637
O O4 0.000000 0.500000 0.500000
O O5 0.500000 0.500000 0.500000
O O6 0.740644 0.540787 0.634540
O O7 0.217907 0.708709 0.480338
O O8 0.626011 0.513689 0.962877
O O9 0.213010 0.448170 0.134947
O O10 0.032068 0.068485 0.321240
O O11 0.498278 0.987873 0.216001
O O12 0.695515 0.279325 0.274088
O O13 0.245419 0.031458 0.303309
O O14 0.216257 0.084125 0.214182
O O15 0.873515 0.273154 0.174267
#
# Coordination Sequence:
#
# PCOD9251121 Si02
#       7
#     4   4   4   4   4   4   4
#     4   9  21  43  73 105 147 198 242 309 378 448
#     4  11  24  46  79 111 153 197 258 313 385 459
#     4  10  25  49  71 112 156 193 253 319 380 464
#     4  11  23  46  74 105 155 198 255 308 381 460
#     4  12  27  48  76 109 143 205 253 316 391 456
#     4  12  26  49  78 106 153 197 259 317 383 468
#     4  11  26  47  73 111 153 198 258 317 380 456
#
# _framework density 25.963937000000001
#
# number of rings (size 3 to 8) (size 9 to 14) (size 15 to 20)
#    0.000    1.143    1.429    3.429   12.000    1.143 
#    2.571    0.000    0.000    0.000    0.000    0.000 
#    0.000    0.000    0.000    0.000    0.000    0.000 
#
# Total GULP energy -156845.038720 kJ/mol
# GULP energy per Si atom -5601.608526 kJ/mol
# Density = 2.590484 g / cm^3
# Si number density = 25.963937 Si / 1000 Ang^3
#
#
#
# Elastic Constant Matrix: (Units=GPa)
#
#
# Indices 1 2 3 4 5 6 
#
# 1 156.8378 31.4295 24.9829 0.0000 17.0804 -0.0001
# 2 31.4295 139.7890 35.1841 0.0000 22.0481 0.0000
# 3 24.9829 35.1841 89.5073 0.0000 36.1014 0.0002
# 4 0.0000 0.0000 0.0000 33.2581 0.0000 18.7513
# 5 17.0804 22.0481 36.1014 0.0000 48.9230 0.0000
# 6 -0.0001 0.0000 0.0002 18.7513 0.0000 33.5362
#
#
#
# Elastic Compliance Matrix: (Units=1/GPa)
#
#
# Indices 1 2 3 4 5 6 
#
# 1 0.006886 -0.001110 -0.001022 0.000000 -0.001150 0.000000
# 2 -0.001110 0.008233 -0.002258 0.000000 -0.001656 0.000000
# 3 -0.001022 -0.002258 0.016787 0.000000 -0.011013 0.000000
# 4 0.000000 0.000000 0.000000 0.043911 0.000000 -0.024552
# 5 -0.001150 -0.001656 -0.011013 0.000000 0.029715 0.000000
# 6 0.000000 0.000000 0.000000 -0.024552 0.000000 0.043546
#
#
# Mechanical properties :
#
#
# Convention : Reuss Voigt Hill
#
# Bulk Modulus (GPa) = 43.24126 63.25855 53.24991
# Shear Modulus (GPa) = 30.19915 42.77931 36.48923
#
# Velocity S-wave (km/s) = 3.41415 4.06352 3.75291
# Velocity P-wave (km/s) = 5.67736 6.81419 6.27159
#
# Compressibility (1/GPa) = 0.02312606
#
# Stress axis : x y z
#
# Youngs Moduli (GPa) = 145.21307 121.46526 59.56904
#
# Poissons Ratio (x) = 0.13479 0.06089
# Poissons Ratio (y) = 0.16114 0.13453
# Poissons Ratio (z) = 0.14842 0.27432
#
# Static dielectric constant tensor:
#      x y z
#    x 2.100000 0.000000 -0.042030 
#    y 0.000000 2.101150 0.000000 
#    z -0.042030 0.000000 2.094420 
# 
# From -- ./inp_files/79490.got.cif
#   From: 2010.05.17/outbox.cif.g08.bks.cpg/sg14_40_cif.got.tgz:79490.got - 2010.06.03 17:49:19.
