data_PCOD9251084
_publ_section_title
;
Structure prediction by ZEFSAII (Michael W. Deem and Ramdas Pophale) SiO2 
 PCOD9251084
Probable space group: P 21/C
;
_chemical_formula_sum "Si O2"
_cell_formula_units_Z 28
_cell_length_a 8.264405
_cell_length_b 25.548721
_cell_length_c 5.802188
_cell_angle_alpha 90.000000
_cell_angle_beta 115.237807
_cell_angle_gamma 90.000000
_cell_volume 1108.161767
_symmetry_space_group_name_H-M "P 21/C"
_symmetry_group_IT_number 14
_symmetry_cell_setting 'monoclinic'
loop_
_space_group_symop_operation_xyz
x,y,z
-x,1/2+y,1/2-z
-x,-y,-z
x,1/2-y,1/2+z
loop_
_atom_site_type_symbol
_atom_site_label
_atom_site_fract_x
_atom_site_fract_y
_atom_site_fract_z
Si Si1 0.210948 0.724212 0.403659
Si Si2 0.360036 0.131392 0.568701
Si Si3 0.026452 0.886852 0.882487
Si Si4 0.177527 0.980767 0.727736
Si Si5 0.555275 0.058048 0.469362
Si Si6 0.740544 0.905212 0.051289
Si Si7 0.378441 0.242557 0.383662
O O1 0.156071 0.754205 0.612305
O O2 0.137784 0.665129 0.394608
O O3 0.427432 0.730171 0.524726
O O4 0.534996 0.093329 0.680450
O O5 0.329609 0.139236 0.823424
O O6 0.409980 0.181480 0.453141
O O7 0.153117 0.113890 0.386890
O O8 0.125268 0.941920 0.900382
O O9 0.936791 0.890663 0.080194
O O10 0.283959 0.946927 0.605422
O O11 0.269286 0.035507 0.851971
O O12 0.000000 0.000000 0.500000
O O13 0.500000 0.000000 0.500000
O O14 0.393534 0.087350 0.241900
O O15 0.286766 0.243922 0.075162
#
# Coordination Sequence:
#
# PCOD9251084 Si02
#       7
#     4   4   4   4   4   4   4
#     4  10  25  47  70 105 141 183 249 307 368 437
#     4  11  25  45  72  99 141 189 241 298 367 441
#     4  11  26  43  72 102 143 190 239 305 376 434
#     4  12  23  44  70 105 150 184 241 300 363 444
#     4  11  24  43  69 104 143 192 239 291 357 448
#     4  11  24  47  67 106 142 194 240 292 373 444
#     4  10  25  47  72 101 140 183 251 302 366 441
#
# _framework density 25.267067999999998
#
# number of rings (size 3 to 8) (size 9 to 14) (size 15 to 20)
#    0.000    1.143    2.857    1.714   10.000    2.286 
#    2.571    0.000    0.000    0.000    0.000    0.000 
#    0.000    0.000    0.000    0.000    0.000    0.000 
#
# Total GULP energy -156200.082715 kJ/mol
# GULP energy per Si atom -5578.574383 kJ/mol
# Density = 2.520956 g / cm^3
# Si number density = 25.267068 Si / 1000 Ang^3
#
#
#
# Elastic Constant Matrix: (Units=GPa)
#
#
# Indices 1 2 3 4 5 6 
#
# 1 109.0757 34.7673 17.8279 0.0000 -28.1882 0.0000
# 2 34.7673 123.3655 28.9104 0.0000 -13.6168 0.0000
# 3 17.8279 28.9104 72.4909 0.0000 -28.8888 0.0000
# 4 0.0000 0.0000 0.0000 36.9072 0.0000 -0.6523
# 5 -28.1882 -13.6168 -28.8888 0.0000 51.3124 0.0000
# 6 0.0000 0.0000 0.0000 -0.6523 0.0000 32.0621
#
#
#
# Elastic Compliance Matrix: (Units=1/GPa)
#
#
# Indices 1 2 3 4 5 6 
#
# 1 0.011466 -0.002724 0.000630 0.000000 0.005931 0.000000
# 2 -0.002724 0.009598 -0.003532 0.000000 -0.000938 0.000000
# 3 0.000630 -0.003532 0.019098 0.000000 0.010161 0.000000
# 4 0.000000 0.000000 0.000000 0.027105 0.000000 0.000551
# 5 0.005931 -0.000938 0.010161 0.000000 0.028218 0.000000
# 6 0.000000 0.000000 0.000000 0.000551 0.000000 0.031201
#
#
# Mechanical properties :
#
#
# Convention : Reuss Voigt Hill
#
# Bulk Modulus (GPa) = 34.59049 51.99372 43.29210
# Shear Modulus (GPa) = 33.88150 38.95144 36.41647
#
# Velocity S-wave (km/s) = 3.66585 3.93057 3.80051
# Velocity P-wave (km/s) = 5.62473 6.42040 6.03569
#
# Compressibility (1/GPa) = 0.02890968
#
# Stress axis : x y z
#
# Youngs Moduli (GPa) = 87.21460 104.18962 52.36271
#
# Poissons Ratio (x) = 0.28386 -0.03299
# Poissons Ratio (y) = 0.23761 0.18492
# Poissons Ratio (z) = -0.05495 0.36795
#
# Static dielectric constant tensor:
#      x y z
#    x 1.999770 0.000000 -0.237320 
#    y 0.000000 11.749750 0.000000 
#    z -0.237320 0.000000 2.716900 
# 
# From -- ./inp_files/1949.got.cif
#   From: 2010.05.17/outbox.cif.g08.bks.cpg/sg14_1_cif.got.tgz:1949.got - 2010.06.03 17:49:19.
