data_PCOD9251387
_publ_section_title
;
Structure prediction by ZEFSAII (Michael W. Deem and Ramdas Pophale) SiO2 
 PCOD9251387
Probable space group: P 21/C
;
_chemical_formula_sum "Si O2"
_cell_formula_units_Z 30
_cell_length_a 8.812645
_cell_length_b 16.536387
_cell_length_c 19.931854
_cell_angle_alpha 90.000000
_cell_angle_beta 148.681305
_cell_angle_gamma 90.000000
_cell_volume 1509.833679
_symmetry_space_group_name_H-M "P 21/C"
_symmetry_group_IT_number 14
_symmetry_cell_setting 'monoclinic'
loop_
_space_group_symop_operation_xyz
x,y,z
-x,1/2+y,1/2-z
-x,-y,-z
x,1/2-y,1/2+z
loop_
_atom_site_type_symbol
_atom_site_label
_atom_site_fract_x
_atom_site_fract_y
_atom_site_fract_z
Si Si1 0.648819 0.085549 0.540659
Si Si2 0.564913 0.337359 0.266342
Si Si3 0.823340 0.784859 0.607152
Si Si4 0.010128 0.883926 0.195438
Si Si5 0.154831 0.223277 0.033487
Si Si6 0.500000 0.500000 0.500000
Si Si7 0.111474 0.024588 0.615731
Si Si8 0.349161 0.602753 0.310446
O O1 0.409765 0.155681 0.448753
O O2 0.845823 0.105611 0.678733
O O3 0.849144 0.073071 0.551955
O O4 0.500000 0.000000 0.500000
O O5 0.316148 0.272475 0.152808
O O6 0.394306 0.417560 0.223170
O O7 0.753632 0.360064 0.271338
O O8 0.813005 0.300063 0.408947
O O9 0.791835 0.692541 0.618084
O O10 0.810975 0.777733 0.521350
O O11 0.139464 0.820549 0.745473
O O12 0.824647 0.961912 0.107765
O O13 0.341276 0.141480 0.093015
O O14 0.377277 0.545064 0.384750
O O15 0.195180 0.947026 0.692359
O O16 0.000000 0.000000 0.500000
#
# Coordination Sequence:
#
# PCOD9251387 Si02
#       8
#     4   4   4   4   4   2   4   4
#     4  12  22  42  68  97 128 176 230 291 337 410
#     4  11  23  42  70  99 134 189 235 284 347 439
#     4  11  20  39  71 100 128 179 236 292 348 412
#     4  11  22  39  70  98 133 170 233 284 352 405
#     4  11  21  41  74  96 129 187 247 278 347 435
#     4  12  22  40  64 108 132 172 226 312 346 400
#     4  12  27  43  66  99 145 185 231 286 359 431
#     4  12  22  41  69 101 136 178 235 298 348 421
#
# _framework density 19.869738000000002
#
# number of rings (size 3 to 8) (size 9 to 14) (size 15 to 20)
#    0.000    0.533    9.333    1.600    0.000    0.533 
#    2.400    0.000    0.000    0.000    0.000    0.000 
#    0.000    0.000    0.000    0.000    0.000    0.000 
#
# Total GULP energy -167007.404969 kJ/mol
# GULP energy per Si atom -5566.913499 kJ/mol
# Density = 1.982451 g / cm^3
# Si number density = 19.869738 Si / 1000 Ang^3
#
#
#
# Elastic Constant Matrix: (Units=GPa)
#
#
# Indices 1 2 3 4 5 6 
#
# 1 45.2763 13.1896 7.7300 0.0000 15.7059 0.0000
# 2 13.1896 50.0402 1.2874 0.0000 13.6031 0.0000
# 3 7.7300 1.2874 96.6114 0.0000 11.1622 0.0000
# 4 0.0000 0.0000 0.0000 50.2088 0.0000 11.3440
# 5 15.7059 13.6031 11.1622 0.0000 30.3438 0.0000
# 6 0.0000 0.0000 0.0000 11.3440 0.0000 20.2622
#
#
#
# Elastic Compliance Matrix: (Units=1/GPa)
#
#
# Indices 1 2 3 4 5 6 
#
# 1 0.027609 -0.003926 -0.000740 0.000000 -0.012258 0.000000
# 2 -0.003926 0.023393 0.001023 0.000000 -0.008831 0.000000
# 3 -0.000740 0.001023 0.010867 0.000000 -0.004073 0.000000
# 4 0.000000 0.000000 0.000000 0.022801 0.000000 -0.012765
# 5 -0.012258 -0.008831 -0.004073 0.000000 0.044758 0.000000
# 6 0.000000 0.000000 0.000000 -0.012765 0.000000 0.056500
#
#
# Mechanical properties :
#
#
# Convention : Reuss Voigt Hill
#
# Bulk Modulus (GPa) = 18.32111 26.26021 22.29066
# Shear Modulus (GPa) = 23.65089 31.47769 27.56429
#
# Velocity S-wave (km/s) = 3.45381 3.98452 3.72862
# Velocity P-wave (km/s) = 5.01455 5.86630 5.45707
#
# Compressibility (1/GPa) = 0.05458184
#
# Stress axis : x y z
#
# Youngs Moduli (GPa) = 36.22023 42.74756 92.02255
#
# Poissons Ratio (x) = 0.16782 0.06814
# Poissons Ratio (y) = 0.14219 -0.09411
# Poissons Ratio (z) = 0.02682 -0.04372
#
# Static dielectric constant tensor:
#      x y z
#    x 1.675520 0.000000 0.006710 
#    y 0.000000 1.733910 0.000000 
#    z 0.006710 0.000000 1.736520 
# 
# From -- ./inp_files/66020.got.cif
#   From: 2010.05.17/outbox.cif.g08.bks.cpg/sg14_34_cif.got.tgz:66020.got - 2010.06.03 17:49:19.
