data_PCOD9251238
_publ_section_title
;
Structure prediction by ZEFSAII (Michael W. Deem and Ramdas Pophale) SiO2 
 PCOD9251238
Probable space group: P 21/C
;
_chemical_formula_sum "Si O2"
_cell_formula_units_Z 32
_cell_length_a 15.066481
_cell_length_b 13.584232
_cell_length_c 14.282776
_cell_angle_alpha 90.000000
_cell_angle_beta 21.847253
_cell_angle_gamma 90.000000
_cell_volume 1087.823041
_symmetry_space_group_name_H-M "P 21/C"
_symmetry_group_IT_number 14
_symmetry_cell_setting 'monoclinic'
loop_
_space_group_symop_operation_xyz
x,y,z
-x,1/2+y,1/2-z
-x,-y,-z
x,1/2-y,1/2+z
loop_
_atom_site_type_symbol
_atom_site_label
_atom_site_fract_x
_atom_site_fract_y
_atom_site_fract_z
Si Si1 0.168101 0.728460 0.938815
Si Si2 0.512823 0.944316 0.172224
Si Si3 0.299494 0.783000 0.599880
Si Si4 0.953148 0.872190 0.369128
Si Si5 0.051762 0.438072 0.640851
Si Si6 0.417774 0.136753 0.395084
Si Si7 0.189930 0.416006 0.791012
Si Si8 0.687127 0.585935 0.796690
O O1 0.308760 0.631148 0.838674
O O2 0.205082 0.772972 0.798436
O O3 0.328300 0.810598 0.837148
O O4 0.912931 0.675816 0.167973
O O5 0.460407 0.037465 0.291904
O O6 0.622851 0.966065 0.961776
O O7 0.717940 0.894402 0.033382
O O8 0.562632 0.823156 0.363820
O O9 0.198656 0.680921 0.657316
O O10 0.167042 0.864855 0.666009
O O11 0.787775 0.809236 0.462347
O O12 0.786137 0.881458 0.625275
O O13 0.002888 0.970876 0.259653
O O14 0.128393 0.459479 0.458165
O O15 0.279310 0.119059 0.629190
O O16 0.000000 0.500000 0.000000
O O17 0.500000 0.500000 0.000000
#
# Coordination Sequence:
#
# PCOD9251238 Si02
#       8
#     4   4   4   4   4   4   4   4
#     4  10  26  51  78 118 159 205 271 331 393 477
#     4  12  26  49  79 118 156 215 263 326 406 471
#     4  10  26  51  78 118 159 205 271 331 393 477
#     4  11  25  50  80 118 160 212 265 332 400 478
#     4  12  26  49  79 118 156 215 263 326 406 471
#     4  11  25  50  80 118 160 212 265 332 400 478
#     4  11  24  50  78 113 156 206 263 327 396 474
#     4  11  24  50  78 113 156 206 263 327 396 474
#
# _framework density 29.416549
#
# number of rings (size 3 to 8) (size 9 to 14) (size 15 to 20)
#    0.000    1.000    2.500    2.250    0.000    8.000 
#    9.000    0.000    0.000    0.000    0.000    0.000 
#    0.000    0.000    0.000    0.000    0.000    0.000 
#
# Total GULP energy -178658.275551 kJ/mol
# GULP energy per Si atom -5583.071111 kJ/mol
# Density = 2.934960 g / cm^3
# Si number density = 29.416549 Si / 1000 Ang^3
#
#
#
# Elastic Constant Matrix: (Units=GPa)
#
#
# Indices 1 2 3 4 5 6 
#
# 1 252.7386 52.9369 59.9262 0.0000 1.1726 0.0000
# 2 52.9369 183.1865 39.9611 0.0000 3.6266 0.0000
# 3 59.9262 39.9611 55.7414 0.0000 -20.5017 0.0000
# 4 0.0000 0.0000 0.0000 46.7870 0.0000 -12.9665
# 5 1.1726 3.6266 -20.5017 0.0000 79.6146 0.0000
# 6 0.0000 0.0000 0.0000 -12.9665 0.0000 59.0676
#
#
#
# Elastic Compliance Matrix: (Units=1/GPa)
#
#
# Indices 1 2 3 4 5 6 
#
# 1 0.005533 -0.000150 -0.006482 0.000000 -0.001744 0.000000
# 2 -0.000150 0.006676 -0.005231 0.000000 -0.001649 0.000000
# 3 -0.006482 -0.005231 0.031793 0.000000 0.008521 0.000000
# 4 0.000000 0.000000 0.000000 0.022758 0.000000 0.004996
# 5 -0.001744 -0.001649 0.008521 0.000000 0.014856 0.000000
# 6 0.000000 0.000000 0.000000 0.004996 0.000000 0.018026
#
#
# Mechanical properties :
#
#
# Convention : Reuss Voigt Hill
#
# Bulk Modulus (GPa) = 49.32147 88.59056 68.95602
# Shear Modulus (GPa) = 38.42383 59.68333 49.05358
#
# Velocity S-wave (km/s) = 3.61806 4.50922 4.08800
# Velocity P-wave (km/s) = 5.85293 7.56915 6.76568
#
# Compressibility (1/GPa) = 0.02027514
#
# Stress axis : x y z
#
# Youngs Moduli (GPa) = 180.72612 149.78771 31.45362
#
# Poissons Ratio (x) = 0.02253 0.20389
# Poissons Ratio (y) = 0.02718 0.16453
# Poissons Ratio (z) = 1.17151 0.78352
#
# Static dielectric constant tensor:
#      x y z
#    x 2.485790 0.000000 0.132630 
#    y 0.000000 2.504850 0.000000 
#    z 0.132630 0.000000 2.524180 
# 
# From -- ./inp_files/74434.got.cif
#   From: 2010.05.17/outbox.cif.g08.bks.cpg/sg14_38_cif.got.tgz:74434.got - 2010.06.03 17:49:19.
