data_PCOD9251049
_publ_section_title
;
Structure prediction by ZEFSAII (Michael W. Deem and Ramdas Pophale) SiO2 
 PCOD9251049
Probable space group: P 21/C
;
_chemical_formula_sum "Si O2"
_cell_formula_units_Z 16
_cell_length_a 28.359228
_cell_length_b 5.199484
_cell_length_c 25.803297
_cell_angle_alpha 90.000000
_cell_angle_beta 170.246405
_cell_angle_gamma 90.000000
_cell_volume 644.573333
_symmetry_space_group_name_H-M "P 21/C"
_symmetry_group_IT_number 14
_symmetry_cell_setting 'monoclinic'
loop_
_space_group_symop_operation_xyz
x,y,z
-x,1/2+y,1/2-z
-x,-y,-z
x,1/2-y,1/2+z
loop_
_atom_site_type_symbol
_atom_site_label
_atom_site_fract_x
_atom_site_fract_y
_atom_site_fract_z
Si Si1 0.991028 0.330659 0.864923
Si Si2 0.576026 0.499980 0.864037
Si Si3 0.673108 0.747162 0.173109
Si Si4 0.495428 0.330627 0.621530
O O1 0.718016 0.500013 0.577023
O O2 0.071504 0.247682 0.010692
O O3 0.241189 0.500022 0.111782
O O4 0.884523 0.094827 0.714739
O O5 0.434235 0.249983 0.684235
O O6 0.436382 0.594783 0.766605
O O7 0.500000 0.500000 0.000000
O O8 0.685276 0.747676 0.124468
O O9 0.500000 0.000000 0.000000
#
# Coordination Sequence:
#
# PCOD9251049 Si02
#       4
#     4   4   4   4
#     4  11  27  53  81 118 158 204 261 329 400 474
#     4  12  28  55  80 117 158 222 274 330 392 472
#     4  10  25  45  81 117 156 198 252 323 405 479
#     4  11  27  53  81 118 158 204 261 329 400 474
#
# _framework density 24.822621000000002
#
# number of rings (size 3 to 8) (size 9 to 14) (size 15 to 20)
#    0.000    1.000    2.500    0.750   14.000    1.000 
#    9.000    0.000    0.000    0.000    0.000    0.000 
#    0.000    0.000    0.000    0.000    0.000    0.000 
#
# Total GULP energy -89507.424728 kJ/mol
# GULP energy per Si atom -5594.214046 kJ/mol
# Density = 2.476612 g / cm^3
# Si number density = 24.822621 Si / 1000 Ang^3
#
#
#
# Elastic Constant Matrix: (Units=GPa)
#
#
# Indices 1 2 3 4 5 6 
#
# 1 206.1848 82.8978 53.5862 0.0000 -28.6763 0.0000
# 2 82.8978 183.4463 71.6021 0.0000 -16.8243 0.0000
# 3 53.5862 71.6021 171.1183 0.0000 -23.5852 0.0000
# 4 0.0000 0.0000 0.0000 89.3531 0.0000 -55.5094
# 5 -28.6763 -16.8243 -23.5852 0.0000 74.2600 0.0000
# 6 0.0000 0.0000 0.0000 -55.5094 0.0000 126.5323
#
#
#
# Elastic Compliance Matrix: (Units=1/GPa)
#
#
# Indices 1 2 3 4 5 6 
#
# 1 0.006222 -0.002378 -0.000729 0.000000 0.001633 0.000000
# 2 -0.002378 0.007453 -0.002372 0.000000 0.000017 0.000000
# 3 -0.000729 -0.002372 0.007270 0.000000 0.001490 0.000000
# 4 0.000000 0.000000 0.000000 0.015384 0.000000 0.006749
# 5 0.001633 0.000017 0.001490 0.000000 0.014574 0.000000
# 6 0.000000 0.000000 0.000000 0.006749 0.000000 0.010864
#
#
# Mechanical properties :
#
#
# Convention : Reuss Voigt Hill
#
# Bulk Modulus (GPa) = 100.10720 108.54686 104.32703
# Shear Modulus (GPa) = 65.74360 81.53996 73.64178
#
# Velocity S-wave (km/s) = 5.15198 5.73763 5.45267
# Velocity P-wave (km/s) = 8.70672 9.36578 9.04226
#
# Compressibility (1/GPa) = 0.00998929
#
# Stress axis : x y z
#
# Youngs Moduli (GPa) = 160.70850 134.17560 137.55447
#
# Poissons Ratio (x) = 0.31903 0.10022
# Poissons Ratio (y) = 0.38212 0.32623
# Poissons Ratio (z) = 0.11709 0.31821
#
# Static dielectric constant tensor:
#      x y z
#    x 2.115380 0.000000 -0.117980 
#    y 0.000000 3.956250 0.000000 
#    z -0.117980 0.000000 2.036310 
# 
# From -- ./inp_files/62799.got.cif
#   From: 2010.05.17/outbox.cif.g08.bks.cpg/sg14_32_cif.got.tgz:62799.got - 2010.06.03 17:49:19.
