data_PCOD9251095
_publ_section_title
;
Structure prediction by ZEFSAII (Michael W. Deem and Ramdas Pophale) SiO2 
 PCOD9251095
Probable space group: P 21/C
;
_chemical_formula_sum "Si O2"
_cell_formula_units_Z 24
_cell_length_a 20.875305
_cell_length_b 5.274021
_cell_length_c 21.484631
_cell_angle_alpha 90.000000
_cell_angle_beta 22.074822
_cell_angle_gamma 90.000000
_cell_volume 888.953594
_symmetry_space_group_name_H-M "P 21/C"
_symmetry_group_IT_number 14
_symmetry_cell_setting 'monoclinic'
loop_
_space_group_symop_operation_xyz
x,y,z
-x,1/2+y,1/2-z
-x,-y,-z
x,1/2-y,1/2+z
loop_
_atom_site_type_symbol
_atom_site_label
_atom_site_fract_x
_atom_site_fract_y
_atom_site_fract_z
Si Si1 0.669223 0.262430 0.384890
Si Si2 0.688013 0.933495 0.754094
Si Si3 0.595533 0.285249 0.215583
Si Si4 0.214352 0.351257 0.029396
Si Si5 0.153898 0.266500 0.223211
Si Si6 0.146887 0.071089 0.969964
O O1 0.465843 0.287947 0.573473
O O2 0.721513 0.322651 0.266645
O O3 0.759521 0.499349 0.339153
O O4 0.726962 0.998283 0.361424
O O5 0.845193 0.750881 0.596751
O O6 0.615715 0.010770 0.752006
O O7 0.726169 0.365312 0.043248
O O8 0.403051 0.272772 0.366817
O O9 0.664757 0.036563 0.186865
O O10 0.110709 0.237304 0.064730
O O11 0.128007 0.300627 0.172741
O O12 0.978987 0.333101 0.416214
#
# Coordination Sequence:
#
# PCOD9251095 Si02
#       6
#     4   4   4   4   4   4
#     4  11  27  48  75 103 141 189 238 299 348 431
#     4  10  25  47  74 101 135 189 249 289 351 424
#     4  11  22  43  69 100 132 186 240 290 346 425
#     4  11  24  41  69  98 141 185 237 291 355 429
#     4  12  29  45  70 108 147 183 231 296 372 420
#     4  11  27  43  71 102 145 189 234 299 360 433
#
# _framework density 26.998033
#
# number of rings (size 3 to 8) (size 9 to 14) (size 15 to 20)
#    0.000    1.000    3.333    1.000   14.000    2.667 
#    0.000    0.000    0.000    0.000    0.000    0.000 
#    0.000    0.000    0.000    0.000    0.000    0.000 
#
# Total GULP energy -134494.032985 kJ/mol
# GULP energy per Si atom -5603.918041 kJ/mol
# Density = 2.693658 g / cm^3
# Si number density = 26.998033 Si / 1000 Ang^3
#
#
#
# Elastic Constant Matrix: (Units=GPa)
#
#
# Indices 1 2 3 4 5 6 
#
# 1 82.1353 30.1536 28.5762 0.0000 26.7522 0.0000
# 2 30.1536 106.4844 9.0074 0.0000 1.8884 0.0000
# 3 28.5762 9.0074 97.5832 0.0000 12.6702 0.0000
# 4 0.0000 0.0000 0.0000 29.4794 0.0000 -12.4862
# 5 26.7522 1.8884 12.6702 0.0000 36.1143 0.0000
# 6 0.0000 0.0000 0.0000 -12.4862 0.0000 36.6141
#
#
#
# Elastic Compliance Matrix: (Units=1/GPa)
#
#
# Indices 1 2 3 4 5 6 
#
# 1 0.019438 -0.004975 -0.003559 0.000000 -0.012890 0.000000
# 2 -0.004975 0.010739 0.000063 0.000000 0.003101 0.000000
# 3 -0.003559 0.000063 0.011465 0.000000 -0.001389 0.000000
# 4 0.000000 0.000000 0.000000 0.039649 0.000000 0.013521
# 5 -0.012890 0.003101 -0.001389 0.000000 0.037563 0.000000
# 6 0.000000 0.000000 0.000000 0.013521 0.000000 0.031923
#
#
# Mechanical properties :
#
#
# Convention : Reuss Voigt Hill
#
# Bulk Modulus (GPa) = 40.48665 46.85303 43.66984
# Shear Modulus (GPa) = 28.41664 35.00596 31.71130
#
# Velocity S-wave (km/s) = 3.24781 3.60476 3.43093
# Velocity P-wave (km/s) = 5.39380 5.89216 5.64848
#
# Compressibility (1/GPa) = 0.02469950
#
# Stress axis : x y z
#
# Youngs Moduli (GPa) = 51.44519 93.11474 87.22561
#
# Poissons Ratio (x) = 0.46322 0.31047
# Poissons Ratio (y) = 0.25592 -0.00548
# Poissons Ratio (z) = 0.18311 -0.00585
#
# Static dielectric constant tensor:
#      x y z
#    x 2.064900 0.000000 0.005680 
#    y 0.000000 2.193700 0.000000 
#    z 0.005680 0.000000 2.101850 
# 
# From -- ./inp_files/69510.got.cif
#   From: 2010.05.17/outbox.cif.g08.bks.cpg/sg14_35_cif.got.tgz:69510.got - 2010.06.03 17:49:19.
