data_PCOD9251428
_publ_section_title
;
Structure prediction by ZEFSAII (Michael W. Deem and Ramdas Pophale) SiO2 
 PCOD9251428
Probable space group: P 21/C
;
_chemical_formula_sum "Si O2"
_cell_formula_units_Z 28
_cell_length_a 9.910080
_cell_length_b 11.346706
_cell_length_c 23.281951
_cell_angle_alpha 90.000000
_cell_angle_beta 35.081614
_cell_angle_gamma 90.000000
_cell_volume 1504.664876
_symmetry_space_group_name_H-M "P 21/C"
_symmetry_group_IT_number 14
_symmetry_cell_setting 'monoclinic'
loop_
_space_group_symop_operation_xyz
x,y,z
-x,1/2+y,1/2-z
-x,-y,-z
x,1/2-y,1/2+z
loop_
_atom_site_type_symbol
_atom_site_label
_atom_site_fract_x
_atom_site_fract_y
_atom_site_fract_z
Si Si1 0.162287 0.912150 0.090918
Si Si2 0.171726 0.194222 0.293079
Si Si3 0.336449 0.738730 0.342418
Si Si4 0.908501 0.870038 0.547805
Si Si5 0.516724 0.799183 0.166896
Si Si6 0.372239 0.489502 0.634013
Si Si7 0.172929 0.488738 0.386728
O O1 0.230624 0.971318 0.126998
O O2 0.043920 0.784283 0.141875
O O3 0.968281 0.984913 0.122793
O O4 0.395629 0.919525 0.969454
O O5 0.418995 0.266257 0.211069
O O6 0.128649 0.137620 0.370851
O O7 0.219939 0.094041 0.228718
O O8 0.311568 0.779377 0.284726
O O9 0.343832 0.597987 0.333310
O O10 0.116308 0.783256 0.454845
O O11 0.665842 0.820324 0.603148
O O12 0.000000 0.000000 0.500000
O O13 0.451788 0.889785 0.139174
O O14 0.695805 0.869676 0.145461
O O15 0.000000 0.500000 0.500000
#
# Coordination Sequence:
#
# PCOD9251428 Si02
#       7
#     4   4   4   4   4   4   4
#     4  11  23  39  63  89 120 165 208 245 311 372
#     4  11  21  38  60  88 119 157 202 256 305 363
#     4  11  21  33  62  87 118 153 204 259 302 351
#     4  11  22  35  57  93 124 151 197 258 309 352
#     4  11  22  36  61  90 117 159 204 252 301 365
#     4  11  23  41  62  87 125 165 204 252 303 380
#     4  12  18  38  63  86 113 154 211 252 292 367
#
# _framework density 18.608796000000002
#
# number of rings (size 3 to 8) (size 9 to 14) (size 15 to 20)
#    0.000    0.857    7.143    1.714    2.000    1.143 
#    0.000    2.857    0.000    2.571    0.000    0.000 
#    0.000    0.000    0.000    0.000    0.000    0.000 
#
# Total GULP energy -155982.959746 kJ/mol
# GULP energy per Si atom -5570.819991 kJ/mol
# Density = 1.856644 g / cm^3
# Si number density = 18.608796 Si / 1000 Ang^3
#
#
#
# Elastic Constant Matrix: (Units=GPa)
#
#
# Indices 1 2 3 4 5 6 
#
# 1 99.8686 26.0395 30.1501 0.0000 9.9803 0.0000
# 2 26.0395 85.9357 36.1565 0.0000 7.2463 0.0000
# 3 30.1501 36.1565 111.2641 0.0000 17.4854 0.0000
# 4 0.0000 0.0000 0.0000 41.4576 0.0000 -0.8634
# 5 9.9803 7.2463 17.4854 0.0000 24.9885 0.0000
# 6 0.0000 0.0000 0.0000 -0.8634 0.0000 22.9502
#
#
#
# Elastic Compliance Matrix: (Units=1/GPa)
#
#
# Indices 1 2 3 4 5 6 
#
# 1 0.011486 -0.002461 -0.001914 0.000000 -0.002534 0.000000
# 2 -0.002461 0.014027 -0.003827 0.000000 -0.000406 0.000000
# 3 -0.001914 -0.003827 0.011747 0.000000 -0.006346 0.000000
# 4 0.000000 0.000000 0.000000 0.024140 0.000000 0.000908
# 5 -0.002534 -0.000406 -0.006346 0.000000 0.045589 0.000000
# 6 0.000000 0.000000 0.000000 0.000908 0.000000 0.043607
#
#
# Mechanical properties :
#
#
# Convention : Reuss Voigt Hill
#
# Bulk Modulus (GPa) = 47.95170 53.52895 50.74032
# Shear Modulus (GPa) = 28.74329 31.52739 30.13534
#
# Velocity S-wave (km/s) = 3.93441 4.12056 4.02856
# Velocity P-wave (km/s) = 6.81643 7.17401 6.99751
#
# Compressibility (1/GPa) = 0.02085432
#
# Stress axis : x y z
#
# Youngs Moduli (GPa) = 87.06168 71.29101 85.12543
#
# Poissons Ratio (x) = 0.17547 0.16297
# Poissons Ratio (y) = 0.21428 0.32581
# Poissons Ratio (z) = 0.16667 0.27286
#
# Static dielectric constant tensor:
#      x y z
#    x 1.628300 0.000000 -0.029870 
#    y 0.000000 1.769170 0.000000 
#    z -0.029870 0.000000 1.605340 
# 
# From -- ./inp_files/65536.got.cif
#   From: 2010.05.17/outbox.cif.g08.bks.cpg/sg14_33_cif.got.tgz:65536.got - 2010.06.03 17:49:19.
