data_PCOD9251027
_publ_section_title
;
Structure prediction by ZEFSAII (Michael W. Deem and Ramdas Pophale) SiO2 
 PCOD9251027
Probable space group: P 21/C
;
_chemical_formula_sum "Si O2"
_cell_formula_units_Z 32
_cell_length_a 5.104433
_cell_length_b 14.539006
_cell_length_c 19.296239
_cell_angle_alpha 90.000000
_cell_angle_beta 65.143796
_cell_angle_gamma 90.000000
_cell_volume 1299.383043
_symmetry_space_group_name_H-M "P 21/C"
_symmetry_group_IT_number 14
_symmetry_cell_setting 'monoclinic'
loop_
_space_group_symop_operation_xyz
x,y,z
-x,1/2+y,1/2-z
-x,-y,-z
x,1/2-y,1/2+z
loop_
_atom_site_type_symbol
_atom_site_label
_atom_site_fract_x
_atom_site_fract_y
_atom_site_fract_z
Si Si1 0.288532 0.643186 0.279729
Si Si2 0.074691 0.898262 0.014042
Si Si3 0.403037 0.290765 0.519238
Si Si4 0.043299 0.904378 0.533239
Si Si5 0.884566 0.317203 0.116667
Si Si6 0.387154 0.535507 0.760097
Si Si7 0.390939 0.841445 0.613291
Si Si8 0.983207 0.458742 0.326355
O O1 0.286223 0.732770 0.327970
O O2 0.568279 0.575194 0.246848
O O3 0.249328 0.671123 0.203695
O O4 0.041935 0.569011 0.330056
O O5 0.042939 0.905651 0.099812
O O6 0.398693 0.863625 0.962811
O O7 0.843881 0.837776 0.999718
O O8 0.000000 0.000000 0.000000
O O9 0.609132 0.243421 0.439358
O O10 0.218119 0.216322 0.582696
O O11 0.726094 0.866214 0.585975
O O12 0.171961 0.838647 0.458153
O O13 0.230129 0.914742 0.581994
O O14 0.000000 0.000000 0.500000
O O15 0.819452 0.411091 0.164900
O O16 0.280215 0.558985 0.695129
O O17 0.710352 0.569670 0.741277
#
# Coordination Sequence:
#
# PCOD9251027 Si02
#       8
#     4   4   4   4   4   4   4   4
#     4  10  26  46  76 109 151 196 261 315 386 459
#     4  12  25  47  75 103 150 200 251 320 391 461
#     4  11  26  46  72 110 147 193 263 308 387 468
#     4  11  25  46  73 102 147 197 255 310 389 460
#     4  11  25  50  76 113 148 210 255 319 384 473
#     4  10  25  48  70 107 149 194 250 313 386 449
#     4  11  25  44  68 106 143 190 241 323 371 451
#     4  10  25  45  70 104 147 190 250 316 386 446
#
# _framework density 24.627074
#
# number of rings (size 3 to 8) (size 9 to 14) (size 15 to 20)
#    0.750    0.500    0.000    4.500    7.000    4.000 
#    9.000    0.000    0.000    0.000    0.000    0.000 
#    0.000    0.000    0.000    0.000    0.000    0.000 
#
# Total GULP energy -178825.906070 kJ/mol
# GULP energy per Si atom -5588.309565 kJ/mol
# Density = 2.457102 g / cm^3
# Si number density = 24.627074 Si / 1000 Ang^3
#
#
#
# Elastic Constant Matrix: (Units=GPa)
#
#
# Indices 1 2 3 4 5 6 
#
# 1 91.3531 32.3967 35.9540 0.0000 12.3855 0.0000
# 2 32.3967 99.6794 47.6746 0.0000 -23.5311 0.0000
# 3 35.9540 47.6746 128.7448 0.0000 3.4765 0.0000
# 4 0.0000 0.0000 0.0000 42.3598 0.0000 -7.6046
# 5 12.3855 -23.5311 3.4765 0.0000 27.8071 0.0000
# 6 0.0000 0.0000 0.0000 -7.6046 0.0000 33.7863
#
#
#
# Elastic Compliance Matrix: (Units=1/GPa)
#
#
# Indices 1 2 3 4 5 6 
#
# 1 0.016064 -0.007872 -0.001202 0.000000 -0.013667 0.000000
# 2 -0.007872 0.020581 -0.006008 0.000000 0.021673 0.000000
# 3 -0.001202 -0.006008 0.010486 0.000000 -0.005860 0.000000
# 4 0.000000 0.000000 0.000000 0.024601 0.000000 0.005537
# 5 -0.013667 0.021673 -0.005860 0.000000 0.061122 0.000000
# 6 0.000000 0.000000 0.000000 0.005537 0.000000 0.030844
#
#
# Mechanical properties :
#
#
# Convention : Reuss Voigt Hill
#
# Bulk Modulus (GPa) = 58.94017 61.31421 60.12719
# Shear Modulus (GPa) = 25.06036 34.37411 29.71723
#
# Velocity S-wave (km/s) = 3.19344 3.74007 3.47751
# Velocity P-wave (km/s) = 6.13045 6.60318 6.37120
#
# Compressibility (1/GPa) = 0.01696636
#
# Stress axis : x y z
#
# Youngs Moduli (GPa) = 62.24974 48.58968 95.36621
#
# Poissons Ratio (x) = 0.38252 0.11463
# Poissons Ratio (y) = 0.49006 0.57294
# Poissons Ratio (z) = 0.07482 0.29192
#
# Static dielectric constant tensor:
#      x y z
#    x 1.985410 0.000000 -0.011340 
#    y 0.000000 2.070830 0.000000 
#    z -0.011340 0.000000 2.019920 
# 
# From -- ./inp_files/63769.got.cif
#   From: 2010.05.17/outbox.cif.g08.bks.cpg/sg14_32_cif.got.tgz:63769.got - 2010.06.03 17:49:19.
