data_PCOD9251597
_publ_section_title
;
Structure prediction by ZEFSAII (Michael W. Deem and Ramdas Pophale) SiO2 
 PCOD9251597
Probable space group: P 21/C
;
_chemical_formula_sum "Si O2"
_cell_formula_units_Z 24
_cell_length_a 11.440231
_cell_length_b 12.372708
_cell_length_c 14.313659
_cell_angle_alpha 90.000000
_cell_angle_beta 149.501302
_cell_angle_gamma 90.000000
_cell_volume 1028.258584
_symmetry_space_group_name_H-M "P 21/C"
_symmetry_group_IT_number 14
_symmetry_cell_setting 'monoclinic'
loop_
_space_group_symop_operation_xyz
x,y,z
-x,1/2+y,1/2-z
-x,-y,-z
x,1/2-y,1/2+z
loop_
_atom_site_type_symbol
_atom_site_label
_atom_site_fract_x
_atom_site_fract_y
_atom_site_fract_z
Si Si1 0.201289 0.873664 0.564996
Si Si2 0.161897 0.549542 0.832611
Si Si3 0.597367 0.667842 0.040450
Si Si4 0.628275 0.144693 0.813528
Si Si5 0.250878 0.303931 0.193241
Si Si6 0.723484 0.589568 0.412872
O O1 0.161134 0.940293 0.443247
O O2 0.205273 0.743633 0.547889
O O3 0.463541 0.899005 0.773345
O O4 0.977129 0.875933 0.474960
O O5 0.215895 0.428227 0.835965
O O6 0.923853 0.589938 0.626373
O O7 0.375679 0.622270 0.944186
O O8 0.687676 0.771961 0.158049
O O9 0.510992 0.679316 0.874966
O O10 0.459465 0.137302 0.785345
O O11 0.732933 0.026954 0.868312
O O12 0.234903 0.188734 0.128762
#
# Coordination Sequence:
#
# PCOD9251597 Si02
#       6
#     4   4   4   4   4   4
#     4  11  24  44  65 106 141 172 239 283 338 417
#     4  11  22  42  74 101 134 180 233 286 342 409
#     4  11  21  43  73 100 134 183 233 283 342 409
#     4  11  23  44  70 103 140 179 233 286 343 410
#     4  11  25  43  72 103 139 181 232 288 338 417
#     4  11  23  46  68 103 141 183 224 285 351 403
#
# _framework density 23.340432
#
# number of rings (size 3 to 8) (size 9 to 14) (size 15 to 20)
#    0.000    1.000    5.000    3.000    4.667    2.667 
#    0.000    0.833    0.000    0.000    0.000    0.000 
#    0.000    0.000    0.000    0.000    0.000    0.000 
#
# Total GULP energy -134228.678556 kJ/mol
# GULP energy per Si atom -5592.861606 kJ/mol
# Density = 2.328731 g / cm^3
# Si number density = 23.340432 Si / 1000 Ang^3
#
#
#
# Elastic Constant Matrix: (Units=GPa)
#
#
# Indices 1 2 3 4 5 6 
#
# 1 329.4310 -100.3211 10.1680 0.0000 -34.7100 0.0000
# 2 -100.3211 149.6751 12.3319 0.0000 0.4183 0.0000
# 3 10.1680 12.3319 107.3586 0.0000 -5.9200 0.0000
# 4 0.0000 0.0000 0.0000 14.2154 0.0000 -8.1984
# 5 -34.7100 0.4183 -5.9200 0.0000 22.3324 0.0000
# 6 0.0000 0.0000 0.0000 -8.1984 0.0000 25.3928
#
#
#
# Elastic Compliance Matrix: (Units=1/GPa)
#
#
# Indices 1 2 3 4 5 6 
#
# 1 0.004801 0.003232 -0.000424 0.000000 0.007289 0.000000
# 2 0.003232 0.008924 -0.001079 0.000000 0.004571 0.000000
# 3 -0.000424 -0.001079 0.009584 0.000000 0.001902 0.000000
# 4 0.000000 0.000000 0.000000 0.086443 0.000000 0.027909
# 5 0.007289 0.004571 0.001902 0.000000 0.056525 0.000000
# 6 0.000000 0.000000 0.000000 0.027909 0.000000 0.048392
#
#
# Mechanical properties :
#
#
# Convention : Reuss Voigt Hill
#
# Bulk Modulus (GPa) = 37.35953 47.86915 42.61434
# Shear Modulus (GPa) = 22.71360 56.67383 39.69372
#
# Velocity S-wave (km/s) = 3.12291 4.93296 4.12836
# Velocity P-wave (km/s) = 5.38930 7.28005 6.40483
#
# Compressibility (1/GPa) = 0.02676694
#
# Stress axis : x y z
#
# Youngs Moduli (GPa) = 208.28993 112.05886 104.34542
#
# Poissons Ratio (x) = -0.36223 0.04425
# Poissons Ratio (y) = -0.67329 0.11260
# Poissons Ratio (z) = 0.08833 0.12093
#
# Static dielectric constant tensor:
#      x y z
#    x 1.876840 0.000000 0.030100 
#    y 0.000000 1.901060 0.000000 
#    z 0.030100 0.000000 1.871830 
# 
# From -- ./inp_files/45156.got.cif
#   From: 2010.05.17/outbox.cif.g08.bks.cpg/sg14_23_cif.got.tgz:45156.got - 2010.06.03 17:49:19.
