data_PCOD9251660
_publ_section_title
;
Structure prediction by ZEFSAII (Michael W. Deem and Ramdas Pophale) SiO2 
 PCOD9251660
Probable space group: P 21/C
;
_chemical_formula_sum "Si O2"
_cell_formula_units_Z 24
_cell_length_a 7.789866
_cell_length_b 24.531940
_cell_length_c 9.262950
_cell_angle_alpha 90.000000
_cell_angle_beta 145.064169
_cell_angle_gamma 90.000000
_cell_volume 1013.694366
_symmetry_space_group_name_H-M "P 21/C"
_symmetry_group_IT_number 14
_symmetry_cell_setting 'monoclinic'
loop_
_space_group_symop_operation_xyz
x,y,z
-x,1/2+y,1/2-z
-x,-y,-z
x,1/2-y,1/2+z
loop_
_atom_site_type_symbol
_atom_site_label
_atom_site_fract_x
_atom_site_fract_y
_atom_site_fract_z
Si Si1 0.361003 0.746307 0.544820
Si Si2 0.814234 0.080114 0.440660
Si Si3 0.989879 0.807004 0.541185
Si Si4 0.224354 0.475947 0.443885
Si Si5 0.872144 0.415326 0.464080
Si Si6 0.463341 0.140615 0.460921
O O1 0.171730 0.774312 0.541638
O O2 0.481843 0.796133 0.529335
O O3 0.650616 0.713963 0.799663
O O4 0.151145 0.709856 0.299625
O O5 0.975073 0.128926 0.467020
O O6 0.641508 0.110021 0.454283
O O7 0.042680 0.038796 0.674846
O O8 0.553086 0.050261 0.172438
O O9 0.231599 0.538693 0.496063
O O10 0.040317 0.446486 0.447578
O O11 0.122026 0.377077 0.706307
O O12 0.607963 0.381764 0.207117
#
# Coordination Sequence:
#
# PCOD9251660 Si02
#       6
#     4   4   4   4   4   4
#     4  11  22  37  56  79 110 145 182 223 268 317
#     4   9  17  28  43  66  98 133 165 206 260 309
#     4  11  22  37  56  79 110 145 182 223 268 317
#     4   9  15  24  40  64  96 131 163 199 254 319
#     4   9  15  24  40  64  96 131 163 199 254 319
#     4   9  17  28  43  66  98 133 165 206 260 309
#
# _framework density 23.675774000000001
#
# number of rings (size 3 to 8) (size 9 to 14) (size 15 to 20)
#    0.000    2.333    0.000    4.000    0.000    9.333 
#    0.000    0.000    0.000    0.000    0.000    0.000 
#    0.000   93.333    0.000    0.000    0.000    0.000 
#
# Total GULP energy -134505.621807 kJ/mol
# GULP energy per Si atom -5604.400909 kJ/mol
# Density = 2.362189 g / cm^3
# Si number density = 23.675774 Si / 1000 Ang^3
#
#
#
# Elastic Constant Matrix: (Units=GPa)
#
#
# Indices 1 2 3 4 5 6 
#
# 1 122.6991 63.3810 51.4739 0.0000 27.3248 0.0000
# 2 63.3810 106.2220 44.5514 0.0000 51.1581 0.0000
# 3 51.4739 44.5514 191.3813 0.0000 47.3432 0.0000
# 4 0.0000 0.0000 0.0000 41.5073 0.0000 7.7727
# 5 27.3248 51.1581 47.3432 0.0000 89.8172 0.0000
# 6 0.0000 0.0000 0.0000 7.7727 0.0000 42.3014
#
#
#
# Elastic Compliance Matrix: (Units=1/GPa)
#
#
# Indices 1 2 3 4 5 6 
#
# 1 0.012421 -0.007249 -0.002001 0.000000 0.001405 0.000000
# 2 -0.007249 0.017524 -0.000237 0.000000 -0.007651 0.000000
# 3 -0.002001 -0.000237 0.006479 0.000000 -0.002672 0.000000
# 4 0.000000 0.000000 0.000000 0.024951 0.000000 -0.004585
# 5 0.001405 -0.007651 -0.002672 0.000000 0.016472 0.000000
# 6 0.000000 0.000000 0.000000 -0.004585 0.000000 0.024482
#
#
# Mechanical properties :
#
#
# Convention : Reuss Voigt Hill
#
# Bulk Modulus (GPa) = 57.30339 82.12388 69.71363
# Shear Modulus (GPa) = 39.33315 52.11825 45.72570
#
# Velocity S-wave (km/s) = 4.08036 4.69693 4.39946
# Velocity P-wave (km/s) = 6.81579 8.01106 7.43747
#
# Compressibility (1/GPa) = 0.01745097
#
# Stress axis : x y z
#
# Youngs Moduli (GPa) = 80.50932 57.06584 154.33585
#
# Poissons Ratio (x) = 0.41365 0.30879
# Poissons Ratio (y) = 0.58358 0.03659
# Poissons Ratio (z) = 0.16108 0.01353
#
# Static dielectric constant tensor:
#      x y z
#    x 1.907400 0.000000 -0.017800 
#    y 0.000000 1.839700 0.000000 
#    z -0.017800 0.000000 1.803490 
# 
# From -- ./inp_files/6422.got.cif
#   From: 2010.05.17/outbox.cif.g08.bks.cpg/sg14_4_cif.got.tgz:6422.got - 2010.06.03 17:49:19.
