data_PCOD9251060
_publ_section_title
;
Structure prediction by ZEFSAII (Michael W. Deem and Ramdas Pophale) SiO2 
 PCOD9251060
Probable space group: P 21/C
;
_chemical_formula_sum "Si O2"
_cell_formula_units_Z 24
_cell_length_a 4.836163
_cell_length_b 9.082190
_cell_length_c 22.124614
_cell_angle_alpha 90.000000
_cell_angle_beta 92.076622
_cell_angle_gamma 90.000000
_cell_volume 971.140138
_symmetry_space_group_name_H-M "P 21/C"
_symmetry_group_IT_number 14
_symmetry_cell_setting 'monoclinic'
loop_
_space_group_symop_operation_xyz
x,y,z
-x,1/2+y,1/2-z
-x,-y,-z
x,1/2-y,1/2+z
loop_
_atom_site_type_symbol
_atom_site_label
_atom_site_fract_x
_atom_site_fract_y
_atom_site_fract_z
Si Si1 0.174647 0.365036 0.937281
Si Si2 0.819604 0.648949 0.927870
Si Si3 0.107564 0.542399 0.228432
Si Si4 0.674093 0.262515 0.370827
Si Si5 0.744736 0.902135 0.841811
Si Si6 0.572850 0.127457 0.683100
O O1 0.378433 0.301155 0.888166
O O2 0.124958 0.561428 0.806428
O O3 0.889419 0.276587 0.925497
O O4 0.290182 0.337190 0.005147
O O5 0.071953 0.534437 0.933552
O O6 0.879947 0.805603 0.897190
O O7 0.592352 0.583135 0.879703
O O8 0.201092 0.680180 0.187571
O O9 0.665134 0.436239 0.361785
O O10 0.378536 0.440164 0.234065
O O11 0.952359 0.586921 0.287568
O O12 0.484831 0.801344 0.818869
#
# Coordination Sequence:
#
# PCOD9251060 Si02
#       6
#     4   4   4   4   4   4
#     4  11  25  48  76 107 149 191 248 304 352 451
#     4   9  24  52  75 106 147 197 246 290 375 433
#     4  12  24  46  70 104 147 190 242 297 356 448
#     4  12  26  44  74 114 141 189 245 308 367 415
#     4  10  26  49  73 109 150 192 239 310 370 427
#     4  10  25  46  70 102 141 194 243 280 364 442
#
# _framework density 24.713218000000001
#
# number of rings (size 3 to 8) (size 9 to 14) (size 15 to 20)
#    1.000    0.333    1.667    2.000    0.000   12.000 
#    0.000    3.333    0.000    0.000    0.000    0.000 
#    0.000    0.000    0.000    0.000    0.000    0.000 
#
# Total GULP energy -134355.287486 kJ/mol
# GULP energy per Si atom -5598.136979 kJ/mol
# Density = 2.465697 g / cm^3
# Si number density = 24.713218 Si / 1000 Ang^3
#
#
#
# Elastic Constant Matrix: (Units=GPa)
#
#
# Indices 1 2 3 4 5 6 
#
# 1 140.6693 51.7665 24.5414 0.0000 -14.2072 0.0000
# 2 51.7665 224.2566 43.6299 0.0000 -17.6400 0.0000
# 3 24.5414 43.6299 106.5333 0.0000 -15.0466 0.0000
# 4 0.0000 0.0000 0.0000 32.7536 0.0000 -1.0730
# 5 -14.2072 -17.6400 -15.0466 0.0000 40.4513 0.0000
# 6 0.0000 0.0000 0.0000 -1.0730 0.0000 20.9981
#
#
#
# Elastic Compliance Matrix: (Units=1/GPa)
#
#
# Indices 1 2 3 4 5 6 
#
# 1 0.008019 -0.001521 -0.000971 0.000000 0.001792 0.000000
# 2 -0.001521 0.005216 -0.001625 0.000000 0.001136 0.000000
# 3 -0.000971 -0.001625 0.010689 0.000000 0.002926 0.000000
# 4 0.000000 0.000000 0.000000 0.030582 0.000000 0.001563
# 5 0.001792 0.001136 0.002926 0.000000 0.026934 0.000000
# 6 0.000000 0.000000 0.000000 0.001563 0.000000 0.047703
#
#
# Mechanical properties :
#
#
# Convention : Reuss Voigt Hill
#
# Bulk Modulus (GPa) = 63.73930 79.03719 71.38825
# Shear Modulus (GPa) = 35.06095 42.27537 38.66816
#
# Velocity S-wave (km/s) = 3.77067 4.14047 3.95989
# Velocity P-wave (km/s) = 6.69364 7.41007 7.06095
#
# Compressibility (1/GPa) = 0.01568891
#
# Stress axis : x y z
#
# Youngs Moduli (GPa) = 124.70251 191.72281 93.55068
#
# Poissons Ratio (x) = 0.29165 0.09086
# Poissons Ratio (y) = 0.18970 0.15205
# Poissons Ratio (z) = 0.12112 0.31160
#
# Static dielectric constant tensor:
#      x y z
#    x 1.944530 0.000000 0.022580 
#    y 0.000000 1.984770 0.000000 
#    z 0.022580 0.000000 2.056460 
# 
# From -- ./inp_files/63228.got.cif
#   From: 2010.05.17/outbox.cif.g08.bks.cpg/sg14_32_cif.got.tgz:63228.got - 2010.06.03 17:49:19.
