data_PCOD9251851
_publ_section_title
;
Structure prediction by ZEFSAII (Michael W. Deem and Ramdas Pophale) SiO2 
 PCOD9251851
Probable space group: P 21/C
;
_chemical_formula_sum "Si O2"
_cell_formula_units_Z 32
_cell_length_a 11.142323
_cell_length_b 8.140234
_cell_length_c 26.981556
_cell_angle_alpha 90.000000
_cell_angle_beta 146.386321
_cell_angle_gamma 90.000000
_cell_volume 1354.778093
_symmetry_space_group_name_H-M "P 21/C"
_symmetry_group_IT_number 14
_symmetry_cell_setting 'monoclinic'
loop_
_space_group_symop_operation_xyz
x,y,z
-x,1/2+y,1/2-z
-x,-y,-z
x,1/2-y,1/2+z
loop_
_atom_site_type_symbol
_atom_site_label
_atom_site_fract_x
_atom_site_fract_y
_atom_site_fract_z
Si Si1 0.588180 0.227855 0.182606
Si Si2 0.763004 0.908386 0.188911
Si Si3 0.909935 0.747034 0.496092
Si Si4 0.675339 0.733339 0.757875
Si Si5 0.276327 0.912590 0.175914
Si Si6 0.480600 0.725643 0.025128
Si Si7 0.913735 0.396829 0.043694
Si Si8 0.274204 0.908472 0.361539
O O1 0.696847 0.279763 0.271046
O O2 0.615088 0.376297 0.152884
O O3 0.704007 0.075370 0.196667
O O4 0.332691 0.197463 0.101908
O O5 0.704207 0.767285 0.208892
O O6 0.611031 0.882153 0.089280
O O7 0.017383 0.898794 0.266245
O O8 0.040821 0.804601 0.492507
O O9 0.042645 0.607775 0.570506
O O10 0.893609 0.910659 0.524380
O O11 0.459075 0.638332 0.699368
O O12 0.877687 0.635558 0.850519
O O13 0.678989 0.912493 0.783797
O O14 0.658279 0.579672 0.090023
O O15 0.370298 0.724173 0.933494
O O16 0.290652 0.676486 0.997959
#
# Coordination Sequence:
#
# PCOD9251851 Si02
#       8
#     4   4   4   4   4   4   4   4
#     4  12  26  45  69 105 138 179 237 282 346 408
#     4  12  26  44  73 100 140 182 234 291 339 410
#     4  11  25  42  72 103 138 183 221 285 348 413
#     4  12  25  45  71 104 139 182 228 276 349 413
#     4  12  27  44  70 103 145 178 226 284 340 422
#     4  11  24  44  71  98 138 186 230 284 348 412
#     4  11  22  44  72  97 142 179 225 277 354 410
#     4  11  25  46  70  98 136 190 233 287 345 403
#
# _framework density 23.620107000000001
#
# number of rings (size 3 to 8) (size 9 to 14) (size 15 to 20)
#    0.000    0.500    3.750    4.500    3.500    2.000 
#    0.000    0.000    0.000    0.000    0.000    0.000 
#    0.000    0.000    0.000    0.000    0.000    0.000 
#
# Total GULP energy -179402.293014 kJ/mol
# GULP energy per Si atom -5606.321657 kJ/mol
# Density = 2.356635 g / cm^3
# Si number density = 23.620107 Si / 1000 Ang^3
#
#
#
# Elastic Constant Matrix: (Units=GPa)
#
#
# Indices 1 2 3 4 5 6 
#
# 1 62.1185 -10.3264 24.5988 0.0000 16.0184 0.0000
# 2 -10.3264 83.0653 13.3030 0.0000 7.9493 0.0000
# 3 24.5988 13.3030 97.2438 0.0000 -0.0154 0.0000
# 4 0.0000 0.0000 0.0000 36.6731 0.0000 -10.6127
# 5 16.0184 7.9493 -0.0154 0.0000 27.4755 0.0000
# 6 0.0000 0.0000 0.0000 -10.6127 0.0000 13.6836
#
#
#
# Elastic Compliance Matrix: (Units=1/GPa)
#
#
# Indices 1 2 3 4 5 6 
#
# 1 0.023642 0.005489 -0.006734 0.000000 -0.015375 0.000000
# 2 0.005489 0.013942 -0.003297 0.000000 -0.007236 0.000000
# 3 -0.006734 -0.003297 0.012439 0.000000 0.004887 0.000000
# 4 0.000000 0.000000 0.000000 0.035159 0.000000 0.027269
# 5 -0.015375 -0.007236 0.004887 0.000000 0.047456 0.000000
# 6 0.000000 0.000000 0.000000 0.027269 0.000000 0.094229
#
#
# Mechanical properties :
#
#
# Convention : Reuss Voigt Hill
#
# Bulk Modulus (GPa) = 24.42672 33.06426 28.74549
# Shear Modulus (GPa) = 20.03232 29.88990 24.96111
#
# Velocity S-wave (km/s) = 2.91538 3.56117 3.25433
# Velocity P-wave (km/s) = 4.65796 5.56219 5.13003
#
# Compressibility (1/GPa) = 0.04093878
#
# Stress axis : x y z
#
# Youngs Moduli (GPa) = 42.29742 71.72823 80.39484
#
# Poissons Ratio (x) = -0.39371 0.54137
# Poissons Ratio (y) = -0.23217 0.26505
# Poissons Ratio (z) = 0.28482 0.23648
#
# Static dielectric constant tensor:
#      x y z
#    x 1.859460 0.000000 -0.032890 
#    y 0.000000 1.943570 0.000000 
#    z -0.032890 0.000000 1.854090 
# 
# From -- ./inp_files/80010.got.cif
#   From: 2010.05.17/outbox.cif.g08.bks.cpg/sg14_41_cif.got.tgz:80010.got - 2010.06.03 17:49:19.
