data_PCOD9251861
_publ_section_title
;
Structure prediction by ZEFSAII (Michael W. Deem and Ramdas Pophale) SiO2 
 PCOD9251861
Probable space group: P 21/C
;
_chemical_formula_sum "Si O2"
_cell_formula_units_Z 32
_cell_length_a 14.535815
_cell_length_b 21.303145
_cell_length_c 7.971908
_cell_angle_alpha 90.000000
_cell_angle_beta 145.317948
_cell_angle_gamma 90.000000
_cell_volume 1404.670345
_symmetry_space_group_name_H-M "P 21/C"
_symmetry_group_IT_number 14
_symmetry_cell_setting 'monoclinic'
loop_
_space_group_symop_operation_xyz
x,y,z
-x,1/2+y,1/2-z
-x,-y,-z
x,1/2-y,1/2+z
loop_
_atom_site_type_symbol
_atom_site_label
_atom_site_fract_x
_atom_site_fract_y
_atom_site_fract_z
Si Si1 0.764066 0.218097 0.427836
Si Si2 0.694625 0.728220 0.978564
Si Si3 0.590242 0.415083 0.664087
Si Si4 0.824147 0.520586 0.175051
Si Si5 0.485054 0.443736 0.112782
Si Si6 0.758271 0.620537 0.810854
Si Si7 0.997343 0.205792 0.503365
Si Si8 0.502634 0.314737 0.998749
O O1 0.662899 0.154575 0.304589
O O2 0.922311 0.193481 0.570259
O O3 0.842430 0.267921 0.673611
O O4 0.639901 0.266015 0.152386
O O5 0.697256 0.680823 0.827429
O O6 0.638692 0.798071 0.842438
O O7 0.575227 0.704279 0.940126
O O8 0.877522 0.736509 0.308472
O O9 0.561541 0.433730 0.420215
O O10 0.412541 0.413877 0.486162
O O11 0.712407 0.464104 0.933907
O O12 0.000000 0.500000 0.500000
O O13 0.707295 0.555384 0.134451
O O14 0.845710 0.571194 0.062145
O O15 0.500000 0.500000 0.000000
O O16 0.549480 0.385328 0.099934
O O17 0.902132 0.647276 0.912948
#
# Coordination Sequence:
#
# PCOD9251861 Si02
#       8
#     4   4   4   4   4   4   4   4
#     4  12  25  41  68 105 143 179 234 300 364 414
#     4  12  21  41  67  97 132 183 229 282 349 424
#     4  11  24  49  72  98 141 194 245 291 357 440
#     4  11  27  46  74 102 140 190 242 308 359 420
#     4  11  25  46  70 103 142 190 244 290 357 442
#     4  11  22  45  68  94 140 185 240 277 358 429
#     4  12  25  39  64 104 141 176 224 300 361 415
#     4  12  23  43  69  99 138 184 236 285 349 440
#
# _framework density 22.781147000000001
#
# number of rings (size 3 to 8) (size 9 to 14) (size 15 to 20)
#    0.000    0.500    6.250    3.000    1.750    7.000 
#    0.000    1.250    0.000    0.000    0.000    0.000 
#    0.000    0.000    0.000    0.000    0.000    0.000 
#
# Total GULP energy -178364.949756 kJ/mol
# GULP energy per Si atom -5573.904680 kJ/mol
# Density = 2.272930 g / cm^3
# Si number density = 22.781147 Si / 1000 Ang^3
#
#
#
# Elastic Constant Matrix: (Units=GPa)
#
#
# Indices 1 2 3 4 5 6 
#
# 1 64.4752 7.1481 11.1341 0.0000 24.9878 0.0000
# 2 7.1481 120.0185 22.9714 0.0000 6.8351 0.0000
# 3 11.1341 22.9714 122.5166 0.0000 9.8329 0.0000
# 4 0.0000 0.0000 0.0000 -99.1938 0.0000 -57.0567
# 5 24.9878 6.8351 9.8329 0.0000 27.7941 0.0000
# 6 0.0000 0.0000 0.0000 -57.0567 0.0000 4.7873
#
#
#
# Elastic Compliance Matrix: (Units=1/GPa)
#
#
# Indices 1 2 3 4 5 6 
#
# 1 0.023831 -0.000126 -0.000437 0.000000 -0.021239 0.000000
# 2 -0.000126 0.008712 -0.001502 0.000000 -0.001498 0.000000
# 3 -0.000437 -0.001502 0.008668 0.000000 -0.002304 0.000000
# 4 0.000000 0.000000 0.000000 -0.001283 0.000000 -0.015295
# 5 -0.021239 -0.001498 -0.002304 0.000000 0.056257 0.000000
# 6 0.000000 0.000000 0.000000 -0.015295 0.000000 0.026591
#
#
# Mechanical properties :
#
#
# Convention : Reuss Voigt Hill
#
# Bulk Modulus (GPa) = 26.96829 43.27974 35.12402
# Shear Modulus (GPa) = 35.90237 4.39464 20.14850
#
# Velocity S-wave (km/s) = 3.97415 1.39042 2.97718
# Velocity P-wave (km/s) = 5.73779 4.64941 5.22203
#
# Compressibility (1/GPa) = 0.03708058
#
# Stress axis : x y z
#
# Youngs Moduli (GPa) = 41.96287 114.78004 115.36119
#
# Poissons Ratio (x) = 0.01446 0.05047
# Poissons Ratio (y) = 0.00529 0.17326
# Poissons Ratio (z) = 0.01836 0.17238
#
# Static dielectric constant tensor:
#      x y z
#    x 1.892860 0.000000 -0.091740 
#    y 0.000000 1.828200 0.000000 
#    z -0.091740 0.000000 1.895250 
# 
# From -- ./inp_files/17019.got.cif
#   From: 2010.05.17/outbox.cif.g08.bks.cpg/sg14_9_cif.got.tgz:17019.got - 2010.06.03 17:49:19.
