data_PCOD9251586
_publ_section_title
;
Structure prediction by ZEFSAII (Michael W. Deem and Ramdas Pophale) SiO2 
 PCOD9251586
Probable space group: P 21/C
;
_chemical_formula_sum "Si O2"
_cell_formula_units_Z 16
_cell_length_a 5.081036
_cell_length_b 9.079134
_cell_length_c 13.770374
_cell_angle_alpha 90.000000
_cell_angle_beta 69.021599
_cell_angle_gamma 90.000000
_cell_volume 593.139684
_symmetry_space_group_name_H-M "P 21/C"
_symmetry_group_IT_number 14
_symmetry_cell_setting 'monoclinic'
loop_
_space_group_symop_operation_xyz
x,y,z
-x,1/2+y,1/2-z
-x,-y,-z
x,1/2-y,1/2+z
loop_
_atom_site_type_symbol
_atom_site_label
_atom_site_fract_x
_atom_site_fract_y
_atom_site_fract_z
Si Si1 0.182235 0.219767 0.472351
Si Si2 0.826366 0.927074 0.865012
Si Si3 0.567995 0.177929 0.586788
Si Si4 0.694029 0.287856 0.276240
O O1 0.160669 0.381671 0.523843
O O2 0.321429 0.131774 0.545947
O O3 0.409748 0.222838 0.358830
O O4 0.867801 0.169937 0.494803
O O5 0.531692 0.846253 0.876662
O O6 0.074712 0.834825 0.780325
O O7 0.821503 0.094867 0.835367
O O8 0.617407 0.120558 0.688445
#
# Coordination Sequence:
#
# PCOD9251586 Si02
#       4
#     4   4   4   4
#     4   9  21  40  63  95 119 169 214 254 305 375
#     4   9  23  40  65  98 124 164 219 250 319 374
#     4   9  22  38  59 100 119 158 217 253 309 370
#     4  11  21  43  68  91 133 164 206 272 308 368
#
# _framework density 26.975096000000001
#
# number of rings (size 3 to 8) (size 9 to 14) (size 15 to 20)
#    1.500    1.000    0.000    0.750    3.500    5.000 
#    0.000    6.250    0.000    0.000    0.000    0.000 
#    0.000    0.000    0.000    0.000    0.000    0.000 
#
# Total GULP energy -89447.398576 kJ/mol
# GULP energy per Si atom -5590.462411 kJ/mol
# Density = 2.691370 g / cm^3
# Si number density = 26.975096 Si / 1000 Ang^3
#
#
#
# Elastic Constant Matrix: (Units=GPa)
#
#
# Indices 1 2 3 4 5 6 
#
# 1 161.2603 48.3073 51.0758 0.0000 -39.6806 0.0000
# 2 48.3073 129.0298 47.0609 0.0000 -28.5635 0.0000
# 3 51.0758 47.0609 160.1509 0.0000 -54.2935 0.0000
# 4 0.0000 0.0000 0.0000 22.3240 0.0000 6.4200
# 5 -39.6806 -28.5635 -54.2935 0.0000 72.8186 0.0000
# 6 0.0000 0.0000 0.0000 6.4200 0.0000 29.5444
#
#
#
# Elastic Compliance Matrix: (Units=1/GPa)
#
#
# Indices 1 2 3 4 5 6 
#
# 1 0.007768 -0.001945 -0.000976 0.000000 0.002742 0.000000
# 2 -0.001945 0.009393 -0.001673 0.000000 0.001377 0.000000
# 3 -0.000976 -0.001673 0.008892 0.000000 0.005442 0.000000
# 4 0.000000 0.000000 0.000000 0.047781 0.000000 -0.010383
# 5 0.002742 0.001377 0.005442 0.000000 0.019824 0.000000
# 6 0.000000 0.000000 0.000000 -0.010383 0.000000 0.036104
#
#
# Mechanical properties :
#
#
# Convention : Reuss Voigt Hill
#
# Bulk Modulus (GPa) = 59.29646 82.59211 70.94428
# Shear Modulus (GPa) = 34.58492 45.20386 39.89439
#
# Velocity S-wave (km/s) = 3.58453 4.09805 3.84986
# Velocity P-wave (km/s) = 6.25791 7.28535 6.79109
#
# Compressibility (1/GPa) = 0.01686441
#
# Stress axis : x y z
#
# Youngs Moduli (GPa) = 128.73784 106.45687 112.46289
#
# Poissons Ratio (x) = 0.20707 0.10978
# Poissons Ratio (y) = 0.25041 0.18816
# Poissons Ratio (z) = 0.12567 0.17811
#
# Static dielectric constant tensor:
#      x y z
#    x 2.094900 0.000000 0.069010 
#    y 0.000000 2.168950 0.000000 
#    z 0.069010 0.000000 2.087720 
# 
# From -- ./inp_files/36695.got.cif
#   From: 2010.05.17/outbox.cif.g08.bks.cpg/sg14_19_cif.got.tgz:36695.got - 2010.06.03 17:49:19.
