data_PCOD9251883
_publ_section_title
;
Structure prediction by ZEFSAII (Michael W. Deem and Ramdas Pophale) SiO2 
 PCOD9251883
Probable space group: P 21/C
;
_chemical_formula_sum "Si O2"
_cell_formula_units_Z 20
_cell_length_a 9.141933
_cell_length_b 7.599926
_cell_length_c 16.550351
_cell_angle_alpha 90.000000
_cell_angle_beta 41.217738
_cell_angle_gamma 90.000000
_cell_volume 757.685290
_symmetry_space_group_name_H-M "P 21/C"
_symmetry_group_IT_number 14
_symmetry_cell_setting 'monoclinic'
loop_
_space_group_symop_operation_xyz
x,y,z
-x,1/2+y,1/2-z
-x,-y,-z
x,1/2-y,1/2+z
loop_
_atom_site_type_symbol
_atom_site_label
_atom_site_fract_x
_atom_site_fract_y
_atom_site_fract_z
Si Si1 0.257411 0.704516 0.595448
Si Si2 0.758291 0.914024 0.592381
Si Si3 0.902143 0.558287 0.454954
Si Si4 0.794732 0.882249 0.761135
Si Si5 0.347504 0.487680 0.164877
O O1 0.280493 0.570599 0.509905
O O2 0.220541 0.561938 0.683091
O O3 0.390129 0.859263 0.583621
O O4 0.050850 0.823191 0.650111
O O5 0.796717 0.744993 0.519664
O O6 0.699232 0.881161 0.710585
O O7 0.556913 0.020363 0.637422
O O8 0.000000 0.000000 0.500000
O O9 0.000000 0.500000 0.500000
O O10 0.118365 0.549314 0.306156
O O11 0.696440 0.710780 0.845963
#
# Coordination Sequence:
#
# PCOD9251883 Si02
#       5
#     4   4   4   4   4
#     4  11  22  45  78 104 148 197 246 306 374 438
#     4  12  28  46  74 114 149 191 254 312 368 453
#     4  11  23  44  75 109 144 187 254 307 365 441
#     4  11  23  44  76 105 147 197 244 303 370 443
#     4  11  26  48  76 104 152 201 239 303 386 430
#
# _framework density 26.396184999999999
#
# number of rings (size 3 to 8) (size 9 to 14) (size 15 to 20)
#    0.000    0.800    8.000    1.200    5.600    0.800 
#    0.000    4.000    0.000    0.000    0.000    0.000 
#    0.000    0.000    0.000    0.000    0.000    0.000 
#
# Total GULP energy -111890.339683 kJ/mol
# GULP energy per Si atom -5594.516984 kJ/mol
# Density = 2.633611 g / cm^3
# Si number density = 26.396185 Si / 1000 Ang^3
#
#
#
# Elastic Constant Matrix: (Units=GPa)
#
#
# Indices 1 2 3 4 5 6 
#
# 1 147.1172 47.6824 6.6398 0.0000 -3.0882 0.0000
# 2 47.6824 192.7399 23.0015 0.0000 14.7562 0.0000
# 3 6.6398 23.0015 98.5418 0.0000 13.7379 0.0000
# 4 0.0000 0.0000 0.0000 49.0888 0.0000 -39.4055
# 5 -3.0882 14.7562 13.7379 0.0000 25.3135 0.0000
# 6 0.0000 0.0000 0.0000 -39.4055 0.0000 224.6277
#
#
#
# Elastic Compliance Matrix: (Units=1/GPa)
#
#
# Indices 1 2 3 4 5 6 
#
# 1 0.007505 -0.001988 -0.000358 0.000000 0.002269 0.000000
# 2 -0.001988 0.006031 -0.000811 0.000000 -0.003318 0.000000
# 3 -0.000358 -0.000811 0.011145 0.000000 -0.005619 0.000000
# 4 0.000000 0.000000 0.000000 0.023710 0.000000 0.004159
# 5 0.002269 -0.003318 -0.005619 0.000000 0.044765 0.000000
# 6 0.000000 0.000000 0.000000 0.004159 0.000000 0.005181
#
#
# Mechanical properties :
#
#
# Convention : Reuss Voigt Hill
#
# Bulk Modulus (GPa) = 54.44512 65.89403 60.16957
# Shear Modulus (GPa) = 45.13688 83.87767 64.50728
#
# Velocity S-wave (km/s) = 4.13967 5.64317 4.94885
# Velocity P-wave (km/s) = 6.59698 8.21451 7.44978
#
# Compressibility (1/GPa) = 0.01836712
#
# Stress axis : x y z
#
# Youngs Moduli (GPa) = 133.23860 165.81217 89.72758
#
# Poissons Ratio (x) = 0.32959 0.03212
# Poissons Ratio (y) = 0.26484 0.07279
# Poissons Ratio (z) = 0.04770 0.13451
#
# Static dielectric constant tensor:
#      x y z
#    x 2.143720 0.000000 -0.108130 
#    y 0.000000 2.012980 0.000000 
#    z -0.108130 0.000000 2.305330 
# 
# From -- ./inp_files/54406.got.cif
#   From: 2010.05.17/outbox.cif.g08.bks.cpg/sg14_28_cif.got.tgz:54406.got - 2010.06.03 17:49:19.
