data_PCOD9251401
_publ_section_title
;
Structure prediction by ZEFSAII (Michael W. Deem and Ramdas Pophale) SiO2 
 PCOD9251401
Probable space group: P 21/C
;
_chemical_formula_sum "Si O2"
_cell_formula_units_Z 28
_cell_length_a 20.508702
_cell_length_b 7.943193
_cell_length_c 11.827384
_cell_angle_alpha 90.000000
_cell_angle_beta 146.093448
_cell_angle_gamma 90.000000
_cell_volume 1074.809893
_symmetry_space_group_name_H-M "P 21/C"
_symmetry_group_IT_number 14
_symmetry_cell_setting 'monoclinic'
loop_
_space_group_symop_operation_xyz
x,y,z
-x,1/2+y,1/2-z
-x,-y,-z
x,1/2-y,1/2+z
loop_
_atom_site_type_symbol
_atom_site_label
_atom_site_fract_x
_atom_site_fract_y
_atom_site_fract_z
Si Si1 0.558791 0.232565 0.806333
Si Si2 0.107468 0.647456 0.223204
Si Si3 0.707384 0.101966 0.834377
Si Si4 0.126930 0.067927 0.524874
Si Si5 0.109491 0.494065 0.739877
Si Si6 0.629414 0.043732 0.133849
Si Si7 0.330312 0.420323 0.956685
O O1 0.596193 0.111257 0.756306
O O2 0.420006 0.232104 0.597487
O O3 0.601911 0.130791 0.976238
O O4 0.605862 0.422805 0.885985
O O5 0.181214 0.554915 0.427376
O O6 0.109942 0.567380 0.102787
O O7 0.168747 0.825941 0.301201
O O8 0.977834 0.688181 0.083494
O O9 0.703903 0.301197 0.797606
O O10 0.694180 0.989248 0.704781
O O11 0.087479 0.026306 0.340347
O O12 0.266955 0.096401 0.718481
O O13 0.209505 0.368270 0.842243
O O14 0.000000 0.500000 0.500000
O O15 0.500000 0.000000 0.000000
#
# Coordination Sequence:
#
# PCOD9251401 Si02
#       7
#     4   4   4   4   4   4   4
#     4  11  21  40  65  98 135 178 224 269 343 394
#     4  11  23  43  69  96 130 180 224 279 339 403
#     4  11  20  41  67  94 132 175 221 271 342 395
#     4  11  23  41  69  97 132 174 226 274 337 403
#     4  12  25  44  69  98 133 179 228 281 345 402
#     4  11  21  38  67  94 132 177 217 268 332 404
#     4  11  24  41  70  98 136 180 225 281 335 410
#
# _framework density 26.051117999999999
#
# number of rings (size 3 to 8) (size 9 to 14) (size 15 to 20)
#    0.000    0.857    4.286    3.857    2.000    0.000 
#    5.143    0.000    6.286    0.000    0.000    0.000 
#    0.000    0.000    0.000    0.000    0.000    0.000 
#
# Total GULP energy -156325.788808 kJ/mol
# GULP energy per Si atom -5583.063886 kJ/mol
# Density = 2.599182 g / cm^3
# Si number density = 26.051118 Si / 1000 Ang^3
#
#
#
# Elastic Constant Matrix: (Units=GPa)
#
#
# Indices 1 2 3 4 5 6 
#
# 1 146.7654 13.7319 77.5103 0.0000 -6.4439 0.0000
# 2 13.7319 48.8719 26.6126 0.0000 -5.0016 0.0000
# 3 77.5103 26.6126 196.7629 0.0000 -4.8292 0.0000
# 4 0.0000 0.0000 0.0000 34.8422 0.0000 -0.5544
# 5 -6.4439 -5.0016 -4.8292 0.0000 72.1957 0.0000
# 6 0.0000 0.0000 0.0000 -0.5544 0.0000 20.5387
#
#
#
# Elastic Compliance Matrix: (Units=1/GPa)
#
#
# Indices 1 2 3 4 5 6 
#
# 1 0.008639 -0.000571 -0.003314 0.000000 0.000510 0.000000
# 2 -0.000571 0.022255 -0.002753 0.000000 0.001307 0.000000
# 3 -0.003314 -0.002753 0.006759 0.000000 -0.000034 0.000000
# 4 0.000000 0.000000 0.000000 0.028713 0.000000 0.000775
# 5 0.000510 0.001307 -0.000034 0.000000 0.013985 0.000000
# 6 0.000000 0.000000 0.000000 0.000775 0.000000 0.048709
#
#
# Mechanical properties :
#
#
# Convention : Reuss Voigt Hill
#
# Bulk Modulus (GPa) = 41.02004 69.78998 55.40501
# Shear Modulus (GPa) = 33.23098 43.81838 38.52468
#
# Velocity S-wave (km/s) = 3.57544 4.10569 3.84970
# Velocity P-wave (km/s) = 5.72933 7.02306 6.40892
#
# Compressibility (1/GPa) = 0.02437833
#
# Stress axis : x y z
#
# Youngs Moduli (GPa) = 115.74931 44.93381 147.94940
#
# Poissons Ratio (x) = 0.02565 0.49024
# Poissons Ratio (y) = 0.06608 0.40731
# Poissons Ratio (z) = 0.38354 0.12371
#
# Static dielectric constant tensor:
#      x y z
#    x 2.165890 0.000000 0.027210 
#    y 0.000000 2.137120 0.000000 
#    z 0.027210 0.000000 2.141370 
# 
# From -- ./inp_files/35197.got.cif
#   From: 2010.05.17/outbox.cif.g08.bks.cpg/sg14_18_cif.got.tgz:35197.got - 2010.06.03 17:49:19.
