data_PCOD9251364
_publ_section_title
;
Structure prediction by ZEFSAII (Michael W. Deem and Ramdas Pophale) SiO2 
 PCOD9251364
Probable space group: P 21/C
;
_chemical_formula_sum "Si O2"
_cell_formula_units_Z 28
_cell_length_a 15.216136
_cell_length_b 12.470474
_cell_length_c 11.512223
_cell_angle_alpha 90.000000
_cell_angle_beta 138.909661
_cell_angle_gamma 90.000000
_cell_volume 1435.740409
_symmetry_space_group_name_H-M "P 21/C"
_symmetry_group_IT_number 14
_symmetry_cell_setting 'monoclinic'
loop_
_space_group_symop_operation_xyz
x,y,z
-x,1/2+y,1/2-z
-x,-y,-z
x,1/2-y,1/2+z
loop_
_atom_site_type_symbol
_atom_site_label
_atom_site_fract_x
_atom_site_fract_y
_atom_site_fract_z
Si Si1 0.060128 0.052490 0.175965
Si Si2 0.640582 0.022363 0.487607
Si Si3 0.823654 0.945204 0.060521
Si Si4 0.110401 0.924030 0.668025
Si Si5 0.010520 0.244664 0.272106
Si Si6 0.379006 0.906534 0.274445
Si Si7 0.257007 0.676187 0.095499
O O1 0.032410 0.176674 0.175117
O O2 0.214593 0.029964 0.348493
O O3 0.968542 0.996213 0.179957
O O4 0.000000 0.000000 0.000000
O O5 0.614251 0.090303 0.578990
O O6 0.647956 0.095827 0.380863
O O7 0.523802 0.934760 0.367917
O O8 0.859364 0.820087 0.083187
O O9 0.797790 0.998222 0.159871
O O10 0.719277 0.997675 0.867445
O O11 0.029776 0.832802 0.661110
O O12 0.203513 0.869505 0.663875
O O13 0.000000 0.000000 0.500000
O O14 0.874706 0.309504 0.114896
O O15 0.320987 0.793375 0.175665
#
# Coordination Sequence:
#
# PCOD9251364 Si02
#       7
#     4   4   4   4   4   4   4
#     4  11  20  37  64  95 120 161 218 266 312 379
#     4  11  24  43  64  92 129 170 217 271 319 394
#     4  11  22  39  62 100 128 161 214 270 318 386
#     4  11  22  38  61 102 131 162 217 273 321 380
#     4  11  22  35  66  95 128 167 211 269 331 375
#     4  11  25  42  65  93 131 170 222 263 325 405
#     4  12  21  40  69  91 126 178 212 263 338 383
#
# _framework density 19.502132
#
# number of rings (size 3 to 8) (size 9 to 14) (size 15 to 20)
#    0.000    0.857    7.143    1.714    2.000    1.143 
#    0.000    0.714    3.143    0.000    0.000    0.000 
#    0.000    0.000    0.000    0.000    0.000    0.000 
#
# Total GULP energy -156101.249484 kJ/mol
# GULP energy per Si atom -5575.044624 kJ/mol
# Density = 1.945774 g / cm^3
# Si number density = 19.502132 Si / 1000 Ang^3
#
#
#
# Elastic Constant Matrix: (Units=GPa)
#
#
# Indices 1 2 3 4 5 6 
#
# 1 100.1713 53.2556 37.1568 0.0000 -1.0898 0.0000
# 2 53.2556 85.7126 33.1324 0.0000 -4.0039 0.0000
# 3 37.1568 33.1324 65.6879 0.0000 6.5026 0.0000
# 4 0.0000 0.0000 0.0000 33.1784 0.0000 -2.8592
# 5 -1.0898 -4.0039 6.5026 0.0000 40.5867 0.0000
# 6 0.0000 0.0000 0.0000 -2.8592 0.0000 35.2500
#
#
#
# Elastic Compliance Matrix: (Units=1/GPa)
#
#
# Indices 1 2 3 4 5 6 
#
# 1 0.016166 -0.008037 -0.005137 0.000000 0.000464 0.000000
# 2 -0.008037 0.018773 -0.005166 0.000000 0.002464 0.000000
# 3 -0.005137 -0.005166 0.021134 0.000000 -0.004034 0.000000
# 4 0.000000 0.000000 0.000000 0.030352 0.000000 0.002462
# 5 0.000464 0.002464 -0.004034 0.000000 0.025540 0.000000
# 6 0.000000 0.000000 0.000000 0.002462 0.000000 0.028569
#
#
# Mechanical properties :
#
#
# Convention : Reuss Voigt Hill
#
# Bulk Modulus (GPa) = 51.56555 55.40683 53.48619
# Shear Modulus (GPa) = 27.22134 30.33814 28.77974
#
# Velocity S-wave (km/s) = 3.74011 3.94843 3.84568
# Velocity P-wave (km/s) = 6.71935 7.01848 6.87054
#
# Compressibility (1/GPa) = 0.01939279
#
# Stress axis : x y z
#
# Youngs Moduli (GPa) = 61.85715 53.26827 47.31662
#
# Poissons Ratio (x) = 0.42813 0.24304
# Poissons Ratio (y) = 0.49717 0.24446
# Poissons Ratio (z) = 0.31773 0.27521
#
# Static dielectric constant tensor:
#      x y z
#    x 1.876270 0.000000 -0.119090 
#    y 0.000000 1.796030 0.000000 
#    z -0.119090 0.000000 1.723180 
# 
# From -- ./inp_files/32605.got.cif
#   From: 2010.05.17/outbox.cif.g08.bks.cpg/sg14_17_cif.got.tgz:32605.got - 2010.06.03 17:49:19.
