data_PCOD9251136
_publ_section_title
;
Structure prediction by ZEFSAII (Michael W. Deem and Ramdas Pophale) SiO2 
 PCOD9251136
Probable space group: P 21/C
;
_chemical_formula_sum "Si O2"
_cell_formula_units_Z 20
_cell_length_a 5.916007
_cell_length_b 19.193441
_cell_length_c 8.098675
_cell_angle_alpha 90.000000
_cell_angle_beta 127.161421
_cell_angle_gamma 90.000000
_cell_volume 732.857255
_symmetry_space_group_name_H-M "P 21/C"
_symmetry_group_IT_number 14
_symmetry_cell_setting 'monoclinic'
loop_
_space_group_symop_operation_xyz
x,y,z
-x,1/2+y,1/2-z
-x,-y,-z
x,1/2-y,1/2+z
loop_
_atom_site_type_symbol
_atom_site_label
_atom_site_fract_x
_atom_site_fract_y
_atom_site_fract_z
Si Si1 0.809923 0.323723 0.917743
Si Si2 0.374130 0.407658 0.522024
Si Si3 0.514491 0.037209 0.751807
Si Si4 0.076534 0.830499 0.042678
Si Si5 0.315652 0.137591 0.440477
O O1 0.664502 0.371643 0.710926
O O2 0.628862 0.344177 0.002336
O O3 0.147405 0.331659 0.027642
O O4 0.762084 0.241532 0.875833
O O5 0.333226 0.464158 0.651430
O O6 0.332400 0.452509 0.338703
O O7 0.157135 0.344116 0.420359
O O8 0.339376 0.056887 0.512303
O O9 0.724732 0.102352 0.863795
O O10 0.882650 0.835122 0.794075
#
# Coordination Sequence:
#
# PCOD9251136 Si02
#       5
#     4   4   4   4   4
#     4  11  27  47  74 107 156 191 253 305 375 444
#     4  10  25  51  74 112 150 201 251 306 382 444
#     4  11  25  47  79 107 152 198 251 314 370 450
#     4  11  26  46  73 105 152 196 251 308 376 446
#     4  11  28  46  74 111 144 197 246 307 370 441
#
# _framework density 27.290441999999999
#
# number of rings (size 3 to 8) (size 9 to 14) (size 15 to 20)
#    0.000    1.200    2.000    0.600   14.000    4.000 
#    0.000    0.000    0.000    0.000    0.000    0.000 
#    0.000    0.000    0.000    0.000    0.000    0.000 
#
# Total GULP energy -111503.570105 kJ/mol
# GULP energy per Si atom -5575.178505 kJ/mol
# Density = 2.722833 g / cm^3
# Si number density = 27.290442 Si / 1000 Ang^3
#
#
#
# Elastic Constant Matrix: (Units=GPa)
#
#
# Indices 1 2 3 4 5 6 
#
# 1 166.6287 20.6906 30.0337 0.0000 -8.3204 0.0000
# 2 20.6906 126.7068 8.9094 0.0000 4.2500 0.0000
# 3 30.0337 8.9094 103.9205 0.0000 -18.3111 0.0000
# 4 0.0000 0.0000 0.0000 33.1219 0.0000 12.3713
# 5 -8.3204 4.2500 -18.3111 0.0000 41.5796 0.0000
# 6 0.0000 0.0000 0.0000 12.3713 0.0000 49.5953
#
#
#
# Elastic Compliance Matrix: (Units=1/GPa)
#
#
# Indices 1 2 3 4 5 6 
#
# 1 0.006454 -0.000959 -0.001668 0.000000 0.000655 0.000000
# 2 -0.000959 0.008139 -0.000652 0.000000 -0.001311 0.000000
# 3 -0.001668 -0.000652 0.010964 0.000000 0.004561 0.000000
# 4 0.000000 0.000000 0.000000 0.033293 0.000000 -0.008305
# 5 0.000655 -0.001311 0.004561 0.000000 0.026324 0.000000
# 6 0.000000 0.000000 0.000000 -0.008305 0.000000 0.022235
#
#
# Mechanical properties :
#
#
# Convention : Reuss Voigt Hill
#
# Bulk Modulus (GPa) = 52.62893 57.39148 55.01021
# Shear Modulus (GPa) = 41.56345 47.36753 44.46549
#
# Velocity S-wave (km/s) = 3.90680 4.17067 4.04089
# Velocity P-wave (km/s) = 6.29900 6.65344 6.47864
#
# Compressibility (1/GPa) = 0.01900096
#
# Stress axis : x y z
#
# Youngs Moduli (GPa) = 154.95066 122.87206 91.20526
#
# Poissons Ratio (x) = 0.11778 0.15209
# Poissons Ratio (y) = 0.14853 0.05943
# Poissons Ratio (z) = 0.25839 0.08007
#
# Static dielectric constant tensor:
#      x y z
#    x 2.314300 0.000000 -0.046650 
#    y 0.000000 2.075210 0.000000 
#    z -0.046650 0.000000 2.225980 
# 
# From -- ./inp_files/6067.got.cif
#   From: 2010.05.17/outbox.cif.g08.bks.cpg/sg14_4_cif.got.tgz:6067.got - 2010.06.03 17:49:19.
