data_PCOD9251062
_publ_section_title
;
Structure prediction by ZEFSAII (Michael W. Deem and Ramdas Pophale) SiO2 
 PCOD9251062
Probable space group: P 21/C
;
_chemical_formula_sum "Si O2"
_cell_formula_units_Z 20
_cell_length_a 11.133803
_cell_length_b 11.260510
_cell_length_c 12.003496
_cell_angle_alpha 90.000000
_cell_angle_beta 144.607541
_cell_angle_gamma 90.000000
_cell_volume 871.602196
_symmetry_space_group_name_H-M "P 21/C"
_symmetry_group_IT_number 14
_symmetry_cell_setting 'monoclinic'
loop_
_space_group_symop_operation_xyz
x,y,z
-x,1/2+y,1/2-z
-x,-y,-z
x,1/2-y,1/2+z
loop_
_atom_site_type_symbol
_atom_site_label
_atom_site_fract_x
_atom_site_fract_y
_atom_site_fract_z
Si Si1 0.940386 0.893476 0.875115
Si Si2 0.037742 0.591605 0.773409
Si Si3 0.720985 0.517645 0.727835
Si Si4 0.699471 0.296241 0.860278
Si Si5 0.254502 0.256179 0.099860
O O1 0.757011 0.820298 0.793540
O O2 0.908336 0.963547 0.737474
O O3 0.142181 0.811775 0.023012
O O4 0.000000 0.000000 0.000000
O O5 0.878677 0.564088 0.753557
O O6 0.928983 0.691737 0.611418
O O7 0.247088 0.643259 0.981749
O O8 0.500000 0.500000 0.500000
O O9 0.760777 0.388192 0.810081
O O10 0.735985 0.610516 0.842730
O O11 0.460156 0.262865 0.682516
#
# Coordination Sequence:
#
# PCOD9251062 Si02
#       5
#     4   4   4   4   4
#     4  10  25  46  70 106 144 184 241 299 358 432
#     4  11  25  48  72 105 148 186 246 303 359 434
#     4  12  25  47  75 106 146 192 245 295 362 436
#     4  12  26  45  76 104 141 196 238 299 365 429
#     4  11  26  47  71 107 145 187 242 300 365 429
#
# _framework density 22.946247
#
# number of rings (size 3 to 8) (size 9 to 14) (size 15 to 20)
#    0.000    0.800    4.000    1.800    5.600    5.600 
#    0.000    0.000    0.000    0.000    0.000    0.000 
#    0.000    0.000    0.000    0.000    0.000    0.000 
#
# Total GULP energy -111695.114223 kJ/mol
# GULP energy per Si atom -5584.755711 kJ/mol
# Density = 2.289402 g / cm^3
# Si number density = 22.946247 Si / 1000 Ang^3
#
#
#
# Elastic Constant Matrix: (Units=GPa)
#
#
# Indices 1 2 3 4 5 6 
#
# 1 65.7182 -1.0232 -17.8369 0.0000 -7.7968 0.0000
# 2 -1.0232 100.1576 -8.3254 0.0000 -15.5337 0.0000
# 3 -17.8369 -8.3254 62.4834 0.0000 -13.1616 0.0000
# 4 0.0000 0.0000 0.0000 25.9031 0.0000 -23.7422
# 5 -7.7968 -15.5337 -13.1616 0.0000 28.0024 0.0000
# 6 0.0000 0.0000 0.0000 -23.7422 0.0000 42.0000
#
#
#
# Elastic Compliance Matrix: (Units=1/GPa)
#
#
# Indices 1 2 3 4 5 6 
#
# 1 0.018564 0.002409 0.007759 0.000000 0.010152 0.000000
# 2 0.002409 0.011780 0.004190 0.000000 0.009175 0.000000
# 3 0.007759 0.004190 0.021889 0.000000 0.014773 0.000000
# 4 0.000000 0.000000 0.000000 0.080117 0.000000 0.045289
# 5 0.010152 0.009175 0.014773 0.000000 0.050571 0.000000
# 6 0.000000 0.000000 0.000000 0.045289 0.000000 0.049411
#
#
# Mechanical properties :
#
#
# Convention : Reuss Voigt Hill
#
# Bulk Modulus (GPa) = 12.35337 19.33203 15.84270
# Shear Modulus (GPa) = 21.68262 36.21741 28.95002
#
# Velocity S-wave (km/s) = 3.07731 3.97717 3.55582
# Velocity P-wave (km/s) = 4.24520 5.43449 4.87624
#
# Compressibility (1/GPa) = 0.08094956
#
# Stress axis : x y z
#
# Youngs Moduli (GPa) = 53.86678 84.88891 45.68458
#
# Poissons Ratio (x) = -0.20451 -0.35446
# Poissons Ratio (y) = -0.12977 -0.19141
# Poissons Ratio (z) = -0.41795 -0.35568
#
# Static dielectric constant tensor:
#      x y z
#    x 1.872500 0.000000 -0.094070 
#    y 0.000000 1.900630 0.000000 
#    z -0.094070 0.000000 1.903410 
# 
# From -- ./inp_files/29258.got.cif
#   From: 2010.05.17/outbox.cif.g08.bks.cpg/sg14_15_cif.got.tgz:29258.got - 2010.06.03 17:49:19.
