data_PCOD9251928
_publ_section_title
;
Structure prediction by ZEFSAII (Michael W. Deem and Ramdas Pophale) SiO2 
 PCOD9251928
Probable space group: P 21/C
;
_chemical_formula_sum "Si O2"
_cell_formula_units_Z 32
_cell_length_a 14.651102
_cell_length_b 9.211364
_cell_length_c 16.107226
_cell_angle_alpha 90.000000
_cell_angle_beta 40.045892
_cell_angle_gamma 90.000000
_cell_volume 1398.610248
_symmetry_space_group_name_H-M "P 21/C"
_symmetry_group_IT_number 14
_symmetry_cell_setting 'monoclinic'
loop_
_space_group_symop_operation_xyz
x,y,z
-x,1/2+y,1/2-z
-x,-y,-z
x,1/2-y,1/2+z
loop_
_atom_site_type_symbol
_atom_site_label
_atom_site_fract_x
_atom_site_fract_y
_atom_site_fract_z
Si Si1 0.572897 0.923098 0.276915
Si Si2 0.065767 0.079537 0.124194
Si Si3 0.654515 0.914901 0.977825
Si Si4 0.654514 0.914899 0.477826
Si Si5 0.934232 0.920463 0.375808
Si Si6 0.845666 0.580367 0.177694
Si Si7 0.845666 0.580368 0.677694
Si Si8 0.427104 0.423096 0.723084
O O1 0.733368 0.969495 0.186719
O O2 0.573558 0.750001 0.267164
O O3 0.469493 0.969929 0.424557
O O4 0.500001 0.000001 0.249999
O O5 0.233275 0.066652 0.024295
O O6 0.032659 0.250000 0.149550
O O7 0.999999 0.000001 0.250001
O O8 0.985904 0.009871 0.101618
O O9 0.597674 0.750002 0.021607
O O10 0.748496 0.925848 0.829377
O O11 0.530508 0.030074 0.075442
O O12 0.766724 0.933346 0.475707
O O13 0.748495 0.925845 0.329378
O O14 0.014096 0.990127 0.398383
O O15 0.881129 0.749999 0.138870
O O16 0.733367 0.530505 0.186719
#
# Coordination Sequence:
#
# PCOD9251928 Si02
#       8
#     4   4   4   4   4   4   4   4
#     4  11  23  37  53  75 105 141 178 216 260 309
#     4   9  17  30  52  81 109 135 167 211 260 308
#     4   9  18  34  55  80 107 133 168 214 260 309
#     4   9  18  34  55  80 107 133 168 214 260 309
#     4   9  17  30  52  81 109 135 167 211 260 308
#     4   9  19  35  55  80 107 135 172 217 260 306
#     4   9  19  35  55  80 107 135 172 217 260 306
#     4  11  23  37  53  75 105 141 178 216 260 309
#
# _framework density 22.879856
#
# number of rings (size 3 to 8) (size 9 to 14) (size 15 to 20)
#    0.000    2.500    0.000    3.750    0.000    7.000 
#    0.000    1.250    0.000    0.000    0.000    0.000 
#    0.000    0.000    0.000    0.000    0.000    0.000 
#
# Total GULP energy -178835.382121 kJ/mol
# GULP energy per Si atom -5588.605691 kJ/mol
# Density = 2.282778 g / cm^3
# Si number density = 22.879856 Si / 1000 Ang^3
#
#
#
# Elastic Constant Matrix: (Units=GPa)
#
#
# Indices 1 2 3 4 5 6 
#
# 1 167.2458 56.4121 18.9839 0.0000 -21.5780 0.0000
# 2 56.4121 79.0562 36.2906 0.0000 -34.5167 0.0000
# 3 18.9839 36.2906 65.2516 0.0000 -16.1217 0.0000
# 4 0.0000 0.0000 0.0000 26.8771 0.0000 -9.2643
# 5 -21.5780 -34.5167 -16.1217 0.0000 44.5702 0.0000
# 6 0.0000 0.0000 0.0000 -9.2643 0.0000 36.9275
#
#
#
# Elastic Compliance Matrix: (Units=1/GPa)
#
#
# Indices 1 2 3 4 5 6 
#
# 1 0.007955 -0.006549 0.001127 0.000000 -0.000813 0.000000
# 2 -0.006549 0.028762 -0.010291 0.000000 0.015381 0.000000
# 3 0.001127 -0.010291 0.020740 0.000000 0.000078 0.000000
# 4 0.000000 0.000000 0.000000 0.040728 0.000000 0.010218
# 5 -0.000813 0.015381 0.000078 0.000000 0.033983 0.000000
# 6 0.000000 0.000000 0.000000 0.010218 0.000000 0.029644
#
#
# Mechanical properties :
#
#
# Convention : Reuss Voigt Hill
#
# Bulk Modulus (GPa) = 38.41410 59.43631 48.92520
# Shear Modulus (GPa) = 24.76286 34.99942 29.88114
#
# Velocity S-wave (km/s) = 3.29340 3.91539 3.61779
# Velocity P-wave (km/s) = 5.59356 6.81721 6.23547
#
# Compressibility (1/GPa) = 0.02603211
#
# Stress axis : x y z
#
# Youngs Moduli (GPa) = 125.70089 34.76824 48.21579
#
# Poissons Ratio (x) = 0.22769 -0.05434
# Poissons Ratio (y) = 0.82319 0.49618
# Poissons Ratio (z) = -0.14166 0.35779
#
# Static dielectric constant tensor:
#      x y z
#    x 1.938320 0.000000 0.072040 
#    y 0.000000 1.752480 0.000000 
#    z 0.072040 0.000000 1.911760 
# 
# From -- ./inp_files/61132.got.cif
#   From: 2010.05.17/outbox.cif.g08.bks.cpg/sg14_31_cif.got.tgz:61132.got - 2010.06.03 17:49:19.
