data_PCOD9251159
_publ_section_title
;
Structure prediction by ZEFSAII (Michael W. Deem and Ramdas Pophale) SiO2 
 PCOD9251159
Probable space group: P 21/C
;
_chemical_formula_sum "Si O2"
_cell_formula_units_Z 28
_cell_length_a 6.692919
_cell_length_b 16.924783
_cell_length_c 13.470796
_cell_angle_alpha 90.000000
_cell_angle_beta 125.385338
_cell_angle_gamma 90.000000
_cell_volume 1244.046458
_symmetry_space_group_name_H-M "P 21/C"
_symmetry_group_IT_number 14
_symmetry_cell_setting 'monoclinic'
loop_
_space_group_symop_operation_xyz
x,y,z
-x,1/2+y,1/2-z
-x,-y,-z
x,1/2-y,1/2+z
loop_
_atom_site_type_symbol
_atom_site_label
_atom_site_fract_x
_atom_site_fract_y
_atom_site_fract_z
Si Si1 0.257832 0.455299 0.189891
Si Si2 0.202023 0.436609 0.414417
Si Si3 0.474738 0.754190 0.113829
Si Si4 0.010865 0.721228 0.207696
Si Si5 0.308382 0.852302 0.240533
Si Si6 0.144709 0.622091 0.062480
Si Si7 0.734617 0.112482 0.075824
O O1 0.249727 0.441436 0.306982
O O2 0.505957 0.425472 0.206565
O O3 0.215699 0.546471 0.149067
O O4 0.039094 0.407046 0.074779
O O5 0.182597 0.527958 0.441323
O O6 0.454194 0.402327 0.532396
O O7 0.955632 0.388918 0.367342
O O8 0.467523 0.790654 0.221131
O O9 0.378662 0.665391 0.083954
O O10 0.744943 0.755284 0.149348
O O11 0.296658 0.816296 0.009547
O O12 0.207662 0.789713 0.292441
O O13 0.032465 0.690396 0.101000
O O14 0.074635 0.644931 0.290399
#
# Coordination Sequence:
#
# PCOD9251159 Si02
#       7
#     4   4   4   4   4   4   4
#     4  11  23  46  65 101 134 174 228 275 327 413
#     4  11  24  46  65 102 136 177 220 282 337 399
#     4  11  25  44  64 104 130 177 227 272 332 407
#     4  11  24  45  65 102 136 176 222 278 338 397
#     4  11  24  42  68  99 135 176 224 273 340 396
#     4  10  26  43  69  94 137 179 224 274 335 394
#     4  11  24  44  71  93 140 174 219 279 336 396
#
# _framework density 22.507197000000001
#
# number of rings (size 3 to 8) (size 9 to 14) (size 15 to 20)
#    0.000    1.143    4.286    0.000    8.000    0.571 
#    2.571    2.857    0.000    0.000    0.000    0.000 
#    0.000    0.000    0.000    0.000    0.000    0.000 
#
# Total GULP energy -156159.506145 kJ/mol
# GULP energy per Si atom -5577.125219 kJ/mol
# Density = 2.245597 g / cm^3
# Si number density = 22.507197 Si / 1000 Ang^3
#
#
#
# Elastic Constant Matrix: (Units=GPa)
#
#
# Indices 1 2 3 4 5 6 
#
# 1 84.8485 41.2440 5.2372 0.0000 8.1862 0.0000
# 2 41.2440 108.5810 16.9979 0.0000 9.8291 0.0000
# 3 5.2372 16.9979 35.1502 0.0000 -0.6206 0.0000
# 4 0.0000 0.0000 0.0000 35.0641 0.0000 9.5315
# 5 8.1862 9.8291 -0.6206 0.0000 18.5174 0.0000
# 6 0.0000 0.0000 0.0000 9.5315 0.0000 35.9110
#
#
#
# Elastic Compliance Matrix: (Units=1/GPa)
#
#
# Indices 1 2 3 4 5 6 
#
# 1 0.014697 -0.005298 0.000307 0.000000 -0.003675 0.000000
# 2 -0.005298 0.012456 -0.005313 0.000000 -0.004448 0.000000
# 3 0.000307 -0.005313 0.031038 0.000000 0.003724 0.000000
# 4 0.000000 0.000000 0.000000 0.030737 0.000000 -0.008158
# 5 -0.003675 -0.004448 0.003724 0.000000 0.058114 0.000000
# 6 0.000000 0.000000 0.000000 -0.008158 0.000000 0.030012
#
#
# Mechanical properties :
#
#
# Convention : Reuss Voigt Hill
#
# Bulk Modulus (GPa) = 26.60654 39.50420 33.05537
# Shear Modulus (GPa) = 23.78815 28.90521 26.34668
#
# Velocity S-wave (km/s) = 3.25455 3.58755 3.42510
# Velocity P-wave (km/s) = 5.09606 5.89497 5.51001
#
# Compressibility (1/GPa) = 0.03758474
#
# Stress axis : x y z
#
# Youngs Moduli (GPa) = 68.04331 80.27986 32.21809
#
# Poissons Ratio (x) = 0.42531 -0.00990
# Poissons Ratio (y) = 0.36049 0.17117
# Poissons Ratio (z) = -0.02091 0.42651
#
# Static dielectric constant tensor:
#      x y z
#    x 1.860750 0.000000 -0.064120 
#    y 0.000000 1.882280 0.000000 
#    z -0.064120 0.000000 1.861420 
# 
# From -- ./inp_files/37920.got.cif
#   From: 2010.05.17/outbox.cif.g08.bks.cpg/sg14_19_cif.got.tgz:37920.got - 2010.06.03 17:49:19.
