data_PCOD9251464
_publ_section_title
;
Structure prediction by ZEFSAII (Michael W. Deem and Ramdas Pophale) SiO2 
 PCOD9251464
Probable space group: P 21/C
;
_chemical_formula_sum "Si O2"
_cell_formula_units_Z 24
_cell_length_a 15.739892
_cell_length_b 8.332561
_cell_length_c 9.944986
_cell_angle_alpha 90.000000
_cell_angle_beta 100.701244
_cell_angle_gamma 90.000000
_cell_volume 1281.637068
_symmetry_space_group_name_H-M "P 21/C"
_symmetry_group_IT_number 14
_symmetry_cell_setting 'monoclinic'
loop_
_space_group_symop_operation_xyz
x,y,z
-x,1/2+y,1/2-z
-x,-y,-z
x,1/2-y,1/2+z
loop_
_atom_site_type_symbol
_atom_site_label
_atom_site_fract_x
_atom_site_fract_y
_atom_site_fract_z
Si Si1 0.260652 0.372873 0.924873
Si Si2 0.463707 0.434329 0.351107
Si Si3 0.087356 0.049675 0.704253
Si Si4 0.565746 0.946576 0.634173
Si Si5 0.722544 0.566760 0.760745
Si Si6 0.072056 0.173263 0.406169
O O1 0.335612 0.479436 0.880493
O O2 0.268066 0.204494 0.849209
O O3 0.159968 0.418798 0.885488
O O4 0.281442 0.360135 0.089613
O O5 0.500000 0.500000 0.500000
O O6 0.445738 0.244642 0.351587
O O7 0.534289 0.469755 0.259351
O O8 0.370302 0.514132 0.290034
O O9 0.184835 0.979012 0.722568
O O10 0.076768 0.167072 0.570195
O O11 0.075917 0.154142 0.835684
O O12 0.013488 0.918050 0.665828
O O13 0.500000 0.000000 0.500000
#
# Coordination Sequence:
#
# PCOD9251464 Si02
#       6
#     4   4   4   4   4   4
#     4   9  18  32  55  77 105 142 182 216 263 324
#     4  11  23  36  57  82 110 145 186 224 272 321
#     4   9  18  34  56  78 107 137 177 219 265 316
#     4  11  21  38  57  80 110 146 182 227 270 323
#     4   9  18  33  54  78 103 142 182 219 261 326
#     4   9  18  34  55  80 105 139 177 219 262 317
#
# _framework density 18.726050000000001
#
# number of rings (size 3 to 8) (size 9 to 14) (size 15 to 20)
#    0.000    2.333    1.667    1.000    7.000    0.667 
#    0.000    3.333    0.000    0.000    0.000    0.000 
#    0.000    0.000    0.000    0.000    0.000    0.000 
#
# Total GULP energy -133638.038831 kJ/mol
# GULP energy per Si atom -5568.251618 kJ/mol
# Density = 1.868343 g / cm^3
# Si number density = 18.726050 Si / 1000 Ang^3
#
#
#
# Elastic Constant Matrix: (Units=GPa)
#
#
# Indices 1 2 3 4 5 6 
#
# 1 130.3035 6.2957 24.2690 0.0000 6.6580 0.0000
# 2 6.2957 15.2855 -0.1346 0.0000 -3.6609 0.0000
# 3 24.2690 -0.1346 82.3280 0.0000 -6.1065 0.0000
# 4 0.0000 0.0000 0.0000 25.0320 0.0000 -1.3877
# 5 6.6580 -3.6609 -6.1065 0.0000 31.3635 0.0000
# 6 0.0000 0.0000 0.0000 -1.3877 0.0000 23.3307
#
#
#
# Elastic Compliance Matrix: (Units=1/GPa)
#
#
# Indices 1 2 3 4 5 6 
#
# 1 0.008532 -0.004217 -0.002732 0.000000 -0.002835 0.000000
# 2 -0.004217 0.069427 0.002054 0.000000 0.009399 0.000000
# 3 -0.002732 0.002054 0.013207 0.000000 0.003391 0.000000
# 4 0.000000 0.000000 0.000000 0.040081 0.000000 0.002384
# 5 -0.002835 0.009399 0.003391 0.000000 0.034243 0.000000
# 6 0.000000 0.000000 0.000000 0.002384 0.000000 0.043004
#
#
# Mechanical properties :
#
#
# Convention : Reuss Voigt Hill
#
# Bulk Modulus (GPa) = 12.28881 32.08635 22.18758
# Shear Modulus (GPa) = 20.37402 29.11105 24.74254
#
# Velocity S-wave (km/s) = 3.30207 3.94709 3.63890
# Velocity P-wave (km/s) = 4.59509 6.15991 5.43412
#
# Compressibility (1/GPa) = 0.08137486
#
# Stress axis : x y z
#
# Youngs Moduli (GPa) = 117.20699 14.40354 75.71829
#
# Poissons Ratio (x) = 0.06074 0.20688
# Poissons Ratio (y) = 0.49429 -0.15551
# Poissons Ratio (z) = 0.32024 -0.02958
#
# Static dielectric constant tensor:
#      x y z
#    x 1.719770 0.000000 -0.005400 
#    y 0.000000 1.625680 0.000000 
#    z -0.005400 0.000000 1.648400 
# 
# From -- ./inp_files/15039.got.cif
#   From: 2010.05.17/outbox.cif.g08.bks.cpg/sg14_8_cif.got.tgz:15039.got - 2010.06.03 17:49:19.
