data_PCOD9251418
_publ_section_title
;
Structure prediction by ZEFSAII (Michael W. Deem and Ramdas Pophale) SiO2 
 PCOD9251418
Probable space group: P 21/C
;
_chemical_formula_sum "Si O2"
_cell_formula_units_Z 26
_cell_length_a 12.870910
_cell_length_b 7.382283
_cell_length_c 23.764103
_cell_angle_alpha 90.000000
_cell_angle_beta 153.269664
_cell_angle_gamma 90.000000
_cell_volume 1015.624201
_symmetry_space_group_name_H-M "P 21/C"
_symmetry_group_IT_number 14
_symmetry_cell_setting 'monoclinic'
loop_
_space_group_symop_operation_xyz
x,y,z
-x,1/2+y,1/2-z
-x,-y,-z
x,1/2-y,1/2+z
loop_
_atom_site_type_symbol
_atom_site_label
_atom_site_fract_x
_atom_site_fract_y
_atom_site_fract_z
Si Si1 0.815002 0.897297 0.079208
Si Si2 0.500000 0.000000 0.500000
Si Si3 0.970055 0.267037 0.213670
Si Si4 0.935518 0.530531 0.404681
Si Si5 0.003667 0.460532 0.067691
Si Si6 0.641291 0.544661 0.675444
Si Si7 0.486151 0.938774 0.623570
O O1 0.905261 0.743444 0.165110
O O2 0.915687 0.077008 0.158157
O O3 0.911273 0.909779 0.063075
O O4 0.539021 0.915308 0.942935
O O5 0.727220 0.132135 0.598775
O O6 0.444227 0.002674 0.404947
O O7 0.164519 0.373843 0.272006
O O8 0.671717 0.497888 0.259327
O O9 0.000000 0.500000 0.500000
O O10 0.974271 0.744014 0.412732
O O11 0.222467 0.541580 0.206521
O O12 0.763425 0.510347 0.980386
O O13 0.000000 0.500000 0.000000
O O14 0.496355 0.718515 0.627374
#
# Coordination Sequence:
#
# PCOD9251418 Si02
#       7
#     4   2   4   4   4   4   4
#     4  12  24  43  69 101 139 182 230 291 356 418
#     4  12  18  38  68 100 134 172 228 278 356 416
#     4  12  23  42  71 100 136 182 226 285 357 416
#     4  11  24  43  68  96 135 181 231 282 347 413
#     4  11  24  43  70  97 133 182 237 284 347 410
#     4  11  20  43  64  96 133 180 225 278 352 416
#     4  11  21  41  73  92 136 185 221 292 351 411
#
# _framework density 25.600019
#
# number of rings (size 3 to 8) (size 9 to 14) (size 15 to 20)
#    0.000    0.615    9.231    0.462    2.154    0.000 
#    2.769    0.000    0.000    0.000    0.000    0.000 
#    0.000    0.000    0.000    0.000    0.000    0.000 
#
# Total GULP energy -145454.569446 kJ/mol
# GULP energy per Si atom -5594.406517 kJ/mol
# Density = 2.554175 g / cm^3
# Si number density = 25.600019 Si / 1000 Ang^3
#
#
#
# Elastic Constant Matrix: (Units=GPa)
#
#
# Indices 1 2 3 4 5 6 
#
# 1 139.6931 15.2022 68.3627 0.0000 -39.7115 0.0000
# 2 15.2022 89.3273 38.1403 0.0000 2.0915 0.0000
# 3 68.3627 38.1403 206.7204 0.0000 -29.6286 0.0000
# 4 0.0000 0.0000 0.0000 27.5218 0.0000 -7.7649
# 5 -39.7115 2.0915 -29.6286 0.0000 57.7123 0.0000
# 6 0.0000 0.0000 0.0000 -7.7649 0.0000 32.3377
#
#
#
# Elastic Compliance Matrix: (Units=1/GPa)
#
#
# Indices 1 2 3 4 5 6 
#
# 1 0.010022 -0.000841 -0.002338 0.000000 0.005726 0.000000
# 2 -0.000841 0.012383 -0.002325 0.000000 -0.002221 0.000000
# 3 -0.002338 -0.002325 0.006284 0.000000 0.001701 0.000000
# 4 0.000000 0.000000 0.000000 0.038975 0.000000 0.009359
# 5 0.005726 -0.002221 0.001701 0.000000 0.022221 0.000000
# 6 0.000000 0.000000 0.000000 0.009359 0.000000 0.033171
#
#
# Mechanical properties :
#
#
# Convention : Reuss Voigt Hill
#
# Bulk Modulus (GPa) = 56.56277 75.46123 66.01200
# Shear Modulus (GPa) = 35.72503 44.45006 40.08755
#
# Velocity S-wave (km/s) = 3.73970 4.17145 3.96146
# Velocity P-wave (km/s) = 6.38670 7.26239 6.83858
#
# Compressibility (1/GPa) = 0.01767947
#
# Stress axis : x y z
#
# Youngs Moduli (GPa) = 99.77723 80.75873 159.14686
#
# Poissons Ratio (x) = 0.06794 0.37216
# Poissons Ratio (y) = 0.08394 0.36997
# Poissons Ratio (z) = 0.23332 0.18774
#
# Static dielectric constant tensor:
#      x y z
#    x 2.024450 0.000000 0.025820 
#    y 0.000000 2.205910 0.000000 
#    z 0.025820 0.000000 2.046050 
# 
# From -- ./inp_files/73168.got.cif
#   From: 2010.05.17/outbox.cif.g08.bks.cpg/sg14_37_cif.got.tgz:73168.got - 2010.06.03 17:49:19.
