data_PCOD9251938
_publ_section_title
;
Structure prediction by ZEFSAII (Michael W. Deem and Ramdas Pophale) SiO2 
 PCOD9251938
Probable space group: P 21/C
;
_chemical_formula_sum "Si O2"
_cell_formula_units_Z 20
_cell_length_a 12.989858
_cell_length_b 7.718460
_cell_length_c 13.804272
_cell_angle_alpha 90.000000
_cell_angle_beta 148.060820
_cell_angle_gamma 90.000000
_cell_volume 732.182996
_symmetry_space_group_name_H-M "P 21/C"
_symmetry_group_IT_number 14
_symmetry_cell_setting 'monoclinic'
loop_
_space_group_symop_operation_xyz
x,y,z
-x,1/2+y,1/2-z
-x,-y,-z
x,1/2-y,1/2+z
loop_
_atom_site_type_symbol
_atom_site_label
_atom_site_fract_x
_atom_site_fract_y
_atom_site_fract_z
Si Si1 0.723762 0.405967 0.242007
Si Si2 0.872568 0.981385 0.172837
Si Si3 0.645959 0.732790 0.638923
Si Si4 0.800114 0.204833 0.470571
Si Si5 0.635340 0.822814 0.829346
O O1 0.771389 0.584656 0.221519
O O2 0.863382 0.278479 0.414438
O O3 0.624343 0.504906 0.253504
O O4 0.570381 0.296566 0.059594
O O5 0.718801 0.921284 0.131258
O O6 0.075335 0.953733 0.388970
O O7 0.819602 0.843725 0.044969
O O8 0.835350 0.157335 0.086114
O O9 0.656181 0.685100 0.760010
O O10 0.569141 0.178596 0.280747
#
# Coordination Sequence:
#
# PCOD9251938 Si02
#       5
#     4   4   4   4   4
#     4   8  18  37  64  86 108 167 199 242 291 349
#     4  11  24  38  61  93 121 160 197 250 300 354
#     4   9  18  39  64  87 115 159 207 238 299 355
#     4  11  23  38  62  91 124 158 197 251 301 350
#     4   9  20  40  60  86 119 155 202 245 294 353
#
# _framework density 27.315577999999999
#
# number of rings (size 3 to 8) (size 9 to 14) (size 15 to 20)
#    1.200    1.200    2.000    0.000    2.800    1.600 
#    3.600    1.000    0.000    0.000    0.000    0.000 
#    0.000    0.000    0.000    0.000    0.000    0.000 
#
# Total GULP energy -111584.467224 kJ/mol
# GULP energy per Si atom -5579.223361 kJ/mol
# Density = 2.725341 g / cm^3
# Si number density = 27.315578 Si / 1000 Ang^3
#
#
#
# Elastic Constant Matrix: (Units=GPa)
#
#
# Indices 1 2 3 4 5 6 
#
# 1 48.2096 21.1229 31.7868 0.0000 -12.3385 0.0000
# 2 21.1229 51.3388 -98.1595 0.0000 -38.1026 0.0000
# 3 31.7868 -98.1595 -127.6031 0.0000 -110.0830 0.0000
# 4 0.0000 0.0000 0.0000 29.8001 0.0000 -11.6460
# 5 -12.3385 -38.1026 -110.0830 0.0000 11.5286 0.0000
# 6 0.0000 0.0000 0.0000 -11.6460 0.0000 16.9265
#
#
#
# Elastic Compliance Matrix: (Units=1/GPa)
#
#
# Indices 1 2 3 4 5 6 
#
# 1 0.025364 -0.003350 -0.000538 0.000000 0.010935 0.000000
# 2 -0.003350 0.009834 -0.003610 0.000000 -0.005552 0.000000
# 3 -0.000538 -0.003610 0.000606 0.000000 -0.006723 0.000000
# 4 0.000000 0.000000 0.000000 0.045898 0.000000 0.031580
# 5 0.010935 -0.005552 -0.006723 0.000000 0.015901 0.000000
# 6 0.000000 0.000000 0.000000 0.031580 0.000000 0.080807
#
#
# Mechanical properties :
#
#
# Convention : Reuss Voigt Hill
#
# Bulk Modulus (GPa) = 48.05789 -13.17268 17.44260
# Shear Modulus (GPa) = 24.95743 12.79738 18.87741
#
# Velocity S-wave (km/s) = 3.02598 2.16684 2.63170
# Velocity P-wave (km/s) = 5.46265 1.19472 3.95398
#
# Compressibility (1/GPa) = 0.02080824
#
# Stress axis : x y z
#
# Youngs Moduli (GPa) = 39.42612 101.68642 1650.85253
#
# Poissons Ratio (x) = 0.34061 0.88875
# Poissons Ratio (y) = 0.13206 5.95932
# Poissons Ratio (z) = 0.02123 0.36707
#
# Static dielectric constant tensor:
#      x y z
#    x 2.215340 0.000000 0.000000 
#    y 0.000000 2.335940 0.000000 
#    z 0.000000 0.000000 2.095030 
# 
# From -- ./inp_files/39411.got.cif
#   From: 2010.05.17/outbox.cif.g08.bks.cpg/sg14_20_cif.got.tgz:39411.got - 2010.06.03 17:49:19.
