data_PCOD9251589
_publ_section_title
;
Structure prediction by ZEFSAII (Michael W. Deem and Ramdas Pophale) SiO2 
 PCOD9251589
Probable space group: P 21/C
;
_chemical_formula_sum "Si O2"
_cell_formula_units_Z 32
_cell_length_a 12.958452
_cell_length_b 16.451938
_cell_length_c 19.886490
_cell_angle_alpha 90.000000
_cell_angle_beta 159.318535
_cell_angle_gamma 90.000000
_cell_volume 1497.320775
_symmetry_space_group_name_H-M "P 21/C"
_symmetry_group_IT_number 14
_symmetry_cell_setting 'monoclinic'
loop_
_space_group_symop_operation_xyz
x,y,z
-x,1/2+y,1/2-z
-x,-y,-z
x,1/2-y,1/2+z
loop_
_atom_site_type_symbol
_atom_site_label
_atom_site_fract_x
_atom_site_fract_y
_atom_site_fract_z
Si Si1 0.941544 0.265255 0.920166
Si Si2 0.914019 0.592630 0.425901
Si Si3 0.608871 0.611311 0.022886
Si Si4 0.238864 0.070222 0.634001
Si Si5 0.947134 0.403165 0.228476
Si Si6 0.155687 0.940679 0.928818
Si Si7 0.348057 0.516077 0.061941
Si Si8 0.303649 0.266765 0.507605
O O1 0.610400 0.299169 0.723305
O O2 0.970923 0.174034 0.968461
O O3 0.129269 0.337146 0.068630
O O4 0.075348 0.255955 0.926708
O O5 0.563959 0.587404 0.216282
O O6 0.000000 0.500000 0.500000
O O7 0.022121 0.593641 0.415907
O O8 0.952891 0.604559 0.250436
O O9 0.383292 0.613982 0.946957
O O10 0.528126 0.535204 0.926056
O O11 0.579280 0.689310 0.960090
O O12 0.327273 0.046727 0.610840
O O13 0.500743 0.063421 0.847473
O O14 0.000000 0.000000 0.500000
O O15 0.078277 0.466801 0.362437
O O16 0.144691 0.324935 0.357896
O O17 0.930986 0.442190 0.144192
#
# Coordination Sequence:
#
# PCOD9251589 Si02
#       8
#     4   4   4   4   4   4   4   4
#     4  12  27  43  69 101 139 187 230 285 355 418
#     4  12  21  38  73 103 128 169 235 286 335 394
#     4  11  21  43  69  98 136 174 233 287 340 418
#     4  12  27  46  62  99 146 186 227 280 360 427
#     4  11  22  42  70 104 129 179 233 283 349 416
#     4  11  22  42  70  96 133 172 231 290 331 402
#     4  11  22  42  69  97 132 176 227 289 339 410
#     4  12  24  44  66  96 142 181 228 285 349 416
#
# _framework density 21.371504999999999
#
# number of rings (size 3 to 8) (size 9 to 14) (size 15 to 20)
#    0.000    0.500    6.250    3.750    1.750    1.000 
#    4.500    1.875    0.000    0.000    0.000    0.000 
#    0.000    0.000    0.000    0.000    0.000    0.000 
#
# Total GULP energy -178391.060675 kJ/mol
# GULP energy per Si atom -5574.720646 kJ/mol
# Density = 2.132286 g / cm^3
# Si number density = 21.371505 Si / 1000 Ang^3
#
#
#
# Elastic Constant Matrix: (Units=GPa)
#
#
# Indices 1 2 3 4 5 6 
#
# 1 31.9702 -4.6686 5.5564 0.0000 2.1768 0.0000
# 2 -4.6686 88.5810 39.3525 0.0000 0.4653 0.0000
# 3 5.5564 39.3525 146.2930 0.0000 5.0929 0.0000
# 4 0.0000 0.0000 0.0000 30.0626 0.0000 0.1418
# 5 2.1768 0.4653 5.0929 0.0000 22.8953 0.0000
# 6 0.0000 0.0000 0.0000 0.1418 0.0000 25.4690
#
#
#
# Elastic Compliance Matrix: (Units=1/GPa)
#
#
# Indices 1 2 3 4 5 6 
#
# 1 0.032143 0.002509 -0.001801 0.000000 -0.002706 0.000000
# 2 0.002509 0.013023 -0.003609 0.000000 0.000300 0.000000
# 3 -0.001801 -0.003609 0.007928 0.000000 -0.001519 0.000000
# 4 0.000000 0.000000 0.000000 0.033265 0.000000 -0.000185
# 5 -0.002706 0.000300 -0.001519 0.000000 0.044266 0.000000
# 6 0.000000 0.000000 0.000000 -0.000185 0.000000 0.039264
#
#
# Mechanical properties :
#
#
# Convention : Reuss Voigt Hill
#
# Bulk Modulus (GPa) = 21.14610 38.59166 29.86888
# Shear Modulus (GPa) = 26.11568 30.79228 28.45398
#
# Velocity S-wave (km/s) = 3.49948 3.79992 3.65279
# Velocity P-wave (km/s) = 5.12294 6.11140 5.63887
#
# Compressibility (1/GPa) = 0.04729005
#
# Stress axis : x y z
#
# Youngs Moduli (GPa) = 31.11112 76.78730 126.14042
#
# Poissons Ratio (x) = -0.19262 0.22723
# Poissons Ratio (y) = -0.07804 0.45522
# Poissons Ratio (z) = 0.05604 0.27712
#
# Static dielectric constant tensor:
#      x y z
#    x 1.797880 0.000000 0.027990 
#    y 0.000000 1.809910 0.000000 
#    z 0.027990 0.000000 1.963120 
# 
# From -- ./inp_files/68729.got.cif
#   From: 2010.05.17/outbox.cif.g08.bks.cpg/sg14_35_cif.got.tgz:68729.got - 2010.06.03 17:49:19.
