data_PCOD9251612
_publ_section_title
;
Structure prediction by ZEFSAII (Michael W. Deem and Ramdas Pophale) SiO2 
 PCOD9251612
Probable space group: P 21/C
;
_chemical_formula_sum "Si O2"
_cell_formula_units_Z 32
_cell_length_a 12.326746
_cell_length_b 15.287340
_cell_length_c 16.004449
_cell_angle_alpha 90.000000
_cell_angle_beta 25.783626
_cell_angle_gamma 90.000000
_cell_volume 1311.850018
_symmetry_space_group_name_H-M "P 21/C"
_symmetry_group_IT_number 14
_symmetry_cell_setting 'monoclinic'
loop_
_space_group_symop_operation_xyz
x,y,z
-x,1/2+y,1/2-z
-x,-y,-z
x,1/2-y,1/2+z
loop_
_atom_site_type_symbol
_atom_site_label
_atom_site_fract_x
_atom_site_fract_y
_atom_site_fract_z
Si Si1 0.470912 0.836716 0.916248
Si Si2 0.666513 0.622193 0.115492
Si Si3 0.965081 0.264582 0.985273
Si Si4 0.678892 0.675372 0.546805
Si Si5 0.594063 0.481048 0.027086
Si Si6 0.245456 0.877010 0.243464
Si Si7 0.882991 0.325264 0.868194
Si Si8 0.120020 0.406775 0.428711
O O1 0.483991 0.892171 0.821389
O O2 0.751742 0.798964 0.716749
O O3 0.382299 0.887377 0.060368
O O4 0.288686 0.753216 0.045675
O O5 0.601958 0.566530 0.078610
O O6 0.634700 0.726181 0.115461
O O7 0.955298 0.590870 0.938006
O O8 0.831809 0.281176 0.166390
O O9 0.843174 0.317344 0.994677
O O10 0.976161 0.161643 0.970334
O O11 0.459258 0.609857 0.666187
O O12 0.845498 0.628222 0.501683
O O13 0.837514 0.696697 0.353704
O O14 0.398904 0.414019 0.202487
O O15 0.500000 0.500000 0.000000
O O16 0.839155 0.422430 0.864340
O O17 0.000000 0.500000 0.500000
#
# Coordination Sequence:
#
# PCOD9251612 Si02
#       8
#     4   4   4   4   4   4   4   4
#     4  11  21  44  72 105 138 197 249 299 365 451
#     4  11  26  46  75 110 151 200 250 310 383 448
#     4  11  23  44  75 106 141 198 246 306 373 446
#     4  12  24  46  76 108 149 204 251 309 379 455
#     4  12  29  48  73 113 155 190 249 326 377 442
#     4  11  23  43  78 103 145 192 257 299 363 458
#     4  12  24  45  75 103 150 197 252 304 382 449
#     4  12  26  46  71 112 150 192 254 319 373 441
#
# _framework density 24.393032000000002
#
# number of rings (size 3 to 8) (size 9 to 14) (size 15 to 20)
#    0.000    0.500    6.250    2.250    7.000    0.000 
#    2.250    6.250    0.000    0.000    0.000    0.000 
#    0.000    0.000    0.000    0.000    0.000    0.000 
#
# Total GULP energy -178353.808384 kJ/mol
# GULP energy per Si atom -5573.556512 kJ/mol
# Density = 2.433751 g / cm^3
# Si number density = 24.393032 Si / 1000 Ang^3
#
#
#
# Elastic Constant Matrix: (Units=GPa)
#
#
# Indices 1 2 3 4 5 6 
#
# 1 148.2047 39.3133 26.6407 0.0000 16.1316 0.0000
# 2 39.3133 73.3116 0.7544 0.0000 11.1531 0.0000
# 3 26.6407 0.7544 103.9512 0.0000 31.8861 0.0000
# 4 0.0000 0.0000 0.0000 15.0240 0.0000 -2.1573
# 5 16.1316 11.1531 31.8861 0.0000 46.5834 0.0000
# 6 0.0000 0.0000 0.0000 -2.1573 0.0000 30.7982
#
#
#
# Elastic Compliance Matrix: (Units=1/GPa)
#
#
# Indices 1 2 3 4 5 6 
#
# 1 0.008308 -0.004358 -0.001943 0.000000 -0.000503 0.000000
# 2 -0.004358 0.016559 0.002215 0.000000 -0.003971 0.000000
# 3 -0.001943 0.002215 0.012731 0.000000 -0.008572 0.000000
# 4 0.000000 0.000000 0.000000 0.067236 0.000000 0.004710
# 5 -0.000503 -0.003971 -0.008572 0.000000 0.028459 0.000000
# 6 0.000000 0.000000 0.000000 0.004710 0.000000 0.032799
#
#
# Mechanical properties :
#
#
# Convention : Reuss Voigt Hill
#
# Bulk Modulus (GPa) = 33.98480 50.98715 42.48597
# Shear Modulus (GPa) = 27.16298 35.73173 31.44735
#
# Velocity S-wave (km/s) = 3.34062 3.83147 3.59443
# Velocity P-wave (km/s) = 5.37048 6.36563 5.88911
#
# Compressibility (1/GPa) = 0.02942492
#
# Stress axis : x y z
#
# Youngs Moduli (GPa) = 120.37152 60.39016 78.54759
#
# Poissons Ratio (x) = 0.26320 0.15262
# Poissons Ratio (y) = 0.52463 -0.17398
# Poissons Ratio (z) = 0.23389 -0.13377
#
# Static dielectric constant tensor:
#      x y z
#    x 2.207660 0.000000 -0.145890 
#    y 0.000000 1.988800 0.000000 
#    z -0.145890 0.000000 2.209760 
# 
# From -- ./inp_files/45436.got.cif
#   From: 2010.05.17/outbox.cif.g08.bks.cpg/sg14_23_cif.got.tgz:45436.got - 2010.06.03 17:49:19.
