data_PCOD9251232
_publ_section_title
;
Structure prediction by ZEFSAII (Michael W. Deem and Ramdas Pophale) SiO2 
 PCOD9251232
Probable space group: P 21/C
;
_chemical_formula_sum "Si O2"
_cell_formula_units_Z 16
_cell_length_a 8.935883
_cell_length_b 9.428783
_cell_length_c 9.950225
_cell_angle_alpha 90.000000
_cell_angle_beta 134.983308
_cell_angle_gamma 90.000000
_cell_volume 592.976530
_symmetry_space_group_name_H-M "P 21/C"
_symmetry_group_IT_number 14
_symmetry_cell_setting 'monoclinic'
loop_
_space_group_symop_operation_xyz
x,y,z
-x,1/2+y,1/2-z
-x,-y,-z
x,1/2-y,1/2+z
loop_
_atom_site_type_symbol
_atom_site_label
_atom_site_fract_x
_atom_site_fract_y
_atom_site_fract_z
Si Si1 0.092739 0.563757 0.698192
Si Si2 0.892699 0.655772 0.051271
Si Si3 0.507404 0.455429 0.352259
Si Si4 0.690124 0.231599 0.325934
O O1 0.926620 0.686719 0.632982
O O2 0.000000 0.500000 0.500000
O O3 0.117916 0.454219 0.833349
O O4 0.308779 0.648977 0.793320
O O5 0.687882 0.633410 0.830706
O O6 0.904045 0.350460 0.919761
O O7 0.500000 0.500000 0.500000
O O8 0.694005 0.340877 0.451878
O O9 0.480733 0.608375 0.264683
#
# Coordination Sequence:
#
# PCOD9251232 Si02
#       4
#     4   4   4   4
#     4  10  26  49  84 119 165 220 276 337 427 494
#     4  10  27  52  84 119 168 219 278 345 426 499
#     4  12  29  52  81 123 168 218 281 348 416 515
#     4  10  29  50  78 117 166 215 282 339 430 478
#
# _framework density 26.982517999999999
#
# number of rings (size 3 to 8) (size 9 to 14) (size 15 to 20)
#    1.500    0.000    0.000    0.750   14.000    3.000 
#    0.000    0.000    0.000    0.000    0.000    0.000 
#    0.000    0.000    0.000    0.000    0.000    0.000 
#
# Total GULP energy -89341.304961 kJ/mol
# GULP energy per Si atom -5583.831560 kJ/mol
# Density = 2.692111 g / cm^3
# Si number density = 26.982518 Si / 1000 Ang^3
#
#
#
# Elastic Constant Matrix: (Units=GPa)
#
#
# Indices 1 2 3 4 5 6 
#
# 1 61.7491 58.7157 20.1579 0.0000 -20.4534 0.0000
# 2 58.7157 197.1190 40.0065 0.0000 -26.5386 0.0000
# 3 20.1579 40.0065 114.3708 0.0000 -25.0318 0.0000
# 4 0.0000 0.0000 0.0000 39.5315 0.0000 -20.9928
# 5 -20.4534 -26.5386 -25.0318 0.0000 45.7371 0.0000
# 6 0.0000 0.0000 0.0000 -20.9928 0.0000 88.5712
#
#
#
# Elastic Compliance Matrix: (Units=1/GPa)
#
#
# Indices 1 2 3 4 5 6 
#
# 1 0.024712 -0.006285 -0.000609 0.000000 0.007071 0.000000
# 2 -0.006285 0.007304 -0.001289 0.000000 0.000722 0.000000
# 3 -0.000609 -0.001289 0.010314 0.000000 0.004624 0.000000
# 4 0.000000 0.000000 0.000000 0.028939 0.000000 0.006859
# 5 0.007071 0.000722 0.004624 0.000000 0.027976 0.000000
# 6 0.000000 0.000000 0.000000 0.006859 0.000000 0.012916
#
#
# Mechanical properties :
#
#
# Convention : Reuss Voigt Hill
#
# Bulk Modulus (GPa) = 38.51748 67.88880 53.20314
# Shear Modulus (GPa) = 36.44779 51.72522 44.08650
#
# Velocity S-wave (km/s) = 3.67930 4.38309 4.04653
# Velocity P-wave (km/s) = 5.68820 7.12953 6.44926
#
# Compressibility (1/GPa) = 0.02596224
#
# Stress axis : x y z
#
# Youngs Moduli (GPa) = 40.46599 136.90899 96.95620
#
# Poissons Ratio (x) = 0.86052 0.05909
# Poissons Ratio (y) = 0.25434 0.12499
# Poissons Ratio (z) = 0.02466 0.17650
#
# Static dielectric constant tensor:
#      x y z
#    x 2.391890 0.000000 0.125270 
#    y 0.000000 2.340970 0.000000 
#    z 0.125270 0.000000 2.135390 
# 
# From -- ./inp_files/22851.got.cif
#   From: 2010.05.17/outbox.cif.g08.bks.cpg/sg14_12_cif.got.tgz:22851.got - 2010.06.03 17:49:19.
