data_PCOD9251886
_publ_section_title
;
Structure prediction by ZEFSAII (Michael W. Deem and Ramdas Pophale) SiO2 
 PCOD9251886
Probable space group: P 21/C
;
_chemical_formula_sum "Si O2"
_cell_formula_units_Z 20
_cell_length_a 19.572310
_cell_length_b 5.083115
_cell_length_c 13.462018
_cell_angle_alpha 90.000000
_cell_angle_beta 32.197136
_cell_angle_gamma 90.000000
_cell_volume 713.631643
_symmetry_space_group_name_H-M "P 21/C"
_symmetry_group_IT_number 14
_symmetry_cell_setting 'monoclinic'
loop_
_space_group_symop_operation_xyz
x,y,z
-x,1/2+y,1/2-z
-x,-y,-z
x,1/2-y,1/2+z
loop_
_atom_site_type_symbol
_atom_site_label
_atom_site_fract_x
_atom_site_fract_y
_atom_site_fract_z
Si Si1 0.799822 0.720002 0.800185
Si Si2 0.566826 0.100154 0.048830
Si Si3 0.768716 0.356421 0.670361
Si Si4 0.668482 0.160391 0.613682
Si Si5 0.009031 0.512814 0.168954
O O1 0.668548 0.863410 0.931072
O O2 0.843120 0.556505 0.649945
O O3 0.899737 0.928056 0.721975
O O4 0.767004 0.513185 0.929023
O O5 0.636670 0.303832 0.890706
O O6 0.422254 0.017608 0.204729
O O7 0.571977 0.224087 0.151834
O O8 0.729282 0.394164 0.604169
O O9 0.857584 0.099192 0.546398
O O10 0.009795 0.230291 0.219808
#
# Coordination Sequence:
#
# PCOD9251886 Si02
#       5
#     4   4   4   4   4
#     4  11  25  44  71 102 140 189 235 302 355 436
#     4  11  24  42  72  99 143 185 240 296 361 434
#     4  11  26  43  70 106 138 187 245 294 360 433
#     4  11  22  46  65 103 143 186 235 293 367 426
#     4  12  27  49  77 105 148 195 239 301 365 429
#
# _framework density 28.025665
#
# number of rings (size 3 to 8) (size 9 to 14) (size 15 to 20)
#    0.000    0.800    4.000    2.400    5.600    3.200 
#    0.000    0.000    0.000    0.000    0.000    0.000 
#    0.000    0.000    0.000    0.000    0.000    0.000 
#
# Total GULP energy -112131.200157 kJ/mol
# GULP energy per Si atom -5606.560008 kJ/mol
# Density = 2.796188 g / cm^3
# Si number density = 28.025665 Si / 1000 Ang^3
#
#
#
# Elastic Constant Matrix: (Units=GPa)
#
#
# Indices 1 2 3 4 5 6 
#
# 1 90.2110 -4.6672 6.8937 0.0000 2.7979 0.0000
# 2 -4.6672 72.6721 4.8951 0.0000 5.3052 0.0000
# 3 6.8937 4.8951 107.2178 0.0000 8.9347 0.0000
# 4 0.0000 0.0000 0.0000 47.9462 0.0000 0.4330
# 5 2.7979 5.3052 8.9347 0.0000 42.1479 0.0000
# 6 0.0000 0.0000 0.0000 0.4330 0.0000 49.5957
#
#
#
# Elastic Compliance Matrix: (Units=1/GPa)
#
#
# Indices 1 2 3 4 5 6 
#
# 1 0.011203 0.000818 -0.000699 0.000000 -0.000698 0.000000
# 2 0.000818 0.013974 -0.000549 0.000000 -0.001697 0.000000
# 3 -0.000699 -0.000549 0.009556 0.000000 -0.001910 0.000000
# 4 0.000000 0.000000 0.000000 0.020858 0.000000 -0.000182
# 5 -0.000698 -0.001697 -0.001910 0.000000 0.024391 0.000000
# 6 0.000000 0.000000 0.000000 -0.000182 0.000000 0.020165
#
#
# Mechanical properties :
#
#
# Convention : Reuss Voigt Hill
#
# Bulk Modulus (GPa) = 29.52439 31.59379 30.55909
# Shear Modulus (GPa) = 44.52427 45.46992 44.99709
#
# Velocity S-wave (km/s) = 3.99017 4.03232 4.01130
# Velocity P-wave (km/s) = 5.63793 5.74257 5.69049
#
# Compressibility (1/GPa) = 0.03387031
#
# Stress axis : x y z
#
# Youngs Moduli (GPa) = 89.26558 71.56246 104.64593
#
# Poissons Ratio (x) = -0.05851 0.07319
# Poissons Ratio (y) = -0.07298 0.05747
# Poissons Ratio (z) = 0.06243 0.03930
#
# Static dielectric constant tensor:
#      x y z
#    x 2.183750 0.000000 0.052150 
#    y 0.000000 2.213800 0.000000 
#    z 0.052150 0.000000 2.170870 
# 
# From -- ./inp_files/34525.got.cif
#   From: 2010.05.17/outbox.cif.g08.bks.cpg/sg14_18_cif.got.tgz:34525.got - 2010.06.03 17:49:19.
