data_PCOD9251461
_publ_section_title
;
Structure prediction by ZEFSAII (Michael W. Deem and Ramdas Pophale) SiO2 
 PCOD9251461
Probable space group: P 21/C
;
_chemical_formula_sum "Si O2"
_cell_formula_units_Z 28
_cell_length_a 14.076194
_cell_length_b 9.036144
_cell_length_c 18.105389
_cell_angle_alpha 90.000000
_cell_angle_beta 38.057732
_cell_angle_gamma 90.000000
_cell_volume 1419.638434
_symmetry_space_group_name_H-M "P 21/C"
_symmetry_group_IT_number 14
_symmetry_cell_setting 'monoclinic'
loop_
_space_group_symop_operation_xyz
x,y,z
-x,1/2+y,1/2-z
-x,-y,-z
x,1/2-y,1/2+z
loop_
_atom_site_type_symbol
_atom_site_label
_atom_site_fract_x
_atom_site_fract_y
_atom_site_fract_z
Si Si1 0.624441 0.674415 0.493482
Si Si2 0.954177 0.374820 0.085914
Si Si3 0.755606 0.387053 0.642131
Si Si4 0.488729 0.245743 0.202837
Si Si5 0.210160 0.149673 0.970577
Si Si6 0.330170 0.462387 0.685818
Si Si7 0.503059 0.486578 0.909057
O O1 0.751966 0.604909 0.469064
O O2 0.463341 0.586018 0.596561
O O3 0.668661 0.655151 0.381441
O O4 0.601405 0.840689 0.536845
O O5 0.859121 0.249198 0.101666
O O6 0.832224 0.455226 0.213630
O O7 0.000000 0.500000 0.000000
O O8 0.098737 0.290374 0.033114
O O9 0.626231 0.329884 0.663350
O O10 0.849433 0.514233 0.542282
O O11 0.666657 0.447051 0.769793
O O12 0.376519 0.321782 0.330758
O O13 0.380294 0.126855 0.227905
O O14 0.544802 0.366483 0.107471
O O15 0.500000 0.500000 0.000000
#
# Coordination Sequence:
#
# PCOD9251461 Si02
#       7
#     4   4   4   4   4   4   4
#     4  11  22  41  68  93 129 163 218 270 318 374
#     4  12  25  41  64  94 134 172 211 260 327 391
#     4  11  24  42  64  97 127 167 225 268 315 387
#     4  11  21  37  68  97 123 161 223 271 315 378
#     4  11  23  40  64  92 130 173 208 266 323 387
#     4  11  22  42  65  97 127 167 213 272 318 374
#     4  11  22  37  63 100 126 161 208 275 328 373
#
# _framework density 19.723331000000002
#
# number of rings (size 3 to 8) (size 9 to 14) (size 15 to 20)
#    0.000    0.857    7.143    0.429    4.000    0.000 
#    0.000    2.857    0.000    0.000    0.000    0.000 
#    0.000    0.000    0.000    0.000    0.000    0.000 
#
# Total GULP energy -156227.739349 kJ/mol
# GULP energy per Si atom -5579.562120 kJ/mol
# Density = 1.967844 g / cm^3
# Si number density = 19.723331 Si / 1000 Ang^3
#
#
#
# Elastic Constant Matrix: (Units=GPa)
#
#
# Indices 1 2 3 4 5 6 
#
# 1 84.5530 7.4166 38.8613 0.0000 12.3177 0.0000
# 2 7.4166 69.8296 21.8759 0.0000 -2.0746 0.0000
# 3 38.8613 21.8759 41.8433 0.0000 5.0683 0.0000
# 4 0.0000 0.0000 0.0000 38.6186 0.0000 -0.0527
# 5 12.3177 -2.0746 5.0683 0.0000 26.7839 0.0000
# 6 0.0000 0.0000 0.0000 -0.0527 0.0000 37.8530
#
#
#
# Elastic Compliance Matrix: (Units=1/GPa)
#
#
# Indices 1 2 3 4 5 6 
#
# 1 0.022759 0.004559 -0.022818 0.000000 -0.005796 0.000000
# 2 0.004559 0.018292 -0.014037 0.000000 0.001976 0.000000
# 3 -0.022818 -0.014037 0.052493 0.000000 -0.000526 0.000000
# 4 0.000000 0.000000 0.000000 0.025894 0.000000 0.000036
# 5 -0.005796 0.001976 -0.000526 0.000000 0.040254 0.000000
# 6 0.000000 0.000000 0.000000 0.000036 0.000000 0.026418
#
#
# Mechanical properties :
#
#
# Convention : Reuss Voigt Hill
#
# Bulk Modulus (GPa) = 34.53991 36.94815 35.74403
# Shear Modulus (GPa) = 19.20460 29.18925 24.19692
#
# Velocity S-wave (km/s) = 3.12380 3.85117 3.50640
# Velocity P-wave (km/s) = 5.52821 6.20880 5.87836
#
# Compressibility (1/GPa) = 0.02895202
#
# Stress axis : x y z
#
# Youngs Moduli (GPa) = 43.93892 54.66725 19.05004
#
# Poissons Ratio (x) = -0.24923 0.43469
# Poissons Ratio (y) = -0.20032 0.26740
# Poissons Ratio (z) = 1.00262 0.76736
#
# Static dielectric constant tensor:
#      x y z
#    x 1.696390 0.000000 0.017300 
#    y 0.000000 1.771320 0.000000 
#    z 0.017300 0.000000 1.722970 
# 
# From -- ./inp_files/59048.got.cif
#   From: 2010.05.17/outbox.cif.g08.bks.cpg/sg14_30_cif.got.tgz:59048.got - 2010.06.03 17:49:19.
