data_PCOD9251798
_publ_section_title
;
Structure prediction by ZEFSAII (Michael W. Deem and Ramdas Pophale) SiO2 
 PCOD9251798
Probable space group: P 21/C
;
_chemical_formula_sum "Si O2"
_cell_formula_units_Z 28
_cell_length_a 8.565902
_cell_length_b 11.698396
_cell_length_c 14.628148
_cell_angle_alpha 90.000000
_cell_angle_beta 51.693976
_cell_angle_gamma 90.000000
_cell_volume 1150.266889
_symmetry_space_group_name_H-M "P 21/C"
_symmetry_group_IT_number 14
_symmetry_cell_setting 'monoclinic'
loop_
_space_group_symop_operation_xyz
x,y,z
-x,1/2+y,1/2-z
-x,-y,-z
x,1/2-y,1/2+z
loop_
_atom_site_type_symbol
_atom_site_label
_atom_site_fract_x
_atom_site_fract_y
_atom_site_fract_z
Si Si1 0.664430 0.394260 0.309065
Si Si2 0.643507 0.559550 0.163105
Si Si3 0.060426 0.478845 0.260656
Si Si4 0.743572 0.403533 0.972761
Si Si5 0.588018 0.794580 0.508869
Si Si6 0.026132 0.713642 0.378831
Si Si7 0.917657 0.735253 0.625770
O O1 0.560232 0.482219 0.275797
O O2 0.510141 0.326672 0.427778
O O3 0.836555 0.457213 0.304541
O O4 0.791290 0.298007 0.208245
O O5 0.541859 0.621269 0.112848
O O6 0.754987 0.665695 0.170039
O O7 0.772053 0.465304 0.059466
O O8 0.199394 0.504030 0.123673
O O9 0.060288 0.592620 0.320603
O O10 0.131243 0.372923 0.295754
O O11 0.529752 0.348285 0.033240
O O12 0.896341 0.301609 0.899174
O O13 0.821757 0.770123 0.415864
O O14 0.987776 0.698600 0.499924
#
# Coordination Sequence:
#
# PCOD9251798 Si02
#       7
#     4   4   4   4   4   4   4
#     4  12  24  48  71 102 144 178 232 286 345 408
#     4  11  25  45  71 100 138 184 231 290 335 406
#     4  12  23  41  76 101 137 186 224 280 351 408
#     4  12  22  45  74 100 135 184 235 283 336 411
#     4  11  26  44  69 109 133 178 241 279 342 415
#     4  11  25  47  71 102 142 184 223 287 349 406
#     4  11  22  42  71 100 139 184 225 277 350 407
#
# _framework density 24.342178000000001
#
# number of rings (size 3 to 8) (size 9 to 14) (size 15 to 20)
#    0.000    0.571    5.714    3.000    0.000    2.857 
#    5.143    0.000    0.000    0.000    0.000    0.000 
#    0.000    0.000    0.000    0.000    0.000    0.000 
#
# Total GULP energy -156746.187761 kJ/mol
# GULP energy per Si atom -5598.078134 kJ/mol
# Density = 2.428677 g / cm^3
# Si number density = 24.342178 Si / 1000 Ang^3
#
#
#
# Elastic Constant Matrix: (Units=GPa)
#
#
# Indices 1 2 3 4 5 6 
#
# 1 54.6638 20.8068 -2.0875 0.0000 1.6285 0.0000
# 2 20.8068 149.0053 40.9408 0.0000 23.4414 0.0000
# 3 -2.0875 40.9408 59.9096 0.0000 8.5878 0.0000
# 4 0.0000 0.0000 0.0000 38.1606 0.0000 15.6743
# 5 1.6285 23.4414 8.5878 0.0000 32.1692 0.0000
# 6 0.0000 0.0000 0.0000 15.6743 0.0000 44.6439
#
#
#
# Elastic Compliance Matrix: (Units=1/GPa)
#
#
# Indices 1 2 3 4 5 6 
#
# 1 0.019823 -0.003773 0.003139 0.000000 0.000908 0.000000
# 2 -0.003773 0.009724 -0.006018 0.000000 -0.005288 0.000000
# 3 0.003139 -0.006018 0.021116 0.000000 -0.001411 0.000000
# 4 0.000000 0.000000 0.000000 0.030621 0.000000 -0.010751
# 5 0.000908 -0.005288 -0.001411 0.000000 0.035269 0.000000
# 6 0.000000 0.000000 0.000000 -0.010751 0.000000 0.026174
#
#
# Mechanical properties :
#
#
# Convention : Reuss Voigt Hill
#
# Bulk Modulus (GPa) = 26.76850 42.54433 34.65641
# Shear Modulus (GPa) = 29.67632 36.58930 33.13281
#
# Velocity S-wave (km/s) = 3.49539 3.88122 3.69335
# Velocity P-wave (km/s) = 5.22599 6.13194 5.69700
#
# Compressibility (1/GPa) = 0.03735734
#
# Stress axis : x y z
#
# Youngs Moduli (GPa) = 50.44712 102.84296 47.35708
#
# Poissons Ratio (x) = 0.38807 -0.14866
# Poissons Ratio (y) = 0.19036 0.28501
# Poissons Ratio (z) = -0.15836 0.61894
#
# Static dielectric constant tensor:
#      x y z
#    x 1.965140 0.000000 0.014460 
#    y 0.000000 1.938560 0.000000 
#    z 0.014460 0.000000 1.905690 
# 
# From -- ./inp_files/39968.got.cif
#   From: 2010.05.17/outbox.cif.g08.bks.cpg/sg14_20_cif.got.tgz:39968.got - 2010.06.03 17:49:19.
