data_PCOD9251252
_publ_section_title
;
Structure prediction by ZEFSAII (Michael W. Deem and Ramdas Pophale) SiO2 
 PCOD9251252
Probable space group: P 21/C
;
_chemical_formula_sum "Si O2"
_cell_formula_units_Z 26
_cell_length_a 18.726116
_cell_length_b 11.949420
_cell_length_c 13.950785
_cell_angle_alpha 90.000000
_cell_angle_beta 20.567716
_cell_angle_gamma 90.000000
_cell_volume 1096.702501
_symmetry_space_group_name_H-M "P 21/C"
_symmetry_group_IT_number 14
_symmetry_cell_setting 'monoclinic'
loop_
_space_group_symop_operation_xyz
x,y,z
-x,1/2+y,1/2-z
-x,-y,-z
x,1/2-y,1/2+z
loop_
_atom_site_type_symbol
_atom_site_label
_atom_site_fract_x
_atom_site_fract_y
_atom_site_fract_z
Si Si1 0.739235 0.736261 0.379578
Si Si2 0.475443 0.122600 0.195511
Si Si3 0.867933 0.004227 0.762822
Si Si4 0.062786 0.099258 0.992054
Si Si5 0.601411 0.246834 0.352351
Si Si6 0.823558 0.436555 0.982455
Si Si7 0.500000 0.000000 0.500000
O O1 0.678839 0.829303 0.532727
O O2 0.770725 0.619163 0.391856
O O3 0.923589 0.784951 0.084453
O O4 0.552901 0.725077 0.540092
O O5 0.379429 0.009789 0.273035
O O6 0.512322 0.210615 0.065082
O O7 0.686810 0.091747 0.980880
O O8 0.014839 0.017028 0.668089
O O9 0.000000 0.000000 0.500000
O O10 0.290991 0.073473 0.742299
O O11 0.907918 0.101732 0.274429
O O12 0.000000 0.000000 0.000000
O O13 0.636180 0.115048 0.313875
O O14 0.789458 0.328340 0.091803
#
# Coordination Sequence:
#
# PCOD9251252 Si02
#       7
#     4   4   4   4   4   4   2
#     4  11  27  46  75 111 150 198 250 314 385 450
#     4  12  26  52  75 109 157 193 254 319 377 454
#     4  12  27  49  76 115 147 200 259 310 390 458
#     4  11  26  48  72 106 148 196 249 311 375 454
#     4  11  25  49  77 107 151 198 243 318 376 458
#     4  12  26  46  81 110 150 200 257 313 385 456
#     4  10  28  48  72 110 150 192 252 298 390 446
#
# _framework density 23.707433000000002
#
# number of rings (size 3 to 8) (size 9 to 14) (size 15 to 20)
#    0.000    0.615    4.615    1.385   10.769    2.462 
#    0.000    0.000    0.000    0.000    0.000    0.000 
#    0.000    0.000    0.000    0.000    0.000    0.000 
#
# Total GULP energy -145157.392383 kJ/mol
# GULP energy per Si atom -5582.976630 kJ/mol
# Density = 2.365347 g / cm^3
# Si number density = 23.707433 Si / 1000 Ang^3
#
#
#
# Elastic Constant Matrix: (Units=GPa)
#
#
# Indices 1 2 3 4 5 6 
#
# 1 68.9127 12.1353 11.1435 0.0000 8.1705 0.0000
# 2 12.1353 74.8277 5.8602 0.0000 -4.5859 0.0000
# 3 11.1435 5.8602 49.5963 0.0000 17.7372 0.0000
# 4 0.0000 0.0000 0.0000 25.7268 0.0000 -4.4792
# 5 8.1705 -4.5859 17.7372 0.0000 40.9920 0.0000
# 6 0.0000 0.0000 0.0000 -4.4792 0.0000 27.3911
#
#
#
# Elastic Compliance Matrix: (Units=1/GPa)
#
#
# Indices 1 2 3 4 5 6 
#
# 1 0.015613 -0.002492 -0.002367 0.000000 -0.002366 0.000000
# 2 -0.002492 0.014125 -0.002191 0.000000 0.003025 0.000000
# 3 -0.002367 -0.002191 0.024694 0.000000 -0.010458 0.000000
# 4 0.000000 0.000000 0.000000 0.040009 0.000000 0.006543
# 5 -0.002366 0.003025 -0.010458 0.000000 0.029730 0.000000
# 6 0.000000 0.000000 0.000000 0.006543 0.000000 0.037578
#
#
# Mechanical properties :
#
#
# Convention : Reuss Voigt Hill
#
# Bulk Modulus (GPa) = 24.79409 27.95718 26.37563
# Shear Modulus (GPa) = 26.41396 29.76848 28.09122
#
# Velocity S-wave (km/s) = 3.34153 3.54737 3.44599
# Velocity P-wave (km/s) = 5.03675 5.34758 5.19449
#
# Compressibility (1/GPa) = 0.04033220
#
# Stress axis : x y z
#
# Youngs Moduli (GPa) = 64.04804 70.79590 40.49601
#
# Poissons Ratio (x) = 0.17640 0.09587
# Poissons Ratio (y) = 0.15959 0.08872
# Poissons Ratio (z) = 0.15162 0.15511
#
# Static dielectric constant tensor:
#      x y z
#    x 0.000000 0.000000 0.000000 
#    y 0.000000 0.000000 0.000000 
#    z 0.000000 0.000000 0.000000 
# 
# From -- ./inp_files/50437.got.cif
#   From: 2010.05.17/outbox.cif.g08.bks.cpg/sg14_26_cif.got.tgz:50437.got - 2010.06.03 17:49:19.
