data_PCOD9251325
_publ_section_title
;
Structure prediction by ZEFSAII (Michael W. Deem and Ramdas Pophale) SiO2 
 PCOD9251325
Probable space group: P 21/C
;
_chemical_formula_sum "Si O2"
_cell_formula_units_Z 24
_cell_length_a 8.679781
_cell_length_b 17.243070
_cell_length_c 16.725406
_cell_angle_alpha 90.000000
_cell_angle_beta 147.158204
_cell_angle_gamma 90.000000
_cell_volume 1357.552526
_symmetry_space_group_name_H-M "P 21/C"
_symmetry_group_IT_number 14
_symmetry_cell_setting 'monoclinic'
loop_
_space_group_symop_operation_xyz
x,y,z
-x,1/2+y,1/2-z
-x,-y,-z
x,1/2-y,1/2+z
loop_
_atom_site_type_symbol
_atom_site_label
_atom_site_fract_x
_atom_site_fract_y
_atom_site_fract_z
Si Si1 0.733317 0.934194 0.571471
Si Si2 0.611974 0.671182 0.161628
Si Si3 0.816900 0.968680 0.156387
Si Si4 0.930814 0.832144 0.330085
Si Si5 0.754491 0.563860 0.898943
Si Si6 0.830896 0.519122 0.346368
O O1 0.704106 0.862300 0.616476
O O2 0.723526 0.907834 0.476403
O O3 0.500000 0.000000 0.500000
O O4 0.036475 0.973501 0.716893
O O5 0.768472 0.751427 0.247173
O O6 0.737128 0.606154 0.277948
O O7 0.267406 0.675620 0.000438
O O8 0.865940 0.886154 0.223033
O O9 0.001875 0.980465 0.155960
O O10 0.500000 0.000000 0.000000
O O11 0.799879 0.874074 0.350231
O O12 0.463369 0.520255 0.761851
O O13 0.000000 0.500000 0.000000
O O14 0.000000 0.500000 0.500000
#
# Coordination Sequence:
#
# PCOD9251325 Si02
#       6
#     4   4   4   4   4   4
#     4  11  19  44  68  88 122 173 218 261 314 380
#     4  11  25  44  62  94 136 170 203 272 329 376
#     4  11  22  39  67  95 125 168 217 262 316 383
#     4  12  25  42  64  97 135 165 211 268 333 371
#     4  12  20  40  71  92 119 173 221 264 308 384
#     4  11  23  41  67  94 126 167 226 265 306 386
#
# _framework density 17.678874
#
# number of rings (size 3 to 8) (size 9 to 14) (size 15 to 20)
#    0.000    0.667    8.333    1.000    7.000    0.000 
#    3.000    1.667    0.000    0.000    0.000    0.000 
#    0.000    0.000    0.000    0.000    0.000    0.000 
#
# Total GULP energy -133632.917466 kJ/mol
# GULP energy per Si atom -5568.038228 kJ/mol
# Density = 1.763864 g / cm^3
# Si number density = 17.678874 Si / 1000 Ang^3
#
#
#
# Elastic Constant Matrix: (Units=GPa)
#
#
# Indices 1 2 3 4 5 6 
#
# 1 98.3300 87.4776 64.0393 0.0000 -9.9366 0.0000
# 2 87.4776 166.8808 89.9132 0.0000 -6.0742 0.0000
# 3 64.0393 89.9132 162.4815 0.0000 6.6534 0.0000
# 4 0.0000 0.0000 0.0000 38.4016 0.0000 -5.5348
# 5 -9.9366 -6.0742 6.6534 0.0000 40.2854 0.0000
# 6 0.0000 0.0000 0.0000 -5.5348 0.0000 27.9909
#
#
#
# Elastic Compliance Matrix: (Units=1/GPa)
#
#
# Indices 1 2 3 4 5 6 
#
# 1 0.020728 -0.008848 -0.003452 0.000000 0.004349 0.000000
# 2 -0.008848 0.012491 -0.003436 0.000000 0.000269 0.000000
# 3 -0.003452 -0.003436 0.009537 0.000000 -0.002945 0.000000
# 4 0.000000 0.000000 0.000000 0.026804 0.000000 0.005300
# 5 0.004349 0.000269 -0.002945 0.000000 0.026422 0.000000
# 6 0.000000 0.000000 0.000000 0.005300 0.000000 0.036774
#
#
# Mechanical properties :
#
#
# Convention : Reuss Voigt Hill
#
# Bulk Modulus (GPa) = 88.60860 101.17251 94.89055
# Shear Modulus (GPa) = 29.76350 33.75307 31.75829
#
# Velocity S-wave (km/s) = 4.10758 4.37422 4.24299
# Velocity P-wave (km/s) = 8.52797 9.10296 8.82015
#
# Compressibility (1/GPa) = 0.01128559
#
# Stress axis : x y z
#
# Youngs Moduli (GPa) = 48.24281 80.05546 104.85325
#
# Poissons Ratio (x) = 0.70830 0.36193
# Poissons Ratio (y) = 0.42683 0.36030
# Poissons Ratio (z) = 0.16652 0.27509
#
# Static dielectric constant tensor:
#      x y z
#    x 1.604560 0.000000 0.026340 
#    y 0.000000 1.544540 0.000000 
#    z 0.026340 0.000000 1.603390 
# 
# From -- ./inp_files/55903.got.cif
#   From: 2010.05.17/outbox.cif.g08.bks.cpg/sg14_28_cif.got.tgz:55903.got - 2010.06.03 17:49:19.
