data_PCOD9251512
_publ_section_title
;
Structure prediction by ZEFSAII (Michael W. Deem and Ramdas Pophale) SiO2 
 PCOD9251512
Probable space group: P 21/C
;
_chemical_formula_sum "Si O2"
_cell_formula_units_Z 24
_cell_length_a 11.812113
_cell_length_b 8.119459
_cell_length_c 26.967636
_cell_angle_alpha 90.000000
_cell_angle_beta 157.102066
_cell_angle_gamma 90.000000
_cell_volume 1006.348611
_symmetry_space_group_name_H-M "P 21/C"
_symmetry_group_IT_number 14
_symmetry_cell_setting 'monoclinic'
loop_
_space_group_symop_operation_xyz
x,y,z
-x,1/2+y,1/2-z
-x,-y,-z
x,1/2-y,1/2+z
loop_
_atom_site_type_symbol
_atom_site_label
_atom_site_fract_x
_atom_site_fract_y
_atom_site_fract_z
Si Si1 0.649700 0.577235 0.313712
Si Si2 0.147558 0.828982 0.860141
Si Si3 0.916817 0.387651 0.329882
Si Si4 0.504665 0.820371 0.903086
Si Si5 0.495510 0.790857 0.096864
Si Si6 0.815872 0.242635 0.432338
O O1 0.814388 0.520799 0.329368
O O2 0.318046 0.581716 0.638960
O O3 0.323441 0.624892 0.165760
O O4 0.845985 0.719693 0.419120
O O5 0.316154 0.810162 0.877129
O O6 0.831775 0.750770 0.729555
O O7 0.338029 0.755531 0.981539
O O8 0.078963 0.016044 0.850377
O O9 0.652963 0.284065 0.202162
O O10 0.162241 0.271688 0.452883
O O11 0.524158 0.014536 0.900203
O O12 0.333602 0.697713 0.075869
#
# Coordination Sequence:
#
# PCOD9251512 Si02
#       6
#     4   4   4   4   4   4
#     4  11  25  44  71  93 131 163 215 261 325 375
#     4  11  21  40  64  90 127 171 211 259 316 373
#     4  11  23  42  60  94 130 166 210 268 313 374
#     4  11  23  39  62  93 129 169 214 256 312 376
#     4  11  21  40  64  90 130 165 208 264 313 376
#     4  11  23  45  67  99 125 170 210 265 318 380
#
# _framework density 23.848592
#
# number of rings (size 3 to 8) (size 9 to 14) (size 15 to 20)
#    0.000    1.000    5.000    4.000    2.333    2.000 
#    3.000    3.333    0.000    0.000    0.000    0.000 
#    0.000    0.000    0.000    0.000    0.000    0.000 
#
# Total GULP energy -134297.537799 kJ/mol
# GULP energy per Si atom -5595.730742 kJ/mol
# Density = 2.379431 g / cm^3
# Si number density = 23.848592 Si / 1000 Ang^3
#
#
#
# Elastic Constant Matrix: (Units=GPa)
#
#
# Indices 1 2 3 4 5 6 
#
# 1 88.8862 11.1575 28.2800 0.0000 -8.9153 0.0000
# 2 11.1575 40.0365 47.9357 0.0000 -11.4498 0.0000
# 3 28.2800 47.9357 183.8603 0.0000 -17.8434 0.0000
# 4 0.0000 0.0000 0.0000 52.2039 0.0000 0.9360
# 5 -8.9153 -11.4498 -17.8434 0.0000 32.8551 0.0000
# 6 0.0000 0.0000 0.0000 0.9360 0.0000 25.8986
#
#
#
# Elastic Compliance Matrix: (Units=1/GPa)
#
#
# Indices 1 2 3 4 5 6 
#
# 1 0.012036 -0.001126 -0.001350 0.000000 0.002140 0.000000
# 2 -0.001126 0.038487 -0.009067 0.000000 0.008183 0.000000
# 3 -0.001350 -0.009067 0.008095 0.000000 0.000870 0.000000
# 4 0.000000 0.000000 0.000000 0.019168 0.000000 -0.000693
# 5 0.002140 0.008183 0.000870 0.000000 0.034342 0.000000
# 6 0.000000 0.000000 0.000000 -0.000693 0.000000 0.038637
#
#
# Mechanical properties :
#
#
# Convention : Reuss Voigt Hill
#
# Bulk Modulus (GPa) = 28.14327 54.16993 41.15660
# Shear Modulus (GPa) = 26.92599 37.21885 32.07242
#
# Velocity S-wave (km/s) = 3.36376 3.95477 3.67118
# Velocity P-wave (km/s) = 5.18777 6.60432 5.93843
#
# Compressibility (1/GPa) = 0.03553248
#
# Stress axis : x y z
#
# Youngs Moduli (GPa) = 83.08508 25.98279 123.53384
#
# Poissons Ratio (x) = 0.02925 0.16678
# Poissons Ratio (y) = 0.09352 1.12008
# Poissons Ratio (z) = 0.11217 0.23559
#
# Static dielectric constant tensor:
#      x y z
#    x 1.898710 0.000000 -0.027140 
#    y 0.000000 1.925970 0.000000 
#    z -0.027140 0.000000 1.920600 
# 
# From -- ./inp_files/15154.got.cif
#   From: 2010.05.17/outbox.cif.g08.bks.cpg/sg14_8_cif.got.tgz:15154.got - 2010.06.03 17:49:19.
