data_PCOD9251680
_publ_section_title
;
Structure prediction by ZEFSAII (Michael W. Deem and Ramdas Pophale) SiO2 
 PCOD9251680
Probable space group: P 21/C
;
_chemical_formula_sum "Si O2"
_cell_formula_units_Z 28
_cell_length_a 14.320578
_cell_length_b 4.975754
_cell_length_c 23.761335
_cell_angle_alpha 90.000000
_cell_angle_beta 123.210597
_cell_angle_gamma 90.000000
_cell_volume 1416.579205
_symmetry_space_group_name_H-M "P 21/C"
_symmetry_group_IT_number 14
_symmetry_cell_setting 'monoclinic'
loop_
_space_group_symop_operation_xyz
x,y,z
-x,1/2+y,1/2-z
-x,-y,-z
x,1/2-y,1/2+z
loop_
_atom_site_type_symbol
_atom_site_label
_atom_site_fract_x
_atom_site_fract_y
_atom_site_fract_z
Si Si1 0.740132 0.101046 0.511250
Si Si2 0.106219 0.319461 0.603518
Si Si3 0.428405 0.749272 0.954565
Si Si4 0.122930 0.395758 0.475983
Si Si5 0.573995 0.099416 0.176043
Si Si6 0.424833 0.570585 0.141124
Si Si7 0.241883 0.824595 0.676629
O O1 0.689521 0.201926 0.553242
O O2 0.786986 0.366462 0.496640
O O3 0.640435 0.999228 0.437998
O O4 0.831026 0.863074 0.542091
O O5 0.107324 0.311294 0.535803
O O6 0.201444 0.519258 0.657787
O O7 0.989698 0.457903 0.581696
O O8 0.136116 0.021173 0.633158
O O9 0.415066 0.792498 0.883862
O O10 0.500000 0.500000 0.000000
O O11 0.500000 0.000000 0.000000
O O12 0.498231 0.317371 0.183516
O O13 0.692994 0.098189 0.245448
O O14 0.507132 0.820005 0.156852
O O15 0.330370 0.626058 0.155846
#
# Coordination Sequence:
#
# PCOD9251680 Si02
#       7
#     4   4   4   4   4   4   4
#     4  12  21  37  62  85 121 153 195 247 297 343
#     4  11  22  38  60  87 118 151 196 246 300 355
#     4  12  23  38  59  84 117 158 198 242 283 342
#     4  11  22  38  60  89 116 151 195 250 303 343
#     4  12  24  39  55  86 123 161 195 236 290 362
#     4  12  21  37  58  87 122 158 191 234 297 363
#     4  12  23  37  59  86 122 160 191 239 299 359
#
# _framework density 19.765926
#
# number of rings (size 3 to 8) (size 9 to 14) (size 15 to 20)
#    0.000    0.286    5.714    5.143    0.000    2.286 
#    0.000    0.000    0.000    3.429    0.000    0.000 
#    0.000    0.000    0.000    0.000    0.000    0.000 
#
# Total GULP energy -156547.561220 kJ/mol
# GULP energy per Si atom -5590.984329 kJ/mol
# Density = 1.972094 g / cm^3
# Si number density = 19.765926 Si / 1000 Ang^3
#
#
#
# Elastic Constant Matrix: (Units=GPa)
#
#
# Indices 1 2 3 4 5 6 
#
# 1 66.8377 9.7894 19.2859 0.0000 -3.6620 0.0000
# 2 9.7894 86.4899 -9.7874 0.0000 1.9429 0.0000
# 3 19.2859 -9.7874 74.2652 0.0000 -7.7406 0.0000
# 4 0.0000 0.0000 0.0000 23.7819 0.0000 15.4173
# 5 -3.6620 1.9429 -7.7406 0.0000 21.0471 0.0000
# 6 0.0000 0.0000 0.0000 15.4173 0.0000 32.8832
#
#
#
# Elastic Compliance Matrix: (Units=1/GPa)
#
#
# Indices 1 2 3 4 5 6 
#
# 1 0.016698 -0.002433 -0.004503 0.000000 0.001474 0.000000
# 2 -0.002433 0.012097 0.002148 0.000000 -0.000750 0.000000
# 3 -0.004503 0.002148 0.015406 0.000000 0.004684 0.000000
# 4 0.000000 0.000000 0.000000 0.060410 0.000000 -0.028323
# 5 0.001474 -0.000750 0.004684 0.000000 0.049561 0.000000
# 6 0.000000 0.000000 0.000000 -0.028323 0.000000 0.043690
#
#
# Mechanical properties :
#
#
# Convention : Reuss Voigt Hill
#
# Bulk Modulus (GPa) = 28.88077 29.57428 29.22753
# Shear Modulus (GPa) = 22.83310 29.42945 26.13127
#
# Velocity S-wave (km/s) = 3.40247 3.86281 3.63993
# Velocity P-wave (km/s) = 5.48442 5.90676 5.69950
#
# Compressibility (1/GPa) = 0.03462511
#
# Stress axis : x y z
#
# Youngs Moduli (GPa) = 59.88710 82.66309 64.90979
#
# Poissons Ratio (x) = 0.20109 0.29231
# Poissons Ratio (y) = 0.14569 -0.13942
# Poissons Ratio (z) = 0.26969 -0.17755
#
# Static dielectric constant tensor:
#      x y z
#    x 1.743620 0.000000 0.026230 
#    y 0.000000 1.684880 0.000000 
#    z 0.026230 0.000000 1.720740 
# 
# From -- ./inp_files/77323.got.cif
#   From: 2010.05.17/outbox.cif.g08.bks.cpg/sg14_39_cif.got.tgz:77323.got - 2010.06.03 17:49:19.
