data_PCOD9251556
_publ_section_title
;
Structure prediction by ZEFSAII (Michael W. Deem and Ramdas Pophale) SiO2 
 PCOD9251556
Probable space group: P 21/C
;
_chemical_formula_sum "Si O2"
_cell_formula_units_Z 24
_cell_length_a 9.183574
_cell_length_b 26.510447
_cell_length_c 10.002351
_cell_angle_alpha 90.000000
_cell_angle_beta 29.923330
_cell_angle_gamma 90.000000
_cell_volume 1214.766310
_symmetry_space_group_name_H-M "P 21/C"
_symmetry_group_IT_number 14
_symmetry_cell_setting 'monoclinic'
loop_
_space_group_symop_operation_xyz
x,y,z
-x,1/2+y,1/2-z
-x,-y,-z
x,1/2-y,1/2+z
loop_
_atom_site_type_symbol
_atom_site_label
_atom_site_fract_x
_atom_site_fract_y
_atom_site_fract_z
Si Si1 0.011424 0.878642 0.755365
Si Si2 0.819521 0.024612 0.762193
Si Si3 0.627422 0.125849 0.805434
Si Si4 0.172270 0.516255 0.233309
Si Si5 0.544458 0.239793 0.910506
Si Si6 0.820212 0.721865 0.559384
O O1 0.197118 0.865021 0.474015
O O2 0.168226 0.924163 0.705301
O O3 0.689528 0.897959 0.971322
O O4 0.931682 0.831941 0.914996
O O5 0.796349 0.084830 0.758193
O O6 0.000000 0.000000 0.500000
O O7 0.000634 0.010653 0.749226
O O8 0.500000 0.000000 0.000000
O O9 0.551191 0.179504 0.933159
O O10 0.000000 0.500000 0.500000
O O11 0.500000 0.500000 0.000000
O O12 0.346656 0.246070 0.935483
O O13 0.884341 0.252286 0.624589
O O14 0.407636 0.273146 0.137966
#
# Coordination Sequence:
#
# PCOD9251556 Si02
#       6
#     4   4   4   4   4   4
#     4  11  22  42  69  91 131 182 215 254 338 406
#     4  12  22  42  70  94 127 174 224 266 307 393
#     4  11  21  41  70  96 121 175 231 265 310 392
#     4  12  25  42  63  99 140 167 213 275 332 386
#     4  11  23  42  67  95 129 164 218 273 324 389
#     4  11  23  43  67  93 126 170 213 270 327 386
#
# _framework density 19.756886000000002
#
# number of rings (size 3 to 8) (size 9 to 14) (size 15 to 20)
#    0.000    0.667    3.333    7.000    0.000    0.000 
#    9.000    0.000    0.000    0.000    0.000    0.000 
#    0.000    0.000    0.000    0.000    0.000    0.000 
#
# Total GULP energy -133968.407945 kJ/mol
# GULP energy per Si atom -5582.016998 kJ/mol
# Density = 1.971192 g / cm^3
# Si number density = 19.756886 Si / 1000 Ang^3
#
#
#
# Elastic Constant Matrix: (Units=GPa)
#
#
# Indices 1 2 3 4 5 6 
#
# 1 123.2220 22.2490 40.0282 0.0000 -10.2217 0.0000
# 2 22.2490 62.3775 0.0913 0.0000 -2.6751 0.0000
# 3 40.0282 0.0913 131.4069 0.0000 -9.2351 0.0000
# 4 0.0000 0.0000 0.0000 29.6023 0.0000 -6.5469
# 5 -10.2217 -2.6751 -9.2351 0.0000 42.2751 0.0000
# 6 0.0000 0.0000 0.0000 -6.5469 0.0000 30.5733
#
#
#
# Elastic Compliance Matrix: (Units=1/GPa)
#
#
# Indices 1 2 3 4 5 6 
#
# 1 0.009794 -0.003424 -0.002874 0.000000 0.001524 0.000000
# 2 -0.003424 0.017272 0.001066 0.000000 0.000498 0.000000
# 3 -0.002874 0.001066 0.008572 0.000000 0.001245 0.000000
# 4 0.000000 0.000000 0.000000 0.035461 0.000000 0.007594
# 5 0.001524 0.000498 0.001245 0.000000 0.024326 0.000000
# 6 0.000000 0.000000 0.000000 0.007594 0.000000 0.034334
#
#
# Mechanical properties :
#
#
# Convention : Reuss Voigt Hill
#
# Bulk Modulus (GPa) = 39.72206 49.08261 44.40233
# Shear Modulus (GPa) = 33.64418 37.46601 35.55509
#
# Velocity S-wave (km/s) = 4.13111 4.35944 4.24681
# Velocity P-wave (km/s) = 6.55010 7.08779 6.82424
#
# Compressibility (1/GPa) = 0.02517493
#
# Stress axis : x y z
#
# Youngs Moduli (GPa) = 102.10824 57.89594 116.65741
#
# Poissons Ratio (x) = 0.19822 0.33525
# Poissons Ratio (y) = 0.34958 -0.12434
# Poissons Ratio (z) = 0.29344 -0.06171
#
# Static dielectric constant tensor:
#      x y z
#    x 1.666840 0.000000 -0.005500 
#    y 0.000000 1.739580 0.000000 
#    z -0.005500 0.000000 1.680600 
# 
# From -- ./inp_files/11312.got.cif
#   From: 2010.05.17/outbox.cif.g08.bks.cpg/sg14_6_cif.got.tgz:11312.got - 2010.06.03 17:49:19.
