data_PCOD9251799
_publ_section_title
;
Structure prediction by ZEFSAII (Michael W. Deem and Ramdas Pophale) SiO2 
 PCOD9251799
Probable space group: P 21/C
;
_chemical_formula_sum "Si O2"
_cell_formula_units_Z 28
_cell_length_a 20.496260
_cell_length_b 5.359469
_cell_length_c 18.218027
_cell_angle_alpha 90.000000
_cell_angle_beta 140.970605
_cell_angle_gamma 90.000000
_cell_volume 1260.214678
_symmetry_space_group_name_H-M "P 21/C"
_symmetry_group_IT_number 14
_symmetry_cell_setting 'monoclinic'
loop_
_space_group_symop_operation_xyz
x,y,z
-x,1/2+y,1/2-z
-x,-y,-z
x,1/2-y,1/2+z
loop_
_atom_site_type_symbol
_atom_site_label
_atom_site_fract_x
_atom_site_fract_y
_atom_site_fract_z
Si Si1 0.529422 0.715442 0.320206
Si Si2 0.546105 0.247084 0.078193
Si Si3 0.123626 0.770165 0.445178
Si Si4 0.246943 0.710918 0.323082
Si Si5 0.894819 0.609658 0.705980
Si Si6 0.737878 0.961986 0.528345
Si Si7 0.932084 0.243006 0.941718
O O1 0.505246 0.451823 0.260300
O O2 0.479322 0.739797 0.357454
O O3 0.652990 0.754064 0.439479
O O4 0.666660 0.214444 0.163526
O O5 0.500000 0.500000 0.000000
O O6 0.500000 0.000000 0.000000
O O7 0.112578 0.549007 0.375435
O O8 0.129767 0.723120 0.536401
O O9 0.233593 0.893002 0.520194
O O10 0.009629 0.903019 0.338346
O O11 0.198146 0.468870 0.320058
O O12 0.142925 0.797357 0.192621
O O13 0.294627 0.869046 0.431801
O O14 0.855630 0.883513 0.652006
O O15 0.000000 0.500000 0.000000
O O16 0.000000 0.000000 0.000000
#
# Coordination Sequence:
#
# PCOD9251799 Si02
#       7
#     4   4   4   4   4   4   4
#     4  12  29  51  75 113 153 192 249 321 378 442
#     4  12  26  50  80 109 145 197 256 313 375 449
#     4  11  24  40  68 104 139 194 233 298 358 440
#     4  11  26  45  73 104 141 196 243 301 363 439
#     4  11  22  42  71 101 142 185 244 286 365 440
#     4  11  25  45  73 101 143 192 243 296 368 446
#     4  12  28  45  66 103 150 185 238 300 358 427
#
# _framework density 22.218433999999998
#
# number of rings (size 3 to 8) (size 9 to 14) (size 15 to 20)
#    0.000    0.571    4.286    2.571   10.000    0.000 
#    0.000    0.000    0.000    0.000    0.000    0.000 
#    0.000    0.000    0.000    0.000    0.000    0.000 
#
# Total GULP energy -156134.797699 kJ/mol
# GULP energy per Si atom -5576.242775 kJ/mol
# Density = 2.216786 g / cm^3
# Si number density = 22.218434 Si / 1000 Ang^3
#
#
#
# Elastic Constant Matrix: (Units=GPa)
#
#
# Indices 1 2 3 4 5 6 
#
# 1 160.4145 29.0017 18.5384 0.0000 -19.1303 0.0000
# 2 29.0017 85.7311 20.2494 0.0000 -5.8754 0.0000
# 3 18.5384 20.2494 74.2600 0.0000 1.7072 0.0000
# 4 0.0000 0.0000 0.0000 42.8640 0.0000 2.3332
# 5 -19.1303 -5.8754 1.7072 0.0000 44.3831 0.0000
# 6 0.0000 0.0000 0.0000 2.3332 0.0000 4.7003
#
#
#
# Elastic Compliance Matrix: (Units=1/GPa)
#
#
# Indices 1 2 3 4 5 6 
#
# 1 0.007066 -0.001885 -0.001316 0.000000 0.002847 0.000000
# 2 -0.001885 0.013113 -0.003129 0.000000 0.001044 0.000000
# 3 -0.001316 -0.003129 0.014683 0.000000 -0.001546 0.000000
# 4 0.000000 0.000000 0.000000 0.023978 0.000000 -0.011903
# 5 0.002847 0.001044 -0.001546 0.000000 0.023956 0.000000
# 6 0.000000 0.000000 0.000000 -0.011903 0.000000 0.218663
#
#
# Mechanical properties :
#
#
# Convention : Reuss Voigt Hill
#
# Bulk Modulus (GPa) = 45.03765 50.66495 47.85130
# Shear Modulus (GPa) = 15.55124 35.23054 25.39089
#
# Velocity S-wave (km/s) = 2.64848 3.98634 3.38418
# Velocity P-wave (km/s) = 5.44674 6.63630 6.07073
#
# Compressibility (1/GPa) = 0.02220364
#
# Stress axis : x y z
#
# Youngs Moduli (GPa) = 141.52097 76.26302 68.10407
#
# Poissons Ratio (x) = 0.14372 0.08959
# Poissons Ratio (y) = 0.26670 0.21310
# Poissons Ratio (z) = 0.18618 0.23863
#
# Static dielectric constant tensor:
#      x y z
#    x 1.924010 0.000000 0.012180 
#    y 0.000000 1.969430 0.000000 
#    z 0.012180 0.000000 1.952820 
# 
# From -- ./inp_files/60958.got.cif
#   From: 2010.05.17/outbox.cif.g08.bks.cpg/sg14_31_cif.got.tgz:60958.got - 2010.06.03 17:49:19.
