data_PCOD9251941
_publ_section_title
;
Structure prediction by ZEFSAII (Michael W. Deem and Ramdas Pophale) SiO2 
 PCOD9251941
Probable space group: P 21/C
;
_chemical_formula_sum "Si O2"
_cell_formula_units_Z 22
_cell_length_a 6.234076
_cell_length_b 7.640209
_cell_length_c 20.238901
_cell_angle_alpha 90.000000
_cell_angle_beta 102.377424
_cell_angle_gamma 90.000000
_cell_volume 941.565868
_symmetry_space_group_name_H-M "P 21/C"
_symmetry_group_IT_number 14
_symmetry_cell_setting 'monoclinic'
loop_
_space_group_symop_operation_xyz
x,y,z
-x,1/2+y,1/2-z
-x,-y,-z
x,1/2-y,1/2+z
loop_
_atom_site_type_symbol
_atom_site_label
_atom_site_fract_x
_atom_site_fract_y
_atom_site_fract_z
Si Si1 0.447209 0.228016 0.820196
Si Si2 0.500000 0.500000 0.500000
Si Si3 0.117576 0.385965 0.888766
Si Si4 0.236373 0.594202 0.250878
Si Si5 0.854472 0.064794 0.915165
Si Si6 0.807770 0.221913 0.108881
O O1 0.352809 0.311324 0.881039
O O2 0.540290 0.365973 0.774696
O O3 0.658075 0.113980 0.852533
O O4 0.261418 0.101214 0.780240
O O5 0.266011 0.527753 0.524441
O O6 0.409173 0.634308 0.436019
O O7 0.148551 0.583149 0.914641
O O8 0.963151 0.394351 0.813475
O O9 0.005895 0.240174 0.927316
O O10 0.217201 0.719870 0.312942
O O11 0.989931 0.905483 0.894080
#
# Coordination Sequence:
#
# PCOD9251941 Si02
#       6
#     4   2   4   4   4   4
#     4  11  23  42  68 108 144 182 232 300 354 428
#     4  12  26  48  74 100 146 196 242 290 352 428
#     4  11  25  43  70 105 139 181 239 299 362 417
#     4  11  23  38  70 102 144 178 234 294 363 424
#     4  11  25  48  67 101 139 185 244 294 348 423
#     4  12  26  45  73 103 140 193 236 293 361 423
#
# _framework density 23.365331000000001
#
# number of rings (size 3 to 8) (size 9 to 14) (size 15 to 20)
#    0.000    0.727    3.636    2.727    7.636    3.636 
#    0.000    4.545    0.000    0.000    0.000    0.000 
#    0.000    0.000    0.000    0.000    0.000    0.000 
#
# Total GULP energy -122644.522430 kJ/mol
# GULP energy per Si atom -5574.751020 kJ/mol
# Density = 2.331215 g / cm^3
# Si number density = 23.365331 Si / 1000 Ang^3
#
#
#
# Elastic Constant Matrix: (Units=GPa)
#
#
# Indices 1 2 3 4 5 6 
#
# 1 126.9193 72.8801 24.6406 0.0000 -29.0934 0.0000
# 2 72.8801 149.6721 11.2813 0.0000 2.4894 0.0000
# 3 24.6406 11.2813 55.6058 0.0000 2.5841 0.0000
# 4 0.0000 0.0000 0.0000 12.5223 0.0000 -2.8865
# 5 -29.0934 2.4894 2.5841 0.0000 43.3120 0.0000
# 6 0.0000 0.0000 0.0000 -2.8865 0.0000 36.7150
#
#
#
# Elastic Compliance Matrix: (Units=1/GPa)
#
#
# Indices 1 2 3 4 5 6 
#
# 1 0.016060 -0.007551 -0.006123 0.000000 0.011587 0.000000
# 2 -0.007551 0.010340 0.001516 0.000000 -0.005757 0.000000
# 3 -0.006123 0.001516 0.020642 0.000000 -0.005432 0.000000
# 4 0.000000 0.000000 0.000000 0.081332 0.000000 0.006394
# 5 0.011587 -0.005757 -0.005432 0.000000 0.031527 0.000000
# 6 0.000000 0.000000 0.000000 0.006394 0.000000 0.027740
#
#
# Mechanical properties :
#
#
# Convention : Reuss Voigt Hill
#
# Bulk Modulus (GPa) = 44.00473 61.08902 52.54688
# Shear Modulus (GPa) = 22.77580 33.40287 28.08933
#
# Velocity S-wave (km/s) = 3.12552 3.78510 3.47101
# Velocity P-wave (km/s) = 5.64795 6.73086 6.21305
#
# Compressibility (1/GPa) = 0.02272483
#
# Stress axis : x y z
#
# Youngs Moduli (GPa) = 62.26638 96.71423 48.44513
#
# Poissons Ratio (x) = 0.73032 0.29664
# Poissons Ratio (y) = 0.47019 -0.07344
# Poissons Ratio (z) = 0.38126 -0.14662
#
# Static dielectric constant tensor:
#      x y z
#    x 1.914060 0.000000 0.011290 
#    y 0.000000 1.879700 0.000000 
#    z 0.011290 0.000000 1.943290 
# 
# From -- ./inp_files/63040.got.cif
#   From: 2010.05.17/outbox.cif.g08.bks.cpg/sg14_32_cif.got.tgz:63040.got - 2010.06.03 17:49:19.
