data_PCOD9251756
_publ_section_title
;
Structure prediction by ZEFSAII (Michael W. Deem and Ramdas Pophale) SiO2 
 PCOD9251756
Probable space group: P 21/C
;
_chemical_formula_sum "Si O2"
_cell_formula_units_Z 28
_cell_length_a 10.310165
_cell_length_b 6.676603
_cell_length_c 21.149122
_cell_angle_alpha 90.000000
_cell_angle_beta 109.749780
_cell_angle_gamma 90.000000
_cell_volume 1370.203149
_symmetry_space_group_name_H-M "P 21/C"
_symmetry_group_IT_number 14
_symmetry_cell_setting 'monoclinic'
loop_
_space_group_symop_operation_xyz
x,y,z
-x,1/2+y,1/2-z
-x,-y,-z
x,1/2-y,1/2+z
loop_
_atom_site_type_symbol
_atom_site_label
_atom_site_fract_x
_atom_site_fract_y
_atom_site_fract_z
Si Si1 0.077521 0.133978 0.459280
Si Si2 0.331405 0.465520 0.914047
Si Si3 0.777245 0.962582 0.942295
Si Si4 0.320935 0.496311 0.772383
Si Si5 0.367917 0.162356 0.672552
Si Si6 0.418526 0.802927 0.001683
Si Si7 0.828129 0.277908 0.841667
O O1 0.225810 0.075894 0.454072
O O2 0.108926 0.342138 0.499907
O O3 0.979075 0.138786 0.381673
O O4 0.000000 0.000000 0.500000
O O5 0.279620 0.425380 0.835379
O O6 0.473581 0.344596 0.946682
O O7 0.366543 0.697659 0.929844
O O8 0.676033 0.791978 0.896181
O O9 0.704377 0.123730 0.974968
O O10 0.821153 0.096788 0.890802
O O11 0.335363 0.309041 0.726607
O O12 0.472724 0.597833 0.800868
O O13 0.216587 0.665832 0.729448
O O14 0.277478 0.959524 0.661821
O O15 0.500000 0.000000 0.000000
#
# Coordination Sequence:
#
# PCOD9251756 Si02
#       7
#     4   4   4   4   4   4   4
#     4  12  24  46  68  97 137 179 225 279 338 410
#     4  11  26  42  65 102 138 173 221 283 337 402
#     4  11  23  41  72  99 128 173 226 282 345 400
#     4  11  24  42  66  96 132 176 223 273 338 397
#     4  11  22  41  70  98 129 173 226 280 333 400
#     4  11  22  41  68 102 131 165 218 283 343 392
#     4  11  24  43  65  96 131 179 223 274 329 409
#
# _framework density 20.434925
#
# number of rings (size 3 to 8) (size 9 to 14) (size 15 to 20)
#    0.000    0.857    4.286    3.000    4.000    1.143 
#    2.571    0.000    0.000    0.000    0.000    0.000 
#    0.000    0.000    0.000    0.000    0.000    0.000 
#
# Total GULP energy -156242.774250 kJ/mol
# GULP energy per Si atom -5580.099080 kJ/mol
# Density = 2.038841 g / cm^3
# Si number density = 20.434925 Si / 1000 Ang^3
#
#
#
# Elastic Constant Matrix: (Units=GPa)
#
#
# Indices 1 2 3 4 5 6 
#
# 1 64.9675 26.4494 27.2700 0.0000 1.1615 0.0000
# 2 26.4494 92.4134 31.3326 0.0000 1.6746 0.0000
# 3 27.2700 31.3326 100.9113 0.0000 4.6235 0.0000
# 4 0.0000 0.0000 0.0000 36.2240 0.0000 3.2776
# 5 1.1615 1.6746 4.6235 0.0000 35.1733 0.0000
# 6 0.0000 0.0000 0.0000 3.2776 0.0000 17.7511
#
#
#
# Elastic Compliance Matrix: (Units=1/GPa)
#
#
# Indices 1 2 3 4 5 6 
#
# 1 0.018627 -0.004051 -0.003779 0.000000 0.000075 0.000000
# 2 -0.004051 0.012975 -0.002930 0.000000 -0.000099 0.000000
# 3 -0.003779 -0.002930 0.011900 0.000000 -0.001300 0.000000
# 4 0.000000 0.000000 0.000000 0.028075 0.000000 -0.005184
# 5 0.000075 -0.000099 -0.001300 0.000000 0.028604 0.000000
# 6 0.000000 0.000000 0.000000 -0.005184 0.000000 0.057292
#
#
# Mechanical properties :
#
#
# Convention : Reuss Voigt Hill
#
# Bulk Modulus (GPa) = 45.49063 47.59957 46.54510
# Shear Modulus (GPa) = 26.83559 29.37904 28.10731
#
# Velocity S-wave (km/s) = 3.62777 3.79580 3.71274
# Velocity P-wave (km/s) = 6.31325 6.52339 6.41918
#
# Compressibility (1/GPa) = 0.02198255
#
# Stress axis : x y z
#
# Youngs Moduli (GPa) = 53.68689 77.06873 84.03271
#
# Poissons Ratio (x) = 0.31221 0.31757
# Poissons Ratio (y) = 0.21749 0.24618
# Poissons Ratio (z) = 0.20289 0.22578
#
# Static dielectric constant tensor:
#      x y z
#    x 1.646870 0.000000 0.085350 
#    y 0.000000 1.725580 0.000000 
#    z 0.085350 0.000000 1.744390 
# 
# From -- ./inp_files/66522.got.cif
#   From: 2010.05.17/outbox.cif.g08.bks.cpg/sg14_34_cif.got.tgz:66522.got - 2010.06.03 17:49:19.
