data_PCOD9251779
_publ_section_title
;
Structure prediction by ZEFSAII (Michael W. Deem and Ramdas Pophale) SiO2 
 PCOD9251779
Probable space group: P 21/C
;
_chemical_formula_sum "Si O2"
_cell_formula_units_Z 28
_cell_length_a 7.888184
_cell_length_b 5.402065
_cell_length_c 29.390321
_cell_angle_alpha 90.000000
_cell_angle_beta 67.612429
_cell_angle_gamma 90.000000
_cell_volume 1157.999910
_symmetry_space_group_name_H-M "P 21/C"
_symmetry_group_IT_number 14
_symmetry_cell_setting 'monoclinic'
loop_
_space_group_symop_operation_xyz
x,y,z
-x,1/2+y,1/2-z
-x,-y,-z
x,1/2-y,1/2+z
loop_
_atom_site_type_symbol
_atom_site_label
_atom_site_fract_x
_atom_site_fract_y
_atom_site_fract_z
Si Si1 0.444856 0.858533 0.895271
Si Si2 0.199597 0.124884 0.091249
Si Si3 0.270246 0.570325 0.258045
Si Si4 0.571025 0.625874 0.158861
Si Si5 0.068486 0.225342 0.850394
Si Si6 0.064557 0.113802 0.696967
Si Si7 0.028886 0.749201 0.968309
O O1 0.583706 0.889237 0.923763
O O2 0.501814 0.611527 0.861450
O O3 0.236577 0.796077 0.929746
O O4 0.459177 0.116742 0.865436
O O5 0.130069 0.219299 0.148130
O O6 0.120370 0.273769 0.057201
O O7 0.077997 0.876816 0.099574
O O8 0.470514 0.625975 0.218446
O O9 0.216479 0.464056 0.312745
O O10 0.185963 0.384326 0.229203
O O11 0.140575 0.809307 0.268459
O O12 0.788592 0.584922 0.142687
O O13 0.946999 0.343087 0.823323
O O14 0.000000 0.500000 0.000000
O O15 0.000000 0.000000 0.000000
#
# Coordination Sequence:
#
# PCOD9251779 Si02
#       7
#     4   4   4   4   4   4   4
#     4  12  27  50  79 111 144 192 247 300 378 455
#     4  11  26  48  78 107 148 203 239 308 382 442
#     4  11  24  37  63 102 146 202 259 301 348 421
#     4  12  27  44  70 108 151 196 256 302 355 439
#     4  11  25  42  69 100 156 204 253 310 364 420
#     4  11  22  42  64 100 149 200 257 300 353 427
#     4  12  29  53  83 114 147 178 241 316 385 467
#
# _framework density 24.179618999999999
#
# number of rings (size 3 to 8) (size 9 to 14) (size 15 to 20)
#    0.000    0.571    4.286    2.571   10.000    1.143 
#    0.000    0.000    0.000    0.000    0.000    0.000 
#    0.000    0.000    0.000    0.000    0.000    0.000 
#
# Total GULP energy -156379.839575 kJ/mol
# GULP energy per Si atom -5584.994271 kJ/mol
# Density = 2.412459 g / cm^3
# Si number density = 24.179619 Si / 1000 Ang^3
#
#
#
# Elastic Constant Matrix: (Units=GPa)
#
#
# Indices 1 2 3 4 5 6 
#
# 1 133.1824 9.4253 24.8696 0.0000 10.1367 0.0000
# 2 9.4253 113.6081 40.4316 0.0000 -4.7289 0.0000
# 3 24.8696 40.4316 61.4360 0.0000 -0.7620 0.0000
# 4 0.0000 0.0000 0.0000 37.1113 0.0000 7.6109
# 5 10.1367 -4.7289 -0.7620 0.0000 37.6434 0.0000
# 6 0.0000 0.0000 0.0000 7.6109 0.0000 29.2187
#
#
#
# Elastic Compliance Matrix: (Units=1/GPa)
#
#
# Indices 1 2 3 4 5 6 
#
# 1 0.008345 0.000556 -0.003772 0.000000 -0.002254 0.000000
# 2 0.000556 0.011594 -0.007841 0.000000 0.001148 0.000000
# 3 -0.003772 -0.007841 0.022971 0.000000 0.000496 0.000000
# 4 0.000000 0.000000 0.000000 0.028467 0.000000 -0.007415
# 5 -0.002254 0.001148 0.000496 0.000000 0.027326 0.000000
# 6 0.000000 0.000000 0.000000 -0.007415 0.000000 0.036156
#
#
# Mechanical properties :
#
#
# Convention : Reuss Voigt Hill
#
# Bulk Modulus (GPa) = 48.08673 50.85326 49.46999
# Shear Modulus (GPa) = 30.50535 36.36136 33.43335
#
# Velocity S-wave (km/s) = 3.55577 3.88210 3.72251
# Velocity P-wave (km/s) = 6.06535 6.41649 6.24339
#
# Compressibility (1/GPa) = 0.02079576
#
# Stress axis : x y z
#
# Youngs Moduli (GPa) = 119.83148 86.24807 43.53361
#
# Poissons Ratio (x) = -0.04798 0.16422
# Poissons Ratio (y) = -0.06667 0.34136
# Poissons Ratio (z) = 0.45203 0.67630
#
# Static dielectric constant tensor:
#      x y z
#    x 1.978900 0.000000 0.023620 
#    y 0.000000 2.060360 0.000000 
#    z 0.023620 0.000000 1.964690 
# 
# From -- ./inp_files/79200.got.cif
#   From: 2010.05.17/outbox.cif.g08.bks.cpg/sg14_40_cif.got.tgz:79200.got - 2010.06.03 17:49:19.
