data_PCOD9251622
_publ_section_title
;
Structure prediction by ZEFSAII (Michael W. Deem and Ramdas Pophale) SiO2 
 PCOD9251622
Probable space group: P 21/C
;
_chemical_formula_sum "Si O2"
_cell_formula_units_Z 16
_cell_length_a 6.342286
_cell_length_b 7.899041
_cell_length_c 20.915366
_cell_angle_alpha 90.000000
_cell_angle_beta 140.940100
_cell_angle_gamma 90.000000
_cell_volume 660.263895
_symmetry_space_group_name_H-M "P 21/C"
_symmetry_group_IT_number 14
_symmetry_cell_setting 'monoclinic'
loop_
_space_group_symop_operation_xyz
x,y,z
-x,1/2+y,1/2-z
-x,-y,-z
x,1/2-y,1/2+z
loop_
_atom_site_type_symbol
_atom_site_label
_atom_site_fract_x
_atom_site_fract_y
_atom_site_fract_z
Si Si1 0.878482 0.681966 0.127062
Si Si2 0.763006 0.149877 0.045507
Si Si3 0.905266 0.325829 0.193501
Si Si4 0.895677 0.805906 0.489255
O O1 0.993003 0.502508 0.180895
O O2 0.931316 0.804925 0.199337
O O3 0.481831 0.687015 0.020444
O O4 0.021064 0.730708 0.091309
O O5 0.992167 0.183351 0.161138
O O6 0.967602 0.167828 0.028670
O O7 0.500000 0.000000 0.000000
O O8 0.506650 0.304952 0.109853
O O9 0.000000 0.000000 0.500000
#
# Coordination Sequence:
#
# PCOD9251622 Si02
#       4
#     4   4   4   4
#     4  11  23  41  65  98 135 180 236 295 358 420
#     4  11  23  43  67  95 135 177 231 296 354 423
#     4  11  23  41  65  98 135 180 236 295 358 420
#     4  11  21  45  69  92 137 189 231 288 361 422
#
# _framework density 24.232735000000002
#
# number of rings (size 3 to 8) (size 9 to 14) (size 15 to 20)
#    0.000    1.000    5.000    3.000    0.000    6.000 
#    9.000    0.000    0.000    0.000    0.000    0.000 
#    0.000    0.000    0.000    0.000    0.000    0.000 
#
# Total GULP energy -89319.724415 kJ/mol
# GULP energy per Si atom -5582.482776 kJ/mol
# Density = 2.417758 g / cm^3
# Si number density = 24.232735 Si / 1000 Ang^3
#
#
#
# Elastic Constant Matrix: (Units=GPa)
#
#
# Indices 1 2 3 4 5 6 
#
# 1 133.4256 28.7418 40.4522 0.0000 -51.5593 0.0000
# 2 28.7418 86.4683 9.9988 0.0000 -28.5682 0.0000
# 3 40.4522 9.9988 122.1858 0.0000 -54.3321 0.0000
# 4 0.0000 0.0000 0.0000 32.4559 0.0000 -13.4657
# 5 -51.5593 -28.5682 -54.3321 0.0000 48.5472 0.0000
# 6 0.0000 0.0000 0.0000 -13.4657 0.0000 47.2849
#
#
#
# Elastic Compliance Matrix: (Units=1/GPa)
#
#
# Indices 1 2 3 4 5 6 
#
# 1 0.013729 0.001727 0.004477 0.000000 0.020607 0.000000
# 2 0.001727 0.016401 0.006357 0.000000 0.018601 0.000000
# 3 0.004477 0.006357 0.019826 0.000000 0.030684 0.000000
# 4 0.000000 0.000000 0.000000 0.034939 0.000000 0.009950
# 5 0.020607 0.018601 0.030684 0.000000 0.087771 0.000000
# 6 0.000000 0.000000 0.000000 0.009950 0.000000 0.023982
#
#
# Mechanical properties :
#
#
# Convention : Reuss Voigt Hill
#
# Bulk Modulus (GPa) = 13.31942 55.60726 34.46334
# Shear Modulus (GPa) = 25.43868 43.18338 34.31103
#
# Velocity S-wave (km/s) = 3.24352 4.22599 3.76692
# Velocity P-wave (km/s) = 4.41991 6.84170 5.75954
#
# Compressibility (1/GPa) = 0.07507834
#
# Stress axis : x y z
#
# Youngs Moduli (GPa) = 72.84067 60.97162 50.43846
#
# Poissons Ratio (x) = -0.10532 -0.22581
# Poissons Ratio (y) = -0.12582 -0.32064
# Poissons Ratio (z) = -0.32610 -0.38760
#
# Static dielectric constant tensor:
#      x y z
#    x 2.007210 0.000000 -0.070690 
#    y 0.000000 2.035690 0.000000 
#    z -0.070690 0.000000 1.923320 
# 
# From -- ./inp_files/36630.got.cif
#   From: 2010.05.17/outbox.cif.g08.bks.cpg/sg14_19_cif.got.tgz:36630.got - 2010.06.03 17:49:19.
