data_PCOD9251701
_publ_section_title
;
Structure prediction by ZEFSAII (Michael W. Deem and Ramdas Pophale) SiO2 
 PCOD9251701
Probable space group: P 21/C
;
_chemical_formula_sum "Si O2"
_cell_formula_units_Z 20
_cell_length_a 7.562366
_cell_length_b 17.760944
_cell_length_c 6.672649
_cell_angle_alpha 90.000000
_cell_angle_beta 59.779510
_cell_angle_gamma 90.000000
_cell_volume 774.432264
_symmetry_space_group_name_H-M "P 21/C"
_symmetry_group_IT_number 14
_symmetry_cell_setting 'monoclinic'
loop_
_space_group_symop_operation_xyz
x,y,z
-x,1/2+y,1/2-z
-x,-y,-z
x,1/2-y,1/2+z
loop_
_atom_site_type_symbol
_atom_site_label
_atom_site_fract_x
_atom_site_fract_y
_atom_site_fract_z
Si Si1 0.842960 0.476053 0.839170
Si Si2 0.018418 0.874417 0.430678
Si Si3 0.562212 0.344938 0.523481
Si Si4 0.615441 0.814689 0.488401
Si Si5 0.416199 0.449014 0.301988
O O1 0.765195 0.495227 0.659617
O O2 0.948711 0.399346 0.856084
O O3 0.970566 0.547167 0.844865
O O4 0.631556 0.477149 0.089405
O O5 0.827080 0.822021 0.489420
O O6 0.224211 0.842317 0.215574
O O7 0.562502 0.344879 0.762374
O O8 0.442605 0.268684 0.539251
O O9 0.448154 0.419554 0.507626
O O10 0.627197 0.871505 0.296099
#
# Coordination Sequence:
#
# PCOD9251701 Si02
#       5
#     4   4   4   4   4
#     4   8  16  38  60  82 118 155 181 242 293 327
#     4   9  20  38  62  86 118 151 194 238 286 345
#     4  11  22  39  58  88 119 154 192 237 289 344
#     4  11  22  39  58  88 119 154 192 237 289 344
#     4   9  18  38  62  84 120 149 190 240 286 343
#
# _framework density 25.825372999999999
#
# number of rings (size 3 to 8) (size 9 to 14) (size 15 to 20)
#    0.000    2.400    2.000    0.000    0.000    1.600 
#    0.000   38.000    0.000    0.000    0.000    0.000 
#    0.000    0.000    0.000    0.000    0.000    0.000 
#
# Total GULP energy -111970.622526 kJ/mol
# GULP energy per Si atom -5598.531126 kJ/mol
# Density = 2.576659 g / cm^3
# Si number density = 25.825373 Si / 1000 Ang^3
#
#
#
# Elastic Constant Matrix: (Units=GPa)
#
#
# Indices 1 2 3 4 5 6 
#
# 1 103.9962 41.5075 10.4990 0.0000 -25.4522 0.0000
# 2 41.5075 103.2046 25.3054 0.0000 -23.5039 0.0000
# 3 10.4990 25.3054 60.5646 0.0000 -4.7659 0.0000
# 4 0.0000 0.0000 0.0000 33.4166 0.0000 0.6744
# 5 -25.4522 -23.5039 -4.7659 0.0000 37.3910 0.0000
# 6 0.0000 0.0000 0.0000 0.6744 0.0000 29.6810
#
#
#
# Elastic Compliance Matrix: (Units=1/GPa)
#
#
# Indices 1 2 3 4 5 6 
#
# 1 0.012610 -0.003590 -0.000190 0.000000 0.006303 0.000000
# 2 -0.003590 0.013502 -0.004590 0.000000 0.005459 0.000000
# 3 -0.000190 -0.004590 0.018409 0.000000 -0.000668 0.000000
# 4 0.000000 0.000000 0.000000 0.029939 0.000000 -0.000680
# 5 0.006303 0.005459 -0.000668 0.000000 0.034381 0.000000
# 6 0.000000 0.000000 0.000000 -0.000680 0.000000 0.033707
#
#
# Mechanical properties :
#
#
# Convention : Reuss Voigt Hill
#
# Bulk Modulus (GPa) = 35.99360 46.93215 41.46287
# Shear Modulus (GPa) = 29.66513 32.79461 31.22987
#
# Velocity S-wave (km/s) = 3.39290 3.56738 3.48123
# Velocity P-wave (km/s) = 5.41448 5.93132 5.67878
#
# Compressibility (1/GPa) = 0.02778271
#
# Stress axis : x y z
#
# Youngs Moduli (GPa) = 79.30042 74.06492 54.32025
#
# Poissons Ratio (x) = 0.26586 0.01033
# Poissons Ratio (y) = 0.28465 0.24930
# Poissons Ratio (z) = 0.01508 0.33992
#
# Static dielectric constant tensor:
#      x y z
#    x 2.096870 0.000000 0.045220 
#    y 0.000000 2.006320 0.000000 
#    z 0.045220 0.000000 2.016860 
# 
# From -- ./inp_files/5632.got.cif
#   From: 2010.05.17/outbox.cif.g08.bks.cpg/sg14_3_cif.got.tgz:5632.got - 2010.06.03 17:49:19.
