data_PCOD9251993
_publ_section_title
;
Structure prediction by ZEFSAII (Michael W. Deem and Ramdas Pophale) SiO2 
 PCOD9251993
Probable space group: P 21/C
;
_chemical_formula_sum "Si O2"
_cell_formula_units_Z 24
_cell_length_a 11.673814
_cell_length_b 7.309879
_cell_length_c 23.463068
_cell_angle_alpha 90.000000
_cell_angle_beta 30.789724
_cell_angle_gamma 90.000000
_cell_volume 1024.904467
_symmetry_space_group_name_H-M "P 21/C"
_symmetry_group_IT_number 14
_symmetry_cell_setting 'monoclinic'
loop_
_space_group_symop_operation_xyz
x,y,z
-x,1/2+y,1/2-z
-x,-y,-z
x,1/2-y,1/2+z
loop_
_atom_site_type_symbol
_atom_site_label
_atom_site_fract_x
_atom_site_fract_y
_atom_site_fract_z
Si Si1 0.547921 0.377881 0.307692
Si Si2 0.085868 0.360980 0.265202
Si Si3 0.011361 0.929501 0.323088
Si Si4 0.269649 0.028062 0.386847
Si Si5 0.415831 0.558891 0.939958
Si Si6 0.638373 0.049389 0.996815
O O1 0.797683 0.328842 0.222777
O O2 0.373524 0.220244 0.364273
O O3 0.608653 0.490186 0.224831
O O4 0.448429 0.473450 0.406462
O O5 0.087000 0.148297 0.286793
O O6 0.320620 0.465625 0.169654
O O7 0.012614 0.358666 0.230641
O O8 0.900579 0.478044 0.377127
O O9 0.768296 0.919392 0.457185
O O10 0.350505 0.895245 0.403061
O O11 0.000000 0.000000 0.500000
O O12 0.383305 0.733131 0.992937
O O13 0.500000 0.000000 0.000000
#
# Coordination Sequence:
#
# PCOD9251993 Si02
#       6
#     4   4   4   4   4   4
#     4  12  26  51  76 108 150 196 257 310 379 445
#     4  11  23  40  72 109 153 195 246 308 383 445
#     4  11  24  43  72 106 154 190 250 311 380 449
#     4  12  29  51  79 107 153 201 262 311 371 455
#     4  11  24  44  73 108 151 194 253 308 374 442
#     4  11  23  45  74 112 158 192 244 312 381 452
#
# _framework density 23.416817000000002
#
# number of rings (size 3 to 8) (size 9 to 14) (size 15 to 20)
#    0.000    0.667    5.000    1.500    2.333    4.000 
#    0.000    2.500    0.000    0.000    0.000    0.000 
#    0.000    0.000    0.000    0.000    0.000    0.000 
#
# Total GULP energy -134113.981809 kJ/mol
# GULP energy per Si atom -5588.082575 kJ/mol
# Density = 2.336352 g / cm^3
# Si number density = 23.416817 Si / 1000 Ang^3
#
#
#
# Elastic Constant Matrix: (Units=GPa)
#
#
# Indices 1 2 3 4 5 6 
#
# 1 120.6592 14.8407 43.5377 0.0000 -0.8445 0.0000
# 2 14.8407 60.9068 27.4335 0.0000 -7.1536 0.0000
# 3 43.5377 27.4335 194.3321 0.0000 -12.4919 0.0000
# 4 0.0000 0.0000 0.0000 21.6742 0.0000 10.9954
# 5 -0.8445 -7.1536 -12.4919 0.0000 54.3882 0.0000
# 6 0.0000 0.0000 0.0000 10.9954 0.0000 39.7256
#
#
#
# Elastic Compliance Matrix: (Units=1/GPa)
#
#
# Indices 1 2 3 4 5 6 
#
# 1 0.009138 -0.001438 -0.001875 0.000000 -0.000478 0.000000
# 2 -0.001438 0.017928 -0.002089 0.000000 0.001856 0.000000
# 3 -0.001875 -0.002089 0.005929 0.000000 0.001058 0.000000
# 4 0.000000 0.000000 0.000000 0.053674 0.000000 -0.014856
# 5 -0.000478 0.001856 0.001058 0.000000 0.018866 0.000000
# 6 0.000000 0.000000 0.000000 -0.014856 0.000000 0.029285
#
#
# Mechanical properties :
#
#
# Convention : Reuss Voigt Hill
#
# Bulk Modulus (GPa) = 45.06580 60.83577 52.95078
# Shear Modulus (GPa) = 32.67517 42.49667 37.58592
#
# Velocity S-wave (km/s) = 3.73952 4.26466 4.01069
# Velocity P-wave (km/s) = 6.15891 7.09124 6.64146
#
# Compressibility (1/GPa) = 0.02218978
#
# Stress axis : x y z
#
# Youngs Moduli (GPa) = 109.43448 55.77862 168.66727
#
# Poissons Ratio (x) = 0.08022 0.31624
# Poissons Ratio (y) = 0.15739 0.35241
# Poissons Ratio (z) = 0.20518 0.11654
#
# Static dielectric constant tensor:
#      x y z
#    x 1.824820 0.000000 -0.083590 
#    y 0.000000 2.000720 0.000000 
#    z -0.083590 0.000000 1.565160 
# 
# From -- ./inp_files/73029.got.cif
#   From: 2010.05.17/outbox.cif.g08.bks.cpg/sg14_37_cif.got.tgz:73029.got - 2010.06.03 17:49:19.
