data_PCOD9251335
_publ_section_title
;
Structure prediction by ZEFSAII (Michael W. Deem and Ramdas Pophale) SiO2 
 PCOD9251335
Probable space group: P 21/C
;
_chemical_formula_sum "Si O2"
_cell_formula_units_Z 24
_cell_length_a 30.831230
_cell_length_b 5.169527
_cell_length_c 26.156800
_cell_angle_alpha 90.000000
_cell_angle_beta 161.707355
_cell_angle_gamma 90.000000
_cell_volume 1308.509488
_symmetry_space_group_name_H-M "P 21/C"
_symmetry_group_IT_number 14
_symmetry_cell_setting 'monoclinic'
loop_
_space_group_symop_operation_xyz
x,y,z
-x,1/2+y,1/2-z
-x,-y,-z
x,1/2-y,1/2+z
loop_
_atom_site_type_symbol
_atom_site_label
_atom_site_fract_x
_atom_site_fract_y
_atom_site_fract_z
Si Si1 0.605682 0.456933 0.714586
Si Si2 0.838271 0.049934 0.815021
Si Si3 0.723794 0.947915 0.134153
Si Si4 0.678258 0.410278 0.469425
Si Si5 0.346122 0.410026 0.117360
Si Si6 0.356955 0.039711 0.308998
O O1 0.439474 0.463946 0.535860
O O2 0.671613 0.521566 0.843242
O O3 0.645563 0.177004 0.737821
O O4 0.644004 0.677244 0.716773
O O5 0.801685 0.336712 0.754758
O O6 0.764779 0.001887 0.786980
O O7 0.773593 0.838515 0.703946
O O8 0.000000 0.000000 0.000000
O O9 0.743204 0.017032 0.096397
O O10 0.512321 0.408823 0.293791
O O11 0.706179 0.631733 0.459017
O O12 0.714169 0.132319 0.486651
O O13 0.500000 0.000000 0.500000
#
# Coordination Sequence:
#
# PCOD9251335 Si02
#       6
#     4   4   4   4   4   4
#     4  11  20  33  57  84 110 144 177 225 276 324
#     4  12  25  38  54  80 112 148 188 224 261 323
#     4  11  20  36  56  80 110 147 183 221 275 321
#     4   9  17  29  49  75 110 141 166 217 274 323
#     4   9  17  29  46  80 112 132 170 218 273 323
#     4  12  21  36  56  80 110 147 184 220 275 321
#
# _framework density 18.341477999999999
#
# number of rings (size 3 to 8) (size 9 to 14) (size 15 to 20)
#    0.000    1.333    3.333    4.000    0.000    5.333 
#    0.000    0.000    0.000    0.000    0.000   23.333 
#    0.000    0.000    0.000    0.000    0.000    0.000 
#
# Total GULP energy -134080.562505 kJ/mol
# GULP energy per Si atom -5586.690104 kJ/mol
# Density = 1.829973 g / cm^3
# Si number density = 18.341478 Si / 1000 Ang^3
#
#
#
# Elastic Constant Matrix: (Units=GPa)
#
#
# Indices 1 2 3 4 5 6 
#
# 1 49.2163 -29.1904 21.2427 0.0000 2.1168 0.0000
# 2 -29.1904 43.5597 -13.1258 0.0000 5.2166 0.0000
# 3 21.2427 -13.1258 37.8037 0.0000 14.8301 0.0000
# 4 0.0000 0.0000 0.0000 6.6584 0.0000 -6.9663
# 5 2.1168 5.2166 14.8301 0.0000 17.7074 0.0000
# 6 0.0000 0.0000 0.0000 -6.9663 0.0000 38.6961
#
#
#
# Elastic Compliance Matrix: (Units=1/GPa)
#
#
# Indices 1 2 3 4 5 6 
#
# 1 0.039906 0.021834 -0.015561 0.000000 0.001829 0.000000
# 2 0.021834 0.045318 0.014487 0.000000 -0.028094 0.000000
# 3 -0.015561 0.014487 0.061316 0.000000 -0.053760 0.000000
# 4 0.000000 0.000000 0.000000 0.185037 0.000000 0.033311
# 5 0.001829 -0.028094 -0.053760 0.000000 0.109556 0.000000
# 6 0.000000 0.000000 0.000000 0.033311 0.000000 0.031839
#
#
# Mechanical properties :
#
#
# Convention : Reuss Voigt Hill
#
# Bulk Modulus (GPa) = 5.31743 9.82583 7.57163
# Shear Modulus (GPa) = 10.11861 22.72261 16.42061
#
# Velocity S-wave (km/s) = 2.35133 3.52357 2.99536
# Velocity P-wave (km/s) = 3.20579 4.68218 4.01248
#
# Compressibility (1/GPa) = 0.18806070
#
# Stress axis : x y z
#
# Youngs Moduli (GPa) = 25.05892 22.06619 16.30890
#
# Poissons Ratio (x) = -0.48179 0.25378
# Poissons Ratio (y) = -0.54714 -0.23627
# Poissons Ratio (z) = 0.38993 -0.31967
#
# Static dielectric constant tensor:
#      x y z
#    x 1.626750 0.000000 -0.012590 
#    y 0.000000 1.615630 0.000000 
#    z -0.012590 0.000000 1.609280 
# 
# From -- ./inp_files/75116.got.cif
#   From: 2010.05.17/outbox.cif.g08.bks.cpg/sg14_38_cif.got.tgz:75116.got - 2010.06.03 17:49:19.
