data_PCOD9251220
_publ_section_title
;
Structure prediction by ZEFSAII (Michael W. Deem and Ramdas Pophale) SiO2 
 PCOD9251220
Probable space group: P 21/C
;
_chemical_formula_sum "Si O2"
_cell_formula_units_Z 30
_cell_length_a 19.241290
_cell_length_b 9.763276
_cell_length_c 16.106624
_cell_angle_alpha 90.000000
_cell_angle_beta 23.699366
_cell_angle_gamma 90.000000
_cell_volume 1216.166273
_symmetry_space_group_name_H-M "P 21/C"
_symmetry_group_IT_number 14
_symmetry_cell_setting 'monoclinic'
loop_
_space_group_symop_operation_xyz
x,y,z
-x,1/2+y,1/2-z
-x,-y,-z
x,1/2-y,1/2+z
loop_
_atom_site_type_symbol
_atom_site_label
_atom_site_fract_x
_atom_site_fract_y
_atom_site_fract_z
Si Si1 0.838420 0.183225 0.063833
Si Si2 0.500000 0.500000 0.500000
Si Si3 0.757063 0.372678 0.998041
Si Si4 0.234762 0.158710 0.682648
Si Si5 0.288118 0.270298 0.807883
Si Si6 0.666802 0.161280 0.424962
Si Si7 0.384864 0.078966 0.949095
Si Si8 0.129756 0.062774 0.081416
O O1 0.779688 0.285018 0.056254
O O2 0.041817 0.184075 0.860371
O O3 0.797942 0.034352 0.070204
O O4 0.739756 0.213884 0.257238
O O5 0.341700 0.424133 0.726872
O O6 0.612519 0.512161 0.463366
O O7 0.751413 0.287449 0.917935
O O8 0.926858 0.465528 0.810428
O O9 0.570881 0.444258 0.204025
O O10 0.235918 0.206084 0.776766
O O11 0.363352 0.258218 0.492058
O O12 0.290725 0.000902 0.619784
O O13 0.466929 0.199578 0.642079
O O14 0.153882 0.219601 0.023787
O O15 0.233185 0.040615 0.052514
#
# Coordination Sequence:
#
# PCOD9251220 Si02
#       8
#     4   2   4   4   4   4   4   4
#     4  12  25  44  73 109 150 183 257 308 366 451
#     4  10  26  48  74 102 152 198 246 298 382 440
#     4  12  27  45  70 110 146 190 251 302 378 440
#     4  11  22  44  72 101 142 187 241 309 361 436
#     4  11  24  43  73 106 141 194 247 302 374 444
#     4  12  24  44  73 108 140 190 244 308 364 438
#     4  11  26  47  71 105 150 200 243 306 374 443
#     4  12  25  45  73 110 144 197 246 308 372 438
#
# _framework density 24.667680000000001
#
# number of rings (size 3 to 8) (size 9 to 14) (size 15 to 20)
#    0.000    0.533    5.333    3.200    3.733    2.133 
#    0.000    0.667    0.000    0.000    0.000    0.000 
#    0.000    0.000    0.000    0.000    0.000    0.000 
#
# Total GULP energy -167419.773487 kJ/mol
# GULP energy per Si atom -5580.659116 kJ/mol
# Density = 2.461154 g / cm^3
# Si number density = 24.667680 Si / 1000 Ang^3
#
#
#
# Elastic Constant Matrix: (Units=GPa)
#
#
# Indices 1 2 3 4 5 6 
#
# 1 237.6657 19.7702 38.3539 0.0000 0.1662 0.0000
# 2 19.7702 56.8948 2.5811 0.0000 10.1244 0.0000
# 3 38.3539 2.5811 55.1330 0.0000 1.9553 0.0000
# 4 0.0000 0.0000 0.0000 13.0418 0.0000 7.8759
# 5 0.1662 10.1244 1.9553 0.0000 40.2755 0.0000
# 6 0.0000 0.0000 0.0000 7.8759 0.0000 33.5819
#
#
#
# Elastic Compliance Matrix: (Units=1/GPa)
#
#
# Indices 1 2 3 4 5 6 
#
# 1 0.004883 -0.001644 -0.003340 0.000000 0.000555 0.000000
# 2 -0.001644 0.018980 0.000425 0.000000 -0.004785 0.000000
# 3 -0.003340 0.000425 0.020480 0.000000 -0.001087 0.000000
# 4 0.000000 0.000000 0.000000 0.089328 0.000000 -0.020950
# 5 0.000555 -0.004785 -0.001087 0.000000 0.026082 0.000000
# 6 0.000000 0.000000 0.000000 -0.020950 0.000000 0.034691
#
#
# Mechanical properties :
#
#
# Convention : Reuss Voigt Hill
#
# Bulk Modulus (GPa) = 28.38892 52.34488 40.36690
# Shear Modulus (GPa) = 23.22300 36.64572 29.93436
#
# Velocity S-wave (km/s) = 3.07161 3.85850 3.48732
# Velocity P-wave (km/s) = 4.91052 6.41224 5.71096
#
# Compressibility (1/GPa) = 0.03522501
#
# Stress axis : x y z
#
# Youngs Moduli (GPa) = 204.79650 52.68760 48.82850
#
# Poissons Ratio (x) = 0.08662 0.16307
# Poissons Ratio (y) = 0.33670 -0.02075
# Poissons Ratio (z) = 0.68393 -0.02238
#
# Static dielectric constant tensor:
#      x y z
#    x 1.891620 0.000000 0.027330 
#    y 0.000000 2.045430 0.000000 
#    z 0.027330 0.000000 2.009830 
# 
# From -- ./inp_files/48912.got.cif
#   From: 2010.05.17/outbox.cif.g08.bks.cpg/sg14_25_cif.got.tgz:48912.got - 2010.06.03 17:49:19.
