data_PCOD9251274
_publ_section_title
;
Structure prediction by ZEFSAII (Michael W. Deem and Ramdas Pophale) SiO2 
 PCOD9251274
Probable space group: P 21/C
;
_chemical_formula_sum "Si O2"
_cell_formula_units_Z 24
_cell_length_a 12.460251
_cell_length_b 7.037918
_cell_length_c 14.922743
_cell_angle_alpha 90.000000
_cell_angle_beta 126.785115
_cell_angle_gamma 90.000000
_cell_volume 1048.071421
_symmetry_space_group_name_H-M "P 21/C"
_symmetry_group_IT_number 14
_symmetry_cell_setting 'monoclinic'
loop_
_space_group_symop_operation_xyz
x,y,z
-x,1/2+y,1/2-z
-x,-y,-z
x,1/2-y,1/2+z
loop_
_atom_site_type_symbol
_atom_site_label
_atom_site_fract_x
_atom_site_fract_y
_atom_site_fract_z
Si Si1 0.158360 0.720976 0.933262
Si Si2 0.607887 0.279159 0.053943
Si Si3 0.125474 0.120529 0.976569
Si Si4 0.125474 0.120526 0.648903
Si Si5 0.312294 0.325642 0.406146
Si Si6 0.841639 0.279026 0.274900
O O1 0.031317 0.604652 0.902725
O O2 0.118906 0.778111 0.809453
O O3 0.307321 0.643800 0.988856
O O4 0.170580 0.902376 0.003510
O O5 0.692679 0.356202 0.181534
O O6 0.640348 0.048905 0.070175
O O7 0.449382 0.293563 0.974690
O O8 0.217032 0.204959 0.943524
O O9 0.968683 0.104650 0.871407
O O10 0.139729 0.250003 0.069863
O O11 0.217034 0.204958 0.773505
O O12 0.170580 0.902373 0.667069
#
# Coordination Sequence:
#
# PCOD9251274 Si02
#       6
#     4   4   4   4   4   4
#     4   9  17  33  51  75  96 135 165 201 251 296
#     4   7  15  28  55  65  92 135 162 192 248 297
#     4  11  19  30  52  76 100 127 168 212 249 291
#     4  11  19  30  52  76 100 127 168 212 249 291
#     4   9  15  32  47  73  96 127 168 202 240 301
#     4   9  17  33  51  75  96 135 165 201 251 296
#
# _framework density 22.899204000000001
#
# number of rings (size 3 to 8) (size 9 to 14) (size 15 to 20)
#    1.000    1.667    3.333    1.000    0.000    0.000 
#    0.000    1.667    0.000    8.000    0.000    0.000 
#    0.000    0.000    0.000    0.000    0.000    0.000 
#
# Total GULP energy -133793.616483 kJ/mol
# GULP energy per Si atom -5574.734020 kJ/mol
# Density = 2.284708 g / cm^3
# Si number density = 22.899204 Si / 1000 Ang^3
#
#
#
# Elastic Constant Matrix: (Units=GPa)
#
#
# Indices 1 2 3 4 5 6 
#
# 1 118.8112 21.2429 90.4581 0.0000 24.4043 0.0000
# 2 21.2429 60.0055 21.2826 0.0000 -1.2310 0.0000
# 3 90.4581 21.2826 117.3223 0.0000 23.3228 0.0000
# 4 0.0000 0.0000 0.0000 25.3085 0.0000 12.9366
# 5 24.4043 -1.2310 23.3228 0.0000 48.2940 0.0000
# 6 0.0000 0.0000 0.0000 12.9366 0.0000 25.7124
#
#
#
# Elastic Compliance Matrix: (Units=1/GPa)
#
#
# Indices 1 2 3 4 5 6 
#
# 1 0.021031 -0.002138 -0.015160 0.000000 -0.003361 0.000000
# 2 -0.002138 0.018248 -0.002178 0.000000 0.002597 0.000000
# 3 -0.015160 -0.002178 0.021123 0.000000 -0.002596 0.000000
# 4 0.000000 0.000000 0.000000 0.053192 0.000000 -0.026762
# 5 -0.003361 0.002597 -0.002596 0.000000 0.023725 0.000000
# 6 0.000000 0.000000 0.000000 -0.026762 0.000000 0.052357
#
#
# Mechanical properties :
#
#
# Convention : Reuss Voigt Hill
#
# Bulk Modulus (GPa) = 46.61793 62.45623 54.53708
# Shear Modulus (GPa) = 21.20646 30.74001 25.97324
#
# Velocity S-wave (km/s) = 3.04646 3.66786 3.37150
# Velocity P-wave (km/s) = 5.72508 6.72839 6.24691
#
# Compressibility (1/GPa) = 0.02145097
#
# Stress axis : x y z
#
# Youngs Moduli (GPa) = 47.54846 54.80115 47.34141
#
# Poissons Ratio (x) = 0.11714 0.71768
# Poissons Ratio (y) = 0.10164 0.10313
# Poissons Ratio (z) = 0.72082 0.11938
#
# Static dielectric constant tensor:
#      x y z
#    x 1.874510 0.000000 -0.010760 
#    y 0.000000 2.018930 0.000000 
#    z -0.010760 0.000000 1.874850 
# 
# From -- ./inp_files/44471.got.cif
#   From: 2010.05.17/outbox.cif.g08.bks.cpg/sg14_23_cif.got.tgz:44471.got - 2010.06.03 17:49:19.
