data_PCOD9251158
_publ_section_title
;
Structure prediction by ZEFSAII (Michael W. Deem and Ramdas Pophale) SiO2 
 PCOD9251158
Probable space group: P 21/C
;
_chemical_formula_sum "Si O2"
_cell_formula_units_Z 20
_cell_length_a 7.384260
_cell_length_b 9.581961
_cell_length_c 11.634107
_cell_angle_alpha 90.000000
_cell_angle_beta 84.269793
_cell_angle_gamma 90.000000
_cell_volume 819.065914
_symmetry_space_group_name_H-M "P 21/C"
_symmetry_group_IT_number 14
_symmetry_cell_setting 'monoclinic'
loop_
_space_group_symop_operation_xyz
x,y,z
-x,1/2+y,1/2-z
-x,-y,-z
x,1/2-y,1/2+z
loop_
_atom_site_type_symbol
_atom_site_label
_atom_site_fract_x
_atom_site_fract_y
_atom_site_fract_z
Si Si1 0.508389 0.271453 0.689106
Si Si2 0.944481 0.899256 0.106248
Si Si3 0.818195 0.171354 0.500803
Si Si4 0.846242 0.902315 0.359161
Si Si5 0.462769 0.426670 0.380709
O O1 0.647591 0.233792 0.578408
O O2 0.310284 0.209684 0.664165
O O3 0.518136 0.437647 0.702990
O O4 0.563391 0.193566 0.803492
O O5 0.926082 0.962702 0.234206
O O6 0.736912 0.860537 0.091834
O O7 0.086459 0.774472 0.095756
O O8 0.000000 0.000000 0.000000
O O9 0.981042 0.156431 0.583427
O O10 0.772115 0.025392 0.444288
O O11 0.500000 0.500000 0.500000
#
# Coordination Sequence:
#
# PCOD9251158 Si02
#       5
#     4   4   4   4   4
#     4  11  25  46  72 105 147 187 246 300 364 441
#     4  11  24  43  69 102 139 183 244 291 361 431
#     4  11  24  45  73 100 140 192 231 303 366 427
#     4  10  26  43  69 106 140 181 243 297 358 437
#     4  11  26  46  73 106 146 195 242 308 366 444
#
# _framework density 24.418057999999998
#
# number of rings (size 3 to 8) (size 9 to 14) (size 15 to 20)
#    0.000    1.200    2.000    1.800    5.600   11.200 
#    0.000    0.000    0.000    0.000    0.000    0.000 
#    0.000    0.000    0.000    0.000    0.000    0.000 
#
# Total GULP energy -111813.240035 kJ/mol
# GULP energy per Si atom -5590.662002 kJ/mol
# Density = 2.436248 g / cm^3
# Si number density = 24.418058 Si / 1000 Ang^3
#
#
#
# Elastic Constant Matrix: (Units=GPa)
#
#
# Indices 1 2 3 4 5 6 
#
# 1 98.0260 14.5515 35.2240 0.0000 0.2901 0.0000
# 2 14.5515 74.5721 12.6810 0.0000 -7.9050 0.0000
# 3 35.2240 12.6810 101.1474 0.0000 1.2708 0.0000
# 4 0.0000 0.0000 0.0000 45.7510 0.0000 -9.5503
# 5 0.2901 -7.9050 1.2708 0.0000 42.5208 0.0000
# 6 0.0000 0.0000 0.0000 -9.5503 0.0000 30.9067
#
#
#
# Elastic Compliance Matrix: (Units=1/GPa)
#
#
# Indices 1 2 3 4 5 6 
#
# 1 0.011858 -0.001677 -0.003916 0.000000 -0.000276 0.000000
# 2 -0.001677 0.014233 -0.001234 0.000000 0.002694 0.000000
# 3 -0.003916 -0.001234 0.011412 0.000000 -0.000544 0.000000
# 4 0.000000 0.000000 0.000000 0.023364 0.000000 0.007220
# 5 -0.000276 0.002694 -0.000544 0.000000 0.024037 0.000000
# 6 0.000000 0.000000 0.000000 0.007220 0.000000 0.034586
#
#
# Mechanical properties :
#
#
# Convention : Reuss Voigt Hill
#
# Bulk Modulus (GPa) = 41.93185 44.29539 43.11362
# Shear Modulus (GPa) = 35.43729 37.92163 36.67946
#
# Velocity S-wave (km/s) = 3.81369 3.94511 3.87996
# Velocity P-wave (km/s) = 6.04997 6.23952 6.14547
#
# Compressibility (1/GPa) = 0.02384822
#
# Stress axis : x y z
#
# Youngs Moduli (GPa) = 84.32943 70.26118 87.62877
#
# Poissons Ratio (x) = 0.11785 0.34314
# Poissons Ratio (y) = 0.14144 0.10814
# Poissons Ratio (z) = 0.33022 0.08671
#
# Static dielectric constant tensor:
#      x y z
#    x 1.961930 0.000000 0.094480 
#    y 0.000000 1.485980 0.000000 
#    z 0.094480 0.000000 2.026580 
# 
# From -- ./inp_files/23027.got.cif
#   From: 2010.05.17/outbox.cif.g08.bks.cpg/sg14_12_cif.got.tgz:23027.got - 2010.06.03 17:49:19.
