data_PCOD9251324
_publ_section_title
;
Structure prediction by ZEFSAII (Michael W. Deem and Ramdas Pophale) SiO2 
 PCOD9251324
Probable space group: P 21/C
;
_chemical_formula_sum "Si O2"
_cell_formula_units_Z 28
_cell_length_a 7.727836
_cell_length_b 8.617065
_cell_length_c 23.778873
_cell_angle_alpha 90.000000
_cell_angle_beta 46.697235
_cell_angle_gamma 90.000000
_cell_volume 1152.350453
_symmetry_space_group_name_H-M "P 21/C"
_symmetry_group_IT_number 14
_symmetry_cell_setting 'monoclinic'
loop_
_space_group_symop_operation_xyz
x,y,z
-x,1/2+y,1/2-z
-x,-y,-z
x,1/2-y,1/2+z
loop_
_atom_site_type_symbol
_atom_site_label
_atom_site_fract_x
_atom_site_fract_y
_atom_site_fract_z
Si Si1 0.522792 0.331140 0.523193
Si Si2 0.821548 0.884169 0.459303
Si Si3 0.085688 0.937304 0.677396
Si Si4 0.044980 0.218860 0.880221
Si Si5 0.568373 0.840200 0.619940
Si Si6 0.877655 0.416345 0.583245
Si Si7 0.617970 0.991544 0.842814
O O1 0.500000 0.500000 0.500000
O O2 0.416978 0.199858 0.508490
O O3 0.356274 0.366621 0.613108
O O4 0.794505 0.277839 0.471243
O O5 0.740912 0.935350 0.539189
O O6 0.007669 0.747378 0.429491
O O7 0.884312 0.986224 0.391521
O O8 0.004811 0.768766 0.672263
O O9 0.861427 0.014189 0.756810
O O10 0.314333 0.925140 0.666997
O O11 0.264621 0.308554 0.862078
O O12 0.088240 0.035998 0.873716
O O13 0.500285 0.660551 0.617977
O O14 0.596256 0.407444 0.641614
O O15 0.000000 0.500000 0.500000
#
# Coordination Sequence:
#
# PCOD9251324 Si02
#       7
#     4   4   4   4   4   4   4
#     4  12  19  40  76 100 126 185 243 284 333 416
#     4  12  23  42  72 105 136 180 241 286 341 425
#     4  12  29  44  61 110 152 172 217 306 371 401
#     4  11  22  44  74 100 135 186 232 286 349 415
#     4  11  23  47  70  96 142 185 239 282 338 436
#     4  11  19  43  73 101 124 183 248 282 321 429
#     4  11  24  44  68 101 138 181 239 285 349 419
#
# _framework density 24.298164
#
# number of rings (size 3 to 8) (size 9 to 14) (size 15 to 20)
#    0.000    0.571    8.571    0.429    2.000    2.857 
#    2.571    0.000    0.000    0.000    0.000    0.000 
#    0.000    0.000    0.000    0.000    0.000    0.000 
#
# Total GULP energy -156032.512182 kJ/mol
# GULP energy per Si atom -5572.589721 kJ/mol
# Density = 2.424286 g / cm^3
# Si number density = 24.298164 Si / 1000 Ang^3
#
#
#
# Elastic Constant Matrix: (Units=GPa)
#
#
# Indices 1 2 3 4 5 6 
#
# 1 122.5812 22.2796 41.6045 0.0000 -35.7421 0.0000
# 2 22.2796 41.3578 17.4065 0.0000 -5.3450 0.0000
# 3 41.6045 17.4065 95.3045 0.0000 -23.6051 0.0000
# 4 0.0000 0.0000 0.0000 24.7476 0.0000 -2.2745
# 5 -35.7421 -5.3450 -23.6051 0.0000 32.6198 0.0000
# 6 0.0000 0.0000 0.0000 -2.2745 0.0000 39.8813
#
#
#
# Elastic Compliance Matrix: (Units=1/GPa)
#
#
# Indices 1 2 3 4 5 6 
#
# 1 0.013275 -0.004768 -0.001846 0.000000 0.012428 0.000000
# 2 -0.004768 0.027933 -0.003875 0.000000 -0.003452 0.000000
# 3 -0.001846 -0.003875 0.013826 0.000000 0.007348 0.000000
# 4 0.000000 0.000000 0.000000 0.040621 0.000000 0.002317
# 5 0.012428 -0.003452 0.007348 0.000000 0.049026 0.000000
# 6 0.000000 0.000000 0.000000 0.002317 0.000000 0.025207
#
#
# Mechanical properties :
#
#
# Convention : Reuss Voigt Hill
#
# Bulk Modulus (GPa) = 29.36387 46.86942 38.11664
# Shear Modulus (GPa) = 24.72592 31.31326 28.01959
#
# Velocity S-wave (km/s) = 3.19345 3.59375 3.39950
# Velocity P-wave (km/s) = 5.07036 6.04576 5.57942
#
# Compressibility (1/GPa) = 0.03405545
#
# Stress axis : x y z
#
# Youngs Moduli (GPa) = 75.33036 35.80035 72.32690
#
# Poissons Ratio (x) = 0.17070 0.13351
# Poissons Ratio (y) = 0.35918 0.28027
# Poissons Ratio (z) = 0.13905 0.13873
#
# Static dielectric constant tensor:
#      x y z
#    x 2.038760 0.000000 0.041970 
#    y 0.000000 2.124150 0.000000 
#    z 0.041970 0.000000 1.988400 
# 
# From -- ./inp_files/76433.got.cif
#   From: 2010.05.17/outbox.cif.g08.bks.cpg/sg14_39_cif.got.tgz:76433.got - 2010.06.03 17:49:19.
