data_PCOD9251233
_publ_section_title
;
Structure prediction by ZEFSAII (Michael W. Deem and Ramdas Pophale) SiO2 
 PCOD9251233
Probable space group: P 21/C
;
_chemical_formula_sum "Si O2"
_cell_formula_units_Z 30
_cell_length_a 4.797437
_cell_length_b 28.539903
_cell_length_c 9.065718
_cell_angle_alpha 90.000000
_cell_angle_beta 115.162207
_cell_angle_gamma 90.000000
_cell_volume 1123.477141
_symmetry_space_group_name_H-M "P 21/C"
_symmetry_group_IT_number 14
_symmetry_cell_setting 'monoclinic'
loop_
_space_group_symop_operation_xyz
x,y,z
-x,1/2+y,1/2-z
-x,-y,-z
x,1/2-y,1/2+z
loop_
_atom_site_type_symbol
_atom_site_label
_atom_site_fract_x
_atom_site_fract_y
_atom_site_fract_z
Si Si1 0.472749 0.788716 0.697052
Si Si2 0.875752 0.148681 0.575729
Si Si3 0.333682 0.554029 0.819258
Si Si4 0.062003 0.272844 0.312820
Si Si5 0.051306 0.904660 0.984664
Si Si6 0.000000 0.000000 0.500000
Si Si7 0.461961 0.158110 0.022573
Si Si8 0.054039 0.421962 0.882798
O O1 0.363509 0.810652 0.517728
O O2 0.814621 0.770158 0.753354
O O3 0.248846 0.745411 0.685759
O O4 0.421471 0.834423 0.784620
O O5 0.729396 0.105930 0.630252
O O6 0.092305 0.178461 0.730359
O O7 0.046335 0.125552 0.474956
O O8 0.247490 0.558605 0.626950
O O9 0.107455 0.519142 0.850846
O O10 0.693620 0.546393 0.955096
O O11 0.327427 0.288809 0.484730
O O12 0.262472 0.857753 0.018409
O O13 0.760678 0.886744 0.012617
O O14 0.949786 0.916275 0.793085
O O15 0.218413 0.956100 0.626843
#
# Coordination Sequence:
#
# PCOD9251233 Si02
#       8
#     4   4   4   4   4   2   4   4
#     4  12  25  41  65  99 143 194 250 312 366 422
#     4  11  24  44  68  98 141 195 248 297 373 433
#     4  11  25  48  79 108 150 193 246 308 378 463
#     4  12  25  41  65  99 143 194 250 312 366 422
#     4  12  26  46  78 109 145 201 243 304 369 455
#     4  10  26  50  74 124 142 188 246 308 380 464
#     4  12  24  46  64 105 146 186 262 301 362 446
#     4  11  25  48  79 108 150 193 246 308 378 463
#
# _framework density 26.702812000000002
#
# number of rings (size 3 to 8) (size 9 to 14) (size 15 to 20)
#    0.000    0.533    2.667    5.200    7.467    0.533 
#    0.000    1.333    0.000    0.000    0.000    0.000 
#    0.000    0.000    0.000    0.000    0.000    0.000 
#
# Total GULP energy -167089.179454 kJ/mol
# GULP energy per Si atom -5569.639315 kJ/mol
# Density = 2.664204 g / cm^3
# Si number density = 26.702812 Si / 1000 Ang^3
#
#
#
# Elastic Constant Matrix: (Units=GPa)
#
#
# Indices 1 2 3 4 5 6 
#
# 1 82.5234 14.1867 18.8617 0.0000 -0.1704 0.0000
# 2 14.1867 81.4288 10.6567 0.0000 -6.1159 0.0000
# 3 18.8617 10.6567 72.6505 0.0000 -26.4809 0.0000
# 4 0.0000 0.0000 0.0000 40.7704 0.0000 -8.2393
# 5 -0.1704 -6.1159 -26.4809 0.0000 24.7633 0.0000
# 6 0.0000 0.0000 0.0000 -8.2393 0.0000 50.3648
#
#
#
# Elastic Compliance Matrix: (Units=1/GPa)
#
#
# Indices 1 2 3 4 5 6 
#
# 1 0.013752 -0.002146 -0.005595 0.000000 -0.006419 0.000000
# 2 -0.002146 0.012908 -0.000294 0.000000 0.002858 0.000000
# 3 -0.005595 -0.000294 0.024942 0.000000 0.026560 0.000000
# 4 0.000000 0.000000 0.000000 0.025366 0.000000 0.004150
# 5 -0.006419 0.002858 0.026560 0.000000 0.069447 0.000000
# 6 0.000000 0.000000 0.000000 0.004150 0.000000 0.020534
#
#
# Mechanical properties :
#
#
# Convention : Reuss Voigt Hill
#
# Bulk Modulus (GPa) = 28.14478 36.00144 32.07311
# Shear Modulus (GPa) = 25.65908 36.03954 30.84931
#
# Velocity S-wave (km/s) = 3.10322 3.67775 3.40263
# Velocity P-wave (km/s) = 4.83765 5.61658 5.24161
#
# Compressibility (1/GPa) = 0.03553057
#
# Stress axis : x y z
#
# Youngs Moduli (GPa) = 72.71525 77.47296 40.09380
#
# Poissons Ratio (x) = 0.16624 0.22433
# Poissons Ratio (y) = 0.15603 0.01181
# Poissons Ratio (z) = 0.40686 0.02281
#
# Static dielectric constant tensor:
#      x y z
#    x 2.103540 0.000000 0.087720 
#    y 0.000000 2.121170 0.000000 
#    z 0.087720 0.000000 2.605570 
# 
# From -- ./inp_files/6835.got.cif
#   From: 2010.05.17/outbox.cif.g08.bks.cpg/sg14_4_cif.got.tgz:6835.got - 2010.06.03 17:49:19.
