data_PCOD9251602
_publ_section_title
;
Structure prediction by ZEFSAII (Michael W. Deem and Ramdas Pophale) SiO2 
 PCOD9251602
Probable space group: P 21/C
;
_chemical_formula_sum "Si O2"
_cell_formula_units_Z 24
_cell_length_a 8.368652
_cell_length_b 9.723076
_cell_length_c 17.471009
_cell_angle_alpha 90.000000
_cell_angle_beta 128.146196
_cell_angle_gamma 90.000000
_cell_volume 1117.998606
_symmetry_space_group_name_H-M "P 21/C"
_symmetry_group_IT_number 14
_symmetry_cell_setting 'monoclinic'
loop_
_space_group_symop_operation_xyz
x,y,z
-x,1/2+y,1/2-z
-x,-y,-z
x,1/2-y,1/2+z
loop_
_atom_site_type_symbol
_atom_site_label
_atom_site_fract_x
_atom_site_fract_y
_atom_site_fract_z
Si Si1 0.339417 0.417004 0.403668
Si Si2 0.744454 0.661578 0.787116
Si Si3 0.086192 0.444726 0.719841
Si Si4 0.992709 0.412307 0.870879
Si Si5 0.354319 0.693043 0.771081
Si Si6 0.576504 0.855362 0.488540
O O1 0.500000 0.500000 0.500000
O O2 0.341850 0.420838 0.312662
O O3 0.387347 0.259065 0.436648
O O4 0.120680 0.476483 0.364203
O O5 0.880670 0.789779 0.799087
O O6 0.884830 0.548852 0.869114
O O7 0.554234 0.710837 0.779696
O O8 0.269438 0.537707 0.743169
O O9 0.074039 0.444794 0.808594
O O10 0.825438 0.293471 0.809254
O O11 0.195453 0.374551 0.976822
O O12 0.423504 0.706327 0.880091
O O13 0.500000 0.000000 0.500000
#
# Coordination Sequence:
#
# PCOD9251602 Si02
#       6
#     4   4   4   4   4   4
#     4  11  24  42  68  97 124 176 226 261 315 399
#     4  11  24  42  65  95 133 169 206 279 331 367
#     4  11  21  44  66  91 129 172 213 264 324 390
#     4  11  22  42  68  92 127 173 220 258 321 399
#     4  12  24  43  65  96 134 165 213 278 332 372
#     4  12  23  40  69  96 125 172 225 263 315 400
#
# _framework density 21.466932
#
# number of rings (size 3 to 8) (size 9 to 14) (size 15 to 20)
#    0.000    0.667    5.000    4.000    2.333    0.667 
#    3.000    1.667    0.000    0.000    0.000    0.000 
#    0.000    0.000    0.000    0.000    0.000    0.000 
#
# Total GULP energy -134057.825349 kJ/mol
# GULP energy per Si atom -5585.742723 kJ/mol
# Density = 2.141807 g / cm^3
# Si number density = 21.466932 Si / 1000 Ang^3
#
#
#
# Elastic Constant Matrix: (Units=GPa)
#
#
# Indices 1 2 3 4 5 6 
#
# 1 72.3465 7.6318 -8.9224 0.0000 6.7409 0.0000
# 2 7.6318 87.6487 0.1610 0.0000 8.7894 0.0000
# 3 -8.9224 0.1610 39.8876 0.0000 17.0147 0.0000
# 4 0.0000 0.0000 0.0000 36.3386 0.0000 18.1221
# 5 6.7409 8.7894 17.0147 0.0000 29.9307 0.0000
# 6 0.0000 0.0000 0.0000 18.1221 0.0000 35.3128
#
#
#
# Elastic Compliance Matrix: (Units=1/GPa)
#
#
# Indices 1 2 3 4 5 6 
#
# 1 0.015316 -0.000656 0.006360 0.000000 -0.006872 0.000000
# 2 -0.000656 0.011891 0.001626 0.000000 -0.004269 0.000000
# 3 0.006360 0.001626 0.036041 0.000000 -0.022398 0.000000
# 4 0.000000 0.000000 0.000000 0.036984 0.000000 -0.018980
# 5 -0.006872 -0.004269 -0.022398 0.000000 0.048944 0.000000
# 6 0.000000 0.000000 0.000000 -0.018980 0.000000 0.038059
#
#
# Mechanical properties :
#
#
# Convention : Reuss Voigt Hill
#
# Bulk Modulus (GPa) = 12.83549 21.95818 17.39683
# Shear Modulus (GPa) = 25.18320 33.71724 29.45022
#
# Velocity S-wave (km/s) = 3.42879 3.96745 3.70792
# Velocity P-wave (km/s) = 4.65485 5.58915 5.14326
#
# Compressibility (1/GPa) = 0.07790901
#
# Stress axis : x y z
#
# Youngs Moduli (GPa) = 65.28980 84.09448 27.74626
#
# Poissons Ratio (x) = 0.05518 -0.17647
# Poissons Ratio (y) = 0.04284 -0.04512
# Poissons Ratio (z) = -0.41526 -0.13674
#
# Static dielectric constant tensor:
#      x y z
#    x 1.763960 0.000000 0.023450 
#    y 0.000000 1.965220 0.000000 
#    z 0.023450 0.000000 1.813950 
# 
# From -- ./inp_files/58997.got.cif
#   From: 2010.05.17/outbox.cif.g08.bks.cpg/sg14_30_cif.got.tgz:58997.got - 2010.06.03 17:49:19.
