data_PCOD9251969
_publ_section_title
;
Structure prediction by ZEFSAII (Michael W. Deem and Ramdas Pophale) SiO2 
 PCOD9251969
Probable space group: P 21/C
;
_chemical_formula_sum "Si O2"
_cell_formula_units_Z 28
_cell_length_a 11.127800
_cell_length_b 12.014656
_cell_length_c 18.394132
_cell_angle_alpha 90.000000
_cell_angle_beta 35.150196
_cell_angle_gamma 90.000000
_cell_volume 1415.834940
_symmetry_space_group_name_H-M "P 21/C"
_symmetry_group_IT_number 14
_symmetry_cell_setting 'monoclinic'
loop_
_space_group_symop_operation_xyz
x,y,z
-x,1/2+y,1/2-z
-x,-y,-z
x,1/2-y,1/2+z
loop_
_atom_site_type_symbol
_atom_site_label
_atom_site_fract_x
_atom_site_fract_y
_atom_site_fract_z
Si Si1 0.928327 0.372775 0.448261
Si Si2 0.013747 0.223032 0.137469
Si Si3 0.263773 0.865330 0.115588
Si Si4 0.969736 0.629479 0.098599
Si Si5 0.275697 0.378389 0.635569
Si Si6 0.254443 0.421136 0.937646
Si Si7 0.258118 0.952608 0.818839
O O1 0.860463 0.376155 0.398346
O O2 0.774878 0.439861 0.578094
O O3 0.924808 0.245171 0.475912
O O4 0.154295 0.430211 0.347123
O O5 0.853356 0.289375 0.268587
O O6 0.885545 0.141530 0.148227
O O7 0.155801 0.150940 0.121273
O O8 0.158340 0.313034 0.024856
O O9 0.290705 0.988413 0.135154
O O10 0.495932 0.825132 0.981420
O O11 0.851951 0.658122 0.231090
O O12 0.810995 0.590533 0.114551
O O13 0.135744 0.530546 0.026159
O O14 0.502313 0.435466 0.821089
#
# Coordination Sequence:
#
# PCOD9251969 Si02
#       7
#     4   4   4   4   4   4   4
#     4  11  23  45  65  93 129 163 218 266 311 386
#     4  12  22  44  64  96 134 164 212 268 310 390
#     4  11  23  40  64  92 129 173 208 256 320 373
#     4  11  23  45  65  93 129 163 218 266 311 386
#     4  11  23  40  64  92 129 173 208 256 320 373
#     4  11  25  43  66  95 129 171 210 264 326 374
#     4  11  25  43  66  95 129 171 210 264 326 374
#
# _framework density 19.776319000000001
#
# number of rings (size 3 to 8) (size 9 to 14) (size 15 to 20)
#    0.000    0.857    5.714    1.714    0.000    2.286 
#    0.000    1.429    0.000    0.000    0.000    0.000 
#    0.000    0.000    0.000    0.000    0.000    0.000 
#
# Total GULP energy -156453.944247 kJ/mol
# GULP energy per Si atom -5587.640866 kJ/mol
# Density = 1.973131 g / cm^3
# Si number density = 19.776319 Si / 1000 Ang^3
#
#
#
# Elastic Constant Matrix: (Units=GPa)
#
#
# Indices 1 2 3 4 5 6 
#
# 1 44.1080 -7.2853 27.0579 0.0000 9.0637 0.0000
# 2 -7.2853 63.3721 9.6826 0.0000 -6.8027 0.0000
# 3 27.0579 9.6826 104.1578 0.0000 -10.9489 0.0000
# 4 0.0000 0.0000 0.0000 8.8657 0.0000 2.8430
# 5 9.0637 -6.8027 -10.9489 0.0000 30.7629 0.0000
# 6 0.0000 0.0000 0.0000 2.8430 0.0000 24.4751
#
#
#
# Elastic Compliance Matrix: (Units=1/GPa)
#
#
# Indices 1 2 3 4 5 6 
#
# 1 0.031868 0.003883 -0.009907 0.000000 -0.012057 0.000000
# 2 0.003883 0.016775 -0.002388 0.000000 0.001716 0.000000
# 3 -0.009907 -0.002388 0.013139 0.000000 0.007067 0.000000
# 4 0.000000 0.000000 0.000000 0.117158 0.000000 -0.013609
# 5 -0.012057 0.001716 0.007067 0.000000 0.038954 0.000000
# 6 0.000000 0.000000 0.000000 -0.013609 0.000000 0.042439
#
#
# Mechanical properties :
#
#
# Convention : Reuss Voigt Hill
#
# Bulk Modulus (GPa) = 22.24256 30.06095 26.15176
# Shear Modulus (GPa) = 17.11495 24.96624 21.04060
#
# Velocity S-wave (km/s) = 2.94500 3.55693 3.26533
# Velocity P-wave (km/s) = 4.77866 5.66590 5.24109
#
# Compressibility (1/GPa) = 0.04495885
#
# Stress axis : x y z
#
# Youngs Moduli (GPa) = 31.37970 59.61182 76.10770
#
# Poissons Ratio (x) = -0.23147 0.75399
# Poissons Ratio (y) = -0.12185 0.18173
# Poissons Ratio (z) = 0.31087 0.14234
#
# Static dielectric constant tensor:
#      x y z
#    x 1.671260 0.000000 0.001060 
#    y 0.000000 1.701990 0.000000 
#    z 0.001060 0.000000 1.689020 
# 
# From -- ./inp_files/35200.got.cif
#   From: 2010.05.17/outbox.cif.g08.bks.cpg/sg14_18_cif.got.tgz:35200.got - 2010.06.03 17:49:19.
