data_PCOD9251339
_publ_section_title
;
Structure prediction by ZEFSAII (Michael W. Deem and Ramdas Pophale) SiO2 
 PCOD9251339
Probable space group: P 21/C
;
_chemical_formula_sum "Si O2"
_cell_formula_units_Z 32
_cell_length_a 8.776153
_cell_length_b 19.621887
_cell_length_c 19.337392
_cell_angle_alpha 90.000000
_cell_angle_beta 152.941299
_cell_angle_gamma 90.000000
_cell_volume 1514.822591
_symmetry_space_group_name_H-M "P 21/C"
_symmetry_group_IT_number 14
_symmetry_cell_setting 'monoclinic'
loop_
_space_group_symop_operation_xyz
x,y,z
-x,1/2+y,1/2-z
-x,-y,-z
x,1/2-y,1/2+z
loop_
_atom_site_type_symbol
_atom_site_label
_atom_site_fract_x
_atom_site_fract_y
_atom_site_fract_z
Si Si1 0.171049 0.594321 0.976675
Si Si2 0.093030 0.449788 0.909575
Si Si3 0.966671 0.810903 0.929392
Si Si4 0.546051 0.268789 0.185566
Si Si5 0.173015 0.308125 0.900653
Si Si6 0.434161 0.271717 0.868235
Si Si7 0.588652 0.555071 0.284363
Si Si8 0.507694 0.089158 0.716792
O O1 0.185623 0.528363 0.932678
O O2 0.789985 0.599024 0.848479
O O3 0.305056 0.667206 0.007281
O O4 0.387317 0.576027 0.132775
O O5 0.163679 0.389465 0.884087
O O6 0.703440 0.447211 0.775807
O O7 0.310188 0.428371 0.065257
O O8 0.777358 0.759179 0.904658
O O9 0.801037 0.797573 0.787706
O O10 0.866568 0.887634 0.908773
O O11 0.350758 0.790732 0.074081
O O12 0.678805 0.338135 0.274626
O O13 0.823962 0.211049 0.295924
O O14 0.447542 0.288040 0.067981
O O15 0.226392 0.263664 0.854052
O O16 0.710602 0.478117 0.319522
#
# Coordination Sequence:
#
# PCOD9251339 Si02
#       8
#     4   4   4   4   4   4   4   4
#     4   8  14  27  48  75 102 128 165 212 257 300
#     4   8  14  27  48  75 102 128 165 212 257 300
#     4  11  20  35  56  77 102 138 178 213 251 305
#     4  11  20  35  56  77 102 138 178 213 251 305
#     4  11  22  34  51  79 111 138 166 211 264 307
#     4  11  22  34  51  79 111 138 166 211 264 307
#     4   8  14  27  50  75  97 127 172 217 249 289
#     4   8  14  27  50  75  97 127 172 217 249 289
#
# _framework density 21.124586999999998
#
# number of rings (size 3 to 8) (size 9 to 14) (size 15 to 20)
#    0.000    2.500    2.500    3.000    0.000    0.500 
#    0.000    0.000    0.000    5.250    0.000    0.000 
#    0.000    0.000    0.000    0.000    0.000    0.000 
#
# Total GULP energy -178551.647258 kJ/mol
# GULP energy per Si atom -5579.738977 kJ/mol
# Density = 2.107651 g / cm^3
# Si number density = 21.124587 Si / 1000 Ang^3
#
#
#
# Elastic Constant Matrix: (Units=GPa)
#
#
# Indices 1 2 3 4 5 6 
#
# 1 57.7516 7.7959 7.4637 0.0000 0.3657 0.0000
# 2 7.7959 95.5003 15.2707 0.0000 -2.3515 0.0000
# 3 7.4637 15.2707 28.1754 0.0000 -6.1337 0.0000
# 4 0.0000 0.0000 0.0000 31.9159 0.0000 4.9192
# 5 0.3657 -2.3515 -6.1337 0.0000 16.9975 0.0000
# 6 0.0000 0.0000 0.0000 4.9192 0.0000 24.6933
#
#
#
# Elastic Compliance Matrix: (Units=1/GPa)
#
#
# Indices 1 2 3 4 5 6 
#
# 1 0.018060 -0.000752 -0.004866 0.000000 -0.002249 0.000000
# 2 -0.000752 0.011504 -0.006171 0.000000 -0.000619 0.000000
# 3 -0.004866 -0.006171 0.043369 0.000000 0.014901 0.000000
# 4 0.000000 0.000000 0.000000 0.032325 0.000000 -0.006439
# 5 -0.002249 -0.000619 0.014901 0.000000 0.064172 0.000000
# 6 0.000000 0.000000 0.000000 -0.006439 0.000000 0.041780
#
#
# Mechanical properties :
#
#
# Convention : Reuss Voigt Hill
#
# Bulk Modulus (GPa) = 20.26080 26.94310 23.60195
# Shear Modulus (GPa) = 19.90136 24.78116 22.34126
#
# Velocity S-wave (km/s) = 3.07269 3.42876 3.25560
# Velocity P-wave (km/s) = 4.71174 5.33454 5.03278
#
# Compressibility (1/GPa) = 0.04935640
#
# Stress axis : x y z
#
# Youngs Moduli (GPa) = 55.37050 86.92643 23.05774
#
# Poissons Ratio (x) = 0.06533 0.11221
# Poissons Ratio (y) = 0.04161 0.14228
# Poissons Ratio (z) = 0.26945 0.53640
#
# Static dielectric constant tensor:
#      x y z
#    x 1.745640 0.000000 -0.007200 
#    y 0.000000 1.819740 0.000000 
#    z -0.007200 0.000000 1.765800 
# 
# From -- ./inp_files/66069.got.cif
#   From: 2010.05.17/outbox.cif.g08.bks.cpg/sg14_34_cif.got.tgz:66069.got - 2010.06.03 17:49:19.
