data_PCOD9251834
_publ_section_title
;
Structure prediction by ZEFSAII (Michael W. Deem and Ramdas Pophale) SiO2 
 PCOD9251834
Probable space group: P 21/C
;
_chemical_formula_sum "Si O2"
_cell_formula_units_Z 28
_cell_length_a 12.211558
_cell_length_b 7.726125
_cell_length_c 14.560712
_cell_angle_alpha 90.000000
_cell_angle_beta 73.167289
_cell_angle_gamma 90.000000
_cell_volume 1314.914113
_symmetry_space_group_name_H-M "P 21/C"
_symmetry_group_IT_number 14
_symmetry_cell_setting 'monoclinic'
loop_
_space_group_symop_operation_xyz
x,y,z
-x,1/2+y,1/2-z
-x,-y,-z
x,1/2-y,1/2+z
loop_
_atom_site_type_symbol
_atom_site_label
_atom_site_fract_x
_atom_site_fract_y
_atom_site_fract_z
Si Si1 0.645264 0.346490 0.420573
Si Si2 0.609812 0.851925 0.072351
Si Si3 0.697792 0.973004 0.438272
Si Si4 0.152075 0.006539 0.223050
Si Si5 0.744423 0.636740 0.729252
Si Si6 0.962517 0.460525 0.906359
Si Si7 0.008036 0.449174 0.391966
O O1 0.527191 0.368318 0.394725
O O2 0.653917 0.496056 0.494635
O O3 0.753311 0.366858 0.327311
O O4 0.647847 0.161932 0.469104
O O5 0.666739 0.862155 0.157924
O O6 0.643874 0.673409 0.014543
O O7 0.681625 0.936344 0.334051
O O8 0.833999 0.979526 0.420944
O O9 0.216313 0.169915 0.251468
O O10 0.053344 0.949564 0.316803
O O11 0.081950 0.053948 0.147895
O O12 0.862520 0.536794 0.676559
O O13 0.973370 0.253345 0.889283
O O14 0.000000 0.500000 0.000000
O O15 0.000000 0.500000 0.500000
#
# Coordination Sequence:
#
# PCOD9251834 Si02
#       7
#     4   4   4   4   4   4   4
#     4  11  25  47  76  98 141 190 234 302 351 424
#     4  11  26  51  69 103 143 186 245 294 359 414
#     4  12  23  46  70 105 142 180 242 290 357 431
#     4  11  22  44  65 100 143 179 228 292 354 422
#     4  11  25  42  70 101 141 191 229 297 358 423
#     4  11  25  39  66 104 137 185 226 284 365 427
#     4  11  23  39  67  99 139 179 228 286 360 427
#
# _framework density 21.294166000000001
#
# number of rings (size 3 to 8) (size 9 to 14) (size 15 to 20)
#    0.000    0.857    4.286    3.000    2.000    2.286 
#    2.571    0.000    0.000    0.000    0.000    0.000 
#    0.000    0.000    0.000    0.000    0.000    0.000 
#
# Total GULP energy -156742.801519 kJ/mol
# GULP energy per Si atom -5597.957197 kJ/mol
# Density = 2.124570 g / cm^3
# Si number density = 21.294166 Si / 1000 Ang^3
#
#
#
# Elastic Constant Matrix: (Units=GPa)
#
#
# Indices 1 2 3 4 5 6 
#
# 1 113.7598 22.2195 66.3916 0.0000 31.1321 0.0000
# 2 22.2195 76.7641 -0.6097 0.0000 14.1049 0.0000
# 3 66.3916 -0.6097 91.8973 0.0000 26.6664 0.0000
# 4 0.0000 0.0000 0.0000 9.1126 0.0000 9.5659
# 5 31.1321 14.1049 26.6664 0.0000 37.9794 0.0000
# 6 0.0000 0.0000 0.0000 9.5659 0.0000 24.4656
#
#
#
# Elastic Compliance Matrix: (Units=1/GPa)
#
#
# Indices 1 2 3 4 5 6 
#
# 1 0.017549 -0.004275 -0.011294 0.000000 -0.004867 0.000000
# 2 -0.004275 0.015324 0.004803 0.000000 -0.005559 0.000000
# 3 -0.011294 0.004803 0.021230 0.000000 -0.007432 0.000000
# 4 0.000000 0.000000 0.000000 0.186135 0.000000 -0.072777
# 5 -0.004867 -0.005559 -0.007432 0.000000 0.037603 0.000000
# 6 0.000000 0.000000 0.000000 -0.072777 0.000000 0.069329
#
#
# Mechanical properties :
#
#
# Convention : Reuss Voigt Hill
#
# Bulk Modulus (GPa) = 30.70233 50.93601 40.81917
# Shear Modulus (GPa) = 13.17323 27.27285 20.22304
#
# Velocity S-wave (km/s) = 2.48993 3.58266 3.08506
# Velocity P-wave (km/s) = 4.76611 6.40984 5.64809
#
# Compressibility (1/GPa) = 0.03257082
#
# Stress axis : x y z
#
# Youngs Moduli (GPa) = 56.98342 65.25735 47.10377
#
# Poissons Ratio (x) = 0.27897 0.53200
# Poissons Ratio (y) = 0.24360 -0.22625
# Poissons Ratio (z) = 0.64359 -0.31345
#
# Static dielectric constant tensor:
#      x y z
#    x 1.684430 0.000000 0.057080 
#    y 0.000000 1.813340 0.000000 
#    z 0.057080 0.000000 1.655040 
# 
# From -- ./inp_files/43087.got.cif
#   From: 2010.05.17/outbox.cif.g08.bks.cpg/sg14_22_cif.got.tgz:43087.got - 2010.06.03 17:49:19.
