data_PCOD9251299
_publ_section_title
;
Structure prediction by ZEFSAII (Michael W. Deem and Ramdas Pophale) SiO2 
 PCOD9251299
Probable space group: P 21/C
;
_chemical_formula_sum "Si O2"
_cell_formula_units_Z 24
_cell_length_a 6.399735
_cell_length_b 12.217779
_cell_length_c 15.507606
_cell_angle_alpha 90.000000
_cell_angle_beta 123.562408
_cell_angle_gamma 90.000000
_cell_volume 1010.397197
_symmetry_space_group_name_H-M "P 21/C"
_symmetry_group_IT_number 14
_symmetry_cell_setting 'monoclinic'
loop_
_space_group_symop_operation_xyz
x,y,z
-x,1/2+y,1/2-z
-x,-y,-z
x,1/2-y,1/2+z
loop_
_atom_site_type_symbol
_atom_site_label
_atom_site_fract_x
_atom_site_fract_y
_atom_site_fract_z
Si Si1 0.369764 0.946487 0.552683
Si Si2 0.824644 0.499115 0.378320
Si Si3 0.863670 0.834468 0.421977
Si Si4 0.092098 0.401755 0.768510
Si Si5 0.295200 0.413724 0.287154
Si Si6 0.097853 0.208284 0.894140
O O1 0.245502 0.047723 0.573472
O O2 0.500000 0.000000 0.500000
O O3 0.163003 0.855006 0.485810
O O4 0.607595 0.902518 0.657423
O O5 0.940961 0.590341 0.341464
O O6 0.530597 0.495012 0.330434
O O7 0.875932 0.378826 0.350975
O O8 0.000000 0.500000 0.500000
O O9 0.818676 0.751804 0.492309
O O10 0.742622 0.826393 0.299175
O O11 0.954611 0.511010 0.771614
O O12 0.006907 0.307205 0.812973
O O13 0.303975 0.353736 0.382012
#
# Coordination Sequence:
#
# PCOD9251299 Si02
#       6
#     4   4   4   4   4   4
#     4  11  19  37  71 104 131 170 220 306 370 399
#     4  11  28  50  67  99 149 199 233 289 368 431
#     4  11  22  39  69 103 139 177 234 297 358 425
#     4  11  23  45  72 103 139 178 245 301 347 431
#     4  11  25  47  69 103 146 189 238 296 361 423
#     4  11  27  42  69 113 134 189 248 290 362 426
#
# _framework density 23.753035000000001
#
# number of rings (size 3 to 8) (size 9 to 14) (size 15 to 20)
#    0.000    1.000    5.000    1.000    4.667    2.667 
#    3.000    0.000    0.000    0.000    0.000    0.000 
#    0.000    0.000    0.000    0.000    0.000    0.000 
#
# Total GULP energy -133966.965811 kJ/mol
# GULP energy per Si atom -5581.956909 kJ/mol
# Density = 2.369897 g / cm^3
# Si number density = 23.753035 Si / 1000 Ang^3
#
#
#
# Elastic Constant Matrix: (Units=GPa)
#
#
# Indices 1 2 3 4 5 6 
#
# 1 93.8402 19.6316 54.0940 0.0000 -8.5306 0.0000
# 2 19.6316 65.5745 -8.7029 0.0000 2.8051 0.0000
# 3 54.0940 -8.7029 86.8185 0.0000 -8.6736 0.0000
# 4 0.0000 0.0000 0.0000 27.7016 0.0000 -5.1552
# 5 -8.5306 2.8051 -8.6736 0.0000 38.0449 0.0000
# 6 0.0000 0.0000 0.0000 -5.1552 0.0000 27.1922
#
#
#
# Elastic Compliance Matrix: (Units=1/GPa)
#
#
# Indices 1 2 3 4 5 6 
#
# 1 0.019988 -0.007802 -0.013028 0.000000 0.002087 0.000000
# 2 -0.007802 0.018525 0.006556 0.000000 -0.001621 0.000000
# 3 -0.013028 0.006556 0.020418 0.000000 0.001250 0.000000
# 4 0.000000 0.000000 0.000000 0.037419 0.000000 0.007094
# 5 0.002087 -0.001621 0.001250 0.000000 0.027157 0.000000
# 6 0.000000 0.000000 0.000000 0.007094 0.000000 0.038120
#
#
# Mechanical properties :
#
#
# Convention : Reuss Voigt Hill
#
# Bulk Modulus (GPa) = 32.91212 41.80876 37.36044
# Shear Modulus (GPa) = 24.96226 30.66844 27.81535
#
# Velocity S-wave (km/s) = 3.24529 3.59714 3.42573
# Velocity P-wave (km/s) = 5.28475 5.90696 5.60450
#
# Compressibility (1/GPa) = 0.03038395
#
# Stress axis : x y z
#
# Youngs Moduli (GPa) = 50.02959 53.98064 48.97742
#
# Poissons Ratio (x) = 0.42117 0.63806
# Poissons Ratio (y) = 0.39035 -0.32112
# Poissons Ratio (z) = 0.65177 -0.35392
#
# Static dielectric constant tensor:
#      x y z
#    x 1.938170 0.000000 -0.064170 
#    y 0.000000 1.998280 0.000000 
#    z -0.064170 0.000000 2.088750 
# 
# From -- ./inp_files/37406.got.cif
#   From: 2010.05.17/outbox.cif.g08.bks.cpg/sg14_19_cif.got.tgz:37406.got - 2010.06.03 17:49:19.
