data_PCOD9251035
_publ_section_title
;
Structure prediction by ZEFSAII (Michael W. Deem and Ramdas Pophale) SiO2 
 PCOD9251035
Probable space group: P 21/C
;
_chemical_formula_sum "Si O2"
_cell_formula_units_Z 32
_cell_length_a 5.419247
_cell_length_b 21.363529
_cell_length_c 14.463631
_cell_angle_alpha 90.000000
_cell_angle_beta 48.046781
_cell_angle_gamma 90.000000
_cell_volume 1245.322250
_symmetry_space_group_name_H-M "P 21/C"
_symmetry_group_IT_number 14
_symmetry_cell_setting 'monoclinic'
loop_
_space_group_symop_operation_xyz
x,y,z
-x,1/2+y,1/2-z
-x,-y,-z
x,1/2-y,1/2+z
loop_
_atom_site_type_symbol
_atom_site_label
_atom_site_fract_x
_atom_site_fract_y
_atom_site_fract_z
Si Si1 0.320711 0.573195 0.643152
Si Si2 0.571060 0.544022 0.270091
Si Si3 0.599782 0.602479 0.874047
Si Si4 0.704791 0.369234 0.527560
Si Si5 0.275533 0.252138 0.106803
Si Si6 0.332952 0.924431 0.637299
Si Si7 0.458295 0.718896 0.155610
Si Si8 0.436044 0.164557 0.785717
O O1 0.498265 0.520627 0.659122
O O2 0.438071 0.579105 0.508778
O O3 0.388429 0.642436 0.665298
O O4 0.929873 0.566415 0.760278
O O5 0.313741 0.597047 0.369629
O O6 0.510911 0.535977 0.175080
O O7 0.935414 0.567217 0.216716
O O8 0.659993 0.675962 0.883157
O O9 0.390003 0.620091 0.834685
O O10 0.469068 0.570636 0.998690
O O11 0.523100 0.303207 0.572723
O O12 0.063410 0.356965 0.395667
O O13 0.930109 0.234610 0.240075
O O14 0.311508 0.255590 0.985785
O O15 0.445866 0.855227 0.644576
O O16 0.571306 0.760323 0.216145
#
# Coordination Sequence:
#
# PCOD9251035 Si02
#       8
#     4   4   4   4   4   4   4   4
#     4  11  25  49  71 107 145 202 253 309 375 455
#     4  12  29  47  76 106 155 200 259 309 372 446
#     4  10  25  45  73 105 148 191 252 306 385 451
#     4  11  25  44  72 108 146 190 250 315 384 450
#     4  11  21  44  68 106 147 184 242 310 381 459
#     4  11  29  48  73 113 147 203 252 318 371 451
#     4  11  23  42  75 105 153 188 250 306 387 451
#     4  11  24  43  76 106 141 199 246 315 381 462
#
# _framework density 25.696159999999999
#
# number of rings (size 3 to 8) (size 9 to 14) (size 15 to 20)
#    0.000    1.000    3.750    1.125   10.500    3.500 
#    0.000    0.000    0.000    0.000    0.000    0.000 
#    0.000    0.000    0.000    0.000    0.000    0.000 
#
# Total GULP energy -178465.325434 kJ/mol
# GULP energy per Si atom -5577.041420 kJ/mol
# Density = 2.563767 g / cm^3
# Si number density = 25.696160 Si / 1000 Ang^3
#
#
#
# Elastic Constant Matrix: (Units=GPa)
#
#
# Indices 1 2 3 4 5 6 
#
# 1 71.1172 11.5960 25.3774 0.0000 12.6441 0.0000
# 2 11.5960 103.6532 12.3492 0.0000 1.7577 0.0000
# 3 25.3774 12.3492 71.6021 0.0000 24.0884 0.0000
# 4 0.0000 0.0000 0.0000 30.8804 0.0000 7.7170
# 5 12.6441 1.7577 24.0884 0.0000 40.1332 0.0000
# 6 0.0000 0.0000 0.0000 7.7170 0.0000 40.8216
#
#
#
# Elastic Compliance Matrix: (Units=1/GPa)
#
#
# Indices 1 2 3 4 5 6 
#
# 1 0.016383 -0.001217 -0.004859 0.000000 -0.002192 0.000000
# 2 -0.001217 0.009958 -0.001589 0.000000 0.000901 0.000000
# 3 -0.004859 -0.001589 0.019326 0.000000 -0.009999 0.000000
# 4 0.000000 0.000000 0.000000 0.033989 0.000000 -0.006425
# 5 -0.002192 0.000901 -0.009999 0.000000 0.031570 0.000000
# 6 0.000000 0.000000 0.000000 -0.006425 0.000000 0.025711
#
#
# Mechanical properties :
#
#
# Convention : Reuss Voigt Hill
#
# Bulk Modulus (GPa) = 32.96358 38.33531 35.64945
# Shear Modulus (GPa) = 30.79180 35.50371 33.14775
#
# Velocity S-wave (km/s) = 3.46541 3.72112 3.59554
# Velocity P-wave (km/s) = 5.37291 5.78043 5.58039
#
# Compressibility (1/GPa) = 0.03033651
#
# Stress axis : x y z
#
# Youngs Moduli (GPa) = 61.03739 100.42435 51.74245
#
# Poissons Ratio (x) = 0.12219 0.25144
# Poissons Ratio (y) = 0.07427 0.08224
# Poissons Ratio (z) = 0.29661 0.15961
#
# Static dielectric constant tensor:
#      x y z
#    x 2.160910 0.000000 0.065120 
#    y 0.000000 2.067950 0.000000 
#    z 0.065120 0.000000 2.038280 
# 
# From -- ./inp_files/38192.got.cif
#   From: 2010.05.17/outbox.cif.g08.bks.cpg/sg14_20_cif.got.tgz:38192.got - 2010.06.03 17:49:19.
