data_PCOD9251173
_publ_section_title
;
Structure prediction by ZEFSAII (Michael W. Deem and Ramdas Pophale) SiO2 
 PCOD9251173
Probable space group: P 21/C
;
_chemical_formula_sum "Si O2"
_cell_formula_units_Z 18
_cell_length_a 16.093016
_cell_length_b 4.710415
_cell_length_c 24.531160
_cell_angle_alpha 90.000000
_cell_angle_beta 157.597527
_cell_angle_gamma 90.000000
_cell_volume 708.704784
_symmetry_space_group_name_H-M "P 21/C"
_symmetry_group_IT_number 14
_symmetry_cell_setting 'monoclinic'
loop_
_space_group_symop_operation_xyz
x,y,z
-x,1/2+y,1/2-z
-x,-y,-z
x,1/2-y,1/2+z
loop_
_atom_site_type_symbol
_atom_site_label
_atom_site_fract_x
_atom_site_fract_y
_atom_site_fract_z
Si Si1 0.555984 0.865211 0.747758
Si Si2 0.200717 0.473512 0.237467
Si Si3 0.885721 0.263502 0.201961
Si Si4 0.000000 0.500000 0.000000
Si Si5 0.509252 0.025708 0.599302
O O1 0.415348 0.650785 0.699499
O O2 0.451552 0.946928 0.626573
O O3 0.785866 0.718116 0.874044
O O4 0.119843 0.594362 0.245289
O O5 0.045035 0.536960 0.092774
O O6 0.668876 0.075948 0.551381
O O7 0.426129 0.646433 0.363514
O O8 0.061683 0.514122 0.309025
O O9 0.730160 0.646386 0.218691
#
# Coordination Sequence:
#
# PCOD9251173 Si02
#       5
#     4   4   4   2   4
#     4  11  25  42  70 101 142 185 233 298 352 436
#     4  11  24  45  70  99 140 188 232 296 351 442
#     4  12  26  42  70 105 138 185 237 299 355 426
#     4  10  26  44  72 104 142 188 240 284 372 416
#     4  11  24  45  68  99 138 187 238 285 369 417
#
# _framework density 25.398443
#
# number of rings (size 3 to 8) (size 9 to 14) (size 15 to 20)
#    0.000    0.889    0.000    6.667    6.222    8.000 
#    0.000    0.000    0.000    0.000    0.000    0.000 
#    0.000    0.000    0.000    0.000    0.000    0.000 
#
# Total GULP energy -100429.479908 kJ/mol
# GULP energy per Si atom -5579.415550 kJ/mol
# Density = 2.534063 g / cm^3
# Si number density = 25.398443 Si / 1000 Ang^3
#
#
#
# Elastic Constant Matrix: (Units=GPa)
#
#
# Indices 1 2 3 4 5 6 
#
# 1 131.6040 24.2357 19.7271 0.0000 -32.4150 0.0000
# 2 24.2357 95.8522 -14.4576 0.0000 8.1316 0.0000
# 3 19.7271 -14.4576 81.0563 0.0000 -17.8395 0.0000
# 4 0.0000 0.0000 0.0000 22.9153 0.0000 1.1295
# 5 -32.4150 8.1316 -17.8395 0.0000 23.6840 0.0000
# 6 0.0000 0.0000 0.0000 1.1295 0.0000 18.9714
#
#
#
# Elastic Compliance Matrix: (Units=1/GPa)
#
#
# Indices 1 2 3 4 5 6 
#
# 1 0.013557 -0.005124 0.000309 0.000000 0.020546 0.000000
# 2 -0.005124 0.012802 0.001222 0.000000 -0.010488 0.000000
# 3 0.000309 0.001222 0.014961 0.000000 0.011272 0.000000
# 4 0.000000 0.000000 0.000000 0.043768 0.000000 -0.002606
# 5 0.020546 -0.010488 0.011272 0.000000 0.082434 0.000000
# 6 0.000000 0.000000 0.000000 -0.002606 0.000000 0.052866
#
#
# Mechanical properties :
#
#
# Convention : Reuss Voigt Hill
#
# Bulk Modulus (GPa) = 29.29697 40.83589 35.06643
# Shear Modulus (GPa) = 20.92476 31.71460 26.31968
#
# Velocity S-wave (km/s) = 2.87341 3.53750 3.22261
# Velocity P-wave (km/s) = 4.75065 5.72698 5.26151
#
# Compressibility (1/GPa) = 0.03413323
#
# Stress axis : x y z
#
# Youngs Moduli (GPa) = 73.76512 78.10996 66.84160
#
# Poissons Ratio (x) = 0.40025 -0.02063
# Poissons Ratio (y) = 0.37798 -0.08170
# Poissons Ratio (z) = -0.02276 -0.09547
#
# Static dielectric constant tensor:
#      x y z
#    x 2.064610 0.000000 0.097520 
#    y 0.000000 1.958040 0.000000 
#    z 0.097520 0.000000 1.931980 
# 
# From -- ./inp_files/73442.got.cif
#   From: 2010.05.17/outbox.cif.g08.bks.cpg/sg14_37_cif.got.tgz:73442.got - 2010.06.03 17:49:19.
