data_PCOD9251646
_publ_section_title
;
Structure prediction by ZEFSAII (Michael W. Deem and Ramdas Pophale) SiO2 
 PCOD9251646
Probable space group: P 21/C
;
_chemical_formula_sum "Si O2"
_cell_formula_units_Z 24
_cell_length_a 10.588994
_cell_length_b 6.834874
_cell_length_c 18.510990
_cell_angle_alpha 90.000000
_cell_angle_beta 92.029661
_cell_angle_gamma 90.000000
_cell_volume 1338.882024
_symmetry_space_group_name_H-M "P 21/C"
_symmetry_group_IT_number 14
_symmetry_cell_setting 'monoclinic'
loop_
_space_group_symop_operation_xyz
x,y,z
-x,1/2+y,1/2-z
-x,-y,-z
x,1/2-y,1/2+z
loop_
_atom_site_type_symbol
_atom_site_label
_atom_site_fract_x
_atom_site_fract_y
_atom_site_fract_z
Si Si1 0.304475 0.493613 0.937322
Si Si2 0.896354 0.135010 0.327605
Si Si3 0.031875 0.020948 0.084732
Si Si4 0.485212 0.227655 0.006926
Si Si5 0.758563 0.838631 0.422541
Si Si6 0.877992 0.175923 0.675803
O O1 0.410852 0.323434 0.937340
O O2 0.237021 0.563799 0.864600
O O3 0.381943 0.670218 0.975853
O O4 0.205893 0.415810 0.995709
O O5 0.948670 0.311310 0.377940
O O6 0.849459 0.229392 0.252261
O O7 0.791491 0.009480 0.367787
O O8 0.009053 0.981576 0.313437
O O9 0.159933 0.148539 0.093756
O O10 0.927031 0.152005 0.123578
O O11 0.000000 0.000000 0.000000
O O12 0.611884 0.715806 0.930378
O O13 0.500000 0.000000 0.000000
#
# Coordination Sequence:
#
# PCOD9251646 Si02
#       6
#     4   4   4   4   4   4
#     4   9  20  37  62  86 118 142 206 246 292 352
#     4  11  22  38  55  84 129 154 198 238 292 372
#     4  11  22  34  61  87 117 157 197 242 300 355
#     4   9  20  37  61  89 111 148 194 259 302 338
#     4   9  21  36  57  89 115 148 197 253 290 352
#     4  11  22  38  57  88 119 166 189 240 300 360
#
# _framework density 17.925404
#
# number of rings (size 3 to 8) (size 9 to 14) (size 15 to 20)
#    1.000    1.000    1.667    2.000    4.667    2.667 
#    0.000    0.000    3.667    0.000    0.000    0.000 
#    0.000    0.000    0.000    0.000    0.000    0.000 
#
# Total GULP energy -133700.909360 kJ/mol
# GULP energy per Si atom -5570.871223 kJ/mol
# Density = 1.788460 g / cm^3
# Si number density = 17.925404 Si / 1000 Ang^3
#
#
#
# Elastic Constant Matrix: (Units=GPa)
#
#
# Indices 1 2 3 4 5 6 
#
# 1 46.0884 19.0153 14.7015 0.0000 5.6115 0.0000
# 2 19.0153 125.5522 35.5142 0.0000 -0.9062 0.0000
# 3 14.7015 35.5142 102.8875 0.0000 8.8336 0.0000
# 4 0.0000 0.0000 0.0000 29.4818 0.0000 -3.0618
# 5 5.6115 -0.9062 8.8336 0.0000 13.8614 0.0000
# 6 0.0000 0.0000 0.0000 -3.0618 0.0000 11.2884
#
#
#
# Elastic Compliance Matrix: (Units=1/GPa)
#
#
# Indices 1 2 3 4 5 6 
#
# 1 0.024711 -0.003362 -0.001579 0.000000 -0.009217 0.000000
# 2 -0.003362 0.009378 -0.003096 0.000000 0.003947 0.000000
# 3 -0.001579 -0.003096 0.011611 0.000000 -0.006963 0.000000
# 4 0.000000 0.000000 0.000000 0.034902 0.000000 0.009467
# 5 -0.009217 0.003947 -0.006963 0.000000 0.080570 0.000000
# 6 0.000000 0.000000 0.000000 0.009467 0.000000 0.091155
#
#
# Mechanical properties :
#
#
# Convention : Reuss Voigt Hill
#
# Bulk Modulus (GPa) = 33.75377 45.88778 39.82077
# Shear Modulus (GPa) = 17.96779 24.61277 21.29028
#
# Velocity S-wave (km/s) = 3.16945 3.70951 3.45006
# Velocity P-wave (km/s) = 5.68022 6.63341 6.17524
#
# Compressibility (1/GPa) = 0.02962632
#
# Stress axis : x y z
#
# Youngs Moduli (GPa) = 40.46853 106.63063 86.12316
#
# Poissons Ratio (x) = 0.35854 0.13598
# Poissons Ratio (y) = 0.13607 0.26660
# Poissons Ratio (z) = 0.06390 0.33008
#
# Static dielectric constant tensor:
#      x y z
#    x 1.616410 0.000000 -0.012670 
#    y 0.000000 1.617640 0.000000 
#    z -0.012670 0.000000 1.610810 
# 
# From -- ./inp_files/66162.got.cif
#   From: 2010.05.17/outbox.cif.g08.bks.cpg/sg14_34_cif.got.tgz:66162.got - 2010.06.03 17:49:19.
