data_PCOD9251031
_publ_section_title
;
Structure prediction by ZEFSAII (Michael W. Deem and Ramdas Pophale) SiO2 
 PCOD9251031
Probable space group: P 21/C
;
_chemical_formula_sum "Si O2"
_cell_formula_units_Z 16
_cell_length_a 12.451503
_cell_length_b 8.617920
_cell_length_c 9.480014
_cell_angle_alpha 90.000000
_cell_angle_beta 144.092574
_cell_angle_gamma 90.000000
_cell_volume 596.601651
_symmetry_space_group_name_H-M "P 21/C"
_symmetry_group_IT_number 14
_symmetry_cell_setting 'monoclinic'
loop_
_space_group_symop_operation_xyz
x,y,z
-x,1/2+y,1/2-z
-x,-y,-z
x,1/2-y,1/2+z
loop_
_atom_site_type_symbol
_atom_site_label
_atom_site_fract_x
_atom_site_fract_y
_atom_site_fract_z
Si Si1 0.377095 0.549789 0.660520
Si Si2 0.982351 0.439764 0.323861
Si Si3 0.104419 0.117608 0.509825
Si Si4 0.493345 0.252148 0.949233
O O1 0.173893 0.481482 0.453926
O O2 0.490240 0.404795 0.845653
O O3 0.425439 0.612837 0.557570
O O4 0.404080 0.690313 0.801768
O O5 0.969055 0.256555 0.320032
O O6 0.000000 0.500000 0.500000
O O7 0.839422 0.527624 0.073253
O O8 0.284309 0.201873 0.762749
O O9 0.000000 0.000000 0.500000
#
# Coordination Sequence:
#
# PCOD9251031 Si02
#       4
#     4   4   4   4
#     4  10  25  45  72 106 143 191 240 301 355 431
#     4  11  26  45  72 106 147 192 245 299 363 432
#     4  11  26  46  74 107 146 192 243 300 365 433
#     4  10  25  46  73 103 146 188 245 294 362 428
#
# _framework density 26.818562
#
# number of rings (size 3 to 8) (size 9 to 14) (size 15 to 20)
#    0.000    1.500    0.000    1.500   21.000    3.000 
#    0.000    0.000    0.000    0.000    0.000    0.000 
#    0.000    0.000    0.000    0.000    0.000    0.000 
#
# Total GULP energy -89758.284308 kJ/mol
# GULP energy per Si atom -5609.892769 kJ/mol
# Density = 2.675752 g / cm^3
# Si number density = 26.818562 Si / 1000 Ang^3
#
#
#
# Elastic Constant Matrix: (Units=GPa)
#
#
# Indices 1 2 3 4 5 6 
#
# 1 92.9004 39.2243 15.5879 0.0000 -22.5273 0.0000
# 2 39.2243 177.5691 39.5814 0.0000 -30.2631 0.0000
# 3 15.5879 39.5814 90.8221 0.0000 -19.9617 0.0000
# 4 0.0000 0.0000 0.0000 60.7182 0.0000 -10.1362
# 5 -22.5273 -30.2631 -19.9617 0.0000 40.6228 0.0000
# 6 0.0000 0.0000 0.0000 -10.1362 0.0000 70.7747
#
#
#
# Elastic Compliance Matrix: (Units=1/GPa)
#
#
# Indices 1 2 3 4 5 6 
#
# 1 0.012962 -0.001851 -0.000158 0.000000 0.005731 0.000000
# 2 -0.001851 0.007045 -0.002046 0.000000 0.003216 0.000000
# 3 -0.000158 -0.002046 0.012976 0.000000 0.004765 0.000000
# 4 0.000000 0.000000 0.000000 0.016873 0.000000 0.002416
# 5 0.005731 0.003216 0.004765 0.000000 0.032532 0.000000
# 6 0.000000 0.000000 0.000000 0.002416 0.000000 0.014475
#
#
# Mechanical properties :
#
#
# Convention : Reuss Voigt Hill
#
# Bulk Modulus (GPa) = 40.20382 61.11986 50.66184
# Shear Modulus (GPa) = 44.14419 52.21634 48.18027
#
# Velocity S-wave (km/s) = 4.06153 4.41729 4.24314
# Velocity P-wave (km/s) = 6.08427 6.98973 6.55266
#
# Compressibility (1/GPa) = 0.02487326
#
# Stress axis : x y z
#
# Youngs Moduli (GPa) = 77.14762 141.95140 77.06283
#
# Poissons Ratio (x) = 0.26279 0.01220
# Poissons Ratio (y) = 0.14282 0.15763
# Poissons Ratio (z) = 0.01221 0.29036
#
# Static dielectric constant tensor:
#      x y z
#    x 2.073110 0.000000 0.019780 
#    y 0.000000 2.096390 0.000000 
#    z 0.019780 0.000000 2.323050 
# 
# From -- ./inp_files/11663.got.cif
#   From: 2010.05.17/outbox.cif.g08.bks.cpg/sg14_6_cif.got.tgz:11663.got - 2010.06.03 17:49:19.
