data_PCOD9251903
_publ_section_title
;
Structure prediction by ZEFSAII (Michael W. Deem and Ramdas Pophale) SiO2 
 PCOD9251903
Probable space group: P 21/C
;
_chemical_formula_sum "Si O2"
_cell_formula_units_Z 20
_cell_length_a 8.945323
_cell_length_b 11.491446
_cell_length_c 9.781301
_cell_angle_alpha 90.000000
_cell_angle_beta 120.808478
_cell_angle_gamma 90.000000
_cell_volume 863.578666
_symmetry_space_group_name_H-M "P 21/C"
_symmetry_group_IT_number 14
_symmetry_cell_setting 'monoclinic'
loop_
_space_group_symop_operation_xyz
x,y,z
-x,1/2+y,1/2-z
-x,-y,-z
x,1/2-y,1/2+z
loop_
_atom_site_type_symbol
_atom_site_label
_atom_site_fract_x
_atom_site_fract_y
_atom_site_fract_z
Si Si1 0.157377 0.526180 0.170463
Si Si2 0.979921 0.914657 0.857756
Si Si3 0.423292 0.393842 0.875280
Si Si4 0.514278 0.029496 0.846584
Si Si5 0.269867 0.750158 0.068347
O O1 0.316324 0.440005 0.215694
O O2 0.228344 0.654437 0.163425
O O3 0.090760 0.521602 0.292310
O O4 0.000000 0.500000 0.000000
O O5 0.786011 0.887888 0.707403
O O6 0.082323 0.792720 0.926424
O O7 0.000000 0.000000 0.000000
O O8 0.431862 0.418800 0.716425
O O9 0.578629 0.298675 0.962803
O O10 0.500000 0.500000 0.000000
O O11 0.641103 0.128470 0.852074
O O12 0.500000 0.000000 0.000000
#
# Coordination Sequence:
#
# PCOD9251903 Si02
#       5
#     4   4   4   4   4
#     4  11  26  46  72 110 146 188 252 310 358 441
#     4  12  24  49  76 106 147 197 247 305 367 448
#     4  11  26  46  72 108 150 185 245 314 358 440
#     4  11  22  47  70 101 145 189 241 295 361 444
#     4  11  26  44  73 105 149 194 243 286 391 424
#
# _framework density 23.159443
#
# number of rings (size 3 to 8) (size 9 to 14) (size 15 to 20)
#    0.000    0.800    4.000    2.400    5.600    1.600 
#    3.600    0.000    0.000    0.000    0.000    0.000 
#    0.000    0.000    0.000    0.000    0.000    0.000 
#
# Total GULP energy -111413.243342 kJ/mol
# GULP energy per Si atom -5570.662167 kJ/mol
# Density = 2.310673 g / cm^3
# Si number density = 23.159443 Si / 1000 Ang^3
#
#
#
# Elastic Constant Matrix: (Units=GPa)
#
#
# Indices 1 2 3 4 5 6 
#
# 1 144.7121 24.3057 48.7563 0.0000 39.2264 0.0000
# 2 24.3057 53.6980 25.3178 0.0000 15.8178 0.0000
# 3 48.7563 25.3178 92.9609 0.0000 25.1217 0.0000
# 4 0.0000 0.0000 0.0000 34.8584 0.0000 11.3651
# 5 39.2264 15.8178 25.1217 0.0000 64.4751 0.0000
# 6 0.0000 0.0000 0.0000 11.3651 0.0000 47.3519
#
#
#
# Elastic Compliance Matrix: (Units=1/GPa)
#
#
# Indices 1 2 3 4 5 6 
#
# 1 0.009407 -0.001445 -0.003453 0.000000 -0.004023 0.000000
# 2 -0.001445 0.022245 -0.004542 0.000000 -0.002809 0.000000
# 3 -0.003453 -0.004542 0.014459 0.000000 -0.002419 0.000000
# 4 0.000000 0.000000 0.000000 0.031123 0.000000 -0.007470
# 5 -0.004023 -0.002809 -0.002419 0.000000 0.019589 0.000000
# 6 0.000000 0.000000 0.000000 -0.007470 0.000000 0.022911
#
#
# Mechanical properties :
#
#
# Convention : Reuss Voigt Hill
#
# Bulk Modulus (GPa) = 36.72124 54.23672 45.47898
# Shear Modulus (GPa) = 33.85454 42.20316 38.02885
#
# Velocity S-wave (km/s) = 3.82750 4.27346 4.05661
# Velocity P-wave (km/s) = 5.95175 6.91517 6.45147
#
# Compressibility (1/GPa) = 0.02723219
#
# Stress axis : x y z
#
# Youngs Moduli (GPa) = 106.30515 44.95323 69.16218
#
# Poissons Ratio (x) = 0.06494 0.23882
# Poissons Ratio (y) = 0.15358 0.31411
# Poissons Ratio (z) = 0.36707 0.20416
#
# Static dielectric constant tensor:
#      x y z
#    x 1.850950 0.000000 0.050870 
#    y 0.000000 2.014160 0.000000 
#    z 0.050870 0.000000 1.989370 
# 
# From -- ./inp_files/23949.got.cif
#   From: 2010.05.17/outbox.cif.g08.bks.cpg/sg14_12_cif.got.tgz:23949.got - 2010.06.03 17:49:19.
