data_PCOD9251042
_publ_section_title
;
Structure prediction by ZEFSAII (Michael W. Deem and Ramdas Pophale) SiO2 
 PCOD9251042
Probable space group: P 21/C
;
_chemical_formula_sum "Si O2"
_cell_formula_units_Z 32
_cell_length_a 24.485580
_cell_length_b 8.634727
_cell_length_c 14.794449
_cell_angle_alpha 90.000000
_cell_angle_beta 151.172101
_cell_angle_gamma 90.000000
_cell_volume 1508.228975
_symmetry_space_group_name_H-M "P 21/C"
_symmetry_group_IT_number 14
_symmetry_cell_setting 'monoclinic'
loop_
_space_group_symop_operation_xyz
x,y,z
-x,1/2+y,1/2-z
-x,-y,-z
x,1/2-y,1/2+z
loop_
_atom_site_type_symbol
_atom_site_label
_atom_site_fract_x
_atom_site_fract_y
_atom_site_fract_z
Si Si1 0.248293 0.376152 0.852750
Si Si2 0.958239 0.651323 0.996024
Si Si3 0.535327 0.903659 0.930636
Si Si4 0.402061 0.968734 0.431095
Si Si5 0.797789 0.237438 0.674608
Si Si6 0.540233 0.767513 0.255805
Si Si7 0.221584 0.531181 0.177804
Si Si8 0.684422 0.235820 0.325474
O O1 0.137355 0.269737 0.680653
O O2 0.328874 0.405610 0.880439
O O3 0.222026 0.555471 0.837019
O O4 0.324153 0.292663 0.040517
O O5 0.889927 0.572366 0.978235
O O6 0.000000 0.500000 0.000000
O O7 0.074644 0.741140 0.175671
O O8 0.516060 0.782376 0.822539
O O9 0.440146 0.845807 0.862515
O O10 0.502912 0.069012 0.841703
O O11 0.664927 0.927586 0.147011
O O12 0.472569 0.861981 0.602608
O O13 0.313899 0.875422 0.242120
O O14 0.500000 0.000000 0.500000
O O15 0.778717 0.345802 0.736703
O O16 0.717111 0.282936 0.473837
O O17 0.229983 0.614118 0.094111
#
# Coordination Sequence:
#
# PCOD9251042 Si02
#       8
#     4   4   4   4   4   4   4   4
#     4  12  22  46  70  99 137 186 231 284 344 414
#     4  10  25  45  74  98 128 184 241 293 337 399
#     4  12  22  39  67  99 143 177 218 277 351 425
#     4  12  27  38  64 108 149 177 220 279 349 431
#     4  11  24  48  68  96 135 184 237 284 343 397
#     4  12  23  39  67 102 140 185 219 271 353 426
#     4  11  23  43  68  99 136 177 230 282 346 412
#     4  12  24  40  67  99 141 179 222 279 349 416
#
# _framework density 21.216937999999999
#
# number of rings (size 3 to 8) (size 9 to 14) (size 15 to 20)
#    0.000    0.500    6.250    2.250    1.750    0.000 
#    2.250    0.000    0.000    0.000    0.000    0.000 
#    0.000    0.000    0.000    0.000    0.000    0.000 
#
# Total GULP energy -178295.230611 kJ/mol
# GULP energy per Si atom -5571.725957 kJ/mol
# Density = 2.116865 g / cm^3
# Si number density = 21.216938 Si / 1000 Ang^3
#
#
#
# Elastic Constant Matrix: (Units=GPa)
#
#
# Indices 1 2 3 4 5 6 
#
# 1 72.1844 22.7479 20.5555 0.0000 9.0113 0.0000
# 2 22.7479 81.3159 37.4068 0.0000 -2.3703 0.0000
# 3 20.5555 37.4068 84.3024 0.0000 26.2944 0.0000
# 4 0.0000 0.0000 0.0000 -1.1522 0.0000 -11.1074
# 5 9.0113 -2.3703 26.2944 0.0000 31.9568 0.0000
# 6 0.0000 0.0000 0.0000 -11.1074 0.0000 28.6748
#
#
#
# Elastic Compliance Matrix: (Units=1/GPa)
#
#
# Indices 1 2 3 4 5 6 
#
# 1 0.015920 -0.004279 -0.000651 0.000000 -0.004271 0.000000
# 2 -0.004279 0.018873 -0.010956 0.000000 0.011621 0.000000
# 3 -0.000651 -0.010956 0.022975 0.000000 -0.019533 0.000000
# 4 0.000000 0.000000 0.000000 -0.183327 0.000000 -0.071013
# 5 -0.004271 0.011621 -0.019533 0.000000 0.049430 0.000000
# 6 0.000000 0.000000 0.000000 -0.071013 0.000000 0.007366
#
#
# Mechanical properties :
#
#
# Convention : Reuss Voigt Hill
#
# Bulk Modulus (GPa) = 38.46637 44.35812 41.41225
# Shear Modulus (GPa) = -176.52695 22.36870 -77.07913
#
# Velocity S-wave (km/s) = -9.13135 3.25050 -6.03390
# Velocity P-wave (km/s) = 9.64396 5.91946 5.38359
#
# Compressibility (1/GPa) = 0.02599673
#
# Stress axis : x y z
#
# Youngs Moduli (GPa) = 62.81263 52.98486 43.52620
#
# Poissons Ratio (x) = 0.22670 0.02835
# Poissons Ratio (y) = 0.26875 0.47687
# Poissons Ratio (z) = 0.04091 0.58050
#
# Static dielectric constant tensor:
#      x y z
#    x 1.812690 0.000000 0.035100 
#    y 0.000000 1.866900 0.000000 
#    z 0.035100 0.000000 1.791160 
# 
# From -- ./inp_files/51283.got.cif
#   From: 2010.05.17/outbox.cif.g08.bks.cpg/sg14_26_cif.got.tgz:51283.got - 2010.06.03 17:49:19.
