data_PCOD9251463
_publ_section_title
;
Structure prediction by ZEFSAII (Michael W. Deem and Ramdas Pophale) SiO2 
 PCOD9251463
Probable space group: P 21/C
;
_chemical_formula_sum "Si O2"
_cell_formula_units_Z 32
_cell_length_a 16.780181
_cell_length_b 20.925196
_cell_length_c 16.109916
_cell_angle_alpha 90.000000
_cell_angle_beta 162.948913
_cell_angle_gamma 90.000000
_cell_volume 1658.667584
_symmetry_space_group_name_H-M "P 21/C"
_symmetry_group_IT_number 14
_symmetry_cell_setting 'monoclinic'
loop_
_space_group_symop_operation_xyz
x,y,z
-x,1/2+y,1/2-z
-x,-y,-z
x,1/2-y,1/2+z
loop_
_atom_site_type_symbol
_atom_site_label
_atom_site_fract_x
_atom_site_fract_y
_atom_site_fract_z
Si Si1 0.598226 0.313832 0.856901
Si Si2 0.866734 0.247193 0.356179
Si Si3 0.702536 0.871724 0.463698
Si Si4 0.090327 0.895996 0.110856
Si Si5 0.568164 0.571085 0.195708
Si Si6 0.179347 0.563385 0.514024
Si Si7 0.392300 0.292427 0.282212
Si Si8 0.882603 0.734588 0.712639
O O1 0.535419 0.381128 0.836422
O O2 0.511788 0.260588 0.838219
O O3 0.404753 0.300275 0.585517
O O4 0.906044 0.300686 0.137754
O O5 0.806673 0.322861 0.288811
O O6 0.989987 0.235121 0.569530
O O7 0.100304 0.229122 0.523505
O O8 0.600618 0.207633 0.066095
O O9 0.424446 0.889136 0.233366
O O10 0.636785 0.855258 0.302971
O O11 0.832892 0.807530 0.633594
O O12 0.927398 0.925997 0.701656
O O13 0.310482 0.938556 0.378832
O O14 0.070658 0.920380 0.997661
O O15 0.806743 0.898164 0.877162
O O16 0.691337 0.506555 0.354878
#
# Coordination Sequence:
#
# PCOD9251463 Si02
#       8
#     4   4   4   4   4   4   4   4
#     4  11  21  38  55  85 113 154 193 242 284 339
#     4  12  21  36  58  87 114 157 183 234 303 352
#     4  11  23  39  58  86 116 156 199 246 289 339
#     4  12  22  37  54  88 124 160 199 227 273 358
#     4  12  24  39  58  84 122 166 204 229 281 345
#     4  12  24  39  59  84 123 166 200 235 279 344
#     4  11  22  36  58  84 116 147 195 240 296 345
#     4  11  23  36  60  82 118 149 193 243 296 346
#
# _framework density 19.292594000000001
#
# number of rings (size 3 to 8) (size 9 to 14) (size 15 to 20)
#    0.000    0.500    3.750    7.500    1.750    0.000 
#    0.000    0.000    0.000    0.000    0.000   17.500 
#    0.000    0.000    0.000    0.000    0.000    0.000 
#
# Total GULP energy -179018.218328 kJ/mol
# GULP energy per Si atom -5594.319323 kJ/mol
# Density = 1.924868 g / cm^3
# Si number density = 19.292594 Si / 1000 Ang^3
#
#
#
# Elastic Constant Matrix: (Units=GPa)
#
#
# Indices 1 2 3 4 5 6 
#
# 1 55.1340 18.9337 6.8670 0.0000 -0.0328 0.0000
# 2 18.9337 29.1419 -5.2464 0.0000 3.8682 0.0000
# 3 6.8670 -5.2464 83.5370 0.0000 2.0386 0.0000
# 4 0.0000 0.0000 0.0000 29.1761 0.0000 0.8299
# 5 -0.0328 3.8682 2.0386 0.0000 31.3719 0.0000
# 6 0.0000 0.0000 0.0000 0.8299 0.0000 17.7662
#
#
#
# Elastic Compliance Matrix: (Units=1/GPa)
#
#
# Indices 1 2 3 4 5 6 
#
# 1 0.024223 -0.016595 -0.003089 0.000000 0.002272 0.000000
# 2 -0.016595 0.046702 0.004445 0.000000 -0.006065 0.000000
# 3 -0.003089 0.004445 0.012537 0.000000 -0.001366 0.000000
# 4 0.000000 0.000000 0.000000 0.034320 0.000000 -0.001603
# 5 0.002272 -0.006065 -0.001366 0.000000 0.032715 0.000000
# 6 0.000000 0.000000 0.000000 -0.001603 0.000000 0.056362
#
#
# Mechanical properties :
#
#
# Convention : Reuss Voigt Hill
#
# Bulk Modulus (GPa) = 18.87356 23.21349 21.04353
# Shear Modulus (GPa) = 19.60797 25.48006 22.54401
#
# Velocity S-wave (km/s) = 3.19148 3.63811 3.42209
# Velocity P-wave (km/s) = 4.83578 5.45034 5.15223
#
# Compressibility (1/GPa) = 0.05298417
#
# Stress axis : x y z
#
# Youngs Moduli (GPa) = 41.28351 21.41221 79.76283
#
# Poissons Ratio (x) = 0.35534 0.24638
# Poissons Ratio (y) = 0.68512 -0.35456
# Poissons Ratio (z) = 0.12752 -0.09518
#
# Static dielectric constant tensor:
#      x y z
#    x 1.678920 0.000000 -0.030760 
#    y 0.000000 1.679170 0.000000 
#    z -0.030760 0.000000 1.718070 
# 
# From -- ./inp_files/47642.got.cif
#   From: 2010.05.17/outbox.cif.g08.bks.cpg/sg14_24_cif.got.tgz:47642.got - 2010.06.03 17:49:19.
