data_PCOD9251848
_publ_section_title
;
Structure prediction by ZEFSAII (Michael W. Deem and Ramdas Pophale) SiO2 
 PCOD9251848
Probable space group: P 21/C
;
_chemical_formula_sum "Si O2"
_cell_formula_units_Z 24
_cell_length_a 13.237885
_cell_length_b 9.374211
_cell_length_c 17.380550
_cell_angle_alpha 90.000000
_cell_angle_beta 29.693649
_cell_angle_gamma 90.000000
_cell_volume 1068.414728
_symmetry_space_group_name_H-M "P 21/C"
_symmetry_group_IT_number 14
_symmetry_cell_setting 'monoclinic'
loop_
_space_group_symop_operation_xyz
x,y,z
-x,1/2+y,1/2-z
-x,-y,-z
x,1/2-y,1/2+z
loop_
_atom_site_type_symbol
_atom_site_label
_atom_site_fract_x
_atom_site_fract_y
_atom_site_fract_z
Si Si1 0.207031 0.684541 0.447591
Si Si2 0.361300 0.173418 0.422430
Si Si3 0.338659 0.873974 0.102902
Si Si4 0.985892 0.150536 0.552340
Si Si5 0.287007 0.625056 0.044224
Si Si6 0.137959 0.444950 0.610153
O O1 0.425459 0.685738 0.261880
O O2 0.038216 0.730803 0.497637
O O3 0.222850 0.799784 0.506419
O O4 0.167899 0.531606 0.511874
O O5 0.298799 0.316193 0.509403
O O6 0.180844 0.163683 0.478316
O O7 0.364599 0.031718 0.472291
O O8 0.219189 0.845815 0.260433
O O9 0.425071 0.734784 0.001656
O O10 0.170694 0.940494 0.155853
O O11 0.500000 0.000000 0.000000
O O12 0.000000 0.000000 0.500000
O O13 0.087622 0.612644 0.229447
#
# Coordination Sequence:
#
# PCOD9251848 Si02
#       6
#     4   4   4   4   4   4
#     4  11  25  42  69 104 137 185 237 289 361 415
#     4  12  23  43  73 101 143 181 233 297 350 417
#     4  11  24  43  71 100 134 183 236 283 345 424
#     4  12  24  43  70 103 136 182 242 289 351 420
#     4  11  22  46  69  97 135 186 229 284 358 418
#     4  11  22  44  70  95 143 182 228 288 356 412
#
# _framework density 22.463187000000001
#
# number of rings (size 3 to 8) (size 9 to 14) (size 15 to 20)
#    0.000    0.667    5.000    3.000    4.667    0.667 
#    0.000    3.333    0.000    0.000    0.000    0.000 
#    0.000    0.000    0.000    0.000    0.000    0.000 
#
# Total GULP energy -134294.025253 kJ/mol
# GULP energy per Si atom -5595.584386 kJ/mol
# Density = 2.241206 g / cm^3
# Si number density = 22.463187 Si / 1000 Ang^3
#
#
#
# Elastic Constant Matrix: (Units=GPa)
#
#
# Indices 1 2 3 4 5 6 
#
# 1 72.7345 36.5293 16.6295 0.0000 11.6292 0.0000
# 2 36.5293 152.8716 32.9438 0.0000 24.2163 0.0000
# 3 16.6295 32.9438 91.1291 0.0000 13.6599 0.0000
# 4 0.0000 0.0000 0.0000 45.2933 0.0000 17.0639
# 5 11.6292 24.2163 13.6599 0.0000 31.6673 0.0000
# 6 0.0000 0.0000 0.0000 17.0639 0.0000 53.1927
#
#
#
# Elastic Compliance Matrix: (Units=1/GPa)
#
#
# Indices 1 2 3 4 5 6 
#
# 1 0.016082 -0.003077 -0.001379 0.000000 -0.002958 0.000000
# 2 -0.003077 0.008376 -0.001792 0.000000 -0.004502 0.000000
# 3 -0.001379 -0.001792 0.012393 0.000000 -0.003469 0.000000
# 4 0.000000 0.000000 0.000000 0.025113 0.000000 -0.008056
# 5 -0.002958 -0.004502 -0.003469 0.000000 0.037604 0.000000
# 6 0.000000 0.000000 0.000000 -0.008056 0.000000 0.021384
#
#
# Mechanical properties :
#
#
# Convention : Reuss Voigt Hill
#
# Bulk Modulus (GPa) = 41.05817 54.32672 47.69244
# Shear Modulus (GPa) = 35.31908 41.40618 38.36263
#
# Velocity S-wave (km/s) = 3.96954 4.29801 4.13704
# Velocity P-wave (km/s) = 6.27115 6.99055 6.64060
#
# Compressibility (1/GPa) = 0.02435569
#
# Stress axis : x y z
#
# Youngs Moduli (GPa) = 62.18022 119.38796 80.69219
#
# Poissons Ratio (x) = 0.36738 0.11127
# Poissons Ratio (y) = 0.19134 0.14457
# Poissons Ratio (z) = 0.08574 0.21389
#
# Static dielectric constant tensor:
#      x y z
#    x 1.906590 0.000000 -0.009610 
#    y 0.000000 1.895080 0.000000 
#    z -0.009610 0.000000 1.769550 
# 
# From -- ./inp_files/58987.got.cif
#   From: 2010.05.17/outbox.cif.g08.bks.cpg/sg14_30_cif.got.tgz:58987.got - 2010.06.03 17:49:19.
