data_PCOD9251988
_publ_section_title
;
Structure prediction by ZEFSAII (Michael W. Deem and Ramdas Pophale) SiO2 
 PCOD9251988
Probable space group: P 21/C
;
_chemical_formula_sum "Si O2"
_cell_formula_units_Z 28
_cell_length_a 11.480981
_cell_length_b 7.630365
_cell_length_c 26.174794
_cell_angle_alpha 90.000000
_cell_angle_beta 147.019291
_cell_angle_gamma 90.000000
_cell_volume 1248.219897
_symmetry_space_group_name_H-M "P 21/C"
_symmetry_group_IT_number 14
_symmetry_cell_setting 'monoclinic'
loop_
_space_group_symop_operation_xyz
x,y,z
-x,1/2+y,1/2-z
-x,-y,-z
x,1/2-y,1/2+z
loop_
_atom_site_type_symbol
_atom_site_label
_atom_site_fract_x
_atom_site_fract_y
_atom_site_fract_z
Si Si1 0.516983 0.109823 0.321449
Si Si2 0.699754 0.246491 0.787649
Si Si3 0.168868 0.391929 0.206572
Si Si4 0.927689 0.866522 0.140763
Si Si5 0.316943 0.911081 0.504124
Si Si6 0.485445 0.730826 0.464495
Si Si7 0.063399 0.571051 0.263340
O O1 0.668942 0.195712 0.334472
O O2 0.300071 0.223409 0.238571
O O3 0.608393 0.134081 0.411667
O O4 0.466431 0.905884 0.289844
O O5 0.694598 0.431234 0.755146
O O6 0.928960 0.166846 0.855489
O O7 0.118726 0.403053 0.248541
O O8 0.940259 0.404412 0.094606
O O9 0.681714 0.905604 0.039395
O O10 0.926900 0.689589 0.174997
O O11 0.029715 0.005629 0.217402
O O12 0.409980 0.791861 0.492715
O O13 0.410827 0.102677 0.525946
O O14 0.282873 0.666907 0.358180
#
# Coordination Sequence:
#
# PCOD9251988 Si02
#       7
#     4   4   4   4   4   4   4
#     4  12  26  48  75  99 140 191 240 296 344 412
#     4  11  25  47  71  99 141 190 240 288 349 411
#     4  11  24  49  69 106 139 184 237 288 355 422
#     4  11  24  41  65 104 139 180 233 284 353 424
#     4  11  24  43  73 105 141 186 233 287 360 415
#     4  11  23  42  67 107 143 179 229 286 360 431
#     4  11  23  40  69  98 145 180 224 290 352 420
#
# _framework density 22.431947000000001
#
# number of rings (size 3 to 8) (size 9 to 14) (size 15 to 20)
#    0.000    0.857    4.286    3.857    8.000    0.571 
#    0.000    0.714    0.000    0.000    0.000    0.000 
#    0.000    0.000    0.000    0.000    0.000    0.000 
#
# Total GULP energy -156615.312218 kJ/mol
# GULP energy per Si atom -5593.404008 kJ/mol
# Density = 2.238089 g / cm^3
# Si number density = 22.431947 Si / 1000 Ang^3
#
#
#
# Elastic Constant Matrix: (Units=GPa)
#
#
# Indices 1 2 3 4 5 6 
#
# 1 135.5125 31.1621 39.7387 0.0000 -6.0767 0.0000
# 2 31.1621 94.9899 21.4625 0.0000 4.8875 0.0000
# 3 39.7387 21.4625 93.8832 0.0000 -4.9392 0.0000
# 4 0.0000 0.0000 0.0000 25.4297 0.0000 3.4199
# 5 -6.0767 4.8875 -4.9392 0.0000 26.2017 0.0000
# 6 0.0000 0.0000 0.0000 3.4199 0.0000 41.4124
#
#
#
# Elastic Compliance Matrix: (Units=1/GPa)
#
#
# Indices 1 2 3 4 5 6 
#
# 1 0.008920 -0.002313 -0.003146 0.000000 0.001907 0.000000
# 2 -0.002313 0.011875 -0.001899 0.000000 -0.003110 0.000000
# 3 -0.003146 -0.001899 0.012522 0.000000 0.001985 0.000000
# 4 0.000000 0.000000 0.000000 0.039766 0.000000 -0.003284
# 5 0.001907 -0.003110 0.001985 0.000000 0.039562 0.000000
# 6 0.000000 0.000000 0.000000 -0.003284 0.000000 0.024419
#
#
# Mechanical properties :
#
#
# Convention : Reuss Voigt Hill
#
# Bulk Modulus (GPa) = 53.76582 56.56803 55.16692
# Shear Modulus (GPa) = 31.64948 34.07692 32.86320
#
# Velocity S-wave (km/s) = 3.76028 3.90182 3.83171
# Velocity P-wave (km/s) = 6.54778 6.75065 6.64999
#
# Compressibility (1/GPa) = 0.01859918
#
# Stress axis : x y z
#
# Youngs Moduli (GPa) = 112.11380 84.20713 79.86012
#
# Poissons Ratio (x) = 0.19480 0.25126
# Poissons Ratio (y) = 0.25936 0.15167
# Poissons Ratio (z) = 0.35274 0.15993
#
# Static dielectric constant tensor:
#      x y z
#    x 1.826210 0.000000 0.026060 
#    y 0.000000 1.929880 0.000000 
#    z 0.026060 0.000000 1.790350 
# 
# From -- ./inp_files/48533.got.cif
#   From: 2010.05.17/outbox.cif.g08.bks.cpg/sg14_25_cif.got.tgz:48533.got - 2010.06.03 17:49:19.
