data_PCOD9251244
_publ_section_title
;
Structure prediction by ZEFSAII (Michael W. Deem and Ramdas Pophale) SiO2 
 PCOD9251244
Probable space group: P 21/C
;
_chemical_formula_sum "Si O2"
_cell_formula_units_Z 16
_cell_length_a 8.052650
_cell_length_b 13.413022
_cell_length_c 6.741058
_cell_angle_alpha 90.000000
_cell_angle_beta 129.368882
_cell_angle_gamma 90.000000
_cell_volume 562.881461
_symmetry_space_group_name_H-M "P 21/C"
_symmetry_group_IT_number 14
_symmetry_cell_setting 'monoclinic'
loop_
_space_group_symop_operation_xyz
x,y,z
-x,1/2+y,1/2-z
-x,-y,-z
x,1/2-y,1/2+z
loop_
_atom_site_type_symbol
_atom_site_label
_atom_site_fract_x
_atom_site_fract_y
_atom_site_fract_z
Si Si1 0.954999 0.351683 0.826287
Si Si2 0.897740 0.444589 0.184828
Si Si3 0.304529 0.164708 0.869208
Si Si4 0.602806 0.337062 0.275718
O O1 0.838088 0.412295 0.914596
O O2 0.127784 0.289087 0.080689
O O3 0.073723 0.436801 0.789159
O O4 0.794743 0.295487 0.561438
O O5 0.144987 0.401686 0.381736
O O6 0.721645 0.403690 0.202789
O O7 0.457015 0.248839 0.076826
O O8 0.456601 0.106433 0.827407
#
# Coordination Sequence:
#
# PCOD9251244 Si02
#       4
#     4   4   4   4
#     4   9  23  52  72 107 151 187 245 316 354 439
#     4   9  23  52  72 107 151 184 252 311 357 442
#     4  10  27  44  70 112 143 194 245 294 378 443
#     4  12  25  44  76 106 147 198 240 304 378 434
#
# _framework density 28.425166000000001
#
# number of rings (size 3 to 8) (size 9 to 14) (size 15 to 20)
#    1.500    0.500    0.000    0.750    3.500   10.000 
#    0.000    0.000    0.000    0.000    0.000    1.750 
#    0.000    0.000    0.000    0.000    0.000    0.000 
#
# Total GULP energy -89382.237581 kJ/mol
# GULP energy per Si atom -5586.389849 kJ/mol
# Density = 2.836047 g / cm^3
# Si number density = 28.425166 Si / 1000 Ang^3
#
#
#
# Elastic Constant Matrix: (Units=GPa)
#
#
# Indices 1 2 3 4 5 6 
#
# 1 219.7926 44.0851 23.8210 0.0000 21.6352 0.0000
# 2 44.0851 115.4183 67.8780 0.0000 8.8754 0.0000
# 3 23.8210 67.8780 256.7035 0.0000 1.3355 0.0000
# 4 0.0000 0.0000 0.0000 53.7219 0.0000 6.7511
# 5 21.6352 8.8754 1.3355 0.0000 35.1543 0.0000
# 6 0.0000 0.0000 0.0000 6.7511 0.0000 44.0493
#
#
#
# Elastic Compliance Matrix: (Units=1/GPa)
#
#
# Indices 1 2 3 4 5 6 
#
# 1 0.005173 -0.001766 0.000001 0.000000 -0.002738 0.000000
# 2 -0.001766 0.011085 -0.002759 0.000000 -0.001607 0.000000
# 3 0.000001 -0.002759 0.004622 0.000000 0.000520 0.000000
# 4 0.000000 0.000000 0.000000 0.018980 0.000000 -0.002909
# 5 -0.002738 -0.001607 0.000520 0.000000 0.030517 0.000000
# 6 0.000000 0.000000 0.000000 -0.002909 0.000000 0.023148
#
#
# Mechanical properties :
#
#
# Convention : Reuss Voigt Hill
#
# Bulk Modulus (GPa) = 84.51088 95.94252 90.22670
# Shear Modulus (GPa) = 46.94096 56.99379 51.96737
#
# Velocity S-wave (km/s) = 4.06814 4.48263 4.28040
# Velocity P-wave (km/s) = 7.20152 7.78575 7.49933
#
# Compressibility (1/GPa) = 0.01183280
#
# Stress axis : x y z
#
# Youngs Moduli (GPa) = 193.29713 90.21385 216.34645
#
# Poissons Ratio (x) = 0.15933 -0.00026
# Poissons Ratio (y) = 0.34140 0.59686
# Poissons Ratio (z) = -0.00023 0.24888
#
# Static dielectric constant tensor:
#      x y z
#    x 2.388740 0.000000 0.006680 
#    y 0.000000 2.211920 0.000000 
#    z 0.006680 0.000000 2.281980 
# 
# From -- ./inp_files/8939.got.cif
#   From: 2010.05.17/outbox.cif.g08.bks.cpg/sg14_5_cif.got.tgz:8939.got - 2010.06.03 17:49:19.
