data_PCOD9251249
_publ_section_title
;
Structure prediction by ZEFSAII (Michael W. Deem and Ramdas Pophale) SiO2 
 PCOD9251249
Probable space group: P 21/C
;
_chemical_formula_sum "Si O2"
_cell_formula_units_Z 26
_cell_length_a 15.472998
_cell_length_b 4.992225
_cell_length_c 14.347345
_cell_angle_alpha 90.000000
_cell_angle_beta 113.766413
_cell_angle_gamma 90.000000
_cell_volume 1014.271701
_symmetry_space_group_name_H-M "P 21/C"
_symmetry_group_IT_number 14
_symmetry_cell_setting 'monoclinic'
loop_
_space_group_symop_operation_xyz
x,y,z
-x,1/2+y,1/2-z
-x,-y,-z
x,1/2-y,1/2+z
loop_
_atom_site_type_symbol
_atom_site_label
_atom_site_fract_x
_atom_site_fract_y
_atom_site_fract_z
Si Si1 0.500000 0.500000 0.500000
Si Si2 0.549329 0.960042 0.234667
Si Si3 0.318543 0.153748 0.441149
Si Si4 0.787384 0.339509 0.563927
Si Si5 0.948664 0.307749 0.770458
Si Si6 0.737590 0.671550 0.300224
Si Si7 0.851903 0.329225 0.904845
O O1 0.450876 0.523566 0.374828
O O2 0.423666 0.261153 0.494355
O O3 0.469915 0.734427 0.219612
O O4 0.645085 0.807426 0.304086
O O5 0.248390 0.359336 0.463514
O O6 0.283635 0.163071 0.319044
O O7 0.303643 0.853337 0.470862
O O8 0.842378 0.311571 0.684650
O O9 0.858409 0.227234 0.516910
O O10 0.940023 0.261799 0.876991
O O11 0.993808 0.581460 0.756933
O O12 0.766129 0.374775 0.342862
O O13 0.822305 0.871116 0.364494
#
# Coordination Sequence:
#
# PCOD9251249 Si02
#       7
#     2   4   4   4   4   4   4
#     4  10  28  44  70 106 146 194 244 302 336 412
#     4  11  26  43  67 102 144 188 244 292 356 402
#     4  11  23  46  70 102 147 187 240 284 351 404
#     4  12  26  44  74 105 137 187 232 285 350 422
#     4  12  26  47  75 102 142 175 223 292 360 422
#     4  11  22  44  69  98 142 190 230 289 341 420
#     4  12  25  44  72 104 136 180 234 280 349 426
#
# _framework density 25.634156000000001
#
# number of rings (size 3 to 8) (size 9 to 14) (size 15 to 20)
#    0.000    0.615    3.077    3.692    6.462    6.154 
#    0.000    0.000    0.000    0.000    0.000    0.000 
#    0.000    0.000    0.000    0.000    0.000    0.000 
#
# Total GULP energy -145276.839749 kJ/mol
# GULP energy per Si atom -5587.570760 kJ/mol
# Density = 2.557581 g / cm^3
# Si number density = 25.634156 Si / 1000 Ang^3
#
#
#
# Elastic Constant Matrix: (Units=GPa)
#
#
# Indices 1 2 3 4 5 6 
#
# 1 48.1264 10.5267 -5.9798 0.0000 -2.5972 0.0000
# 2 10.5267 124.2674 5.6646 0.0000 7.7112 0.0000
# 3 -5.9798 5.6646 54.4895 0.0000 -15.6047 0.0000
# 4 0.0000 0.0000 0.0000 25.8452 0.0000 1.6819
# 5 -2.5972 7.7112 -15.6047 0.0000 34.7336 0.0000
# 6 0.0000 0.0000 0.0000 1.6819 0.0000 39.2173
#
#
#
# Elastic Compliance Matrix: (Units=1/GPa)
#
#
# Indices 1 2 3 4 5 6 
#
# 1 0.021945 -0.002267 0.003739 0.000000 0.003824 0.000000
# 2 -0.002267 0.008512 -0.001978 0.000000 -0.002948 0.000000
# 3 0.003739 -0.001978 0.022005 0.000000 0.010605 0.000000
# 4 0.000000 0.000000 0.000000 0.038800 0.000000 -0.001664
# 5 0.003824 -0.002948 0.010605 0.000000 0.034495 0.000000
# 6 0.000000 0.000000 0.000000 -0.001664 0.000000 0.025570
#
#
# Mechanical properties :
#
#
# Convention : Reuss Voigt Hill
#
# Bulk Modulus (GPa) = 19.43567 27.47848 23.45708
# Shear Modulus (GPa) = 29.50023 34.40403 31.95213
#
# Velocity S-wave (km/s) = 3.39605 3.66747 3.53436
# Velocity P-wave (km/s) = 4.79332 5.35504 5.08195
#
# Compressibility (1/GPa) = 0.05145178
#
# Stress axis : x y z
#
# Youngs Moduli (GPa) = 45.56771 117.47757 45.44389
#
# Poissons Ratio (x) = 0.26629 -0.16992
# Poissons Ratio (y) = 0.10329 0.08988
# Poissons Ratio (z) = -0.17038 0.23236
#
# Static dielectric constant tensor:
#      x y z
#    x 2.056750 0.000000 -0.043900 
#    y 0.000000 1.939650 0.000000 
#    z -0.043900 0.000000 2.002520 
# 
# From -- ./inp_files/45967.got.cif
#   From: 2010.05.17/outbox.cif.g08.bks.cpg/sg14_23_cif.got.tgz:45967.got - 2010.06.03 17:49:19.
