data_PCOD9251573
_publ_section_title
;
Structure prediction by ZEFSAII (Michael W. Deem and Ramdas Pophale) SiO2 
 PCOD9251573
Probable space group: P 21/C
;
_chemical_formula_sum "Si O2"
_cell_formula_units_Z 26
_cell_length_a 11.337587
_cell_length_b 11.426695
_cell_length_c 17.280182
_cell_angle_alpha 90.000000
_cell_angle_beta 153.734124
_cell_angle_gamma 90.000000
_cell_volume 990.693585
_symmetry_space_group_name_H-M "P 21/C"
_symmetry_group_IT_number 14
_symmetry_cell_setting 'monoclinic'
loop_
_space_group_symop_operation_xyz
x,y,z
-x,1/2+y,1/2-z
-x,-y,-z
x,1/2-y,1/2+z
loop_
_atom_site_type_symbol
_atom_site_label
_atom_site_fract_x
_atom_site_fract_y
_atom_site_fract_z
Si Si1 0.676074 0.981799 0.750050
Si Si2 0.974900 0.341865 0.710480
Si Si3 0.060446 0.255659 0.049697
Si Si4 0.862075 0.119249 0.569859
Si Si5 0.458525 0.562899 0.658931
Si Si6 0.801202 0.389295 0.767676
Si Si7 0.500000 0.000000 0.500000
O O1 0.864129 0.878335 0.891615
O O2 0.421899 0.911503 0.558796
O O3 0.578907 0.042788 0.771131
O O4 0.716003 0.055680 0.696922
O O5 0.022508 0.205810 0.718735
O O6 0.802973 0.399348 0.540587
O O7 0.771751 0.350520 0.662740
O O8 0.255371 0.406253 0.882001
O O9 0.318725 0.335849 0.219130
O O10 0.836224 0.306724 0.975874
O O11 0.955764 0.289751 0.904880
O O12 0.002147 0.000918 0.627743
O O13 0.566373 0.444982 0.680566
#
# Coordination Sequence:
#
# PCOD9251573 Si02
#       7
#     4   4   4   4   4   4   2
#     4  12  23  45  71 101 144 190 234 300 361 432
#     4  12  25  42  69 105 142 188 232 297 367 428
#     4  11  21  42  73  99 133 190 236 284 363 423
#     4  11  21  42  69  95 137 185 235 284 355 420
#     4  11  23  42  73 101 136 184 243 292 353 431
#     4  11  23  45  72 105 139 183 240 301 347 433
#     4  12  26  46  64 102 156 186 234 306 362 418
#
# _framework density 26.244240000000001
#
# number of rings (size 3 to 8) (size 9 to 14) (size 15 to 20)
#    0.000    0.615    7.692    1.385    0.000    1.846 
#    0.000    3.077    0.000    0.000    0.000    0.000 
#    0.000    0.000    0.000    0.000    0.000    0.000 
#
# Total GULP energy -144987.574794 kJ/mol
# GULP energy per Si atom -5576.445184 kJ/mol
# Density = 2.618451 g / cm^3
# Si number density = 26.244240 Si / 1000 Ang^3
#
#
#
# Elastic Constant Matrix: (Units=GPa)
#
#
# Indices 1 2 3 4 5 6 
#
# 1 104.6308 21.7753 21.4577 0.0000 -25.5609 0.0000
# 2 21.7753 92.5872 53.0304 0.0000 -6.6478 0.0000
# 3 21.4577 53.0304 91.1003 0.0000 -6.0986 0.0000
# 4 0.0000 0.0000 0.0000 51.7347 0.0000 -1.0509
# 5 -25.5609 -6.6478 -6.0986 0.0000 50.5213 0.0000
# 6 0.0000 0.0000 0.0000 -1.0509 0.0000 39.6650
#
#
#
# Elastic Compliance Matrix: (Units=1/GPa)
#
#
# Indices 1 2 3 4 5 6 
#
# 1 0.011497 -0.001456 -0.001496 0.000000 0.005445 0.000000
# 2 -0.001456 0.016438 -0.009204 0.000000 0.000315 0.000000
# 3 -0.001496 -0.009204 0.016690 0.000000 0.000047 0.000000
# 4 0.000000 0.000000 0.000000 0.019340 0.000000 0.000512
# 5 0.005445 0.000315 0.000047 0.000000 0.022596 0.000000
# 6 0.000000 0.000000 0.000000 0.000512 0.000000 0.025225
#
#
# Mechanical properties :
#
#
# Convention : Reuss Voigt Hill
#
# Bulk Modulus (GPa) = 49.23135 53.42722 51.32929
# Shear Modulus (GPa) = 34.99696 41.18786 38.09241
#
# Velocity S-wave (km/s) = 3.65569 3.96587 3.81393
# Velocity P-wave (km/s) = 6.05131 6.43216 6.24464
#
# Compressibility (1/GPa) = 0.02031226
#
# Stress axis : x y z
#
# Youngs Moduli (GPa) = 86.97596 60.83571 59.91478
#
# Poissons Ratio (x) = 0.08860 0.08962
# Poissons Ratio (y) = 0.12667 0.55148
# Poissons Ratio (z) = 0.13010 0.55996
#
# Static dielectric constant tensor:
#      x y z
#    x 1.227510 0.000000 0.442030 
#    y 0.000000 1.700710 0.000000 
#    z 0.442030 0.000000 1.873090 
# 
# From -- ./inp_files/57679.got.cif
#   From: 2010.05.17/outbox.cif.g08.bks.cpg/sg14_29_cif.got.tgz:57679.got - 2010.06.03 17:49:19.
