data_PCOD9251846
_publ_section_title
;
Structure prediction by ZEFSAII (Michael W. Deem and Ramdas Pophale) SiO2 
 PCOD9251846
Probable space group: P 21/C
;
_chemical_formula_sum "Si O2"
_cell_formula_units_Z 24
_cell_length_a 6.600886
_cell_length_b 16.069961
_cell_length_c 11.162473
_cell_angle_alpha 90.000000
_cell_angle_beta 116.765833
_cell_angle_gamma 90.000000
_cell_volume 1057.202504
_symmetry_space_group_name_H-M "P 21/C"
_symmetry_group_IT_number 14
_symmetry_cell_setting 'monoclinic'
loop_
_space_group_symop_operation_xyz
x,y,z
-x,1/2+y,1/2-z
-x,-y,-z
x,1/2-y,1/2+z
loop_
_atom_site_type_symbol
_atom_site_label
_atom_site_fract_x
_atom_site_fract_y
_atom_site_fract_z
Si Si1 0.336313 0.775645 0.441154
Si Si2 0.851111 0.642583 0.820492
Si Si3 0.760125 0.972093 0.081136
Si Si4 0.215796 0.453016 0.685598
Si Si5 0.452889 0.063676 0.593468
Si Si6 0.499214 0.211929 0.257313
O O1 0.516396 0.846739 0.456896
O O2 0.365018 0.713396 0.334278
O O3 0.367990 0.753089 0.589688
O O4 0.104370 0.826971 0.376330
O O5 0.773191 0.603537 0.675317
O O6 0.785263 0.572093 0.900849
O O7 0.708320 0.724675 0.810076
O O8 0.824525 0.943214 0.965907
O O9 0.961894 0.036987 0.172495
O O10 0.500000 0.000000 0.000000
O O11 0.356359 0.536590 0.757986
O O12 0.387575 0.377238 0.758104
O O13 0.500000 0.000000 0.500000
#
# Coordination Sequence:
#
# PCOD9251846 Si02
#       6
#     4   4   4   4   4   4
#     4  11  25  46  70 102 144 187 238 296 361 436
#     4  11  25  45  70 100 141 191 228 304 356 431
#     4  11  23  42  71 104 139 187 239 295 356 434
#     4  11  23  42  70 102 137 185 239 296 355 431
#     4  11  22  44  70 100 138 177 240 289 357 423
#     4  11  26  45  69 104 143 187 238 299 368 432
#
# _framework density 22.701422999999998
#
# number of rings (size 3 to 8) (size 9 to 14) (size 15 to 20)
#    0.000    1.000    5.000    1.000    0.000    7.333 
#    3.000    0.000    0.000    0.000    0.000    0.000 
#    0.000    0.000    0.000    0.000    0.000    0.000 
#
# Total GULP energy -133707.061194 kJ/mol
# GULP energy per Si atom -5571.127550 kJ/mol
# Density = 2.264975 g / cm^3
# Si number density = 22.701423 Si / 1000 Ang^3
#
#
#
# Elastic Constant Matrix: (Units=GPa)
#
#
# Indices 1 2 3 4 5 6 
#
# 1 100.8107 6.9115 19.1928 0.0000 5.4671 0.0000
# 2 6.9115 35.6880 0.8570 0.0000 -6.7225 0.0000
# 3 19.1928 0.8570 80.8926 0.0000 -10.7013 0.0000
# 4 0.0000 0.0000 0.0000 33.3855 0.0000 -2.3222
# 5 5.4671 -6.7225 -10.7013 0.0000 24.7473 0.0000
# 6 0.0000 0.0000 0.0000 -2.3222 0.0000 31.1633
#
#
#
# Elastic Compliance Matrix: (Units=1/GPa)
#
#
# Indices 1 2 3 4 5 6 
#
# 1 0.010974 -0.002914 -0.003180 0.000000 -0.004591 0.000000
# 2 -0.002914 0.030354 0.001639 0.000000 0.009598 0.000000
# 3 -0.003180 0.001639 0.014055 0.000000 0.007226 0.000000
# 4 0.000000 0.000000 0.000000 0.030109 0.000000 0.002244
# 5 -0.004591 0.009598 0.007226 0.000000 0.047154 0.000000
# 6 0.000000 0.000000 0.000000 0.002244 0.000000 0.032256
#
#
# Mechanical properties :
#
#
# Convention : Reuss Voigt Hill
#
# Bulk Modulus (GPa) = 21.51753 30.14599 25.83176
# Shear Modulus (GPa) = 26.41280 30.55456 28.48368
#
# Velocity S-wave (km/s) = 3.41469 3.67267 3.54603
# Velocity P-wave (km/s) = 5.00459 5.59400 5.30748
#
# Compressibility (1/GPa) = 0.04647374
#
# Stress axis : x y z
#
# Youngs Moduli (GPa) = 91.12648 32.94512 71.14853
#
# Poissons Ratio (x) = 0.09599 0.22626
# Poissons Ratio (y) = 0.26551 -0.11665
# Poissons Ratio (z) = 0.28979 -0.05401
#
# Static dielectric constant tensor:
#      x y z
#    x 1.905880 0.000000 -0.041860 
#    y 0.000000 1.912500 0.000000 
#    z -0.041860 0.000000 1.963390 
# 
# From -- ./inp_files/21281.got.cif
#   From: 2010.05.17/outbox.cif.g08.bks.cpg/sg14_11_cif.got.tgz:21281.got - 2010.06.03 17:49:19.
