data_PCOD9251168
_publ_section_title
;
Structure prediction by ZEFSAII (Michael W. Deem and Ramdas Pophale) SiO2 
 PCOD9251168
Probable space group: P 21/C
;
_chemical_formula_sum "Si O2"
_cell_formula_units_Z 24
_cell_length_a 15.185581
_cell_length_b 5.767553
_cell_length_c 14.504533
_cell_angle_alpha 90.000000
_cell_angle_beta 121.951866
_cell_angle_gamma 90.000000
_cell_volume 1077.891410
_symmetry_space_group_name_H-M "P 21/C"
_symmetry_group_IT_number 14
_symmetry_cell_setting 'monoclinic'
loop_
_space_group_symop_operation_xyz
x,y,z
-x,1/2+y,1/2-z
-x,-y,-z
x,1/2-y,1/2+z
loop_
_atom_site_type_symbol
_atom_site_label
_atom_site_fract_x
_atom_site_fract_y
_atom_site_fract_z
Si Si1 0.775413 0.903346 0.974917
Si Si2 0.611214 0.964145 0.437888
Si Si3 0.424099 0.703128 0.425757
Si Si4 0.886760 0.934594 0.404018
Si Si5 0.061715 0.017594 0.778003
Si Si6 0.687234 0.294802 0.816974
O O1 0.705529 0.716580 0.992058
O O2 0.847491 0.793679 0.934784
O O3 0.691132 0.048515 0.869099
O O4 0.852985 0.010249 0.093611
O O5 0.502332 0.869063 0.412648
O O6 0.629282 0.177932 0.516595
O O7 0.608521 0.050353 0.332193
O O8 0.500000 0.500000 0.500000
O O9 0.337799 0.658102 0.302281
O O10 0.888650 0.932550 0.294734
O O11 0.804747 0.121574 0.395387
O O12 0.000000 0.000000 0.500000
O O13 0.998759 0.264992 0.761981
#
# Coordination Sequence:
#
# PCOD9251168 Si02
#       6
#     4   4   4   4   4   4
#     4  11  26  46  71 107 148 193 256 305 382 459
#     4  10  26  44  70 105 144 186 248 302 380 446
#     4  11  26  46  73 106 145 193 244 310 378 458
#     4  11  25  47  69 107 146 200 248 309 377 453
#     4  12  28  46  78 108 153 200 254 318 381 456
#     4  11  27  44  76 101 148 196 247 310 381 454
#
# _framework density 22.265695000000001
#
# number of rings (size 3 to 8) (size 9 to 14) (size 15 to 20)
#    0.000    1.000    1.667    2.000   16.333    4.000 
#    0.000    0.000    0.000    0.000    0.000    0.000 
#    0.000    0.000    0.000    0.000    0.000    0.000 
#
# Total GULP energy -133890.916514 kJ/mol
# GULP energy per Si atom -5578.788188 kJ/mol
# Density = 2.221502 g / cm^3
# Si number density = 22.265695 Si / 1000 Ang^3
#
#
#
# Elastic Constant Matrix: (Units=GPa)
#
#
# Indices 1 2 3 4 5 6 
#
# 1 73.4707 2.1433 -3.4622 0.0000 -11.2267 0.0000
# 2 2.1433 64.9348 16.5063 0.0000 7.8860 0.0000
# 3 -3.4622 16.5063 97.3486 0.0000 -2.2862 0.0000
# 4 0.0000 0.0000 0.0000 24.4695 0.0000 -3.9977
# 5 -11.2267 7.8860 -2.2862 0.0000 40.5646 0.0000
# 6 0.0000 0.0000 0.0000 -3.9977 0.0000 30.5992
#
#
#
# Elastic Compliance Matrix: (Units=1/GPa)
#
#
# Indices 1 2 3 4 5 6 
#
# 1 0.014333 -0.001195 0.000812 0.000000 0.004245 0.000000
# 2 -0.001195 0.016643 -0.002952 0.000000 -0.003733 0.000000
# 3 0.000812 -0.002952 0.010835 0.000000 0.001409 0.000000
# 4 0.000000 0.000000 0.000000 0.041759 0.000000 0.005456
# 5 0.004245 -0.003733 0.001409 0.000000 0.026632 0.000000
# 6 0.000000 0.000000 0.000000 0.005456 0.000000 0.033393
#
#
# Mechanical properties :
#
#
# Convention : Reuss Voigt Hill
#
# Bulk Modulus (GPa) = 28.45716 29.56988 29.01352
# Shear Modulus (GPa) = 30.86831 33.83109 32.34970
#
# Velocity S-wave (km/s) = 3.72743 3.90221 3.81582
# Velocity P-wave (km/s) = 5.59763 5.79761 5.69850
#
# Compressibility (1/GPa) = 0.03514053
#
# Stress axis : x y z
#
# Youngs Moduli (GPa) = 69.77087 60.08437 92.29431
#
# Poissons Ratio (x) = 0.07180 -0.07495
# Poissons Ratio (y) = 0.08338 0.27247
# Poissons Ratio (z) = -0.05666 0.17738
#
# Static dielectric constant tensor:
#      x y z
#    x 1.777010 0.000000 0.034160 
#    y 0.000000 1.965860 0.000000 
#    z 0.034160 0.000000 1.735310 
# 
# From -- ./inp_files/45986.got.cif
#   From: 2010.05.17/outbox.cif.g08.bks.cpg/sg14_23_cif.got.tgz:45986.got - 2010.06.03 17:49:19.
