data_PCOD9251908
_publ_section_title
;
Structure prediction by ZEFSAII (Michael W. Deem and Ramdas Pophale) SiO2 
 PCOD9251908
Probable space group: P 21/C
;
_chemical_formula_sum "Si O2"
_cell_formula_units_Z 32
_cell_length_a 14.893782
_cell_length_b 10.798604
_cell_length_c 18.561597
_cell_angle_alpha 90.000000
_cell_angle_beta 150.470301
_cell_angle_gamma 90.000000
_cell_volume 1471.378545
_symmetry_space_group_name_H-M "P 21/C"
_symmetry_group_IT_number 14
_symmetry_cell_setting 'monoclinic'
loop_
_space_group_symop_operation_xyz
x,y,z
-x,1/2+y,1/2-z
-x,-y,-z
x,1/2-y,1/2+z
loop_
_atom_site_type_symbol
_atom_site_label
_atom_site_fract_x
_atom_site_fract_y
_atom_site_fract_z
Si Si1 0.421692 0.323863 0.345890
Si Si2 0.361472 0.225793 0.460606
Si Si3 0.633003 0.139894 0.387931
Si Si4 0.880431 0.941540 0.616304
Si Si5 0.263229 0.016033 0.109872
Si Si6 0.263754 0.004183 0.941693
Si Si7 0.730589 0.270640 0.306784
Si Si8 0.115271 0.207475 0.525475
O O1 0.374939 0.247841 0.384876
O O2 0.547101 0.240426 0.381264
O O3 0.545118 0.443028 0.447843
O O4 0.238715 0.353287 0.173943
O O5 0.237619 0.111653 0.399895
O O6 0.274142 0.350561 0.432452
O O7 0.562704 0.214602 0.635205
O O8 0.479927 0.034086 0.272318
O O9 0.664859 0.199474 0.332447
O O10 0.810503 0.077592 0.545637
O O11 0.842855 0.855065 0.521331
O O12 0.093016 0.944491 0.782259
O O13 0.174127 0.148533 0.063688
O O14 0.204378 0.905291 0.120193
O O15 0.233753 0.985408 0.005829
O O16 0.902122 0.200906 0.392943
#
# Coordination Sequence:
#
# PCOD9251908 Si02
#       8
#     4   4   4   4   4   4   4   4
#     4  11  26  44  69 102 140 172 228 278 343 403
#     4  12  26  47  68 103 138 176 228 287 337 396
#     4  11  24  45  69  98 132 183 221 276 340 407
#     4  12  27  45  70  99 138 180 229 276 343 405
#     4  11  22  47  72  98 134 180 225 282 340 400
#     4  12  25  43  74  96 138 179 224 287 339 397
#     4  12  24  45  75  96 137 182 227 280 339 404
#     4  11  26  46  70 102 137 179 228 278 339 414
#
# _framework density 21.748313
#
# number of rings (size 3 to 8) (size 9 to 14) (size 15 to 20)
#    0.000    0.500    5.000    3.000    5.250    2.000 
#    0.000    0.000    0.000    0.000    0.000    0.000 
#    0.000    0.000    0.000    0.000    0.000    0.000 
#
# Total GULP energy -179192.820224 kJ/mol
# GULP energy per Si atom -5599.775632 kJ/mol
# Density = 2.169881 g / cm^3
# Si number density = 21.748313 Si / 1000 Ang^3
#
#
#
# Elastic Constant Matrix: (Units=GPa)
#
#
# Indices 1 2 3 4 5 6 
#
# 1 59.4818 -14.8118 24.6534 0.0000 -7.6003 0.0000
# 2 -14.8118 30.3414 4.4596 0.0000 4.2967 0.0000
# 3 24.6534 4.4596 97.7402 0.0000 2.9487 0.0000
# 4 0.0000 0.0000 0.0000 25.3202 0.0000 4.1755
# 5 -7.6003 4.2967 2.9487 0.0000 28.4662 0.0000
# 6 0.0000 0.0000 0.0000 4.1755 0.0000 1.3912
#
#
#
# Elastic Compliance Matrix: (Units=1/GPa)
#
#
# Indices 1 2 3 4 5 6 
#
# 1 0.023000 0.011460 -0.006478 0.000000 0.005082 0.000000
# 2 0.011460 0.039577 -0.004623 0.000000 -0.002435 0.000000
# 3 -0.006478 -0.004623 0.012145 0.000000 -0.002290 0.000000
# 4 0.000000 0.000000 0.000000 0.078200 0.000000 -0.234709
# 5 0.005082 -0.002435 -0.002290 0.000000 0.037091 0.000000
# 6 0.000000 0.000000 0.000000 -0.234709 0.000000 1.423261
#
#
# Mechanical properties :
#
#
# Convention : Reuss Voigt Hill
#
# Bulk Modulus (GPa) = 13.25535 24.01842 18.63688
# Shear Modulus (GPa) = 3.05306 22.58633 12.81969
#
# Velocity S-wave (km/s) = 1.18611 3.22612 2.43051
# Velocity P-wave (km/s) = 2.82559 4.99449 4.05764
#
# Compressibility (1/GPa) = 0.07544123
#
# Stress axis : x y z
#
# Youngs Moduli (GPa) = 43.47883 25.26716 82.33805
#
# Poissons Ratio (x) = -0.28957 0.53335
# Poissons Ratio (y) = -0.49827 0.38064
# Poissons Ratio (z) = 0.28163 0.11681
#
# Static dielectric constant tensor:
#      x y z
#    x 1.758070 0.000000 0.011550 
#    y 0.000000 1.802290 0.000000 
#    z 0.011550 0.000000 1.792410 
# 
# From -- ./inp_files/59412.got.cif
#   From: 2010.05.17/outbox.cif.g08.bks.cpg/sg14_30_cif.got.tgz:59412.got - 2010.06.03 17:49:19.
