data_PCOD9251507
_publ_section_title
;
Structure prediction by ZEFSAII (Michael W. Deem and Ramdas Pophale) SiO2 
 PCOD9251507
Probable space group: P 21/C
;
_chemical_formula_sum "Si O2"
_cell_formula_units_Z 24
_cell_length_a 10.192357
_cell_length_b 17.524332
_cell_length_c 9.184379
_cell_angle_alpha 90.000000
_cell_angle_beta 34.390977
_cell_angle_gamma 90.000000
_cell_volume 926.593133
_symmetry_space_group_name_H-M "P 21/C"
_symmetry_group_IT_number 14
_symmetry_cell_setting 'monoclinic'
loop_
_space_group_symop_operation_xyz
x,y,z
-x,1/2+y,1/2-z
-x,-y,-z
x,1/2-y,1/2+z
loop_
_atom_site_type_symbol
_atom_site_label
_atom_site_fract_x
_atom_site_fract_y
_atom_site_fract_z
Si Si1 0.810872 0.009252 0.833797
Si Si2 0.730732 0.736144 0.508072
Si Si3 0.978361 0.242682 0.004776
Si Si4 0.456524 0.419884 0.183449
Si Si5 0.815498 0.395864 0.067060
Si Si6 0.183909 0.110354 0.653727
O O1 0.696928 0.057250 0.807370
O O2 0.029112 0.058857 0.692805
O O3 0.656338 0.983821 0.110392
O O4 0.927323 0.931607 0.667582
O O5 0.982375 0.739767 0.360193
O O6 0.618109 0.665260 0.690944
O O7 0.662463 0.825299 0.571216
O O8 0.783674 0.724963 0.289233
O O9 0.797000 0.306772 0.125023
O O10 0.989722 0.158915 0.925488
O O11 0.721415 0.415407 0.992581
O O12 0.353749 0.427425 0.116732
#
# Coordination Sequence:
#
# PCOD9251507 Si02
#       6
#     4   4   4   4   4   4
#     4  11  21  40  59  81 122 155 186 239 294 354
#     4   9  18  37  60  79 118 151 195 234 291 342
#     4   9  17  38  58  83 111 159 191 232 294 345
#     4  11  22  38  57  90 115 151 198 244 282 347
#     4  11  22  36  63  85 114 155 196 234 293 347
#     4   9  20  37  61  81 117 157 190 239 299 338
#
# _framework density 25.901335
#
# number of rings (size 3 to 8) (size 9 to 14) (size 15 to 20)
#    1.000    1.000    3.333    1.000    0.000    0.667 
#    6.000    1.667    0.000    0.000    0.000    0.000 
#    0.000    0.000    0.000    0.000    0.000    0.000 
#
# Total GULP energy -133667.019532 kJ/mol
# GULP energy per Si atom -5569.459147 kJ/mol
# Density = 2.584238 g / cm^3
# Si number density = 25.901335 Si / 1000 Ang^3
#
#
#
# Elastic Constant Matrix: (Units=GPa)
#
#
# Indices 1 2 3 4 5 6 
#
# 1 135.2586 20.9666 10.1523 0.0000 -0.6410 0.0000
# 2 20.9666 92.6426 10.1883 0.0000 -3.9483 0.0000
# 3 10.1523 10.1883 22.3047 0.0000 5.5374 0.0000
# 4 0.0000 0.0000 0.0000 34.8481 0.0000 8.8884
# 5 -0.6410 -3.9483 5.5374 0.0000 27.3161 0.0000
# 6 0.0000 0.0000 0.0000 8.8884 0.0000 41.5733
#
#
#
# Elastic Compliance Matrix: (Units=1/GPa)
#
#
# Indices 1 2 3 4 5 6 
#
# 1 0.007846 -0.001412 -0.003076 0.000000 0.000604 0.000000
# 2 -0.001412 0.011832 -0.005453 0.000000 0.002782 0.000000
# 3 -0.003076 -0.005453 0.051532 0.000000 -0.011307 0.000000
# 4 0.000000 0.000000 0.000000 0.030351 0.000000 -0.006489
# 5 0.000604 0.002782 -0.011307 0.000000 0.039317 0.000000
# 6 0.000000 0.000000 0.000000 -0.006489 0.000000 0.025441
#
#
# Mechanical properties :
#
#
# Convention : Reuss Voigt Hill
#
# Bulk Modulus (GPa) = 19.48253 36.98002 28.23127
# Shear Modulus (GPa) = 24.59310 34.67409 29.63359
#
# Velocity S-wave (km/s) = 3.08472 3.66279 3.38612
# Velocity P-wave (km/s) = 4.49728 5.67418 5.11966
#
# Compressibility (1/GPa) = 0.05132805
#
# Stress axis : x y z
#
# Youngs Moduli (GPa) = 127.45643 84.51737 19.40557
#
# Poissons Ratio (x) = 0.11931 0.05970
# Poissons Ratio (y) = 0.17992 0.10581
# Poissons Ratio (z) = 0.39208 0.46086
#
# Static dielectric constant tensor:
#      x y z
#    x 2.007730 0.000000 -0.032510 
#    y 0.000000 2.113840 0.000000 
#    z -0.032510 0.000000 2.069230 
# 
# From -- ./inp_files/26545.got.cif
#   From: 2010.05.17/outbox.cif.g08.bks.cpg/sg14_14_cif.got.tgz:26545.got - 2010.06.03 17:49:19.
