data_PCOD9251857
_publ_section_title
;
Structure prediction by ZEFSAII (Michael W. Deem and Ramdas Pophale) SiO2 
 PCOD9251857
Probable space group: P 21/C
;
_chemical_formula_sum "Si O2"
_cell_formula_units_Z 28
_cell_length_a 7.984156
_cell_length_b 13.754409
_cell_length_c 14.067013
_cell_angle_alpha 90.000000
_cell_angle_beta 135.443959
_cell_angle_gamma 90.000000
_cell_volume 1083.843251
_symmetry_space_group_name_H-M "P 21/C"
_symmetry_group_IT_number 14
_symmetry_cell_setting 'monoclinic'
loop_
_space_group_symop_operation_xyz
x,y,z
-x,1/2+y,1/2-z
-x,-y,-z
x,1/2-y,1/2+z
loop_
_atom_site_type_symbol
_atom_site_label
_atom_site_fract_x
_atom_site_fract_y
_atom_site_fract_z
Si Si1 0.427645 0.296496 0.277328
Si Si2 0.717501 0.880828 0.998996
Si Si3 0.578046 0.425189 0.111294
Si Si4 0.076206 0.107752 0.502379
Si Si5 0.215310 0.103598 0.199732
Si Si6 0.180049 0.755650 0.225896
Si Si7 0.692705 0.099398 0.049759
O O1 0.169516 0.328574 0.130341
O O2 0.398721 0.187275 0.304852
O O3 0.630947 0.293804 0.278571
O O4 0.522602 0.368838 0.395173
O O5 0.909550 0.803385 0.109590
O O6 0.727674 0.983191 0.058677
O O7 0.769248 0.896137 0.908771
O O8 0.438412 0.854858 0.910135
O O9 0.322358 0.397711 0.047004
O O10 0.722839 0.495602 0.241817
O O11 0.725198 0.327544 0.149887
O O12 0.500000 0.500000 0.000000
O O13 0.889336 0.153536 0.354192
O O14 0.000000 0.000000 0.500000
O O15 0.960101 0.134787 0.139569
#
# Coordination Sequence:
#
# PCOD9251857 Si02
#       7
#     4   4   4   4   4   4   4
#     4  11  23  43  73 110 149 202 255 317 401 479
#     4  11  22  44  77 107 141 198 268 323 410 485
#     4  11  27  48  73 109 152 208 264 336 408 467
#     4  11  24  46  73 111 152 201 259 321 404 490
#     4  12  23  49  75 103 163 201 259 339 397 486
#     4  11  22  47  76 107 150 208 255 327 411 480
#     4  11  24  42  73 116 137 198 265 322 400 488
#
# _framework density 25.833994000000001
#
# number of rings (size 3 to 8) (size 9 to 14) (size 15 to 20)
#    0.000    0.857    4.286    3.000    0.000    2.286 
#    7.714    0.000    0.000    0.000    0.000    0.000 
#    0.000    0.000    0.000    0.000    0.000    0.000 
#
# Total GULP energy -156357.210358 kJ/mol
# GULP energy per Si atom -5584.186084 kJ/mol
# Density = 2.577519 g / cm^3
# Si number density = 25.833994 Si / 1000 Ang^3
#
#
#
# Elastic Constant Matrix: (Units=GPa)
#
#
# Indices 1 2 3 4 5 6 
#
# 1 95.0490 -7.8317 0.2272 0.0000 19.4027 0.0000
# 2 -7.8317 157.3357 2.5322 0.0000 6.3496 0.0000
# 3 0.2272 2.5322 56.5953 0.0000 10.4975 0.0000
# 4 0.0000 0.0000 0.0000 -100.9651 0.0000 -55.6781
# 5 19.4027 6.3496 10.4975 0.0000 26.8386 0.0000
# 6 0.0000 0.0000 0.0000 -55.6781 0.0000 17.9837
#
#
#
# Elastic Compliance Matrix: (Units=1/GPa)
#
#
# Indices 1 2 3 4 5 6 
#
# 1 0.012658 0.001008 0.001774 0.000000 -0.010084 0.000000
# 2 0.001008 0.006497 0.000135 0.000000 -0.002319 0.000000
# 3 0.001774 0.000135 0.019300 0.000000 -0.008864 0.000000
# 4 0.000000 0.000000 0.000000 -0.003658 0.000000 -0.011326
# 5 -0.010084 -0.002319 -0.008864 0.000000 0.048565 0.000000
# 6 0.000000 0.000000 0.000000 -0.011326 0.000000 0.020539
#
#
# Mechanical properties :
#
#
# Convention : Reuss Voigt Hill
#
# Bulk Modulus (GPa) = 22.57717 33.20394 27.89055
# Shear Modulus (GPa) = 44.31467 9.70824 27.01145
#
# Velocity S-wave (km/s) = 4.14619 1.94064 3.23705
# Velocity P-wave (km/s) = 5.62845 4.23109 4.97904
#
# Compressibility (1/GPa) = 0.04429253
#
# Stress axis : x y z
#
# Youngs Moduli (GPa) = 79.00027 153.90641 51.81287
#
# Poissons Ratio (x) = -0.15521 -0.09194
# Poissons Ratio (y) = -0.07967 -0.00702
# Poissons Ratio (z) = -0.14018 -0.02084
#
# Static dielectric constant tensor:
#      x y z
#    x 2.085650 0.000000 0.014000 
#    y 0.000000 -3.576490 0.000000 
#    z 0.014000 0.000000 2.807580 
# 
# From -- ./inp_files/41438.got.cif
#   From: 2010.05.17/outbox.cif.g08.bks.cpg/sg14_21_cif.got.tgz:41438.got - 2010.06.03 17:49:19.
