data_PCOD9251069
_publ_section_title
;
Structure prediction by ZEFSAII (Michael W. Deem and Ramdas Pophale) SiO2 
 PCOD9251069
Probable space group: P 21/C
;
_chemical_formula_sum "Si O2"
_cell_formula_units_Z 16
_cell_length_a 13.203260
_cell_length_b 5.102034
_cell_length_c 24.696412
_cell_angle_alpha 90.000000
_cell_angle_beta 21.524876
_cell_angle_gamma 90.000000
_cell_volume 610.396723
_symmetry_space_group_name_H-M "P 21/C"
_symmetry_group_IT_number 14
_symmetry_cell_setting 'monoclinic'
loop_
_space_group_symop_operation_xyz
x,y,z
-x,1/2+y,1/2-z
-x,-y,-z
x,1/2-y,1/2+z
loop_
_atom_site_type_symbol
_atom_site_label
_atom_site_fract_x
_atom_site_fract_y
_atom_site_fract_z
Si Si1 0.808464 0.536807 0.892757
Si Si2 0.066403 0.246084 0.503310
Si Si3 0.642666 0.693397 0.363902
Si Si4 0.581847 0.367645 0.817999
O O1 0.757396 0.635076 0.857799
O O2 0.131013 0.534849 0.746081
O O3 0.683315 0.240384 0.962153
O O4 0.609444 0.696955 0.033529
O O5 0.865485 0.255717 0.654745
O O6 0.000000 0.500000 0.500000
O O7 0.373071 0.201848 0.373445
O O8 0.000000 0.000000 0.500000
O O9 0.658097 0.833092 0.297496
#
# Coordination Sequence:
#
# PCOD9251069 Si02
#       4
#     4   4   4   4
#     4   9  21  40  65 112 158 207 255 314 384 487
#     4  12  28  52  76 108 148 194 268 328 386 452
#     4   9  21  40  65 112 158 207 255 314 384 487
#     4  10  25  46  73 107 148 201 257 319 405 447
#
# _framework density 26.212461000000001
#
# number of rings (size 3 to 8) (size 9 to 14) (size 15 to 20)
#    1.500    0.500    0.000    1.500    7.000    1.000 
#    4.500    0.000    0.000    0.000    0.000    0.000 
#    0.000    0.000    0.000    0.000    0.000    0.000 
#
# Total GULP energy -89102.470800 kJ/mol
# GULP energy per Si atom -5568.904425 kJ/mol
# Density = 2.615280 g / cm^3
# Si number density = 26.212461 Si / 1000 Ang^3
#
#
#
# Elastic Constant Matrix: (Units=GPa)
#
#
# Indices 1 2 3 4 5 6 
#
# 1 107.3015 37.1183 14.7290 0.0000 -0.4774 0.0000
# 2 37.1183 56.2352 18.0195 0.0000 25.9997 0.0000
# 3 14.7290 18.0195 150.0373 0.0000 -8.8135 0.0000
# 4 0.0000 0.0000 0.0000 39.3050 0.0000 7.3840
# 5 -0.4774 25.9997 -8.8135 0.0000 45.5535 0.0000
# 6 0.0000 0.0000 0.0000 7.3840 0.0000 49.8293
#
#
#
# Elastic Compliance Matrix: (Units=1/GPa)
#
#
# Indices 1 2 3 4 5 6 
#
# 1 0.013654 -0.012679 0.000623 0.000000 0.007500 0.000000
# 2 -0.012679 0.038220 -0.004688 0.000000 -0.022854 0.000000
# 3 0.000623 -0.004688 0.007409 0.000000 0.004116 0.000000
# 4 0.000000 0.000000 0.000000 0.026171 0.000000 -0.003878
# 5 0.007500 -0.022854 0.004116 0.000000 0.035871 0.000000
# 6 0.000000 0.000000 0.000000 -0.003878 0.000000 0.020643
#
#
# Mechanical properties :
#
#
# Convention : Reuss Voigt Hill
#
# Bulk Modulus (GPa) = 38.76964 50.36754 44.56859
# Shear Modulus (GPa) = 27.16599 43.18471 35.17535
#
# Velocity S-wave (km/s) = 3.22277 4.06333 3.66721
# Velocity P-wave (km/s) = 5.35453 6.42425 5.91363
#
# Compressibility (1/GPa) = 0.02579338
#
# Stress axis : x y z
#
# Youngs Moduli (GPa) = 73.24107 26.16428 134.97777
#
# Poissons Ratio (x) = 0.33175 -0.08410
# Poissons Ratio (y) = 0.92866 0.63277
# Poissons Ratio (z) = -0.04563 0.12266
#
# Static dielectric constant tensor:
#      x y z
#    x 1.996500 0.000000 0.026650 
#    y 0.000000 2.419650 0.000000 
#    z 0.026650 0.000000 1.979130 
# 
# From -- ./inp_files/77298.got.cif
#   From: 2010.05.17/outbox.cif.g08.bks.cpg/sg14_39_cif.got.tgz:77298.got - 2010.06.03 17:49:19.
