data_PCOD9251225
_publ_section_title
;
Structure prediction by ZEFSAII (Michael W. Deem and Ramdas Pophale) SiO2 
 PCOD9251225
Probable space group: P 21/C
;
_chemical_formula_sum "Si O2"
_cell_formula_units_Z 12
_cell_length_a 9.899255
_cell_length_b 6.695157
_cell_length_c 9.046872
_cell_angle_alpha 90.000000
_cell_angle_beta 35.206829
_cell_angle_gamma 90.000000
_cell_volume 345.687291
_symmetry_space_group_name_H-M "P 21/C"
_symmetry_group_IT_number 14
_symmetry_cell_setting 'monoclinic'
loop_
_space_group_symop_operation_xyz
x,y,z
-x,1/2+y,1/2-z
-x,-y,-z
x,1/2-y,1/2+z
loop_
_atom_site_type_symbol
_atom_site_label
_atom_site_fract_x
_atom_site_fract_y
_atom_site_fract_z
Si Si1 0.165857 0.375019 0.294929
Si Si2 0.500000 0.256138 0.750000
Si Si3 0.165857 0.624981 0.794929
O O1 0.376647 0.361815 0.226200
O O2 0.088017 0.623112 0.367209
O O3 0.088017 0.123112 0.367209
O O4 0.279409 0.363136 0.028363
O O5 0.623353 0.138185 0.773800
O O6 0.720591 0.363136 0.471637
#
# Coordination Sequence:
#
# PCOD9251225 Si02
#       3
#     4   4   4
#     4  11  26  47  75 108 147 193 244 303 367 436
#     4  10  26  48  76 110 148 192 246 304 368 438
#     4  11  26  47  75 108 147 193 244 303 367 436
#
# _framework density 34.713456000000001
#
# number of rings (size 3 to 8) (size 9 to 14) (size 15 to 20)
#    0.000    1.333    0.000    2.000    0.000   26.667 
#    0.000   10.000    0.000    0.000    0.000    0.000 
#    0.000    0.000    0.000    0.000    0.000    0.000 
#
# Total GULP energy -67438.820594 kJ/mol
# GULP energy per Si atom -5619.901716 kJ/mol
# Density = 3.463445 g / cm^3
# Si number density = 34.713456 Si / 1000 Ang^3
#
#
#
# Elastic Constant Matrix: (Units=GPa)
#
#
# Indices 1 2 3 4 5 6 
#
# 1 103.5337 13.0964 80.8202 0.0000 2.6675 0.0000
# 2 13.0964 306.2883 203.4048 0.0000 -6.1968 0.0000
# 3 80.8202 203.4048 402.0730 0.0000 47.2456 0.0000
# 4 0.0000 0.0000 0.0000 176.4849 0.0000 -14.1369
# 5 2.6675 -6.1968 47.2456 0.0000 93.2772 0.0000
# 6 0.0000 0.0000 0.0000 -14.1369 0.0000 99.5356
#
#
#
# Elastic Compliance Matrix: (Units=1/GPa)
#
#
# Indices 1 2 3 4 5 6 
#
# 1 0.012187 0.001902 -0.003600 0.000000 0.001601 0.000000
# 2 0.001902 0.005477 -0.003391 0.000000 0.002027 0.000000
# 3 -0.003600 -0.003391 0.005253 0.000000 -0.002783 0.000000
# 4 0.000000 0.000000 0.000000 0.005731 0.000000 0.000814
# 5 0.001601 0.002027 -0.002783 0.000000 0.012219 0.000000
# 6 0.000000 0.000000 0.000000 0.000814 0.000000 0.010162
#
#
# Mechanical properties :
#
#
# Convention : Reuss Voigt Hill
#
# Bulk Modulus (GPa) = 78.49983 156.28200 117.39091
# Shear Modulus (GPa) = 76.38881 108.16444 92.27662
#
# Velocity S-wave (km/s) = 4.69609 5.58810 5.16140
# Velocity P-wave (km/s) = 7.21576 9.31419 8.33131
#
# Compressibility (1/GPa) = 0.01273888
#
# Stress axis : x y z
#
# Youngs Moduli (GPa) = 82.05338 182.59559 190.35521
#
# Poissons Ratio (x) = -0.34733 0.68531
# Poissons Ratio (y) = -0.15608 0.64551
# Poissons Ratio (z) = 0.29541 0.61920
#
# Static dielectric constant tensor:
#      x y z
#    x 2.299810 0.000000 -0.129500 
#    y 0.000000 3.680760 0.000000 
#    z -0.129500 0.000000 2.425480 
# 
# From -- ./inp_files/4797.got.cif
#   From: 2010.05.17/outbox.cif.g08.bks.cpg/sg14_3_cif.got.tgz:4797.got - 2010.06.03 17:49:19.
