data_PCOD9251012
_publ_section_title
;
Structure prediction by ZEFSAII (Michael W. Deem and Ramdas Pophale) SiO2 
 PCOD9251012
Probable space group: P 21/C
;
_chemical_formula_sum "Si O2"
_cell_formula_units_Z 20
_cell_length_a 23.842192
_cell_length_b 7.567798
_cell_length_c 11.331439
_cell_angle_alpha 90.000000
_cell_angle_beta 23.016953
_cell_angle_gamma 90.000000
_cell_volume 799.431755
_symmetry_space_group_name_H-M "P 21/C"
_symmetry_group_IT_number 14
_symmetry_cell_setting 'monoclinic'
loop_
_space_group_symop_operation_xyz
x,y,z
-x,1/2+y,1/2-z
-x,-y,-z
x,1/2-y,1/2+z
loop_
_atom_site_type_symbol
_atom_site_label
_atom_site_fract_x
_atom_site_fract_y
_atom_site_fract_z
Si Si1 0.075427 0.314569 0.702122
Si Si2 0.704316 0.569890 0.904524
Si Si3 0.402553 0.818842 0.928850
Si Si4 0.196877 0.902411 0.141268
Si Si5 0.784422 0.468058 0.007882
O O1 0.150269 0.359222 0.434243
O O2 0.163846 0.425562 0.629718
O O3 0.914467 0.381004 0.034172
O O4 0.904829 0.607626 0.812305
O O5 0.666568 0.124831 0.428631
O O6 0.571349 0.688184 0.121522
O O7 0.715793 0.547542 0.021801
O O8 0.352987 0.890833 0.897032
O O9 0.334498 0.940714 0.161846
O O10 0.165150 0.728744 0.124471
#
# Coordination Sequence:
#
# PCOD9251012 Si02
#       5
#     4   4   4   4   4
#     4  11  24  44  70  95 136 172 224 271 341 388
#     4  11  25  44  67 103 132 179 225 272 334 398
#     4  11  24  44  68  96 141 171 227 276 330 391
#     4  10  25  45  66 100 130 177 221 278 326 401
#     4  11  24  45  68 102 132 177 220 280 329 396
#
# _framework density 25.017771
#
# number of rings (size 3 to 8) (size 9 to 14) (size 15 to 20)
#    0.000    1.200    2.000    2.400    5.600    7.200 
#    0.000    0.000    0.000    0.000    0.000    0.000 
#    0.000    0.000    0.000    0.000    0.000    0.000 
#
# Total GULP energy -112136.701448 kJ/mol
# GULP energy per Si atom -5606.835072 kJ/mol
# Density = 2.496083 g / cm^3
# Si number density = 25.017771 Si / 1000 Ang^3
#
#
#
# Elastic Constant Matrix: (Units=GPa)
#
#
# Indices 1 2 3 4 5 6 
#
# 1 72.5426 54.0979 22.9609 0.0000 2.3092 0.0000
# 2 54.0979 114.6996 24.9401 0.0000 13.2336 0.0000
# 3 22.9609 24.9401 42.4913 0.0000 -0.4963 0.0000
# 4 0.0000 0.0000 0.0000 35.7704 0.0000 4.6337
# 5 2.3092 13.2336 -0.4963 0.0000 22.6827 0.0000
# 6 0.0000 0.0000 0.0000 4.6337 0.0000 22.8475
#
#
#
# Elastic Compliance Matrix: (Units=1/GPa)
#
#
# Indices 1 2 3 4 5 6 
#
# 1 0.023128 -0.009826 -0.006693 0.000000 0.003232 0.000000
# 2 -0.009826 0.015045 -0.003613 0.000000 -0.007856 0.000000
# 3 -0.006693 -0.003613 0.029311 0.000000 0.003430 0.000000
# 4 0.000000 0.000000 0.000000 0.028710 0.000000 -0.005823
# 5 0.003232 -0.007856 0.003430 0.000000 0.048416 0.000000
# 6 0.000000 0.000000 0.000000 -0.005823 0.000000 0.044949
#
#
# Mechanical properties :
#
#
# Convention : Reuss Voigt Hill
#
# Bulk Modulus (GPa) = 36.73542 48.19237 42.46389
# Shear Modulus (GPa) = 20.92962 24.77574 22.85268
#
# Velocity S-wave (km/s) = 2.89552 3.15036 3.02563
# Velocity P-wave (km/s) = 5.08865 5.70422 5.40520
#
# Compressibility (1/GPa) = 0.02722168
#
# Stress axis : x y z
#
# Youngs Moduli (GPa) = 43.23749 66.46835 34.11671
#
# Poissons Ratio (x) = 0.65312 0.22833
# Poissons Ratio (y) = 0.42485 0.12325
# Poissons Ratio (z) = 0.28937 0.24012
#
# Static dielectric constant tensor:
#      x y z
#    x 1.967890 0.000000 0.004780 
#    y 0.000000 1.969070 0.000000 
#    z 0.004780 0.000000 1.947910 
# 
# From -- ./inp_files/17834.got.cif
#   From: 2010.05.17/outbox.cif.g08.bks.cpg/sg14_9_cif.got.tgz:17834.got - 2010.06.03 17:49:19.
