data_PCOD9251094
_publ_section_title
;
Structure prediction by ZEFSAII (Michael W. Deem and Ramdas Pophale) SiO2 
 PCOD9251094
Probable space group: P 21/C
;
_chemical_formula_sum "Si O2"
_cell_formula_units_Z 26
_cell_length_a 9.768028
_cell_length_b 10.991823
_cell_length_c 10.412069
_cell_angle_alpha 90.000000
_cell_angle_beta 86.683285
_cell_angle_gamma 90.000000
_cell_volume 1116.055002
_symmetry_space_group_name_H-M "P 21/C"
_symmetry_group_IT_number 14
_symmetry_cell_setting 'monoclinic'
loop_
_space_group_symop_operation_xyz
x,y,z
-x,1/2+y,1/2-z
-x,-y,-z
x,1/2-y,1/2+z
loop_
_atom_site_type_symbol
_atom_site_label
_atom_site_fract_x
_atom_site_fract_y
_atom_site_fract_z
Si Si1 0.912955 0.692477 0.309953
Si Si2 0.633641 0.164209 0.511128
Si Si3 0.744209 0.619627 0.663716
Si Si4 0.043569 0.638604 0.026189
Si Si5 0.497581 0.035394 0.302019
Si Si6 0.438283 0.375455 0.557217
Si Si7 0.000000 0.500000 0.500000
O O1 0.996253 0.674614 0.171939
O O2 0.981731 0.773308 0.420145
O O3 0.912602 0.562414 0.382807
O O4 0.791720 0.778990 0.262524
O O5 0.794825 0.160870 0.490602
O O6 0.563902 0.144562 0.377296
O O7 0.565259 0.285020 0.568746
O O8 0.585340 0.052717 0.600786
O O9 0.626628 0.538791 0.737331
O O10 0.672195 0.672612 0.538135
O O11 0.874686 0.541978 0.607225
O O12 0.000000 0.500000 0.000000
O O13 0.394777 0.084177 0.200470
O O14 0.500000 0.500000 0.500000
#
# Coordination Sequence:
#
# PCOD9251094 Si02
#       7
#     4   4   4   4   4   4   2
#     4  12  27  49  78 115 158 213 261 350 404 507
#     4  11  26  47  77 108 158 207 261 342 411 483
#     4  11  26  49  74 116 160 204 279 328 425 482
#     4  12  29  50  80 119 160 214 276 337 419 505
#     4  10  25  47  73 113 151 205 267 331 406 498
#     4  10  26  43  75 112 151 205 264 335 402 498
#     4  12  26  46  76 114 154 212 268 334 406 502
#
# _framework density 23.296343
#
# number of rings (size 3 to 8) (size 9 to 14) (size 15 to 20)
#    0.000    0.923    1.538    2.769   12.923    4.923 
#    0.000    0.000    0.000    0.000    0.000    0.000 
#    0.000    0.000    0.000    0.000    0.000    0.000 
#
# Total GULP energy -144791.269779 kJ/mol
# GULP energy per Si atom -5568.894992 kJ/mol
# Density = 2.324332 g / cm^3
# Si number density = 23.296343 Si / 1000 Ang^3
#
#
#
# Elastic Constant Matrix: (Units=GPa)
#
#
# Indices 1 2 3 4 5 6 
#
# 1 65.8476 15.4793 25.4909 0.0000 14.8932 0.0000
# 2 15.4793 33.4295 18.7664 0.0000 8.9295 0.0000
# 3 25.4909 18.7664 163.7785 0.0000 24.1122 0.0000
# 4 0.0000 0.0000 0.0000 43.0703 0.0000 4.3281
# 5 14.8932 8.9295 24.1122 0.0000 44.2203 0.0000
# 6 0.0000 0.0000 0.0000 4.3281 0.0000 43.0866
#
#
#
# Elastic Compliance Matrix: (Units=1/GPa)
#
#
# Indices 1 2 3 4 5 6 
#
# 1 0.018203 -0.006520 -0.001498 0.000000 -0.003998 0.000000
# 2 -0.006520 0.035291 -0.002504 0.000000 -0.003565 0.000000
# 3 -0.001498 -0.002504 0.007042 0.000000 -0.002830 0.000000
# 4 0.000000 0.000000 0.000000 0.023455 0.000000 -0.002356
# 5 -0.003998 -0.003565 -0.002830 0.000000 0.026223 0.000000
# 6 0.000000 0.000000 0.000000 -0.002356 0.000000 0.023446
#
#
# Mechanical properties :
#
#
# Convention : Reuss Voigt Hill
#
# Bulk Modulus (GPa) = 25.32123 42.50320 33.91222
# Shear Modulus (GPa) = 29.78517 39.63004 34.70761
#
# Velocity S-wave (km/s) = 3.57954 4.12895 3.86402
# Velocity P-wave (km/s) = 5.28932 6.40430 5.87333
#
# Compressibility (1/GPa) = 0.03949255
#
# Stress axis : x y z
#
# Youngs Moduli (GPa) = 54.93514 28.33590 141.99573
#
# Poissons Ratio (x) = 0.18476 0.21264
# Poissons Ratio (y) = 0.35820 0.35557
# Poissons Ratio (z) = 0.08227 0.07096
#
# Static dielectric constant tensor:
#      x y z
#    x 1.877930 0.000000 0.005070 
#    y 0.000000 1.895610 0.000000 
#    z 0.005070 0.000000 1.922720 
# 
# From -- ./inp_files/24188.got.cif
#   From: 2010.05.17/outbox.cif.g08.bks.cpg/sg14_13_cif.got.tgz:24188.got - 2010.06.03 17:49:19.
