data_PCOD9251330
_publ_section_title
;
Structure prediction by ZEFSAII (Michael W. Deem and Ramdas Pophale) SiO2 
 PCOD9251330
Probable space group: P 21/C
;
_chemical_formula_sum "Si O2"
_cell_formula_units_Z 20
_cell_length_a 7.066605
_cell_length_b 7.826155
_cell_length_c 13.038967
_cell_angle_alpha 90.000000
_cell_angle_beta 89.620294
_cell_angle_gamma 90.000000
_cell_volume 721.095708
_symmetry_space_group_name_H-M "P 21/C"
_symmetry_group_IT_number 14
_symmetry_cell_setting 'monoclinic'
loop_
_space_group_symop_operation_xyz
x,y,z
-x,1/2+y,1/2-z
-x,-y,-z
x,1/2-y,1/2+z
loop_
_atom_site_type_symbol
_atom_site_label
_atom_site_fract_x
_atom_site_fract_y
_atom_site_fract_z
Si Si1 0.592145 0.685069 0.731478
Si Si2 0.777129 0.928142 0.572260
Si Si3 0.944636 0.052419 0.260925
Si Si4 0.847928 0.257550 0.951060
Si Si5 0.704586 0.944885 0.873610
O O1 0.777448 0.567351 0.728934
O O2 0.422188 0.568097 0.697933
O O3 0.627889 0.823909 0.640201
O O4 0.592663 0.769112 0.845936
O O5 0.732510 0.080695 0.495559
O O6 0.912676 0.022775 0.654381
O O7 0.928637 0.791962 0.522930
O O8 0.086457 0.094341 0.169884
O O9 0.863226 0.209100 0.327813
O O10 0.749060 0.074210 0.968347
#
# Coordination Sequence:
#
# PCOD9251330 Si02
#       5
#     4   4   4   4   4
#     4  11  21  33  55  82 106 138 175 218 262 307
#     4   8  18  34  59  78  99 140 180 210 262 311
#     4   9  17  35  55  76 104 133 175 220 254 308
#     4   9  17  36  58  78 100 139 181 212 261 311
#     4  11  20  32  53  81 107 137 174 217 261 310
#
# _framework density 27.735565999999999
#
# number of rings (size 3 to 8) (size 9 to 14) (size 15 to 20)
#    1.200    1.200    2.000    1.200    0.000    0.800 
#    0.000    1.000    0.000    7.200    0.000    0.000 
#    0.000    0.000    0.000    0.000    0.000    0.000 
#
# Total GULP energy -111409.410153 kJ/mol
# GULP energy per Si atom -5570.470508 kJ/mol
# Density = 2.767244 g / cm^3
# Si number density = 27.735566 Si / 1000 Ang^3
#
#
#
# Elastic Constant Matrix: (Units=GPa)
#
#
# Indices 1 2 3 4 5 6 
#
# 1 82.7006 33.0023 20.2685 0.0000 3.0522 0.0000
# 2 33.0023 84.0817 34.2988 0.0000 -6.2562 0.0000
# 3 20.2685 34.2988 72.2479 0.0000 -7.4724 0.0000
# 4 0.0000 0.0000 0.0000 49.1068 0.0000 -12.8350
# 5 3.0522 -6.2562 -7.4724 0.0000 24.8785 0.0000
# 6 0.0000 0.0000 0.0000 -12.8350 0.0000 14.3982
#
#
#
# Elastic Compliance Matrix: (Units=1/GPa)
#
#
# Indices 1 2 3 4 5 6 
#
# 1 0.014835 -0.005266 -0.002051 0.000000 -0.003760 0.000000
# 2 -0.005266 0.016685 -0.006134 0.000000 0.003000 0.000000
# 3 -0.002051 -0.006134 0.017746 0.000000 0.004039 0.000000
# 4 0.000000 0.000000 0.000000 0.026550 0.000000 0.023667
# 5 -0.003760 0.003000 0.004039 0.000000 0.042624 0.000000
# 6 0.000000 0.000000 0.000000 0.023667 0.000000 0.090551
#
#
# Mechanical properties :
#
#
# Convention : Reuss Voigt Hill
#
# Bulk Modulus (GPa) = 44.71135 46.01885 45.36510
# Shear Modulus (GPa) = 20.54686 27.77408 24.16047
#
# Velocity S-wave (km/s) = 2.72474 3.16791 2.95464
# Velocity P-wave (km/s) = 5.10436 5.47803 5.29450
#
# Compressibility (1/GPa) = 0.02236568
#
# Stress axis : x y z
#
# Youngs Moduli (GPa) = 67.41018 59.93304 56.35019
#
# Poissons Ratio (x) = 0.31560 0.11556
# Poissons Ratio (y) = 0.35497 0.34563
# Poissons Ratio (z) = 0.13824 0.36761
#
# Static dielectric constant tensor:
#      x y z
#    x 2.119960 0.000000 0.032480 
#    y 0.000000 2.368850 0.000000 
#    z 0.032480 0.000000 2.273910 
# 
# From -- ./inp_files/54279.got.cif
#   From: 2010.05.17/outbox.cif.g08.bks.cpg/sg14_28_cif.got.tgz:54279.got - 2010.06.03 17:49:19.
