data_PCOD9251102
_publ_section_title
;
Structure prediction by ZEFSAII (Michael W. Deem and Ramdas Pophale) SiO2 
 PCOD9251102
Probable space group: P 21/C
;
_chemical_formula_sum "Si O2"
_cell_formula_units_Z 32
_cell_length_a 16.407124
_cell_length_b 9.489841
_cell_length_c 9.412184
_cell_angle_alpha 90.000000
_cell_angle_beta 57.416716
_cell_angle_gamma 90.000000
_cell_volume 1234.832868
_symmetry_space_group_name_H-M "P 21/C"
_symmetry_group_IT_number 14
_symmetry_cell_setting 'monoclinic'
loop_
_space_group_symop_operation_xyz
x,y,z
-x,1/2+y,1/2-z
-x,-y,-z
x,1/2-y,1/2+z
loop_
_atom_site_type_symbol
_atom_site_label
_atom_site_fract_x
_atom_site_fract_y
_atom_site_fract_z
Si Si1 0.589669 0.822815 0.706398
Si Si2 0.567003 0.003745 0.293116
Si Si3 0.260188 0.094246 0.208624
Si Si4 0.220114 0.677486 0.601433
Si Si5 0.887786 0.839421 0.220286
Si Si6 0.911256 0.284432 0.513588
Si Si7 0.921752 0.509195 0.950017
Si Si8 0.712820 0.032851 0.389769
O O1 0.580199 0.652966 0.714442
O O2 0.643324 0.850538 0.806635
O O3 0.657424 0.908393 0.529348
O O4 0.486617 0.893878 0.767701
O O5 0.663275 0.055631 0.282928
O O6 0.500000 0.000000 0.500000
O O7 0.187477 0.210053 0.207882
O O8 0.187007 0.041001 0.399388
O O9 0.279414 0.960084 0.093152
O O10 0.154067 0.627164 0.532653
O O11 0.283423 0.820382 0.526497
O O12 0.152836 0.721456 0.799023
O O13 0.939952 0.872531 0.319104
O O14 0.819991 0.973535 0.260879
O O15 0.982309 0.828096 0.034338
O O16 0.926731 0.149236 0.393587
O O17 0.000000 0.500000 0.000000
#
# Coordination Sequence:
#
# PCOD9251102 Si02
#       8
#     4   4   4   4   4   4   4   4
#     4  11  23  48  77 104 147 193 236 316 388 462
#     4  10  25  47  76 110 144 185 248 308 390 470
#     4  11  23  40  71  96 137 190 252 300 382 443
#     4  11  25  46  66 107 146 200 250 313 371 445
#     4  12  22  39  67 102 139 196 252 311 359 454
#     4  11  24  40  66  99 147 197 254 304 374 432
#     4  11  21  43  61  91 143 196 236 299 369 440
#     4  11  23  47  70 103 148 190 250 306 373 460
#
# _framework density 25.914437
#
# number of rings (size 3 to 8) (size 9 to 14) (size 15 to 20)
#    0.000    1.000    5.000    2.250    1.750    0.500 
#    4.500    2.500    0.000    0.000    0.000    0.000 
#    0.000    0.000    0.000    0.000    0.000    0.000 
#
# Total GULP energy -178706.788729 kJ/mol
# GULP energy per Si atom -5584.587148 kJ/mol
# Density = 2.585545 g / cm^3
# Si number density = 25.914437 Si / 1000 Ang^3
#
#
#
# Elastic Constant Matrix: (Units=GPa)
#
#
# Indices 1 2 3 4 5 6 
#
# 1 201.3179 52.6553 28.1879 0.0000 6.4552 0.0000
# 2 52.6553 142.1080 18.8412 0.0000 2.2427 0.0000
# 3 28.1879 18.8412 64.2722 0.0000 -1.9581 0.0000
# 4 0.0000 0.0000 0.0000 43.6222 0.0000 3.6063
# 5 6.4552 2.2427 -1.9581 0.0000 38.5346 0.0000
# 6 0.0000 0.0000 0.0000 3.6063 0.0000 57.7649
#
#
#
# Elastic Compliance Matrix: (Units=1/GPa)
#
#
# Indices 1 2 3 4 5 6 
#
# 1 0.005765 -0.001854 -0.002014 0.000000 -0.000960 0.000000
# 2 -0.001854 0.007929 -0.001518 0.000000 -0.000228 0.000000
# 3 -0.002014 -0.001518 0.016926 0.000000 0.001286 0.000000
# 4 0.000000 0.000000 0.000000 0.023043 0.000000 -0.001439
# 5 -0.000960 -0.000228 0.001286 0.000000 0.026190 0.000000
# 6 0.000000 0.000000 0.000000 -0.001439 0.000000 0.017401
#
#
# Mechanical properties :
#
#
# Convention : Reuss Voigt Hill
#
# Bulk Modulus (GPa) = 50.38372 67.45188 58.91780
# Shear Modulus (GPa) = 43.61369 48.51857 46.06613
#
# Velocity S-wave (km/s) = 4.10687 4.33166 4.22076
# Velocity P-wave (km/s) = 6.47867 7.14863 6.82188
#
# Compressibility (1/GPa) = 0.01984768
#
# Stress axis : x y z
#
# Youngs Moduli (GPa) = 173.46162 126.12391 59.07937
#
# Poissons Ratio (x) = 0.23382 0.11899
# Poissons Ratio (y) = 0.32158 0.08969
# Poissons Ratio (z) = 0.34937 0.19148
#
# Static dielectric constant tensor:
#      x y z
#    x 2.195610 0.000000 0.079130 
#    y 0.000000 2.133080 0.000000 
#    z 0.079130 0.000000 2.336250 
# 
# From -- ./inp_files/33668.got.cif
#   From: 2010.05.17/outbox.cif.g08.bks.cpg/sg14_17_cif.got.tgz:33668.got - 2010.06.03 17:49:19.
