data_PCOD9251363
_publ_section_title
;
Structure prediction by ZEFSAII (Michael W. Deem and Ramdas Pophale) SiO2 
 PCOD9251363
Probable space group: P 21/C
;
_chemical_formula_sum "Si O2"
_cell_formula_units_Z 32
_cell_length_a 24.149201
_cell_length_b 9.099394
_cell_length_c 19.018934
_cell_angle_alpha 90.000000
_cell_angle_beta 156.988653
_cell_angle_gamma 90.000000
_cell_volume 1633.736409
_symmetry_space_group_name_H-M "P 21/C"
_symmetry_group_IT_number 14
_symmetry_cell_setting 'monoclinic'
loop_
_space_group_symop_operation_xyz
x,y,z
-x,1/2+y,1/2-z
-x,-y,-z
x,1/2-y,1/2+z
loop_
_atom_site_type_symbol
_atom_site_label
_atom_site_fract_x
_atom_site_fract_y
_atom_site_fract_z
Si Si1 0.148253 0.426986 0.828210
Si Si2 0.253627 0.315645 0.546768
Si Si3 0.643231 0.366784 0.860747
Si Si4 0.323156 0.431564 0.897020
Si Si5 0.407430 0.746169 0.342210
Si Si6 0.167419 0.504259 0.578094
Si Si7 0.375294 0.555263 0.590503
Si Si8 0.563260 0.234057 0.963091
O O1 0.254284 0.380470 0.889226
O O2 0.993312 0.445072 0.615955
O O3 0.156555 0.308179 0.899513
O O4 0.210933 0.575882 0.935821
O O5 0.195515 0.388681 0.549090
O O6 0.273952 0.441826 0.511544
O O7 0.406813 0.247024 0.746315
O O8 0.632045 0.371775 0.763408
O O9 0.521149 0.466996 0.751418
O O10 0.614817 0.198925 0.849257
O O11 0.207117 0.436705 0.699729
O O12 0.453810 0.334395 0.022321
O O13 0.376528 0.599550 0.969295
O O14 0.278369 0.862447 0.196090
O O15 0.436864 0.690479 0.455351
O O16 0.346152 0.623596 0.479460
#
# Coordination Sequence:
#
# PCOD9251363 Si02
#       8
#     4   4   4   4   4   4   4   4
#     4  12  26  40  64  95 131 167 211 252 320 386
#     4  12  22  41  62  94 127 168 209 259 315 375
#     4  12  22  37  62  95 128 163 205 264 317 372
#     4  11  20  42  66  93 121 166 220 261 304 371
#     4  11  22  39  65  92 126 162 213 264 311 365
#     4  11  24  40  66  91 128 170 208 259 312 381
#     4  12  21  37  64  95 123 161 215 262 313 366
#     4  11  20  37  62  94 122 160 208 265 312 360
#
# _framework density 19.587004
#
# number of rings (size 3 to 8) (size 9 to 14) (size 15 to 20)
#    0.000    0.500    7.500    2.625    1.750    0.500 
#    0.000    0.000    0.000    3.000    0.000    0.000 
#    0.000    0.000    0.000    0.000    0.000    0.000 
#
# Total GULP energy -178851.709014 kJ/mol
# GULP energy per Si atom -5589.115907 kJ/mol
# Density = 1.954242 g / cm^3
# Si number density = 19.587004 Si / 1000 Ang^3
#
#
#
# Elastic Constant Matrix: (Units=GPa)
#
#
# Indices 1 2 3 4 5 6 
#
# 1 80.3194 7.2256 10.5480 0.0000 -35.7469 0.0000
# 2 7.2256 48.1073 8.1901 0.0000 -7.7225 0.0000
# 3 10.5480 8.1901 78.9066 0.0000 -22.7682 0.0000
# 4 0.0000 0.0000 0.0000 13.3579 0.0000 -12.7760
# 5 -35.7469 -7.7225 -22.7682 0.0000 26.9493 0.0000
# 6 0.0000 0.0000 0.0000 -12.7760 0.0000 14.6766
#
#
#
# Elastic Compliance Matrix: (Units=1/GPa)
#
#
# Indices 1 2 3 4 5 6 
#
# 1 0.038027 0.002048 0.012467 0.000000 0.061561 0.000000
# 2 0.002048 0.021922 0.000063 0.000000 0.009051 0.000000
# 3 0.012467 0.000063 0.020863 0.000000 0.034181 0.000000
# 4 0.000000 0.000000 0.000000 0.447145 0.000000 0.389239
# 5 0.061561 0.009051 0.034181 0.000000 0.150235 0.000000
# 6 0.000000 0.000000 0.000000 0.389239 0.000000 0.406968
#
#
# Mechanical properties :
#
#
# Convention : Reuss Voigt Hill
#
# Bulk Modulus (GPa) = 9.09363 28.80672 18.95018
# Shear Modulus (GPa) = 4.57599 23.08807 13.83203
#
# Velocity S-wave (km/s) = 1.53013 3.43701 2.66030
# Velocity P-wave (km/s) = 2.78828 5.52175 4.37403
#
# Compressibility (1/GPa) = 0.10996707
#
# Stress axis : x y z
#
# Youngs Moduli (GPa) = 26.29714 45.61715 47.93186
#
# Poissons Ratio (x) = -0.09343 -0.59757
# Poissons Ratio (y) = -0.05386 -0.00300
# Poissons Ratio (z) = -0.32785 -0.00285
#
# Static dielectric constant tensor:
#      x y z
#    x 1.717560 0.000000 -0.016680 
#    y 0.000000 1.689620 0.000000 
#    z -0.016680 0.000000 1.681800 
# 
# From -- ./inp_files/70536.got.cif
#   From: 2010.05.17/outbox.cif.g08.bks.cpg/sg14_36_cif.got.tgz:70536.got - 2010.06.03 17:49:19.
