data_PCOD9251338
_publ_section_title
;
Structure prediction by ZEFSAII (Michael W. Deem and Ramdas Pophale) SiO2 
 PCOD9251338
Probable space group: P 21/C
;
_chemical_formula_sum "Si O2"
_cell_formula_units_Z 24
_cell_length_a 23.313030
_cell_length_b 5.482464
_cell_length_c 15.124827
_cell_angle_alpha 90.000000
_cell_angle_beta 150.445290
_cell_angle_gamma 90.000000
_cell_volume 953.533390
_symmetry_space_group_name_H-M "P 21/C"
_symmetry_group_IT_number 14
_symmetry_cell_setting 'monoclinic'
loop_
_space_group_symop_operation_xyz
x,y,z
-x,1/2+y,1/2-z
-x,-y,-z
x,1/2-y,1/2+z
loop_
_atom_site_type_symbol
_atom_site_label
_atom_site_fract_x
_atom_site_fract_y
_atom_site_fract_z
Si Si1 0.734066 0.154694 0.222204
Si Si2 0.952186 0.886607 0.226657
Si Si3 0.198353 0.344673 0.694282
Si Si4 0.932844 0.228424 0.340827
Si Si5 0.495768 0.392514 0.298714
Si Si6 0.759374 0.891946 0.540116
O O1 0.749457 0.420016 0.284080
O O2 0.835423 0.176790 0.283324
O O3 0.766517 0.900314 0.309471
O O4 0.605719 0.128849 0.010314
O O5 0.973838 0.967934 0.356891
O O6 0.984812 0.137872 0.219816
O O7 0.817544 0.816591 0.059041
O O8 0.247282 0.332612 0.861776
O O9 0.058465 0.358776 0.516647
O O10 0.851800 0.387475 0.166126
O O11 0.517111 0.624301 0.262976
O O12 0.368064 0.452162 0.164688
#
# Coordination Sequence:
#
# PCOD9251338 Si02
#       6
#     4   4   4   4   4   4
#     4  11  20  35  52  91 122 151 181 223 294 364
#     4  12  25  40  58  82 115 156 206 240 281 336
#     4  11  22  33  59  87 126 147 180 231 308 352
#     4  11  22  38  59  87 123 151 184 243 292 355
#     4  12  20  34  55  84 127 156 184 226 286 365
#     4  11  22  38  59  90 122 152 191 241 288 351
#
# _framework density 25.169543999999998
#
# number of rings (size 3 to 8) (size 9 to 14) (size 15 to 20)
#    0.000    0.667    8.333    2.500    2.333    0.000 
#    0.000    0.000    0.000    0.000    0.000    7.000 
#    0.000    0.000    0.000    0.000    0.000    0.000 
#
# Total GULP energy -133829.218189 kJ/mol
# GULP energy per Si atom -5576.217425 kJ/mol
# Density = 2.511226 g / cm^3
# Si number density = 25.169544 Si / 1000 Ang^3
#
#
#
# Elastic Constant Matrix: (Units=GPa)
#
#
# Indices 1 2 3 4 5 6 
#
# 1 19.8678 1.5623 8.2930 0.0000 0.8400 0.0000
# 2 1.5623 180.0345 33.9953 0.0000 4.5872 0.0000
# 3 8.2930 33.9953 219.8872 0.0000 24.9981 0.0000
# 4 0.0000 0.0000 0.0000 38.1059 0.0000 -1.3264
# 5 0.8400 4.5872 24.9981 0.0000 19.8523 0.0000
# 6 0.0000 0.0000 0.0000 -1.3264 0.0000 17.3678
#
#
#
# Elastic Compliance Matrix: (Units=1/GPa)
#
#
# Indices 1 2 3 4 5 6 
#
# 1 0.051141 -0.000083 -0.001951 0.000000 0.000312 0.000000
# 2 -0.000083 0.005723 -0.000854 0.000000 -0.000244 0.000000
# 3 -0.001951 -0.000854 0.005510 0.000000 -0.006659 0.000000
# 4 0.000000 0.000000 0.000000 0.026313 0.000000 0.002010
# 5 0.000312 -0.000244 -0.006659 0.000000 0.058800 0.000000
# 6 0.000000 0.000000 0.000000 0.002010 0.000000 0.057731
#
#
# Mechanical properties :
#
#
# Convention : Reuss Voigt Hill
#
# Bulk Modulus (GPa) = 17.66895 56.38786 37.02841
# Shear Modulus (GPa) = 21.75233 40.12778 30.94005
#
# Velocity S-wave (km/s) = 2.94297 3.99720 3.50989
# Velocity P-wave (km/s) = 4.31084 6.61478 5.58295
#
# Compressibility (1/GPa) = 0.05659645
#
# Stress axis : x y z
#
# Youngs Moduli (GPa) = 19.55395 174.74391 181.47434
#
# Poissons Ratio (x) = 0.01455 0.35413
# Poissons Ratio (y) = 0.00163 0.15496
# Poissons Ratio (z) = 0.03816 0.14922
#
# Static dielectric constant tensor:
#      x y z
#    x 2.134520 0.000000 -0.099620 
#    y 0.000000 2.178310 0.000000 
#    z -0.099620 0.000000 1.977050 
# 
# From -- ./inp_files/70635.got.cif
#   From: 2010.05.17/outbox.cif.g08.bks.cpg/sg14_36_cif.got.tgz:70635.got - 2010.06.03 17:49:19.
