data_PCOD9251014
_publ_section_title
;
Structure prediction by ZEFSAII (Michael W. Deem and Ramdas Pophale) SiO2 
 PCOD9251014
Probable space group: P 21/C
;
_chemical_formula_sum "Si O2"
_cell_formula_units_Z 20
_cell_length_a 7.191448
_cell_length_b 11.863204
_cell_length_c 15.603054
_cell_angle_alpha 90.000000
_cell_angle_beta 140.363307
_cell_angle_gamma 90.000000
_cell_volume 849.165496
_symmetry_space_group_name_H-M "P 21/C"
_symmetry_group_IT_number 14
_symmetry_cell_setting 'monoclinic'
loop_
_space_group_symop_operation_xyz
x,y,z
-x,1/2+y,1/2-z
-x,-y,-z
x,1/2-y,1/2+z
loop_
_atom_site_type_symbol
_atom_site_label
_atom_site_fract_x
_atom_site_fract_y
_atom_site_fract_z
Si Si1 0.028783 0.024241 0.875502
Si Si2 0.380727 0.826294 0.170431
Si Si3 0.971792 0.868082 0.465721
Si Si4 0.694799 0.393258 0.091254
Si Si5 0.559755 0.156115 0.006827
O O1 0.349651 0.078992 0.990072
O O2 0.821776 0.065440 0.878603
O O3 0.874949 0.078131 0.738675
O O4 0.109957 0.895002 0.881751
O O5 0.641608 0.827287 0.331806
O O6 0.508646 0.837143 0.119352
O O7 0.169752 0.716217 0.093339
O O8 0.108491 0.866947 0.420243
O O9 0.000000 0.000000 0.500000
O O10 0.500000 0.500000 0.000000
O O11 0.521787 0.277377 0.035676
#
# Coordination Sequence:
#
# PCOD9251014 Si02
#       5
#     4   4   4   4   4
#     4  11  24  43  73  97 137 183 232 290 352 419
#     4  11  25  46  70 104 142 187 234 300 352 428
#     4  11  26  46  70 107 145 188 240 295 360 433
#     4  11  25  42  70  99 140 181 232 291 349 423
#     4  10  25  45  66 104 134 182 239 286 349 427
#
# _framework density 23.552534999999999
#
# number of rings (size 3 to 8) (size 9 to 14) (size 15 to 20)
#    0.000    1.200    2.000    1.800    8.400    6.400 
#    0.000    0.000    0.000    0.000    0.000    0.000 
#    0.000    0.000    0.000    0.000    0.000    0.000 
#
# Total GULP energy -111654.085756 kJ/mol
# GULP energy per Si atom -5582.704288 kJ/mol
# Density = 2.349893 g / cm^3
# Si number density = 23.552535 Si / 1000 Ang^3
#
#
#
# Elastic Constant Matrix: (Units=GPa)
#
#
# Indices 1 2 3 4 5 6 
#
# 1 65.3089 18.9966 22.6842 0.0000 9.1759 0.0000
# 2 18.9966 146.3916 59.8160 0.0000 12.1184 0.0000
# 3 22.6842 59.8160 114.3554 0.0000 14.0967 0.0000
# 4 0.0000 0.0000 0.0000 28.0142 0.0000 1.7829
# 5 9.1759 12.1184 14.0967 0.0000 34.2220 0.0000
# 6 0.0000 0.0000 0.0000 1.7829 0.0000 37.1880
#
#
#
# Elastic Compliance Matrix: (Units=1/GPa)
#
#
# Indices 1 2 3 4 5 6 
#
# 1 0.016886 -0.000915 -0.002479 0.000000 -0.003183 0.000000
# 2 -0.000915 0.008790 -0.004280 0.000000 -0.001104 0.000000
# 3 -0.002479 -0.004280 0.011806 0.000000 -0.002683 0.000000
# 4 0.000000 0.000000 0.000000 0.035805 0.000000 -0.001717
# 5 -0.003183 -0.001104 -0.002683 0.000000 0.031570 0.000000
# 6 0.000000 0.000000 0.000000 -0.001717 0.000000 0.026973
#
#
# Mechanical properties :
#
#
# Convention : Reuss Voigt Hill
#
# Bulk Modulus (GPa) = 45.17872 58.78329 51.98101
# Shear Modulus (GPa) = 32.35064 34.85545 33.60304
#
# Velocity S-wave (km/s) = 3.71017 3.85112 3.78130
# Velocity P-wave (km/s) = 6.13005 6.69234 6.41736
#
# Compressibility (1/GPa) = 0.02213431
#
# Stress axis : x y z
#
# Youngs Moduli (GPa) = 59.22028 113.76519 84.70324
#
# Poissons Ratio (x) = 0.10409 0.20995
# Poissons Ratio (y) = 0.05418 0.36255
# Poissons Ratio (z) = 0.14679 0.48694
#
# Static dielectric constant tensor:
#      x y z
#    x 1.911670 0.000000 0.030280 
#    y 0.000000 2.156370 0.000000 
#    z 0.030280 0.000000 1.884410 
# 
# From -- ./inp_files/55634.got.cif
#   From: 2010.05.17/outbox.cif.g08.bks.cpg/sg14_28_cif.got.tgz:55634.got - 2010.06.03 17:49:19.
