data_PCOD9251751
_publ_section_title
;
Structure prediction by ZEFSAII (Michael W. Deem and Ramdas Pophale) SiO2 
 PCOD9251751
Probable space group: P 21/C
;
_chemical_formula_sum "Si O2"
_cell_formula_units_Z 24
_cell_length_a 4.867957
_cell_length_b 23.643059
_cell_length_c 9.986747
_cell_angle_alpha 90.000000
_cell_angle_beta 109.199818
_cell_angle_gamma 90.000000
_cell_volume 1085.475534
_symmetry_space_group_name_H-M "P 21/C"
_symmetry_group_IT_number 14
_symmetry_cell_setting 'monoclinic'
loop_
_space_group_symop_operation_xyz
x,y,z
-x,1/2+y,1/2-z
-x,-y,-z
x,1/2-y,1/2+z
loop_
_atom_site_type_symbol
_atom_site_label
_atom_site_fract_x
_atom_site_fract_y
_atom_site_fract_z
Si Si1 0.499970 0.697031 0.499987
Si Si2 0.951404 0.364588 0.762062
Si Si3 0.508732 0.934619 0.662522
Si Si4 0.508806 0.065381 0.662531
Si Si5 0.000023 0.225643 0.500015
Si Si6 0.951326 0.864587 0.262037
O O1 0.275392 0.659848 0.379834
O O2 0.710237 0.736587 0.443918
O O3 0.724526 0.659843 0.620136
O O4 0.289720 0.736588 0.556064
O O5 0.789455 0.412668 0.822604
O O6 0.236559 0.393231 0.747049
O O7 0.032911 0.313990 0.875827
O O8 0.499947 0.929108 0.499993
O O9 0.561019 0.999999 0.704136
O O10 0.210627 0.087341 0.677395
O O11 0.763538 0.106761 0.752975
O O12 0.967136 0.186016 0.624216
#
# Coordination Sequence:
#
# PCOD9251751 Si02
#       6
#     4   4   4   4   4   4
#     4  12  26  40  61  94 129 162 200 252 306 366
#     4  12  23  42  64  93 125 160 204 253 306 359
#     4  11  22  41  67  93 118 159 210 256 300 359
#     4  11  22  41  67  93 118 159 210 256 300 359
#     4  12  22  42  63  90 123 168 210 242 296 362
#     4  12  23  42  64  93 125 160 204 253 306 359
#
# _framework density 22.110125
#
# number of rings (size 3 to 8) (size 9 to 14) (size 15 to 20)
#    0.000    0.333    3.333    7.000    0.000    2.667 
#    0.000    5.000    0.000    0.000    0.000    0.000 
#    0.000    0.000    0.000    0.000    0.000    0.000 
#
# Total GULP energy -134500.810009 kJ/mol
# GULP energy per Si atom -5604.200417 kJ/mol
# Density = 2.205980 g / cm^3
# Si number density = 22.110125 Si / 1000 Ang^3
#
#
#
# Elastic Constant Matrix: (Units=GPa)
#
#
# Indices 1 2 3 4 5 6 
#
# 1 89.4619 16.9603 -17.4439 0.0000 16.1201 0.0000
# 2 16.9603 106.3507 30.4850 0.0000 15.8122 0.0000
# 3 -17.4439 30.4850 75.1383 0.0000 27.5239 0.0000
# 4 0.0000 0.0000 0.0000 9.0949 0.0000 -28.8459
# 5 16.1201 15.8122 27.5239 0.0000 33.8075 0.0000
# 6 0.0000 0.0000 0.0000 -28.8459 0.0000 -67.4779
#
#
#
# Elastic Compliance Matrix: (Units=1/GPa)
#
#
# Indices 1 2 3 4 5 6 
#
# 1 0.016690 -0.003520 0.010851 0.000000 -0.015146 0.000000
# 2 -0.003520 0.011487 -0.005877 0.000000 0.001091 0.000000
# 3 0.010851 -0.005877 0.027218 0.000000 -0.024584 0.000000
# 4 0.000000 0.000000 0.000000 0.046672 0.000000 -0.019952
# 5 -0.015146 0.001091 -0.024584 0.000000 0.056306 0.000000
# 6 0.000000 0.000000 0.000000 -0.019952 0.000000 -0.006291
#
#
# Mechanical properties :
#
#
# Convention : Reuss Voigt Hill
#
# Bulk Modulus (GPa) = 17.15188 36.77262 26.96225
# Shear Modulus (GPa) = 29.65435 11.14818 20.40127
#
# Velocity S-wave (km/s) = 3.66623 2.24790 3.04091
# Velocity P-wave (km/s) = 5.06912 4.83788 4.95485
#
# Compressibility (1/GPa) = 0.05830264
#
# Stress axis : x y z
#
# Youngs Moduli (GPa) = 59.91484 87.05693 36.74040
#
# Poissons Ratio (x) = 0.30646 -0.39868
# Poissons Ratio (y) = 0.21091 0.21593
# Poissons Ratio (z) = -0.65015 0.51165
#
# Static dielectric constant tensor:
#      x y z
#    x 1.785710 0.000000 -0.018540 
#    y 0.000000 1.794090 0.000000 
#    z -0.018540 0.000000 1.797270 
# 
# From -- ./inp_files/21635.got.cif
#   From: 2010.05.17/outbox.cif.g08.bks.cpg/sg14_11_cif.got.tgz:21635.got - 2010.06.03 17:49:19.
