data_PCOD9251940
_publ_section_title
;
Structure prediction by ZEFSAII (Michael W. Deem and Ramdas Pophale) SiO2 
 PCOD9251940
Probable space group: P 21/C
;
_chemical_formula_sum "Si O2"
_cell_formula_units_Z 28
_cell_length_a 19.278933
_cell_length_b 8.372089
_cell_length_c 13.854482
_cell_angle_alpha 90.000000
_cell_angle_beta 33.971579
_cell_angle_gamma 90.000000
_cell_volume 1249.537284
_symmetry_space_group_name_H-M "P 21/C"
_symmetry_group_IT_number 14
_symmetry_cell_setting 'monoclinic'
loop_
_space_group_symop_operation_xyz
x,y,z
-x,1/2+y,1/2-z
-x,-y,-z
x,1/2-y,1/2+z
loop_
_atom_site_type_symbol
_atom_site_label
_atom_site_fract_x
_atom_site_fract_y
_atom_site_fract_z
Si Si1 0.125692 0.365765 0.751775
Si Si2 0.513059 0.969785 0.635302
Si Si3 0.213465 0.024938 0.737004
Si Si4 0.139770 0.692610 0.852232
Si Si5 0.599027 0.206842 0.856012
Si Si6 0.255394 0.143239 0.904107
Si Si7 0.574906 0.591131 0.273131
O O1 0.187531 0.197378 0.716427
O O2 0.164613 0.534192 0.758194
O O3 0.158088 0.381009 0.601728
O O4 0.982258 0.344389 0.945289
O O5 0.650064 0.034265 0.454703
O O6 0.479816 0.857336 0.584587
O O7 0.530415 0.880538 0.716625
O O8 0.390004 0.076632 0.783429
O O9 0.216308 0.068994 0.847580
O O10 0.126310 0.869640 0.818326
O O11 0.258114 0.720679 0.783239
O O12 0.590942 0.095483 0.771789
O O13 0.529017 0.138415 0.029652
O O14 0.294497 0.328033 0.848952
#
# Coordination Sequence:
#
# PCOD9251940 Si02
#       7
#     4   4   4   4   4   4   4
#     4  11  27  50  71 102 142 188 240 293 340 421
#     4  12  23  40  68 106 141 178 228 290 361 420
#     4  12  24  48  73 103 144 182 233 291 359 419
#     4  11  25  50  73  98 141 191 237 287 349 415
#     4  11  23  43  65 103 140 180 234 284 353 422
#     4  12  23  44  65 104 142 179 234 294 351 420
#     4  11  23  38  68  98 140 183 224 290 356 415
#
# _framework density 22.408294999999999
#
# number of rings (size 3 to 8) (size 9 to 14) (size 15 to 20)
#    0.000    0.571    4.286    4.286    2.000    1.143 
#    7.714    0.000    0.000    0.000    0.000    0.000 
#    0.000    0.000    0.000    0.000    0.000    0.000 
#
# Total GULP energy -156339.164608 kJ/mol
# GULP energy per Si atom -5583.541593 kJ/mol
# Density = 2.235729 g / cm^3
# Si number density = 22.408295 Si / 1000 Ang^3
#
#
#
# Elastic Constant Matrix: (Units=GPa)
#
#
# Indices 1 2 3 4 5 6 
#
# 1 65.5953 18.3021 14.6594 0.0000 17.7685 0.0000
# 2 18.3021 118.4079 13.0038 0.0000 8.7988 0.0000
# 3 14.6594 13.0038 91.0588 0.0000 13.8693 0.0000
# 4 0.0000 0.0000 0.0000 32.1289 0.0000 -5.1152
# 5 17.7685 8.7988 13.8693 0.0000 27.8364 0.0000
# 6 0.0000 0.0000 0.0000 -5.1152 0.0000 25.4267
#
#
#
# Elastic Compliance Matrix: (Units=1/GPa)
#
#
# Indices 1 2 3 4 5 6 
#
# 1 0.019019 -0.002004 -0.001107 0.000000 -0.010955 0.000000
# 2 -0.002004 0.008926 -0.000776 0.000000 -0.001156 0.000000
# 3 -0.001107 -0.000776 0.012040 0.000000 -0.005047 0.000000
# 4 0.000000 0.000000 0.000000 0.032154 0.000000 0.006469
# 5 -0.010955 -0.001156 -0.005047 0.000000 0.045797 0.000000
# 6 0.000000 0.000000 0.000000 0.006469 0.000000 0.040630
#
#
# Mechanical properties :
#
#
# Convention : Reuss Voigt Hill
#
# Bulk Modulus (GPa) = 31.04573 40.77696 35.91135
# Shear Modulus (GPa) = 28.23616 32.35149 30.29383
#
# Velocity S-wave (km/s) = 3.55361 3.80376 3.68081
# Velocity P-wave (km/s) = 5.54276 6.12603 5.84168
#
# Compressibility (1/GPa) = 0.03221055
#
# Stress axis : x y z
#
# Youngs Moduli (GPa) = 52.57859 112.02903 83.05893
#
# Poissons Ratio (x) = 0.22452 0.09195
# Poissons Ratio (y) = 0.10537 0.06446
# Poissons Ratio (z) = 0.05821 0.08694
#
# Static dielectric constant tensor:
#      x y z
#    x 1.808010 0.000000 -0.005340 
#    y 0.000000 2.065020 0.000000 
#    z -0.005340 0.000000 1.779460 
# 
# From -- ./inp_files/50049.got.cif
#   From: 2010.05.17/outbox.cif.g08.bks.cpg/sg14_26_cif.got.tgz:50049.got - 2010.06.03 17:49:19.
