data_PCOD9251704
_publ_section_title
;
Structure prediction by ZEFSAII (Michael W. Deem and Ramdas Pophale) SiO2 
 PCOD9251704
Probable space group: P 21/C
;
_chemical_formula_sum "Si O2"
_cell_formula_units_Z 32
_cell_length_a 18.260609
_cell_length_b 8.937582
_cell_length_c 20.325932
_cell_angle_alpha 90.000000
_cell_angle_beta 149.357127
_cell_angle_gamma 90.000000
_cell_volume 1690.783152
_symmetry_space_group_name_H-M "P 21/C"
_symmetry_group_IT_number 14
_symmetry_cell_setting 'monoclinic'
loop_
_space_group_symop_operation_xyz
x,y,z
-x,1/2+y,1/2-z
-x,-y,-z
x,1/2-y,1/2+z
loop_
_atom_site_type_symbol
_atom_site_label
_atom_site_fract_x
_atom_site_fract_y
_atom_site_fract_z
Si Si1 0.142145 0.254966 0.106989
Si Si2 0.171550 0.752842 0.158023
Si Si3 0.811671 0.035550 0.948542
Si Si4 0.127344 0.455090 0.716437
Si Si5 0.533814 0.401181 0.589297
Si Si6 0.414727 0.097154 0.753921
Si Si7 0.496002 0.068033 0.292400
Si Si8 0.578969 0.568406 0.996397
O O1 0.153346 0.189785 0.189437
O O2 0.270385 0.356502 0.181045
O O3 0.153346 0.103095 0.072758
O O4 0.985186 0.318884 0.970432
O O5 0.205479 0.821718 0.112304
O O6 0.298863 0.647689 0.279618
O O7 0.157172 0.895448 0.195915
O O8 0.655974 0.991808 0.854869
O O9 0.957949 0.049900 0.103667
O O10 0.250432 0.457455 0.866142
O O11 0.500000 0.500000 0.500000
O O12 0.500402 0.497065 0.628257
O O13 0.451091 0.244500 0.526291
O O14 0.488589 0.253692 0.791349
O O15 0.388726 0.000122 0.668460
O O16 0.515181 0.004310 0.380849
O O17 0.500000 0.500000 0.000000
#
# Coordination Sequence:
#
# PCOD9251704 Si02
#       8
#     4   4   4   4   4   4   4   4
#     4   8  16  33  56  88 113 145 192 239 286 349
#     4   9  16  31  57  85 118 149 185 238 293 344
#     4   8  15  32  57  85 111 150 191 233 287 351
#     4   9  16  30  60  91 116 142 186 240 296 343
#     4  12  23  34  55  89 125 151 194 246 293 345
#     4  11  24  39  57  85 116 160 199 242 291 359
#     4  11  22  39  61  81 117 159 201 240 293 359
#     4  12  20  35  60  90 116 152 192 243 295 344
#
# _framework density 18.926141000000001
#
# number of rings (size 3 to 8) (size 9 to 14) (size 15 to 20)
#    0.000    2.000    2.500    5.250    0.000    0.500 
#    0.000    0.000    2.750    0.000    0.000    0.000 
#    0.000    0.000    0.000    0.000    0.000    0.000 
#
# Total GULP energy -178406.875992 kJ/mol
# GULP energy per Si atom -5575.214875 kJ/mol
# Density = 1.888306 g / cm^3
# Si number density = 18.926141 Si / 1000 Ang^3
#
#
#
# Elastic Constant Matrix: (Units=GPa)
#
#
# Indices 1 2 3 4 5 6 
#
# 1 45.5584 35.1483 21.0577 0.0000 -12.6666 0.0000
# 2 35.1483 117.9984 44.9490 0.0000 -6.9144 0.0000
# 3 21.0577 44.9490 99.5412 0.0000 4.5215 0.0000
# 4 0.0000 0.0000 0.0000 32.4980 0.0000 -0.8884
# 5 -12.6666 -6.9144 4.5215 0.0000 24.4787 0.0000
# 6 0.0000 0.0000 0.0000 -0.8884 0.0000 22.3188
#
#
#
# Elastic Compliance Matrix: (Units=1/GPa)
#
#
# Indices 1 2 3 4 5 6 
#
# 1 0.034534 -0.007541 -0.004654 0.000000 0.016599 0.000000
# 2 -0.007541 0.012240 -0.003945 0.000000 0.000284 0.000000
# 3 -0.004654 -0.003945 0.013082 0.000000 -0.005939 0.000000
# 4 0.000000 0.000000 0.000000 0.030805 0.000000 0.001226
# 5 0.016599 0.000284 -0.005939 0.000000 0.050618 0.000000
# 6 0.000000 0.000000 0.000000 0.001226 0.000000 0.044854
#
#
# Mechanical properties :
#
#
# Convention : Reuss Voigt Hill
#
# Bulk Modulus (GPa) = 36.26374 51.71199 43.98786
# Shear Modulus (GPa) = 21.96777 26.65530 24.31153
#
# Velocity S-wave (km/s) = 3.41062 3.75692 3.58795
# Velocity P-wave (km/s) = 5.89169 6.79718 6.36057
#
# Compressibility (1/GPa) = 0.02757576
#
# Stress axis : x y z
#
# Youngs Moduli (GPa) = 28.95678 81.69722 76.44187
#
# Poissons Ratio (x) = 0.61609 0.35579
# Poissons Ratio (y) = 0.21837 0.30155
# Poissons Ratio (z) = 0.13478 0.32228
#
# Static dielectric constant tensor:
#      x y z
#    x 1.684670 0.000000 0.048860 
#    y 0.000000 1.684940 0.000000 
#    z 0.048860 0.000000 1.690180 
# 
# From -- ./inp_files/69790.got.cif
#   From: 2010.05.17/outbox.cif.g08.bks.cpg/sg14_35_cif.got.tgz:69790.got - 2010.06.03 17:49:19.
