data_PCOD9251948
_publ_section_title
;
Structure prediction by ZEFSAII (Michael W. Deem and Ramdas Pophale) SiO2 
 PCOD9251948
Probable space group: P 21/C
;
_chemical_formula_sum "Si O2"
_cell_formula_units_Z 20
_cell_length_a 21.092044
_cell_length_b 5.254054
_cell_length_c 12.357422
_cell_angle_alpha 90.000000
_cell_angle_beta 39.362034
_cell_angle_gamma 90.000000
_cell_volume 868.520098
_symmetry_space_group_name_H-M "P 21/C"
_symmetry_group_IT_number 14
_symmetry_cell_setting 'monoclinic'
loop_
_space_group_symop_operation_xyz
x,y,z
-x,1/2+y,1/2-z
-x,-y,-z
x,1/2-y,1/2+z
loop_
_atom_site_type_symbol
_atom_site_label
_atom_site_fract_x
_atom_site_fract_y
_atom_site_fract_z
Si Si1 0.572245 0.597305 0.809228
Si Si2 0.805205 0.073989 0.394443
Si Si3 0.735440 0.941341 0.711295
Si Si4 0.621944 0.245098 0.048370
Si Si5 0.108391 0.092796 0.320339
O O1 0.658986 0.752891 0.752920
O O2 0.493155 0.731713 0.833700
O O3 0.620956 0.392848 0.665527
O O4 0.500000 0.500000 0.000000
O O5 0.698026 0.022440 0.474095
O O6 0.843387 0.342256 0.298244
O O7 0.785835 0.094412 0.547155
O O8 0.879531 0.839897 0.271585
O O9 0.826223 0.830854 0.661074
O O10 0.670987 0.101762 0.882042
O O11 0.000000 0.000000 0.500000
#
# Coordination Sequence:
#
# PCOD9251948 Si02
#       5
#     4   4   4   4   4
#     4  12  22  38  64  98 141 190 234 283 341 408
#     4  11  24  44  68  98 133 174 222 279 342 408
#     4  11  23  41  66  95 135 180 226 280 343 405
#     4  11  23  39  62  99 138 182 233 283 335 412
#     4  11  26  46  70 100 132 170 225 287 346 413
#
# _framework density 23.027677000000001
#
# number of rings (size 3 to 8) (size 9 to 14) (size 15 to 20)
#    0.000    0.800    0.000    8.400    0.000    6.400 
#    0.000    0.000    0.000    0.000    0.000    0.000 
#    0.000    0.000    0.000    0.000    0.000    0.000 
#
# Total GULP energy -111787.351976 kJ/mol
# GULP energy per Si atom -5589.367599 kJ/mol
# Density = 2.297526 g / cm^3
# Si number density = 23.027677 Si / 1000 Ang^3
#
#
#
# Elastic Constant Matrix: (Units=GPa)
#
#
# Indices 1 2 3 4 5 6 
#
# 1 51.2931 18.5292 57.2246 0.0000 20.3898 0.0000
# 2 18.5292 82.7342 52.0583 0.0000 15.8924 0.0000
# 3 57.2246 52.0583 155.8902 0.0000 14.1116 0.0000
# 4 0.0000 0.0000 0.0000 46.2658 0.0000 0.0854
# 5 20.3898 15.8924 14.1116 0.0000 41.4469 0.0000
# 6 0.0000 0.0000 0.0000 0.0854 0.0000 40.2268
#
#
#
# Elastic Compliance Matrix: (Units=1/GPa)
#
#
# Indices 1 2 3 4 5 6 
#
# 1 0.041398 0.003202 -0.014766 0.000000 -0.016566 0.000000
# 2 0.003202 0.016315 -0.006103 0.000000 -0.005753 0.000000
# 3 -0.014766 -0.006103 0.013417 0.000000 0.005036 0.000000
# 4 0.000000 0.000000 0.000000 0.021614 0.000000 -0.000046
# 5 -0.016566 -0.005753 0.005036 0.000000 0.032768 0.000000
# 6 0.000000 0.000000 0.000000 -0.000046 0.000000 0.024859
#
#
# Mechanical properties :
#
#
# Convention : Reuss Voigt Hill
#
# Bulk Modulus (GPa) = 27.93598 60.61574 44.27586
# Shear Modulus (GPa) = 25.29875 36.39495 30.84685
#
# Velocity S-wave (km/s) = 3.31814 3.97985 3.66396
# Velocity P-wave (km/s) = 5.18053 6.89196 6.09660
#
# Compressibility (1/GPa) = 0.03579614
#
# Stress axis : x y z
#
# Youngs Moduli (GPa) = 24.15571 61.29340 74.53080
#
# Poissons Ratio (x) = -0.19625 1.10053
# Poissons Ratio (y) = -0.07734 0.45485
# Poissons Ratio (z) = 0.35669 0.37406
#
# Static dielectric constant tensor:
#      x y z
#    x 1.891110 0.000000 -0.036540 
#    y 0.000000 1.931830 0.000000 
#    z -0.036540 0.000000 1.877300 
# 
# From -- ./inp_files/34527.got.cif
#   From: 2010.05.17/outbox.cif.g08.bks.cpg/sg14_18_cif.got.tgz:34527.got - 2010.06.03 17:49:19.
