data_PCOD9251989
_publ_section_title
;
Structure prediction by ZEFSAII (Michael W. Deem and Ramdas Pophale) SiO2 
 PCOD9251989
Probable space group: P 21/C
;
_chemical_formula_sum "Si O2"
_cell_formula_units_Z 20
_cell_length_a 14.642820
_cell_length_b 9.160921
_cell_length_c 7.347267
_cell_angle_alpha 90.000000
_cell_angle_beta 130.763520
_cell_angle_gamma 90.000000
_cell_volume 746.485289
_symmetry_space_group_name_H-M "P 21/C"
_symmetry_group_IT_number 14
_symmetry_cell_setting 'monoclinic'
loop_
_space_group_symop_operation_xyz
x,y,z
-x,1/2+y,1/2-z
-x,-y,-z
x,1/2-y,1/2+z
loop_
_atom_site_type_symbol
_atom_site_label
_atom_site_fract_x
_atom_site_fract_y
_atom_site_fract_z
Si Si1 0.323434 0.578295 0.930212
Si Si2 0.288760 0.419955 0.240121
Si Si3 0.949880 0.758299 0.003250
Si Si4 0.578026 0.854225 0.731933
Si Si5 0.085075 0.933664 0.893274
O O1 0.388132 0.443318 0.906335
O O2 0.207567 0.605249 0.655298
O O3 0.280742 0.547727 0.081002
O O4 0.437937 0.684063 0.078991
O O5 0.370753 0.440870 0.525736
O O6 0.350722 0.294138 0.201306
O O7 0.164937 0.346713 0.145363
O O8 0.974427 0.860376 0.860814
O O9 0.066372 0.654833 0.184067
O O10 0.931288 0.892900 0.122566
#
# Coordination Sequence:
#
# PCOD9251989 Si02
#       5
#     4   4   4   4   4
#     4  11  25  45  66 101 144 178 244 290 348 423
#     4  12  21  45  72  96 139 191 226 290 362 426
#     4  11  24  43  72  98 140 185 235 286 358 420
#     4  11  23  40  70 100 130 189 230 284 352 424
#     4  11  24  46  66 104 140 184 235 295 345 420
#
# _framework density 26.792223
#
# number of rings (size 3 to 8) (size 9 to 14) (size 15 to 20)
#    0.000    0.800    4.000    4.200    0.000    2.400 
#    3.600    0.000    0.000    0.000    0.000    0.000 
#    0.000    0.000    0.000    0.000    0.000    0.000 
#
# Total GULP energy -111919.374940 kJ/mol
# GULP energy per Si atom -5595.968747 kJ/mol
# Density = 2.673124 g / cm^3
# Si number density = 26.792223 Si / 1000 Ang^3
#
#
#
# Elastic Constant Matrix: (Units=GPa)
#
#
# Indices 1 2 3 4 5 6 
#
# 1 134.8076 27.7113 37.2375 0.0000 6.6499 0.0000
# 2 27.7113 72.1607 6.2132 0.0000 6.4382 0.0000
# 3 37.2375 6.2132 97.5359 0.0000 4.9885 0.0000
# 4 0.0000 0.0000 0.0000 38.5158 0.0000 -6.4541
# 5 6.6499 6.4382 4.9885 0.0000 54.4589 0.0000
# 6 0.0000 0.0000 0.0000 -6.4541 0.0000 23.5934
#
#
#
# Elastic Compliance Matrix: (Units=1/GPa)
#
#
# Indices 1 2 3 4 5 6 
#
# 1 0.008967 -0.003129 -0.003202 0.000000 -0.000432 0.000000
# 2 -0.003129 0.015162 0.000302 0.000000 -0.001438 0.000000
# 3 -0.003202 0.000302 0.011492 0.000000 -0.000697 0.000000
# 4 0.000000 0.000000 0.000000 0.027211 0.000000 0.007444
# 5 -0.000432 -0.001438 -0.000697 0.000000 0.018649 0.000000
# 6 0.000000 0.000000 0.000000 0.007444 0.000000 0.044421
#
#
# Mechanical properties :
#
#
# Convention : Reuss Voigt Hill
#
# Bulk Modulus (GPa) = 42.44008 49.64759 46.04383
# Shear Modulus (GPa) = 34.29040 38.86976 36.58008
#
# Velocity S-wave (km/s) = 3.58140 3.81305 3.69904
# Velocity P-wave (km/s) = 5.74254 6.16089 5.95539
#
# Compressibility (1/GPa) = 0.02356263
#
# Stress axis : x y z
#
# Youngs Moduli (GPa) = 111.51960 65.95458 87.02074
#
# Poissons Ratio (x) = 0.20639 0.27864
# Poissons Ratio (y) = 0.34898 -0.02632
# Poissons Ratio (z) = 0.35709 -0.01995
#
# Static dielectric constant tensor:
#      x y z
#    x 2.173440 0.000000 -0.113320 
#    y 0.000000 2.185970 0.000000 
#    z -0.113320 0.000000 2.225620 
# 
# From -- ./inp_files/17491.got.cif
#   From: 2010.05.17/outbox.cif.g08.bks.cpg/sg14_9_cif.got.tgz:17491.got - 2010.06.03 17:49:19.
