data_PCOD9251574
_publ_section_title
;
Structure prediction by ZEFSAII (Michael W. Deem and Ramdas Pophale) SiO2 
 PCOD9251574
Probable space group: P 21/C
;
_chemical_formula_sum "Si O2"
_cell_formula_units_Z 26
_cell_length_a 8.208238
_cell_length_b 8.042244
_cell_length_c 20.261873
_cell_angle_alpha 90.000000
_cell_angle_beta 57.901086
_cell_angle_gamma 90.000000
_cell_volume 1133.072916
_symmetry_space_group_name_H-M "P 21/C"
_symmetry_group_IT_number 14
_symmetry_cell_setting 'monoclinic'
loop_
_space_group_symop_operation_xyz
x,y,z
-x,1/2+y,1/2-z
-x,-y,-z
x,1/2-y,1/2+z
loop_
_atom_site_type_symbol
_atom_site_label
_atom_site_fract_x
_atom_site_fract_y
_atom_site_fract_z
Si Si1 0.999245 0.127769 0.323169
Si Si2 0.721597 0.949109 0.947625
Si Si3 0.245853 0.879189 0.196005
Si Si4 0.701167 0.927146 0.433371
Si Si5 0.351555 0.147564 0.710585
Si Si6 0.000000 0.500000 0.500000
Si Si7 0.384971 0.537327 0.330562
O O1 0.843090 0.204855 0.305971
O O2 0.168076 0.262587 0.284752
O O3 0.865446 0.064768 0.411311
O O4 0.111749 0.960368 0.279728
O O5 0.743215 0.752249 0.955653
O O6 0.784132 0.001790 0.861254
O O7 0.844400 0.040990 0.975620
O O8 0.500000 0.000000 0.000000
O O9 0.467098 0.901859 0.168937
O O10 0.688267 0.891204 0.357289
O O11 0.500000 0.000000 0.500000
O O12 0.522106 0.283262 0.675044
O O13 0.394291 0.995917 0.750129
O O14 0.825171 0.480083 0.593916
#
# Coordination Sequence:
#
# PCOD9251574 Si02
#       7
#     4   4   4   4   4   2   4
#     4  11  22  42  71 103 139 191 246 295 371 439
#     4  12  23  47  70 107 149 193 249 302 386 441
#     4  11  21  42  70 100 145 196 241 303 365 454
#     4  12  26  44  73 107 147 197 252 312 379 448
#     4  11  25  45  68 110 141 198 247 314 368 450
#     4  12  26  40  76 110 140 198 234 316 366 440
#     4  11  26  43  72 105 150 187 253 303 377 449
#
# _framework density 22.946449999999999
#
# number of rings (size 3 to 8) (size 9 to 14) (size 15 to 20)
#    0.000    0.615    6.154    1.846    2.154    3.692 
#    0.000    0.000    0.000   10.154    0.000    0.000 
#    0.000    0.000    0.000    0.000    0.000    0.000 
#
# Total GULP energy -144772.649226 kJ/mol
# GULP energy per Si atom -5568.178816 kJ/mol
# Density = 2.289422 g / cm^3
# Si number density = 22.946450 Si / 1000 Ang^3
#
#
#
# Elastic Constant Matrix: (Units=GPa)
#
#
# Indices 1 2 3 4 5 6 
#
# 1 78.8678 -3.2828 14.3414 0.0000 -17.9142 0.0000
# 2 -3.2828 72.4235 7.9088 0.0000 -14.7953 0.0000
# 3 14.3414 7.9088 95.9371 0.0000 -33.1770 0.0000
# 4 0.0000 0.0000 0.0000 24.5478 0.0000 -7.2529
# 5 -17.9142 -14.7953 -33.1770 0.0000 47.5154 0.0000
# 6 0.0000 0.0000 0.0000 -7.2529 0.0000 23.4047
#
#
#
# Elastic Compliance Matrix: (Units=1/GPa)
#
#
# Indices 1 2 3 4 5 6 
#
# 1 0.014100 0.001832 -0.000294 0.000000 0.005681 0.000000
# 2 0.001832 0.015001 0.000453 0.000000 0.005678 0.000000
# 3 -0.000294 0.000453 0.013764 0.000000 0.009641 0.000000
# 4 0.000000 0.000000 0.000000 0.044843 0.000000 0.013896
# 5 0.005681 0.005678 0.009641 0.000000 0.031687 0.000000
# 6 0.000000 0.000000 0.000000 0.013896 0.000000 0.047033
#
#
# Mechanical properties :
#
#
# Convention : Reuss Voigt Hill
#
# Bulk Modulus (GPa) = 21.34651 31.68479 26.51565
# Shear Modulus (GPa) = 28.08017 34.31097 31.19557
#
# Velocity S-wave (km/s) = 3.50197 3.87106 3.69113
# Velocity P-wave (km/s) = 5.06702 5.81535 5.45403
#
# Compressibility (1/GPa) = 0.04684606
#
# Stress axis : x y z
#
# Youngs Moduli (GPa) = 70.92437 66.66143 72.65282
#
# Poissons Ratio (x) = -0.12211 0.02137
# Poissons Ratio (y) = -0.12991 -0.03292
# Poissons Ratio (z) = 0.02087 -0.03020
#
# Static dielectric constant tensor:
#      x y z
#    x 1.855140 0.000000 0.009450 
#    y 0.000000 1.996090 0.000000 
#    z 0.009450 0.000000 1.895510 
# 
# From -- ./inp_files/64948.got.cif
#   From: 2010.05.17/outbox.cif.g08.bks.cpg/sg14_33_cif.got.tgz:64948.got - 2010.06.03 17:49:19.
