data_PCOD9251470
_publ_section_title
;
Structure prediction by ZEFSAII (Michael W. Deem and Ramdas Pophale) SiO2 
 PCOD9251470
Probable space group: P 21/C
;
_chemical_formula_sum "Si O2"
_cell_formula_units_Z 32
_cell_length_a 13.197177
_cell_length_b 5.272730
_cell_length_c 23.573678
_cell_angle_alpha 90.000000
_cell_angle_beta 72.396841
_cell_angle_gamma 90.000000
_cell_volume 1563.565600
_symmetry_space_group_name_H-M "P 21/C"
_symmetry_group_IT_number 14
_symmetry_cell_setting 'monoclinic'
loop_
_space_group_symop_operation_xyz
x,y,z
-x,1/2+y,1/2-z
-x,-y,-z
x,1/2-y,1/2+z
loop_
_atom_site_type_symbol
_atom_site_label
_atom_site_fract_x
_atom_site_fract_y
_atom_site_fract_z
Si Si1 0.601684 0.185435 0.075211
Si Si2 0.545111 0.917776 0.663581
Si Si3 0.619709 0.481229 0.358798
Si Si4 0.357241 0.197847 0.745774
Si Si5 0.242160 0.952292 0.853552
Si Si6 0.755058 0.365925 0.443819
Si Si7 0.120676 0.372803 0.045333
Si Si8 0.119508 0.447578 0.909859
O O1 0.601150 0.474983 0.097932
O O2 0.661407 0.034951 0.116228
O O3 0.476710 0.125880 0.092658
O O4 0.665144 0.127724 0.008012
O O5 0.450287 0.727919 0.662692
O O6 0.627431 0.846800 0.698212
O O7 0.477097 0.138242 0.705867
O O8 0.681750 0.648881 0.301730
O O9 0.700184 0.389146 0.392352
O O10 0.288490 0.966601 0.781782
O O11 0.188399 0.686304 0.877730
O O12 0.159000 0.183518 0.875737
O O13 0.838375 0.594786 0.442561
O O14 0.806903 0.090814 0.440348
O O15 0.000700 0.457004 0.080360
O O16 0.130030 0.398590 0.975558
#
# Coordination Sequence:
#
# PCOD9251470 Si02
#       8
#     4   4   4   4   4   4   4   4
#     4  11  23  38  60  99 137 175 213 266 324 401
#     4  11  21  38  60  91 135 179 225 275 315 373
#     4  11  26  40  61  94 140 187 217 261 326 392
#     4  11  22  38  62  94 130 176 223 276 315 384
#     4  12  22  38  69 103 129 162 223 275 340 384
#     4  12  26  43  66  97 138 183 217 260 334 423
#     4  11  24  45  67  96 135 166 220 279 339 401
#     4  11  23  42  70 101 125 163 216 290 343 380
#
# _framework density 20.466042999999999
#
# number of rings (size 3 to 8) (size 9 to 14) (size 15 to 20)
#    0.000    0.750    5.000    2.625    7.000    2.500 
#    0.000    0.000    0.000    3.000    0.000    0.000 
#    0.000    0.000    0.000    0.000    0.000    0.000 
#
# Total GULP energy -178594.056294 kJ/mol
# GULP energy per Si atom -5581.064259 kJ/mol
# Density = 2.041946 g / cm^3
# Si number density = 20.466043 Si / 1000 Ang^3
#
#
#
# Elastic Constant Matrix: (Units=GPa)
#
#
# Indices 1 2 3 4 5 6 
#
# 1 39.1882 -15.5449 17.4391 0.0000 -3.1363 0.0000
# 2 -15.5449 50.7828 -1.0662 0.0000 -11.9038 0.0000
# 3 17.4391 -1.0662 78.4208 0.0000 2.8175 0.0000
# 4 0.0000 0.0000 0.0000 32.6455 0.0000 -7.8575
# 5 -3.1363 -11.9038 2.8175 0.0000 24.0024 0.0000
# 6 0.0000 0.0000 0.0000 -7.8575 0.0000 24.0336
#
#
#
# Elastic Compliance Matrix: (Units=1/GPa)
#
#
# Indices 1 2 3 4 5 6 
#
# 1 0.035531 0.013599 -0.008160 0.000000 0.012345 0.000000
# 2 0.013599 0.027487 -0.003218 0.000000 0.015787 0.000000
# 3 -0.008160 -0.003218 0.014680 0.000000 -0.004385 0.000000
# 4 0.000000 0.000000 0.000000 0.033249 0.000000 0.010870
# 5 0.012345 0.015787 -0.004385 0.000000 0.051620 0.000000
# 6 0.000000 0.000000 0.000000 0.010870 0.000000 0.045162
#
#
# Mechanical properties :
#
#
# Convention : Reuss Voigt Hill
#
# Bulk Modulus (GPa) = 12.17417 18.89421 15.53419
# Shear Modulus (GPa) = 21.67623 27.30722 24.49172
#
# Velocity S-wave (km/s) = 3.25796 3.65673 3.46309
# Velocity P-wave (km/s) = 4.48484 5.20393 4.85771
#
# Compressibility (1/GPa) = 0.08214112
#
# Stress axis : x y z
#
# Youngs Moduli (GPa) = 28.14412 36.38044 68.11924
#
# Poissons Ratio (x) = -0.49473 0.55586
# Poissons Ratio (y) = -0.38272 0.21918
# Poissons Ratio (z) = 0.22966 0.11706
#
# Static dielectric constant tensor:
#      x y z
#    x 1.734450 0.000000 -0.031920 
#    y 0.000000 1.895670 0.000000 
#    z -0.031920 0.000000 1.732770 
# 
# From -- ./inp_files/72823.got.cif
#   From: 2010.05.17/outbox.cif.g08.bks.cpg/sg14_37_cif.got.tgz:72823.got - 2010.06.03 17:49:19.
