data_PCOD9251837
_publ_section_title
;
Structure prediction by ZEFSAII (Michael W. Deem and Ramdas Pophale) SiO2 
 PCOD9251837
Probable space group: P 21/C
;
_chemical_formula_sum "Si O2"
_cell_formula_units_Z 28
_cell_length_a 5.384597
_cell_length_b 7.889732
_cell_length_c 27.716385
_cell_angle_alpha 90.000000
_cell_angle_beta 112.844454
_cell_angle_gamma 90.000000
_cell_volume 1085.117332
_symmetry_space_group_name_H-M "P 21/C"
_symmetry_group_IT_number 14
_symmetry_cell_setting 'monoclinic'
loop_
_space_group_symop_operation_xyz
x,y,z
-x,1/2+y,1/2-z
-x,-y,-z
x,1/2-y,1/2+z
loop_
_atom_site_type_symbol
_atom_site_label
_atom_site_fract_x
_atom_site_fract_y
_atom_site_fract_z
Si Si1 0.958221 0.548482 0.202841
Si Si2 0.155077 0.950552 0.560331
Si Si3 0.885942 0.200830 0.860024
Si Si4 0.380166 0.370045 0.163596
Si Si5 0.258620 0.589782 0.413281
Si Si6 0.746878 0.367488 0.487746
Si Si7 0.601815 0.029224 0.183834
O O1 0.982621 0.735282 0.179976
O O2 0.137015 0.443599 0.177446
O O3 0.132529 0.533331 0.264141
O O4 0.659615 0.475977 0.188673
O O5 0.023314 0.842995 0.594197
O O6 0.319960 0.792200 0.551370
O O7 0.302383 0.099090 0.601024
O O8 0.000000 0.000000 0.500000
O O9 0.572615 0.144782 0.829639
O O10 0.001421 0.029477 0.890696
O O11 0.416836 0.183821 0.188302
O O12 0.500584 0.484371 0.454217
O O13 0.219757 0.713357 0.455657
O O14 0.330625 0.610105 0.363411
O O15 0.000000 0.500000 0.500000
#
# Coordination Sequence:
#
# PCOD9251837 Si02
#       7
#     4   4   4   4   4   4   4
#     4  11  28  50  78 109 160 197 254 319 389 445
#     4  11  25  44  74 102 153 195 244 320 382 451
#     4  11  25  48  73 108 147 199 253 311 379 458
#     4  11  29  51  72 120 152 198 255 322 384 453
#     4  11  24  39  77  98 141 190 253 308 362 460
#     4  11  22  44  67 104 139 193 247 306 377 448
#     4  12  27  45  80 109 148 202 259 309 380 467
#
# _framework density 25.803663
#
# number of rings (size 3 to 8) (size 9 to 14) (size 15 to 20)
#    0.000    0.857    2.857    1.714   12.000    1.143 
#    0.000    4.286    0.000    0.000    0.000    0.000 
#    0.000    0.000    0.000    0.000    0.000    0.000 
#
# Total GULP energy -155983.572525 kJ/mol
# GULP energy per Si atom -5570.841876 kJ/mol
# Density = 2.574493 g / cm^3
# Si number density = 25.803663 Si / 1000 Ang^3
#
#
#
# Elastic Constant Matrix: (Units=GPa)
#
#
# Indices 1 2 3 4 5 6 
#
# 1 48.8633 11.5388 -8.5822 0.0000 16.9953 0.0000
# 2 11.5388 54.1369 17.7488 0.0000 11.6784 0.0000
# 3 -8.5822 17.7488 104.6794 0.0000 19.3199 0.0000
# 4 0.0000 0.0000 0.0000 26.7821 0.0000 -2.6322
# 5 16.9953 11.6784 19.3199 0.0000 47.3042 0.0000
# 6 0.0000 0.0000 0.0000 -2.6322 0.0000 26.2528
#
#
#
# Elastic Compliance Matrix: (Units=1/GPa)
#
#
# Indices 1 2 3 4 5 6 
#
# 1 0.025992 -0.004947 0.004832 0.000000 -0.010090 0.000000
# 2 -0.004947 0.021138 -0.003628 0.000000 -0.001959 0.000000
# 3 0.004832 -0.003628 0.011593 0.000000 -0.005575 0.000000
# 4 0.000000 0.000000 0.000000 0.037710 0.000000 0.003781
# 5 -0.010090 -0.001959 -0.005575 0.000000 0.027526 0.000000
# 6 0.000000 0.000000 0.000000 0.003781 0.000000 0.038470
#
#
# Mechanical properties :
#
#
# Convention : Reuss Voigt Hill
#
# Bulk Modulus (GPa) = 19.51731 27.67671 23.59701
# Shear Modulus (GPa) = 26.73867 32.53276 29.63572
#
# Velocity S-wave (km/s) = 3.22255 3.55460 3.39264
# Velocity P-wave (km/s) = 4.62889 5.25320 4.95090
#
# Compressibility (1/GPa) = 0.05123657
#
# Stress axis : x y z
#
# Youngs Moduli (GPa) = 38.47371 47.30748 86.25696
#
# Poissons Ratio (x) = 0.23405 -0.41680
# Poissons Ratio (y) = 0.19034 0.31295
# Poissons Ratio (z) = -0.18591 0.17163
#
# Static dielectric constant tensor:
#      x y z
#    x 1.110370 0.000000 0.149020 
#    y 0.000000 2.195250 0.000000 
#    z 0.149020 0.000000 1.991970 
# 
# From -- ./inp_files/78853.got.cif
#   From: 2010.05.17/outbox.cif.g08.bks.cpg/sg14_40_cif.got.tgz:78853.got - 2010.06.03 17:49:19.
