data_PCOD9251008
_publ_section_title
;
Structure prediction by ZEFSAII (Michael W. Deem and Ramdas Pophale) SiO2 
 PCOD9251008
Probable space group: P 21/C
;
_chemical_formula_sum "Si O2"
_cell_formula_units_Z 32
_cell_length_a 12.046201
_cell_length_b 21.457905
_cell_length_c 7.840599
_cell_angle_alpha 90.000000
_cell_angle_beta 52.751935
_cell_angle_gamma 90.000000
_cell_volume 1613.288283
_symmetry_space_group_name_H-M "P 21/C"
_symmetry_group_IT_number 14
_symmetry_cell_setting 'monoclinic'
loop_
_space_group_symop_operation_xyz
x,y,z
-x,1/2+y,1/2-z
-x,-y,-z
x,1/2-y,1/2+z
loop_
_atom_site_type_symbol
_atom_site_label
_atom_site_fract_x
_atom_site_fract_y
_atom_site_fract_z
Si Si1 0.627964 0.020323 0.265289
Si Si2 0.945867 0.189146 0.728318
Si Si3 0.566845 0.303001 0.041751
Si Si4 0.511366 0.428424 0.544533
Si Si5 0.822368 0.373215 0.672412
Si Si6 0.344059 0.688043 0.671598
Si Si7 0.969210 0.675020 0.233297
Si Si8 0.324644 0.385815 0.431685
O O1 0.549152 0.066135 0.205816
O O2 0.756025 0.057720 0.228935
O O3 0.500000 0.000000 0.500000
O O4 0.683366 0.956492 0.129635
O O5 0.016765 0.165390 0.485521
O O6 0.016724 0.251233 0.738092
O O7 0.912306 0.143453 0.919257
O O8 0.795450 0.206893 0.791922
O O9 0.534136 0.232434 0.016840
O O10 0.653612 0.298009 0.134076
O O11 0.437610 0.347264 0.212579
O O12 0.679365 0.331996 0.807216
O O13 0.500000 0.500000 0.500000
O O14 0.637255 0.385941 0.359297
O O15 0.383528 0.393949 0.570563
O O16 0.914684 0.358655 0.754326
O O17 0.820726 0.649012 0.430419
#
# Coordination Sequence:
#
# PCOD9251008 Si02
#       8
#     4   4   4   4   4   4   4   4
#     4  11  22  42  74  99 131 176 237 296 341 401
#     4  12  22  41  67  99 133 187 221 278 337 411
#     4  11  21  36  65  99 129 166 230 295 332 399
#     4   9  21  40  66  93 134 174 220 286 343 401
#     4  12  23  41  72  98 131 183 238 282 332 419
#     4  11  19  35  64  98 125 168 237 276 331 407
#     4  12  25  43  67  99 147 176 230 275 355 422
#     4  10  25  45  62 103 140 178 220 291 360 406
#
# _framework density 19.835265
#
# number of rings (size 3 to 8) (size 9 to 14) (size 15 to 20)
#    0.000    1.000    6.250    0.750    0.000    2.500 
#    2.250    0.625    0.000    0.000    0.000    0.000 
#    0.000    0.000    0.000    0.000    0.000    0.000 
#
# Total GULP energy -178149.433849 kJ/mol
# GULP energy per Si atom -5567.169808 kJ/mol
# Density = 1.979012 g / cm^3
# Si number density = 19.835265 Si / 1000 Ang^3
#
#
#
# Elastic Constant Matrix: (Units=GPa)
#
#
# Indices 1 2 3 4 5 6 
#
# 1 57.8274 20.5124 33.4826 0.0000 -11.3478 0.0000
# 2 20.5124 81.0766 26.3814 0.0000 -16.6551 0.0000
# 3 33.4826 26.3814 99.4973 0.0000 -1.8911 0.0000
# 4 0.0000 0.0000 0.0000 28.8480 0.0000 -4.7632
# 5 -11.3478 -16.6551 -1.8911 0.0000 34.7448 0.0000
# 6 0.0000 0.0000 0.0000 -4.7632 0.0000 17.4035
#
#
#
# Elastic Compliance Matrix: (Units=1/GPa)
#
#
# Indices 1 2 3 4 5 6 
#
# 1 0.023480 -0.002346 -0.007162 0.000000 0.006154 0.000000
# 2 -0.002346 0.015258 -0.003135 0.000000 0.006377 0.000000
# 3 -0.007162 -0.003135 0.013233 0.000000 -0.003122 0.000000
# 4 0.000000 0.000000 0.000000 0.036305 0.000000 0.009936
# 5 0.006154 0.006377 -0.003122 0.000000 0.033678 0.000000
# 6 0.000000 0.000000 0.000000 0.009936 0.000000 0.060179
#
#
# Mechanical properties :
#
#
# Convention : Reuss Voigt Hill
#
# Bulk Modulus (GPa) = 37.47559 44.35045 40.91302
# Shear Modulus (GPa) = 23.11463 26.73424 24.92444
#
# Velocity S-wave (km/s) = 3.41740 3.67524 3.54866
# Velocity P-wave (km/s) = 5.87417 6.35750 6.12061
#
# Compressibility (1/GPa) = 0.02668403
#
# Stress axis : x y z
#
# Youngs Moduli (GPa) = 42.58998 65.54140 75.57029
#
# Poissons Ratio (x) = 0.15373 0.54127
# Poissons Ratio (y) = 0.09990 0.23691
# Poissons Ratio (z) = 0.30505 0.20547
#
# Static dielectric constant tensor:
#      x y z
#    x 1.712790 0.000000 0.036710 
#    y 0.000000 1.998270 0.000000 
#    z 0.036710 0.000000 1.740660 
# 
# From -- ./inp_files/14297.got.cif
#   From: 2010.05.17/outbox.cif.g08.bks.cpg/sg14_8_cif.got.tgz:14297.got - 2010.06.03 17:49:19.
