data_PCOD9251789
_publ_section_title
;
Structure prediction by ZEFSAII (Michael W. Deem and Ramdas Pophale) SiO2 
 PCOD9251789
Probable space group: P 21/C
;
_chemical_formula_sum "Si O2"
_cell_formula_units_Z 32
_cell_length_a 12.245334
_cell_length_b 18.659156
_cell_length_c 13.641971
_cell_angle_alpha 90.000000
_cell_angle_beta 26.771486
_cell_angle_gamma 90.000000
_cell_volume 1404.010066
_symmetry_space_group_name_H-M "P 21/C"
_symmetry_group_IT_number 14
_symmetry_cell_setting 'monoclinic'
loop_
_space_group_symop_operation_xyz
x,y,z
-x,1/2+y,1/2-z
-x,-y,-z
x,1/2-y,1/2+z
loop_
_atom_site_type_symbol
_atom_site_label
_atom_site_fract_x
_atom_site_fract_y
_atom_site_fract_z
Si Si1 0.741423 0.000571 0.067172
Si Si2 0.779513 0.019238 0.257595
Si Si3 0.933232 0.082550 0.569774
Si Si4 0.702084 0.733007 0.485541
Si Si5 0.406416 0.138065 0.301955
Si Si6 0.822640 0.327954 0.791283
Si Si7 0.571177 0.314813 0.464766
Si Si8 0.623795 0.373586 0.152617
O O1 0.793306 0.984546 0.139168
O O2 0.584809 0.072170 0.182527
O O3 0.573007 0.935912 0.165567
O O4 0.029046 0.005857 0.809850
O O5 0.822560 0.105103 0.218553
O O6 0.500000 0.000000 0.500000
O O7 0.699772 0.112996 0.819419
O O8 0.870767 0.107098 0.509679
O O9 0.162211 0.113329 0.443403
O O10 0.000000 0.000000 0.500000
O O11 0.676740 0.815722 0.537228
O O12 0.673847 0.707659 0.396216
O O13 0.468934 0.698021 0.723204
O O14 0.928145 0.695434 0.356910
O O15 0.538395 0.180687 0.107591
O O16 0.733555 0.254986 0.814171
O O17 0.655428 0.358359 0.013253
#
# Coordination Sequence:
#
# PCOD9251789 Si02
#       8
#     4   4   4   4   4   4   4   4
#     4  11  24  42  66 101 136 176 229 291 352 408
#     4  11  24  42  66 101 135 180 233 291 351 420
#     4  11  24  43  69  99 140 177 229 287 349 424
#     4  11  24  45  66  96 139 178 229 285 346 410
#     4  12  24  46  70 102 140 181 234 295 346 425
#     4  12  22  43  69  94 132 183 226 282 350 416
#     4  11  26  43  67 103 132 186 238 280 354 422
#     4  11  22  42  68  97 132 178 224 280 345 414
#
# _framework density 22.791858000000001
#
# number of rings (size 3 to 8) (size 9 to 14) (size 15 to 20)
#    0.000    0.750    6.250    1.500    0.000    2.500 
#    2.250    0.000    0.000    0.000    0.000    0.000 
#    0.000    0.000    0.000    0.000    0.000    0.000 
#
# Total GULP energy -178315.553234 kJ/mol
# GULP energy per Si atom -5572.361039 kJ/mol
# Density = 2.273998 g / cm^3
# Si number density = 22.791858 Si / 1000 Ang^3
#
#
#
# Elastic Constant Matrix: (Units=GPa)
#
#
# Indices 1 2 3 4 5 6 
#
# 1 78.4792 23.8588 26.7189 0.0000 -30.9652 0.0000
# 2 23.8588 103.3244 35.5498 0.0000 -29.4676 0.0000
# 3 26.7189 35.5498 42.1395 0.0000 -30.9661 0.0000
# 4 0.0000 0.0000 0.0000 28.5714 0.0000 -13.4290
# 5 -30.9652 -29.4676 -30.9661 0.0000 49.9472 0.0000
# 6 0.0000 0.0000 0.0000 -13.4290 0.0000 41.6560
#
#
#
# Elastic Compliance Matrix: (Units=1/GPa)
#
#
# Indices 1 2 3 4 5 6 
#
# 1 0.017601 0.000018 -0.005784 0.000000 0.007336 0.000000
# 2 0.000018 0.013713 -0.010335 0.000000 0.001694 0.000000
# 3 -0.005784 -0.010335 0.053271 0.000000 0.023343 0.000000
# 4 0.000000 0.000000 0.000000 0.041251 0.000000 0.013298
# 5 0.007336 0.001694 0.023343 0.000000 0.040041 0.000000
# 6 0.000000 0.000000 0.000000 0.013298 0.000000 0.028293
#
#
# Mechanical properties :
#
#
# Convention : Reuss Voigt Hill
#
# Bulk Modulus (GPa) = 19.09042 44.02201 31.55621
# Shear Modulus (GPa) = 20.50584 33.22262 26.86423
#
# Velocity S-wave (km/s) = 3.00275 3.82206 3.43691
# Velocity P-wave (km/s) = 4.51843 6.23172 5.44291
#
# Compressibility (1/GPa) = 0.05238230
#
# Stress axis : x y z
#
# Youngs Moduli (GPa) = 56.81612 72.92254 18.77193
#
# Poissons Ratio (x) = -0.00133 0.10858
# Poissons Ratio (y) = -0.00103 0.19402
# Poissons Ratio (z) = 0.32862 0.75369
#
# Static dielectric constant tensor:
#      x y z
#    x 1.909600 0.000000 -0.038270 
#    y 0.000000 1.842400 0.000000 
#    z -0.038270 0.000000 2.900250 
# 
# From -- ./inp_files/45435.got.cif
#   From: 2010.05.17/outbox.cif.g08.bks.cpg/sg14_23_cif.got.tgz:45435.got - 2010.06.03 17:49:19.
