data_PCOD9251520
_publ_section_title
;
Structure prediction by ZEFSAII (Michael W. Deem and Ramdas Pophale) SiO2 
 PCOD9251520
Probable space group: P 21/C
;
_chemical_formula_sum "Si O2"
_cell_formula_units_Z 24
_cell_length_a 21.074255
_cell_length_b 8.308828
_cell_length_c 15.905668
_cell_angle_alpha 90.000000
_cell_angle_beta 153.961497
_cell_angle_gamma 90.000000
_cell_volume 1222.598168
_symmetry_space_group_name_H-M "P 21/C"
_symmetry_group_IT_number 14
_symmetry_cell_setting 'monoclinic'
loop_
_space_group_symop_operation_xyz
x,y,z
-x,1/2+y,1/2-z
-x,-y,-z
x,1/2-y,1/2+z
loop_
_atom_site_type_symbol
_atom_site_label
_atom_site_fract_x
_atom_site_fract_y
_atom_site_fract_z
Si Si1 0.911285 0.923258 0.318587
Si Si2 0.669806 0.069368 0.439997
Si Si3 0.925699 0.930090 0.639856
Si Si4 0.350966 0.554578 0.590838
Si Si5 0.160175 0.067662 0.203906
Si Si6 0.828222 0.921394 0.972509
O O1 0.861106 0.744108 0.281426
O O2 0.014305 0.950808 0.360607
O O3 0.000000 0.000000 0.500000
O O4 0.765303 0.016565 0.120075
O O5 0.774045 0.984358 0.497162
O O6 0.657834 0.256156 0.403297
O O7 0.511144 0.994376 0.255731
O O8 0.747099 0.039537 0.621947
O O9 0.047967 0.947034 0.857600
O O10 0.905160 0.751423 0.579157
O O11 0.296089 0.454480 0.606900
O O12 0.223500 0.073285 0.184911
O O13 0.000000 0.000000 0.000000
#
# Coordination Sequence:
#
# PCOD9251520 Si02
#       6
#     4   4   4   4   4   4
#     4  11  22  42  68  98 130 165 219 265 317 384
#     4  12  24  45  66  93 132 173 218 268 328 389
#     4  11  21  40  66  94 131 170 216 260 321 388
#     4  11  26  44  67  92 131 177 213 267 330 390
#     4  12  24  39  68 101 132 167 218 271 316 378
#     4  11  23  40  65  98 129 172 215 266 324 381
#
# _framework density 19.630327000000001
#
# number of rings (size 3 to 8) (size 9 to 14) (size 15 to 20)
#    0.000    0.667    3.333    7.000    2.333    0.667 
#    0.000    0.833    0.000    0.000    0.000    0.000 
#    0.000    0.000    0.000    0.000    0.000    0.000 
#
# Total GULP energy -134174.516299 kJ/mol
# GULP energy per Si atom -5590.604846 kJ/mol
# Density = 1.958565 g / cm^3
# Si number density = 19.630327 Si / 1000 Ang^3
#
#
#
# Elastic Constant Matrix: (Units=GPa)
#
#
# Indices 1 2 3 4 5 6 
#
# 1 96.1413 0.7131 48.0699 0.0000 -7.4081 0.0000
# 2 0.7131 61.5690 -2.2365 0.0000 -5.7104 0.0000
# 3 48.0699 -2.2365 103.2896 0.0000 17.9363 0.0000
# 4 0.0000 0.0000 0.0000 34.4003 0.0000 -0.9959
# 5 -7.4081 -5.7104 17.9363 0.0000 38.6318 0.0000
# 6 0.0000 0.0000 0.0000 -0.9959 0.0000 28.9171
#
#
#
# Elastic Compliance Matrix: (Units=1/GPa)
#
#
# Indices 1 2 3 4 5 6 
#
# 1 0.014976 0.000150 -0.008124 0.000000 0.006666 0.000000
# 2 0.000150 0.016470 -0.000153 0.000000 0.002534 0.000000
# 3 -0.008124 -0.000153 0.014938 0.000000 -0.008516 0.000000
# 4 0.000000 0.000000 0.000000 0.029099 0.000000 0.001002
# 5 0.006666 0.002534 -0.008516 0.000000 0.031492 0.000000
# 6 0.000000 0.000000 0.000000 0.001002 0.000000 0.034616
#
#
# Mechanical properties :
#
#
# Convention : Reuss Voigt Hill
#
# Bulk Modulus (GPa) = 33.19100 39.34365 36.26733
# Shear Modulus (GPa) = 29.78192 34.68674 32.23433
#
# Velocity S-wave (km/s) = 3.89927 4.20813 4.05664
# Velocity P-wave (km/s) = 6.10059 6.61036 6.36058
#
# Compressibility (1/GPa) = 0.03012865
#
# Stress axis : x y z
#
# Youngs Moduli (GPa) = 66.77488 60.71757 66.94468
#
# Poissons Ratio (x) = -0.00909 0.54384
# Poissons Ratio (y) = -0.01000 0.01025
# Poissons Ratio (z) = 0.54246 0.00930
#
# Static dielectric constant tensor:
#      x y z
#    x 1.736520 0.000000 -0.015930 
#    y 0.000000 1.699910 0.000000 
#    z -0.015930 0.000000 1.657450 
# 
# From -- ./inp_files/48644.got.cif
#   From: 2010.05.17/outbox.cif.g08.bks.cpg/sg14_25_cif.got.tgz:48644.got - 2010.06.03 17:49:19.
