data_PCOD9251628
_publ_section_title
;
Structure prediction by ZEFSAII (Michael W. Deem and Ramdas Pophale) SiO2 
 PCOD9251628
Probable space group: P 21/C
;
_chemical_formula_sum "Si O2"
_cell_formula_units_Z 20
_cell_length_a 13.074841
_cell_length_b 6.517063
_cell_length_c 17.508181
_cell_angle_alpha 90.000000
_cell_angle_beta 30.993285
_cell_angle_gamma 90.000000
_cell_volume 768.217114
_symmetry_space_group_name_H-M "P 21/C"
_symmetry_group_IT_number 14
_symmetry_cell_setting 'monoclinic'
loop_
_space_group_symop_operation_xyz
x,y,z
-x,1/2+y,1/2-z
-x,-y,-z
x,1/2-y,1/2+z
loop_
_atom_site_type_symbol
_atom_site_label
_atom_site_fract_x
_atom_site_fract_y
_atom_site_fract_z
Si Si1 0.902803 0.551495 0.481096
Si Si2 0.167059 0.601798 0.838671
Si Si3 0.230273 0.455358 0.645284
Si Si4 0.425120 0.212325 0.384741
Si Si5 0.205020 0.684540 0.061844
O O1 0.694332 0.670216 0.605635
O O2 0.875017 0.350140 0.448597
O O3 0.000000 0.500000 0.500000
O O4 0.054759 0.729562 0.358404
O O5 0.254390 0.443117 0.720917
O O6 0.347124 0.718926 0.764263
O O7 0.000000 0.500000 0.000000
O O8 0.341436 0.295477 0.519840
O O9 0.294948 0.675688 0.570772
O O10 0.993731 0.430236 0.783535
O O11 0.640343 0.476550 0.071593
#
# Coordination Sequence:
#
# PCOD9251628 Si02
#       5
#     4   4   4   4   4
#     4  11  26  48  73 110 158 209 261 334 400 485
#     4  12  27  50  76 116 163 211 267 333 410 489
#     4  11  21  45  78 113 152 205 266 332 389 484
#     4  11  26  47  81 111 156 211 265 336 401 484
#     4  11  21  45  79 113 151 204 274 324 409 472
#
# _framework density 26.034306999999998
#
# number of rings (size 3 to 8) (size 9 to 14) (size 15 to 20)
#    0.000    0.800    4.000    3.000    0.000    2.400 
#   14.400    0.000    0.000    0.000    0.000    0.000 
#    0.000    0.000    0.000    0.000    0.000    0.000 
#
# Total GULP energy -111939.181119 kJ/mol
# GULP energy per Si atom -5596.959056 kJ/mol
# Density = 2.597505 g / cm^3
# Si number density = 26.034307 Si / 1000 Ang^3
#
#
#
# Elastic Constant Matrix: (Units=GPa)
#
#
# Indices 1 2 3 4 5 6 
#
# 1 138.5637 50.7203 83.4528 0.0000 -6.6697 0.0000
# 2 50.7203 151.4346 73.4647 0.0000 1.7903 0.0000
# 3 83.4528 73.4647 167.0235 0.0000 -6.9660 0.0000
# 4 0.0000 0.0000 0.0000 23.8561 0.0000 -2.5856
# 5 -6.6697 1.7903 -6.9660 0.0000 65.1953 0.0000
# 6 0.0000 0.0000 0.0000 -2.5856 0.0000 45.8746
#
#
#
# Elastic Compliance Matrix: (Units=1/GPa)
#
#
# Indices 1 2 3 4 5 6 
#
# 1 0.010526 -0.001263 -0.004678 0.000000 0.000612 0.000000
# 2 -0.001263 0.008572 -0.003169 0.000000 -0.000703 0.000000
# 3 -0.004678 -0.003169 0.009745 0.000000 0.000650 0.000000
# 4 0.000000 0.000000 0.000000 0.042176 0.000000 0.002377
# 5 0.000612 -0.000703 0.000650 0.000000 0.015490 0.000000
# 6 0.000000 0.000000 0.000000 0.002377 0.000000 0.021933
#
#
# Mechanical properties :
#
#
# Convention : Reuss Voigt Hill
#
# Bulk Modulus (GPa) = 94.12963 96.92192 95.52578
# Shear Modulus (GPa) = 38.40149 43.61081 41.00615
#
# Velocity S-wave (km/s) = 3.84478 4.09727 3.97303
# Velocity P-wave (km/s) = 7.47959 7.72612 7.60385
#
# Compressibility (1/GPa) = 0.01062365
#
# Stress axis : x y z
#
# Youngs Moduli (GPa) = 94.99964 116.65793 102.61222
#
# Poissons Ratio (x) = 0.14737 0.48005
# Poissons Ratio (y) = 0.12001 0.32513
# Poissons Ratio (z) = 0.44444 0.36963
#
# Static dielectric constant tensor:
#      x y z
#    x 2.067310 0.000000 0.035390 
#    y 0.000000 2.086350 0.000000 
#    z 0.035390 0.000000 2.046380 
# 
# From -- ./inp_files/58870.got.cif
#   From: 2010.05.17/outbox.cif.g08.bks.cpg/sg14_30_cif.got.tgz:58870.got - 2010.06.03 17:49:19.
