data_PCOD9251867
_publ_section_title
;
Structure prediction by ZEFSAII (Michael W. Deem and Ramdas Pophale) SiO2 
 PCOD9251867
Probable space group: P 21/C
;
_chemical_formula_sum "Si O2"
_cell_formula_units_Z 28
_cell_length_a 8.359451
_cell_length_b 13.824176
_cell_length_c 11.895452
_cell_angle_alpha 90.000000
_cell_angle_beta 60.706336
_cell_angle_gamma 90.000000
_cell_volume 1198.880486
_symmetry_space_group_name_H-M "P 21/C"
_symmetry_group_IT_number 14
_symmetry_cell_setting 'monoclinic'
loop_
_space_group_symop_operation_xyz
x,y,z
-x,1/2+y,1/2-z
-x,-y,-z
x,1/2-y,1/2+z
loop_
_atom_site_type_symbol
_atom_site_label
_atom_site_fract_x
_atom_site_fract_y
_atom_site_fract_z
Si Si1 0.853479 0.800161 0.534555
Si Si2 0.954549 0.959129 0.639307
Si Si3 0.239796 0.662271 0.171097
Si Si4 0.552262 0.836228 0.217400
Si Si5 0.600513 0.602950 0.945781
Si Si6 0.240910 0.812246 0.908023
Si Si7 0.755497 0.380461 0.347025
O O1 0.819891 0.870903 0.653072
O O2 0.723051 0.709314 0.595192
O O3 0.781229 0.862401 0.451772
O O4 0.061182 0.758678 0.472059
O O5 0.131957 0.908383 0.628156
O O6 0.878436 0.035198 0.753515
O O7 0.000000 0.000000 0.500000
O O8 0.443822 0.672824 0.052598
O O9 0.164130 0.771816 0.201126
O O10 0.226438 0.623276 0.301468
O O11 0.620487 0.890060 0.305477
O O12 0.426598 0.888301 0.167643
O O13 0.415060 0.755327 0.318511
O O14 0.500000 0.500000 0.000000
O O15 0.265683 0.875034 0.011480
#
# Coordination Sequence:
#
# PCOD9251867 Si02
#       7
#     4   4   4   4   4   4   4
#     4  12  24  41  72 110 134 187 240 288 357 429
#     4  12  25  43  73 108 136 189 249 293 350 433
#     4  11  23  45  69 100 147 183 230 301 357 413
#     4  11  23  44  70  97 144 184 231 293 356 412
#     4  12  24  42  71 107 136 179 241 295 346 426
#     4  11  23  44  72  94 146 190 229 292 358 424
#     4  11  22  45  70  99 143 194 226 298 365 410
#
# _framework density 23.355121
#
# number of rings (size 3 to 8) (size 9 to 14) (size 15 to 20)
#    0.000    0.571    5.714    4.286    2.000    2.857 
#    0.000    0.714    0.000    0.000    0.000    0.000 
#    0.000    0.000    0.000    0.000    0.000    0.000 
#
# Total GULP energy -156323.639418 kJ/mol
# GULP energy per Si atom -5582.987122 kJ/mol
# Density = 2.330196 g / cm^3
# Si number density = 23.355121 Si / 1000 Ang^3
#
#
#
# Elastic Constant Matrix: (Units=GPa)
#
#
# Indices 1 2 3 4 5 6 
#
# 1 92.2414 7.0231 32.0224 0.0000 30.9008 0.0000
# 2 7.0231 29.4946 -8.1377 0.0000 4.0177 0.0000
# 3 32.0224 -8.1377 86.6569 0.0000 46.2166 0.0000
# 4 0.0000 0.0000 0.0000 36.0030 0.0000 13.7691
# 5 30.9008 4.0177 46.2166 0.0000 57.8532 0.0000
# 6 0.0000 0.0000 0.0000 13.7691 0.0000 30.1087
#
#
#
# Elastic Compliance Matrix: (Units=1/GPa)
#
#
# Indices 1 2 3 4 5 6 
#
# 1 0.013691 -0.003368 -0.002788 0.000000 -0.004851 0.000000
# 2 -0.003368 0.038385 0.009254 0.000000 -0.008259 0.000000
# 3 -0.002788 0.009254 0.022629 0.000000 -0.017231 0.000000
# 4 0.000000 0.000000 0.000000 0.033663 0.000000 -0.015395
# 5 -0.004851 -0.008259 -0.017231 0.000000 0.034215 0.000000
# 6 0.000000 0.000000 0.000000 -0.015395 0.000000 0.040253
#
#
# Mechanical properties :
#
#
# Convention : Reuss Voigt Hill
#
# Bulk Modulus (GPa) = 12.36094 30.02317 21.19206
# Shear Modulus (GPa) = 24.55722 36.62533 30.59127
#
# Velocity S-wave (km/s) = 3.24616 3.96434 3.62309
# Velocity P-wave (km/s) = 4.39933 5.81701 5.15712
#
# Compressibility (1/GPa) = 0.08089998
#
# Stress axis : x y z
#
# Youngs Moduli (GPa) = 73.04242 26.05192 44.19168
#
# Poissons Ratio (x) = 0.08775 0.12321
# Poissons Ratio (y) = 0.24603 -0.40896
# Poissons Ratio (z) = 0.20365 -0.24109
#
# Static dielectric constant tensor:
#      x y z
#    x 1.959150 0.000000 0.014720 
#    y 0.000000 1.970880 0.000000 
#    z 0.014720 0.000000 1.906690 
# 
# From -- ./inp_files/25425.got.cif
#   From: 2010.05.17/outbox.cif.g08.bks.cpg/sg14_13_cif.got.tgz:25425.got - 2010.06.03 17:49:19.
