data_PCOD9251407
_publ_section_title
;
Structure prediction by ZEFSAII (Michael W. Deem and Ramdas Pophale) SiO2 
 PCOD9251407
Probable space group: P 21/C
;
_chemical_formula_sum "Si O2"
_cell_formula_units_Z 24
_cell_length_a 9.509851
_cell_length_b 5.906826
_cell_length_c 19.902174
_cell_angle_alpha 90.000000
_cell_angle_beta 80.278128
_cell_angle_gamma 90.000000
_cell_volume 1101.910504
_symmetry_space_group_name_H-M "P 21/C"
_symmetry_group_IT_number 14
_symmetry_cell_setting 'monoclinic'
loop_
_space_group_symop_operation_xyz
x,y,z
-x,1/2+y,1/2-z
-x,-y,-z
x,1/2-y,1/2+z
loop_
_atom_site_type_symbol
_atom_site_label
_atom_site_fract_x
_atom_site_fract_y
_atom_site_fract_z
Si Si1 0.300693 0.371133 0.893967
Si Si2 0.112233 0.151644 0.792500
Si Si3 0.309202 0.773966 0.815250
Si Si4 0.929015 0.750220 0.986333
Si Si5 0.440532 0.891079 0.166254
Si Si6 0.847141 0.587422 0.349487
O O1 0.210149 0.282989 0.837269
O O2 0.274229 0.635275 0.884964
O O3 0.468951 0.318833 0.871338
O O4 0.223464 0.263476 0.963353
O O5 0.137421 0.257294 0.718013
O O6 0.173449 0.899605 0.795882
O O7 0.949875 0.129358 0.828711
O O8 0.432584 0.937148 0.830308
O O9 0.374833 0.650397 0.745258
O O10 0.900007 0.774989 0.909652
O O11 0.000000 0.500000 0.000000
O O12 0.000000 0.000000 0.000000
O O13 0.313836 0.994582 0.132504
#
# Coordination Sequence:
#
# PCOD9251407 Si02
#       6
#     4   4   4   4   4   4
#     4  11  24  45  71 100 142 194 228 292 374 446
#     4  11  24  40  71 103 137 179 245 301 354 421
#     4  11  20  42  67 104 141 184 231 292 369 430
#     4  12  29  52  74 105 149 201 243 302 375 442
#     4  11  22  38  69 103 142 179 238 294 367 423
#     4  12  25  44  71 110 140 183 252 308 358 432
#
# _framework density 21.780353000000002
#
# number of rings (size 3 to 8) (size 9 to 14) (size 15 to 20)
#    0.000    0.667    5.000    3.000    4.667    2.000 
#    0.000    0.833    0.000    0.000    0.000    0.000 
#    0.000    0.000    0.000    0.000    0.000    0.000 
#
# Total GULP energy -133849.476095 kJ/mol
# GULP energy per Si atom -5577.061504 kJ/mol
# Density = 2.173078 g / cm^3
# Si number density = 21.780353 Si / 1000 Ang^3
#
#
#
# Elastic Constant Matrix: (Units=GPa)
#
#
# Indices 1 2 3 4 5 6 
#
# 1 103.7741 15.3035 10.4714 0.0000 8.6875 0.0000
# 2 15.3035 49.0564 -9.3466 0.0000 6.4047 0.0000
# 3 10.4714 -9.3466 79.9233 0.0000 9.3027 0.0000
# 4 0.0000 0.0000 0.0000 -0.1862 0.0000 -23.6346
# 5 8.6875 6.4047 9.3027 0.0000 31.5971 0.0000
# 6 0.0000 0.0000 0.0000 -23.6346 0.0000 21.8536
#
#
#
# Elastic Compliance Matrix: (Units=1/GPa)
#
#
# Indices 1 2 3 4 5 6 
#
# 1 0.010428 -0.003322 -0.001553 0.000000 -0.001737 0.000000
# 2 -0.003322 0.022739 0.003650 0.000000 -0.004770 0.000000
# 3 -0.001553 0.003650 0.013646 0.000000 -0.004331 0.000000
# 4 0.000000 0.000000 0.000000 -0.038839 0.000000 -0.042005
# 5 -0.001737 -0.004770 -0.004331 0.000000 0.034368 0.000000
# 6 0.000000 0.000000 0.000000 -0.042005 0.000000 0.000331
#
#
# Mechanical properties :
#
#
# Convention : Reuss Voigt Hill
#
# Bulk Modulus (GPa) = 22.54104 29.51228 26.02666
# Shear Modulus (GPa) = 83.45619 25.07458 54.26539
#
# Velocity S-wave (km/s) = 6.19680 3.39669 4.99689
# Velocity P-wave (km/s) = 7.84680 5.38170 6.72811
#
# Compressibility (1/GPa) = 0.04436352
#
# Stress axis : x y z
#
# Youngs Moduli (GPa) = 95.89281 43.97670 73.27989
#
# Poissons Ratio (x) = 0.14610 0.11378
# Poissons Ratio (y) = 0.31858 -0.26745
# Poissons Ratio (z) = 0.14889 -0.16050
#
# Static dielectric constant tensor:
#      x y z
#    x 2.034420 0.000000 -0.313600 
#    y 0.000000 2.009310 0.000000 
#    z -0.313600 0.000000 2.088500 
# 
# From -- ./inp_files/71593.got.cif
#   From: 2010.05.17/outbox.cif.g08.bks.cpg/sg14_36_cif.got.tgz:71593.got - 2010.06.03 17:49:19.
