data_PCOD9251937
_publ_section_title
;
Structure prediction by ZEFSAII (Michael W. Deem and Ramdas Pophale) SiO2 
 PCOD9251937
Probable space group: P 21/C
;
_chemical_formula_sum "Si O2"
_cell_formula_units_Z 20
_cell_length_a 8.672970
_cell_length_b 6.718395
_cell_length_c 16.266955
_cell_angle_alpha 90.000000
_cell_angle_beta 55.930333
_cell_angle_gamma 90.000000
_cell_volume 785.158260
_symmetry_space_group_name_H-M "P 21/C"
_symmetry_group_IT_number 14
_symmetry_cell_setting 'monoclinic'
loop_
_space_group_symop_operation_xyz
x,y,z
-x,1/2+y,1/2-z
-x,-y,-z
x,1/2-y,1/2+z
loop_
_atom_site_type_symbol
_atom_site_label
_atom_site_fract_x
_atom_site_fract_y
_atom_site_fract_z
Si Si1 0.257473 0.221907 0.833261
Si Si2 0.846964 0.339629 0.961116
Si Si3 0.758679 0.018388 0.858780
Si Si4 0.569922 0.129797 0.132322
Si Si5 0.169602 0.565032 0.206921
O O1 0.432855 0.348766 0.751260
O O2 0.066609 0.337101 0.912397
O O3 0.311753 0.068461 0.887686
O O4 0.221901 0.082708 0.763165
O O5 0.806087 0.123215 0.930375
O O6 0.795299 0.485081 0.900466
O O7 0.702915 0.320115 0.078138
O O8 0.741920 0.217148 0.807042
O O9 0.574754 0.893937 0.900045
O O10 0.946201 0.906253 0.777258
#
# Coordination Sequence:
#
# PCOD9251937 Si02
#       5
#     4   4   4   4   4
#     4  11  23  38  59  88 119 154 185 243 289 338
#     4   9  21  37  62  83 114 153 199 228 283 350
#     4   9  17  35  59  85 112 153 190 232 283 342
#     4  12  21  38  59  85 120 151 194 237 289 339
#     4   9  18  37  59  85 114 151 190 233 284 337
#
# _framework density 25.472570999999999
#
# number of rings (size 3 to 8) (size 9 to 14) (size 15 to 20)
#    1.200    0.800    2.000    2.400    0.000    0.800 
#    0.000    1.000    4.400    0.000    0.000    0.000 
#    0.000    0.000    0.000    0.000    0.000    0.000 
#
# Total GULP energy -111582.919141 kJ/mol
# GULP energy per Si atom -5579.145957 kJ/mol
# Density = 2.541459 g / cm^3
# Si number density = 25.472571 Si / 1000 Ang^3
#
#
#
# Elastic Constant Matrix: (Units=GPa)
#
#
# Indices 1 2 3 4 5 6 
#
# 1 95.8245 21.9276 13.3969 0.0000 -19.3714 0.0000
# 2 21.9276 39.0394 15.5890 0.0000 -5.9036 0.0000
# 3 13.3969 15.5890 93.0230 0.0000 -17.2194 0.0000
# 4 0.0000 0.0000 0.0000 33.7888 0.0000 8.2492
# 5 -19.3714 -5.9036 -17.2194 0.0000 29.7025 0.0000
# 6 0.0000 0.0000 0.0000 8.2492 0.0000 37.5940
#
#
#
# Elastic Compliance Matrix: (Units=1/GPa)
#
#
# Indices 1 2 3 4 5 6 
#
# 1 0.013442 -0.006616 0.000619 0.000000 0.007810 0.000000
# 2 -0.006616 0.030970 -0.004365 0.000000 -0.000690 0.000000
# 3 0.000619 -0.004365 0.012666 0.000000 0.006879 0.000000
# 4 0.000000 0.000000 0.000000 0.031271 0.000000 -0.006862
# 5 0.007810 -0.000690 0.006879 0.000000 0.042612 0.000000
# 6 0.000000 0.000000 0.000000 -0.006862 0.000000 0.028106
#
#
# Mechanical properties :
#
#
# Convention : Reuss Voigt Hill
#
# Bulk Modulus (GPa) = 27.50797 36.63485 32.07141
# Shear Modulus (GPa) = 26.05416 32.01530 29.03473
#
# Velocity S-wave (km/s) = 3.20164 3.54906 3.37982
# Velocity P-wave (km/s) = 4.94872 5.58639 5.27720
#
# Compressibility (1/GPa) = 0.03635310
#
# Stress axis : x y z
#
# Youngs Moduli (GPa) = 74.39311 32.28941 78.95345
#
# Poissons Ratio (x) = 0.21363 -0.04884
# Poissons Ratio (y) = 0.49219 0.34462
# Poissons Ratio (z) = -0.04602 0.14094
#
# Static dielectric constant tensor:
#      x y z
#    x 1.982320 0.000000 0.011310 
#    y 0.000000 1.999920 0.000000 
#    z 0.011310 0.000000 2.154880 
# 
# From -- ./inp_files/46211.got.cif
#   From: 2010.05.17/outbox.cif.g08.bks.cpg/sg14_24_cif.got.tgz:46211.got - 2010.06.03 17:49:19.
