data_PCOD9251737
_publ_section_title
;
Structure prediction by ZEFSAII (Michael W. Deem and Ramdas Pophale) SiO2 
 PCOD9251737
Probable space group: P 21/C
;
_chemical_formula_sum "Si O2"
_cell_formula_units_Z 32
_cell_length_a 12.667258
_cell_length_b 11.232253
_cell_length_c 18.313639
_cell_angle_alpha 90.000000
_cell_angle_beta 35.433316
_cell_angle_gamma 90.000000
_cell_volume 1510.666792
_symmetry_space_group_name_H-M "P 21/C"
_symmetry_group_IT_number 14
_symmetry_cell_setting 'monoclinic'
loop_
_space_group_symop_operation_xyz
x,y,z
-x,1/2+y,1/2-z
-x,-y,-z
x,1/2-y,1/2+z
loop_
_atom_site_type_symbol
_atom_site_label
_atom_site_fract_x
_atom_site_fract_y
_atom_site_fract_z
Si Si1 0.702864 0.608871 0.966102
Si Si2 0.846850 0.101899 0.582845
Si Si3 0.410448 0.190017 0.633877
Si Si4 0.511275 0.491380 0.788375
Si Si5 0.023052 0.261626 0.362459
Si Si6 0.782398 0.335254 0.884889
Si Si7 0.975403 0.256035 0.643765
Si Si8 0.123156 0.499464 0.502139
O O1 0.630982 0.652433 0.927422
O O2 0.741162 0.469891 0.929405
O O3 0.887080 0.671366 0.889082
O O4 0.566905 0.611028 0.113129
O O5 0.902684 0.196029 0.489734
O O6 0.871506 0.176702 0.642706
O O7 0.656544 0.044502 0.664329
O O8 0.000000 0.000000 0.500000
O O9 0.234797 0.263152 0.756734
O O10 0.614083 0.240048 0.512597
O O11 0.417992 0.087549 0.691489
O O12 0.675650 0.466331 0.639842
O O13 0.966787 0.204097 0.318724
O O14 0.968536 0.400688 0.394458
O O15 0.817219 0.315859 0.781020
O O16 0.099933 0.365695 0.545149
O O17 0.000000 0.500000 0.500000
#
# Coordination Sequence:
#
# PCOD9251737 Si02
#       8
#     4   4   4   4   4   4   4   4
#     4  11  23  43  71  97 131 179 227 280 332 408
#     4  12  24  45  69  99 137 181 224 278 345 409
#     4  11  22  40  70 101 125 176 231 271 336 406
#     4  11  23  42  67  98 133 177 228 274 344 404
#     4  12  23  44  67  94 142 175 216 287 338 397
#     4  11  24  42  68  99 131 177 222 274 342 399
#     4  12  25  43  70  99 138 177 225 282 341 404
#     4  12  26  40  65 102 134 173 226 286 330 399
#
# _framework density 21.182699
#
# number of rings (size 3 to 8) (size 9 to 14) (size 15 to 20)
#    0.000    0.500    7.500    2.250    1.750    3.000 
#    0.000    0.000    0.000    3.000    0.000    0.000 
#    0.000    0.000    0.000    0.000    0.000    0.000 
#
# Total GULP energy -178547.023366 kJ/mol
# GULP energy per Si atom -5579.594480 kJ/mol
# Density = 2.113449 g / cm^3
# Si number density = 21.182699 Si / 1000 Ang^3
#
#
#
# Elastic Constant Matrix: (Units=GPa)
#
#
# Indices 1 2 3 4 5 6 
#
# 1 82.8962 12.3765 0.5343 0.0000 -6.3839 0.0000
# 2 12.3765 46.1723 2.6806 0.0000 2.8812 0.0000
# 3 0.5343 2.6806 99.1631 0.0000 -14.3740 0.0000
# 4 0.0000 0.0000 0.0000 21.9210 0.0000 -4.5953
# 5 -6.3839 2.8812 -14.3740 0.0000 38.4444 0.0000
# 6 0.0000 0.0000 0.0000 -4.5953 0.0000 25.2185
#
#
#
# Elastic Compliance Matrix: (Units=1/GPa)
#
#
# Indices 1 2 3 4 5 6 
#
# 1 0.012796 -0.003612 0.000397 0.000000 0.002544 0.000000
# 2 -0.003612 0.022851 -0.000987 0.000000 -0.002681 0.000000
# 3 0.000397 -0.000987 0.010710 0.000000 0.004144 0.000000
# 4 0.000000 0.000000 0.000000 0.047430 0.000000 0.008643
# 5 0.002544 -0.002681 0.004144 0.000000 0.028184 0.000000
# 6 0.000000 0.000000 0.000000 0.008643 0.000000 0.041228
#
#
# Mechanical properties :
#
#
# Convention : Reuss Voigt Hill
#
# Bulk Modulus (GPa) = 26.34778 28.82383 27.58580
# Shear Modulus (GPa) = 27.13661 31.29280 29.21471
#
# Velocity S-wave (km/s) = 3.58309 3.84771 3.71776
# Velocity P-wave (km/s) = 5.43906 5.77725 5.61071
#
# Compressibility (1/GPa) = 0.03795386
#
# Stress axis : x y z
#
# Youngs Moduli (GPa) = 78.15017 43.76222 93.37378
#
# Poissons Ratio (x) = 0.15806 -0.03711
# Poissons Ratio (y) = 0.28226 0.09215
# Poissons Ratio (z) = -0.03106 0.04319
#
# Static dielectric constant tensor:
#      x y z
#    x 1.794310 0.000000 0.034700 
#    y 0.000000 1.762790 0.000000 
#    z 0.034700 0.000000 1.916090 
# 
# From -- ./inp_files/57708.got.cif
#   From: 2010.05.17/outbox.cif.g08.bks.cpg/sg14_29_cif.got.tgz:57708.got - 2010.06.03 17:49:19.
