data_PCOD9251963
_publ_section_title
;
Structure prediction by ZEFSAII (Michael W. Deem and Ramdas Pophale) SiO2 
 PCOD9251963
Probable space group: P 21/C
;
_chemical_formula_sum "Si O2"
_cell_formula_units_Z 16
_cell_length_a 8.963329
_cell_length_b 8.213300
_cell_length_c 9.314737
_cell_angle_alpha 90.000000
_cell_angle_beta 114.582244
_cell_angle_gamma 90.000000
_cell_volume 623.585330
_symmetry_space_group_name_H-M "P 21/C"
_symmetry_group_IT_number 14
_symmetry_cell_setting 'monoclinic'
loop_
_space_group_symop_operation_xyz
x,y,z
-x,1/2+y,1/2-z
-x,-y,-z
x,1/2-y,1/2+z
loop_
_atom_site_type_symbol
_atom_site_label
_atom_site_fract_x
_atom_site_fract_y
_atom_site_fract_z
Si Si1 0.360725 0.563870 0.760057
Si Si2 0.251887 0.444350 0.125238
Si Si3 0.801115 0.233385 0.065030
Si Si4 0.162097 0.229164 0.322779
O O1 0.553209 0.542859 0.815611
O O2 0.275244 0.606400 0.575950
O O3 0.321178 0.709394 0.857025
O O4 0.282097 0.405013 0.800504
O O5 0.210121 0.400236 0.271126
O O6 0.174606 0.604303 0.024313
O O7 0.187826 0.294343 0.001574
O O8 0.976262 0.194216 0.203088
#
# Coordination Sequence:
#
# PCOD9251963 Si02
#       4
#     4   4   4   4
#     4  11  23  42  63  90 123 160 201 249 300 358
#     4  11  23  42  63  90 123 160 201 249 300 358
#     4  11  23  40  62  90 123 160 201 249 299 356
#     4  11  23  40  62  90 123 160 201 249 299 356
#
# _framework density 25.658076000000001
#
# number of rings (size 3 to 8) (size 9 to 14) (size 15 to 20)
#    0.000    1.000    0.000    9.000    0.000    6.000 
#    0.000    5.000    0.000    0.000    0.000    0.000 
#    0.000    0.000    0.000    0.000    0.000    0.000 
#
# Total GULP energy -89834.961988 kJ/mol
# GULP energy per Si atom -5614.685124 kJ/mol
# Density = 2.559968 g / cm^3
# Si number density = 25.658076 Si / 1000 Ang^3
#
#
#
# Elastic Constant Matrix: (Units=GPa)
#
#
# Indices 1 2 3 4 5 6 
#
# 1 112.9241 23.3435 16.9353 0.0000 13.6507 0.0000
# 2 23.3435 51.7493 16.2653 0.0000 -1.5312 0.0000
# 3 16.9353 16.2653 92.7242 0.0000 -10.8431 0.0000
# 4 0.0000 0.0000 0.0000 50.6769 0.0000 -7.9420
# 5 13.6507 -1.5312 -10.8431 0.0000 50.0102 0.0000
# 6 0.0000 0.0000 0.0000 -7.9420 0.0000 35.0493
#
#
#
# Elastic Compliance Matrix: (Units=1/GPa)
#
#
# Indices 1 2 3 4 5 6 
#
# 1 0.010370 -0.004296 -0.001526 0.000000 -0.003293 0.000000
# 2 -0.004296 0.022232 -0.002974 0.000000 0.001208 0.000000
# 3 -0.001526 -0.002974 0.011925 0.000000 0.002911 0.000000
# 4 0.000000 0.000000 0.000000 0.020459 0.000000 0.004636
# 5 -0.003293 0.001208 0.002911 0.000000 0.021563 0.000000
# 6 0.000000 0.000000 0.000000 0.004636 0.000000 0.029582
#
#
# Mechanical properties :
#
#
# Convention : Reuss Voigt Hill
#
# Bulk Modulus (GPa) = 37.12340 41.16509 39.14425
# Shear Modulus (GPa) = 35.03803 40.53750 37.78777
#
# Velocity S-wave (km/s) = 3.69938 3.97912 3.84180
# Velocity P-wave (km/s) = 5.72251 6.09834 5.91341
#
# Compressibility (1/GPa) = 0.02693719
#
# Stress axis : x y z
#
# Youngs Moduli (GPa) = 96.42821 44.97970 83.85464
#
# Poissons Ratio (x) = 0.19323 0.12793
# Poissons Ratio (y) = 0.41425 0.24938
# Poissons Ratio (z) = 0.14711 0.13377
#
# Static dielectric constant tensor:
#      x y z
#    x 1.949630 0.000000 -0.054450 
#    y 0.000000 2.118280 0.000000 
#    z -0.054450 0.000000 1.952020 
# 
# From -- ./inp_files/7317.got.cif
#   From: 2010.05.17/outbox.cif.g08.bks.cpg/sg14_4_cif.got.tgz:7317.got - 2010.06.03 17:49:19.
