data_PCOD9251598
_publ_section_title
;
Structure prediction by ZEFSAII (Michael W. Deem and Ramdas Pophale) SiO2 
 PCOD9251598
Probable space group: P 21/C
;
_chemical_formula_sum "Si O2"
_cell_formula_units_Z 28
_cell_length_a 12.680295
_cell_length_b 8.411107
_cell_length_c 12.956569
_cell_angle_alpha 90.000000
_cell_angle_beta 120.986256
_cell_angle_gamma 90.000000
_cell_volume 1184.679032
_symmetry_space_group_name_H-M "P 21/C"
_symmetry_group_IT_number 14
_symmetry_cell_setting 'monoclinic'
loop_
_space_group_symop_operation_xyz
x,y,z
-x,1/2+y,1/2-z
-x,-y,-z
x,1/2-y,1/2+z
loop_
_atom_site_type_symbol
_atom_site_label
_atom_site_fract_x
_atom_site_fract_y
_atom_site_fract_z
Si Si1 0.307260 0.633744 0.564397
Si Si2 0.282040 0.856808 0.283947
Si Si3 0.089495 0.916781 0.651048
Si Si4 0.974850 0.171399 0.042974
Si Si5 0.867081 0.887824 0.681325
Si Si6 0.283951 0.111053 0.876509
Si Si7 0.479341 0.681523 0.026171
O O1 0.318648 0.581311 0.689152
O O2 0.162556 0.670088 0.479901
O O3 0.334279 0.506546 0.489666
O O4 0.392867 0.785058 0.581816
O O5 0.161425 0.749417 0.211574
O O6 0.395416 0.759995 0.387669
O O7 0.238003 0.987561 0.343352
O O8 0.020004 0.840947 0.514446
O O9 0.978059 0.954891 0.671137
O O10 0.203652 0.032469 0.742794
O O11 0.074125 0.166336 0.181959
O O12 0.000000 0.000000 0.000000
O O13 0.807392 0.729149 0.606279
O O14 0.396816 0.219360 0.895599
O O15 0.500000 0.500000 0.000000
#
# Coordination Sequence:
#
# PCOD9251598 Si02
#       7
#     4   4   4   4   4   4   4
#     4  11  24  45  74 103 141 189 238 304 361 433
#     4  11  24  46  72 102 144 189 245 299 369 437
#     4  11  23  40  72 106 141 187 237 301 370 437
#     4  11  21  43  73 106 148 187 240 296 375 438
#     4  12  22  41  72 106 148 189 237 297 377 443
#     4  12  25  43  72 105 144 194 242 300 365 437
#     4  12  26  50  70 101 140 193 248 302 366 437
#
# _framework density 23.635092
#
# number of rings (size 3 to 8) (size 9 to 14) (size 15 to 20)
#    0.000    0.571    7.143    2.143    0.000    1.714 
#    2.571    1.429    0.000    0.000    0.000    0.000 
#    0.000    0.000    0.000    0.000    0.000    0.000 
#
# Total GULP energy -156090.019437 kJ/mol
# GULP energy per Si atom -5574.643551 kJ/mol
# Density = 2.358130 g / cm^3
# Si number density = 23.635092 Si / 1000 Ang^3
#
#
#
# Elastic Constant Matrix: (Units=GPa)
#
#
# Indices 1 2 3 4 5 6 
#
# 1 122.3876 66.4794 29.8178 0.0000 16.0613 0.0000
# 2 66.4794 99.6385 5.6171 0.0000 -15.2353 0.0000
# 3 29.8178 5.6171 78.5084 0.0000 -3.1065 0.0000
# 4 0.0000 0.0000 0.0000 33.5739 0.0000 4.7699
# 5 16.0613 -15.2353 -3.1065 0.0000 32.0347 0.0000
# 6 0.0000 0.0000 0.0000 4.7699 0.0000 37.5946
#
#
#
# Elastic Compliance Matrix: (Units=1/GPa)
#
#
# Indices 1 2 3 4 5 6 
#
# 1 0.022327 -0.017551 -0.008028 0.000000 -0.020319 0.000000
# 2 -0.017551 0.024646 0.005737 0.000000 0.021077 0.000000
# 3 -0.008028 0.005737 0.015704 0.000000 0.008276 0.000000
# 4 0.000000 0.000000 0.000000 0.030332 0.000000 -0.003848
# 5 -0.020319 0.021077 0.008276 0.000000 0.052230 0.000000
# 6 0.000000 0.000000 0.000000 -0.003848 0.000000 0.027088
#
#
# Mechanical properties :
#
#
# Convention : Reuss Voigt Hill
#
# Bulk Modulus (GPa) = 43.49486 56.04034 49.76760
# Shear Modulus (GPa) = 22.76099 33.88200 28.32150
#
# Velocity S-wave (km/s) = 3.10662 3.79033 3.46538
# Velocity P-wave (km/s) = 5.59560 6.55115 6.09214
#
# Compressibility (1/GPa) = 0.02299122
#
# Stress axis : x y z
#
# Youngs Moduli (GPa) = 44.78958 40.57511 63.67966
#
# Poissons Ratio (x) = 0.71213 0.51122
# Poissons Ratio (y) = 0.78609 -0.36530
# Poissons Ratio (z) = 0.35957 -0.23276
#
# Static dielectric constant tensor:
#      x y z
#    x 1.880350 0.000000 -0.015380 
#    y 0.000000 2.072360 0.000000 
#    z -0.015380 0.000000 2.062650 
# 
# From -- ./inp_files/43525.got.cif
#   From: 2010.05.17/outbox.cif.g08.bks.cpg/sg14_22_cif.got.tgz:43525.got - 2010.06.03 17:49:19.
