data_PCOD9251426
_publ_section_title
;
Structure prediction by ZEFSAII (Michael W. Deem and Ramdas Pophale) SiO2 
 PCOD9251426
Probable space group: P 21/C
;
_chemical_formula_sum "Si O2"
_cell_formula_units_Z 28
_cell_length_a 14.272209
_cell_length_b 8.194650
_cell_length_c 19.901127
_cell_angle_alpha 90.000000
_cell_angle_beta 27.290708
_cell_angle_gamma 90.000000
_cell_volume 1067.194962
_symmetry_space_group_name_H-M "P 21/C"
_symmetry_group_IT_number 14
_symmetry_cell_setting 'monoclinic'
loop_
_space_group_symop_operation_xyz
x,y,z
-x,1/2+y,1/2-z
-x,-y,-z
x,1/2-y,1/2+z
loop_
_atom_site_type_symbol
_atom_site_label
_atom_site_fract_x
_atom_site_fract_y
_atom_site_fract_z
Si Si1 0.561365 0.827504 0.137161
Si Si2 0.025847 0.182217 0.676232
Si Si3 0.070821 0.317884 0.936091
Si Si4 0.441552 0.800529 0.855102
Si Si5 0.219586 0.836918 0.776619
Si Si6 0.120692 0.179057 0.256816
Si Si7 0.529289 0.625602 0.919747
O O1 0.441943 0.782375 0.281833
O O2 0.397686 0.790980 0.182852
O O3 0.637302 0.014040 0.091854
O O4 0.755467 0.711298 0.999388
O O5 0.868524 0.306460 0.741285
O O6 0.061919 0.213379 0.731023
O O7 0.930216 0.006510 0.725496
O O8 0.313850 0.321143 0.788998
O O9 0.012973 0.280305 0.895997
O O10 0.000000 0.500000 0.000000
O O11 0.963579 0.196504 0.055649
O O12 0.372864 0.690267 0.962781
O O13 0.314069 0.014471 0.723707
O O14 0.358097 0.218987 0.119955
O O15 0.500000 0.500000 0.000000
#
# Coordination Sequence:
#
# PCOD9251426 Si02
#       7
#     4   4   4   4   4   4   4
#     4  12  25  47  80 117 154 204 256 328 388 475
#     4  12  26  49  75 118 157 199 270 319 395 479
#     4  11  20  48  79 108 151 201 263 325 387 469
#     4  11  24  46  73 115 153 203 261 320 397 458
#     4  12  24  46  81 111 154 202 255 323 391 466
#     4  11  25  47  78 107 158 208 254 331 395 461
#     4  11  26  50  76 114 159 203 260 325 398 476
#
# _framework density 26.237005
#
# number of rings (size 3 to 8) (size 9 to 14) (size 15 to 20)
#    0.000    0.571    4.286    3.429    0.000    3.429 
#   12.857    3.571    0.000    0.000    0.000    0.000 
#    0.000    0.000    0.000    0.000    0.000    0.000 
#
# Total GULP energy -156963.411396 kJ/mol
# GULP energy per Si atom -5605.836121 kJ/mol
# Density = 2.617729 g / cm^3
# Si number density = 26.237005 Si / 1000 Ang^3
#
#
#
# Elastic Constant Matrix: (Units=GPa)
#
#
# Indices 1 2 3 4 5 6 
#
# 1 143.7167 4.9235 17.1203 0.0000 35.1067 0.0000
# 2 4.9235 115.5335 11.8093 0.0000 18.3023 0.0000
# 3 17.1203 11.8093 66.2948 0.0000 15.8102 0.0000
# 4 0.0000 0.0000 0.0000 36.5635 0.0000 -5.2776
# 5 35.1067 18.3023 15.8102 0.0000 49.3892 0.0000
# 6 0.0000 0.0000 0.0000 -5.2776 0.0000 47.9067
#
#
#
# Elastic Compliance Matrix: (Units=1/GPa)
#
#
# Indices 1 2 3 4 5 6 
#
# 1 0.008510 0.000681 -0.000884 0.000000 -0.006019 0.000000
# 2 0.000681 0.009299 -0.000969 0.000000 -0.003620 0.000000
# 3 -0.000884 -0.000969 0.016510 0.000000 -0.004298 0.000000
# 4 0.000000 0.000000 0.000000 0.027792 0.000000 0.003062
# 5 -0.006019 -0.003620 -0.004298 0.000000 0.027243 0.000000
# 6 0.000000 0.000000 0.000000 0.003062 0.000000 0.021211
#
#
# Mechanical properties :
#
#
# Convention : Reuss Voigt Hill
#
# Bulk Modulus (GPa) = 31.27349 43.69458 37.48404
# Shear Modulus (GPa) = 40.46394 46.21801 43.34098
#
# Velocity S-wave (km/s) = 3.93141 4.20165 4.06877
# Velocity P-wave (km/s) = 5.70556 6.34259 6.03249
#
# Compressibility (1/GPa) = 0.03197596
#
# Stress axis : x y z
#
# Youngs Moduli (GPa) = 117.50430 107.53884 60.56958
#
# Poissons Ratio (x) = -0.07325 0.05352
# Poissons Ratio (y) = -0.08004 0.05870
# Poissons Ratio (z) = 0.10384 0.10421
#
# Static dielectric constant tensor:
#      x y z
#    x 2.081510 0.000000 0.004260 
#    y 0.000000 2.003400 0.000000 
#    z 0.004260 0.000000 2.162710 
# 
# From -- ./inp_files/68302.got.cif
#   From: 2010.05.17/outbox.cif.g08.bks.cpg/sg14_35_cif.got.tgz:68302.got - 2010.06.03 17:49:19.
