data_PCOD9252780
_publ_section_title
;
Structure prediction by ZEFSAII (Michael W. Deem and Ramdas Pophale) SiO2 
 PCOD9252780
Probable space group: P 21/C
;
_chemical_formula_sum "Si O2"
_cell_formula_units_Z 30
_cell_length_a 6.397966
_cell_length_b 16.292608
_cell_length_c 15.214672
_cell_angle_alpha 90.000000
_cell_angle_beta 128.965657
_cell_angle_gamma 90.000000
_cell_volume 1233.128670
_symmetry_space_group_name_H-M "P 21/C"
_symmetry_group_IT_number 14
_symmetry_cell_setting 'monoclinic'
loop_
_space_group_symop_operation_xyz
x,y,z
-x,1/2+y,1/2-z
-x,-y,-z
x,1/2-y,1/2+z
loop_
_atom_site_type_symbol
_atom_site_label
_atom_site_fract_x
_atom_site_fract_y
_atom_site_fract_z
Si Si1 0.223394 0.363459 0.268799
Si Si2 0.779187 0.282201 0.377026
Si Si3 0.701429 0.621587 0.503713
Si Si4 0.080263 0.998280 0.387547
Si Si5 0.768208 0.114326 0.424003
Si Si6 0.187701 0.425577 0.732448
Si Si7 0.000000 0.500000 0.500000
Si Si8 0.191259 0.725245 0.314466
O O1 0.481053 0.315371 0.303076
O O2 0.278151 0.379725 0.386091
O O3 0.184678 0.444178 0.200905
O O4 0.950950 0.308908 0.189634
O O5 0.820946 0.209255 0.456761
O O6 0.822436 0.241014 0.293722
O O7 0.994577 0.354100 0.450239
O O8 0.487107 0.691741 0.419838
O O9 0.691273 0.534191 0.454202
O O10 0.256441 0.939987 0.495485
O O11 0.183885 0.018811 0.318828
O O12 0.002112 0.076079 0.425764
O O13 0.487872 0.107357 0.298944
O O14 0.075681 0.473235 0.620085
O O15 0.000137 0.348389 0.705563
#
# Coordination Sequence:
#
# PCOD9252780 Si02
#       8
#     4   4   4   4   4   4   2   4
#     4  11  26  47  72 106 143 190 249 310 365 445
#     4  11  25  46  71 107 141 187 245 305 371 453
#     4  11  28  45  70 109 143 191 246 304 368 447
#     4  11  26  45  71 106 141 189 243 314 359 440
#     4  11  25  46  74 102 143 194 242 301 374 436
#     4  12  25  47  70 105 146 191 248 302 368 441
#     4  12  28  46  74 106 150 204 240 308 374 444
#     4  11  26  45  72 103 144 192 244 305 373 442
#
# _framework density 24.328364000000001
#
# number of rings (size 3 to 8) (size 9 to 14) (size 15 to 20)
#    0.000    0.800    4.000    1.200    7.467    0.533 
#    2.400    0.000    0.000    0.000    0.000    0.000 
#    0.000    0.000    0.000    0.000    0.000    0.000 
#
# Total GULP energy -167408.054363 kJ/mol
# GULP energy per Si atom -5580.268479 kJ/mol
# Density = 2.427299 g / cm^3
# Si number density = 24.328364 Si / 1000 Ang^3
#
#
#
# Elastic Constant Matrix: (Units=GPa)
#
#
# Indices 1 2 3 4 5 6 
#
# 1 63.6143 9.4860 20.6642 0.0000 2.5486 0.0000
# 2 9.4860 17.9566 -9.3758 0.0000 3.7792 0.0000
# 3 20.6642 -9.3758 89.4482 0.0000 -23.6679 0.0000
# 4 0.0000 0.0000 0.0000 34.5359 0.0000 10.2644
# 5 2.5486 3.7792 -23.6679 0.0000 31.7723 0.0000
# 6 0.0000 0.0000 0.0000 10.2644 0.0000 37.2469
#
#
#
# Elastic Compliance Matrix: (Units=1/GPa)
#
#
# Indices 1 2 3 4 5 6 
#
# 1 0.020473 -0.013615 -0.007676 0.000000 -0.005741 0.000000
# 2 -0.013615 0.068199 0.010507 0.000000 0.000807 0.000000
# 3 -0.007676 0.010507 0.017296 0.000000 0.012250 0.000000
# 4 0.000000 0.000000 0.000000 0.031538 0.000000 -0.008691
# 5 -0.005741 0.000807 0.012250 0.000000 0.040963 0.000000
# 6 0.000000 0.000000 0.000000 -0.008691 0.000000 0.029243
#
#
# Mechanical properties :
#
#
# Convention : Reuss Voigt Hill
#
# Bulk Modulus (GPa) = 11.84827 23.61867 17.73347
# Shear Modulus (GPa) = 19.42403 30.72734 25.07568
#
# Velocity S-wave (km/s) = 2.82868 3.55776 3.21396
# Velocity P-wave (km/s) = 3.94326 5.15813 4.59105
#
# Compressibility (1/GPa) = 0.08440052
#
# Stress axis : x y z
#
# Youngs Moduli (GPa) = 48.84396 14.66304 57.81833
#
# Poissons Ratio (x) = 0.19964 0.44380
# Poissons Ratio (y) = 0.66502 -0.60752
# Poissons Ratio (z) = 0.37492 -0.15407
#
# Static dielectric constant tensor:
#      x y z
#    x 1.922360 0.000000 -0.012860 
#    y 0.000000 1.758460 0.000000 
#    z -0.012860 0.000000 1.802510 
# 
# From -- ./inp_files/37925.got.cif
#   From: 2010.05.17/outbox.cif.g08.bks.cpg/sg14_19_cif.got.tgz:37925.got - 2010.06.03 17:49:19.
