data_PCOD9252950
_publ_section_title
;
Structure prediction by ZEFSAII (Michael W. Deem and Ramdas Pophale) SiO2 
 PCOD9252950
Probable space group: P 21/C
;
_chemical_formula_sum "Si O2"
_cell_formula_units_Z 20
_cell_length_a 5.544663
_cell_length_b 7.231698
_cell_length_c 18.654264
_cell_angle_alpha 90.000000
_cell_angle_beta 98.243395
_cell_angle_gamma 90.000000
_cell_volume 740.257897
_symmetry_space_group_name_H-M "P 21/C"
_symmetry_group_IT_number 14
_symmetry_cell_setting 'monoclinic'
loop_
_space_group_symop_operation_xyz
x,y,z
-x,1/2+y,1/2-z
-x,-y,-z
x,1/2-y,1/2+z
loop_
_atom_site_type_symbol
_atom_site_label
_atom_site_fract_x
_atom_site_fract_y
_atom_site_fract_z
Si Si1 0.271287 0.982550 0.041118
Si Si2 0.278541 0.797643 0.652400
Si Si3 0.870902 0.768000 0.354125
Si Si4 0.195812 0.280367 0.807989
Si Si5 0.767777 0.464556 0.045715
O O1 0.294548 0.141756 0.102381
O O2 0.130458 0.714685 0.906736
O O3 0.500000 0.000000 0.000000
O O4 0.000000 0.000000 0.000000
O O5 0.048672 0.686809 0.674007
O O6 0.528163 0.723912 0.696156
O O7 0.284845 0.723247 0.572594
O O8 0.234299 0.018835 0.658486
O O9 0.893629 0.682429 0.276600
O O10 0.238776 0.403368 0.882350
O O11 0.500000 0.500000 0.000000
O O12 0.000000 0.500000 0.000000
#
# Coordination Sequence:
#
# PCOD9252950 Si02
#       5
#     4   4   4   4   4
#     4  12  31  51  80 125 166 219 290 356 428 537
#     4  11  28  51  81 113 166 216 284 344 432 511
#     4  11  30  52  87 118 174 228 280 367 449 505
#     4  11  27  50  82 121 162 221 287 347 429 526
#     4  11  26  49  82 121 164 228 283 348 434 522
#
# _framework density 27.017610000000001
#
# number of rings (size 3 to 8) (size 9 to 14) (size 15 to 20)
#    0.000    0.800    0.000    3.600   19.600    7.200 
#    0.000    0.000    0.000    0.000    0.000    0.000 
#    0.000    0.000    0.000    0.000    0.000    0.000 
#
# Total GULP energy -111364.773345 kJ/mol
# GULP energy per Si atom -5568.238667 kJ/mol
# Density = 2.695612 g / cm^3
# Si number density = 27.017610 Si / 1000 Ang^3
#
#
#
# Elastic Constant Matrix: (Units=GPa)
#
#
# Indices 1 2 3 4 5 6 
#
# 1 236.7699 38.4548 87.7559 0.0000 20.5829 0.0000
# 2 38.4548 126.0899 43.8632 0.0000 4.6823 0.0000
# 3 87.7559 43.8632 201.1432 0.0000 7.5518 0.0000
# 4 0.0000 0.0000 0.0000 -3.9686 0.0000 -6.6966
# 5 20.5829 4.6823 7.5518 0.0000 39.4308 0.0000
# 6 0.0000 0.0000 0.0000 -6.6966 0.0000 28.7289
#
#
#
# Elastic Compliance Matrix: (Units=1/GPa)
#
#
# Indices 1 2 3 4 5 6 
#
# 1 0.005317 -0.000822 -0.002055 0.000000 -0.002284 0.000000
# 2 -0.000822 0.008726 -0.001533 0.000000 -0.000314 0.000000
# 3 -0.002055 -0.001533 0.006200 0.000000 0.000067 0.000000
# 4 0.000000 0.000000 0.000000 -0.180847 0.000000 -0.042154
# 5 -0.002284 -0.000314 0.000067 0.000000 0.026578 0.000000
# 6 0.000000 0.000000 0.000000 -0.042154 0.000000 0.024982
#
#
# Mechanical properties :
#
#
# Convention : Reuss Voigt Hill
#
# Bulk Modulus (GPa) = 87.53060 100.46119 93.99590
# Shear Modulus (GPa) = -51.85789 39.10017 -6.37886
#
# Velocity S-wave (km/s) = -4.38586 3.80835 -1.53822
# Velocity P-wave (km/s) = 2.61156 7.52345 5.63128
#
# Compressibility (1/GPa) = 0.01142458
#
# Stress axis : x y z
#
# Youngs Moduli (GPa) = 188.06933 114.59592 161.29712
#
# Poissons Ratio (x) = 0.09420 0.33143
# Poissons Ratio (y) = 0.15459 0.24720
# Poissons Ratio (z) = 0.38644 0.17562
#
# Static dielectric constant tensor:
#      x y z
#    x 2.211300 0.000000 0.046980 
#    y 0.000000 2.241680 0.000000 
#    z 0.046980 0.000000 2.091240 
# 
# From -- ./inp_files/62937.got.cif
#   From: 2010.05.17/outbox.cif.g08.bks.cpg/sg14_32_cif.got.tgz:62937.got - 2010.06.03 17:49:19.
