data_PCOD9252864
_publ_section_title
;
Structure prediction by ZEFSAII (Michael W. Deem and Ramdas Pophale) SiO2 
 PCOD9252864
Probable space group: P 21/C
;
_chemical_formula_sum "Si O2"
_cell_formula_units_Z 16
_cell_length_a 7.064838
_cell_length_b 12.357382
_cell_length_c 10.776613
_cell_angle_alpha 90.000000
_cell_angle_beta 140.256003
_cell_angle_gamma 90.000000
_cell_volume 601.527343
_symmetry_space_group_name_H-M "P 21/C"
_symmetry_group_IT_number 14
_symmetry_cell_setting 'monoclinic'
loop_
_space_group_symop_operation_xyz
x,y,z
-x,1/2+y,1/2-z
-x,-y,-z
x,1/2-y,1/2+z
loop_
_atom_site_type_symbol
_atom_site_label
_atom_site_fract_x
_atom_site_fract_y
_atom_site_fract_z
Si Si1 0.761983 0.013343 0.030701
Si Si2 0.292731 0.651590 0.840847
Si Si3 0.099246 0.748443 0.488980
Si Si4 0.715948 0.929774 0.383724
O O1 0.563733 0.004056 0.807634
O O2 0.908898 0.129885 0.077384
O O3 0.500000 0.000000 0.000000
O O4 0.010954 0.926660 0.182539
O O5 0.232056 0.736921 0.696126
O O6 0.283906 0.689615 0.976764
O O7 0.389489 0.398552 0.033121
O O8 0.000000 0.500000 0.000000
O O9 0.798315 0.817605 0.355045
#
# Coordination Sequence:
#
# PCOD9252864 Si02
#       4
#     4   4   4   4
#     4  11  25  51  75 108 160 202 253 321 389 456
#     4  11  27  49  77 112 155 202 256 323 381 465
#     4  11  26  44  78 109 152 199 258 307 391 449
#     4  11  26  47  77 114 152 199 257 319 386 462
#
# _framework density 26.598956999999999
#
# number of rings (size 3 to 8) (size 9 to 14) (size 15 to 20)
#    0.000    1.000    2.500    3.000    7.000    7.000 
#    0.000    0.000    0.000    0.000    0.000    0.000 
#    0.000    0.000    0.000    0.000    0.000    0.000 
#
# Total GULP energy -89461.110797 kJ/mol
# GULP energy per Si atom -5591.319425 kJ/mol
# Density = 2.653842 g / cm^3
# Si number density = 26.598957 Si / 1000 Ang^3
#
#
#
# Elastic Constant Matrix: (Units=GPa)
#
#
# Indices 1 2 3 4 5 6 
#
# 1 234.8469 78.3376 46.3627 0.0000 -28.1519 0.0000
# 2 78.3376 111.2726 35.3275 0.0000 8.8266 0.0000
# 3 46.3627 35.3275 104.2738 0.0000 -5.8795 0.0000
# 4 0.0000 0.0000 0.0000 36.1146 0.0000 -15.3806
# 5 -28.1519 8.8266 -5.8795 0.0000 59.3212 0.0000
# 6 0.0000 0.0000 0.0000 -15.3806 0.0000 47.8213
#
#
#
# Elastic Compliance Matrix: (Units=1/GPa)
#
#
# Indices 1 2 3 4 5 6 
#
# 1 0.006385 -0.004416 -0.001141 0.000000 0.003574 0.000000
# 2 -0.004416 0.013330 -0.002798 0.000000 -0.004357 0.000000
# 3 -0.001141 -0.002798 0.011101 0.000000 0.000975 0.000000
# 4 0.000000 0.000000 0.000000 0.032084 0.000000 0.010319
# 5 0.003574 -0.004357 0.000975 0.000000 0.019298 0.000000
# 6 0.000000 0.000000 0.000000 0.010319 0.000000 0.024230
#
#
# Mechanical properties :
#
#
# Convention : Reuss Voigt Hill
#
# Bulk Modulus (GPa) = 70.90097 85.60543 78.25320
# Shear Modulus (GPa) = 39.11099 48.00912 43.56005
#
# Velocity S-wave (km/s) = 3.83873 4.25305 4.05119
# Velocity P-wave (km/s) = 6.80891 7.50810 7.16703
#
# Compressibility (1/GPa) = 0.01410418
#
# Stress axis : x y z
#
# Youngs Moduli (GPa) = 156.61780 75.01827 90.08593
#
# Poissons Ratio (x) = 0.33131 0.10280
# Poissons Ratio (y) = 0.69168 0.25208
# Poissons Ratio (z) = 0.17872 0.20992
#
# Static dielectric constant tensor:
#      x y z
#    x 2.022760 0.000000 -0.040410 
#    y 0.000000 2.233460 0.000000 
#    z -0.040410 0.000000 2.115380 
# 
# From -- ./inp_files/7734.got.cif
#   From: 2010.05.17/outbox.cif.g08.bks.cpg/sg14_4_cif.got.tgz:7734.got - 2010.06.03 17:49:19.
