data_PCOD9252262
_publ_section_title
;
Structure prediction by ZEFSAII (Michael W. Deem and Ramdas Pophale) SiO2 
 PCOD9252262
Probable space group: P 21/C
;
_chemical_formula_sum "Si O2"
_cell_formula_units_Z 22
_cell_length_a 11.241644
_cell_length_b 5.518253
_cell_length_c 13.305376
_cell_angle_alpha 90.000000
_cell_angle_beta 98.212828
_cell_angle_gamma 90.000000
_cell_volume 816.923869
_symmetry_space_group_name_H-M "P 21/C"
_symmetry_group_IT_number 14
_symmetry_cell_setting 'monoclinic'
loop_
_space_group_symop_operation_xyz
x,y,z
-x,1/2+y,1/2-z
-x,-y,-z
x,1/2-y,1/2+z
loop_
_atom_site_type_symbol
_atom_site_label
_atom_site_fract_x
_atom_site_fract_y
_atom_site_fract_z
Si Si1 0.271515 0.396031 0.313021
Si Si2 0.440002 0.154283 0.208286
Si Si3 0.141437 0.735370 0.662281
Si Si4 0.900493 0.959184 0.641979
Si Si5 0.500000 0.500000 0.500000
Si Si6 0.707871 0.300333 0.505278
O O1 0.319296 0.165995 0.260026
O O2 0.240090 0.597999 0.229028
O O3 0.347864 0.507271 0.414637
O O4 0.154175 0.309505 0.357402
O O5 0.493337 0.412505 0.248708
O O6 0.433063 0.147872 0.088423
O O7 0.088549 0.567130 0.743980
O O8 0.207206 0.616607 0.575536
O O9 0.034066 0.918577 0.616127
O O10 0.798842 0.118811 0.573245
O O11 0.572984 0.239131 0.460214
#
# Coordination Sequence:
#
# PCOD9252262 Si02
#       6
#     4   4   4   4   2   4
#     4  11  25  46  73 108 151 202 254 340 394 484
#     4  12  28  52  80 115 165 212 272 341 399 490
#     4  11  24  45  73 108 153 202 262 331 413 487
#     4  11  23  46  70 107 153 199 262 327 411 482
#     4  12  26  50  78 118 154 224 262 336 416 484
#     4  11  26  44  74 112 147 202 270 323 400 499
#
# _framework density 26.930295999999998
#
# number of rings (size 3 to 8) (size 9 to 14) (size 15 to 20)
#    0.000    0.727    3.636    2.727    5.091    4.364 
#    0.000    0.000    0.000    0.000    0.000    0.000 
#    0.000    0.000    0.000    0.000    0.000    0.000 
#
# Total GULP energy -122532.487899 kJ/mol
# GULP energy per Si atom -5569.658541 kJ/mol
# Density = 2.686900 g / cm^3
# Si number density = 26.930296 Si / 1000 Ang^3
#
#
#
# Elastic Constant Matrix: (Units=GPa)
#
#
# Indices 1 2 3 4 5 6 
#
# 1 183.6881 36.4187 59.7772 0.0000 -19.0154 0.0000
# 2 36.4187 77.3243 30.3510 0.0000 0.8807 0.0000
# 3 59.7772 30.3510 115.8865 0.0000 -24.6068 0.0000
# 4 0.0000 0.0000 0.0000 34.6144 0.0000 -11.1750
# 5 -19.0154 0.8807 -24.6068 0.0000 43.0397 0.0000
# 6 0.0000 0.0000 0.0000 -11.1750 0.0000 52.2085
#
#
#
# Elastic Compliance Matrix: (Units=1/GPa)
#
#
# Indices 1 2 3 4 5 6 
#
# 1 0.006912 -0.002236 -0.002642 0.000000 0.001589 0.000000
# 2 -0.002236 0.015439 -0.003604 0.000000 -0.003365 0.000000
# 3 -0.002642 -0.003604 0.012183 0.000000 0.005872 0.000000
# 4 0.000000 0.000000 0.000000 0.031034 0.000000 0.006643
# 5 0.001589 -0.003365 0.005872 0.000000 0.027362 0.000000
# 6 0.000000 0.000000 0.000000 0.006643 0.000000 0.020576
#
#
# Mechanical properties :
#
#
# Convention : Reuss Voigt Hill
#
# Bulk Modulus (GPa) = 56.92277 69.99918 63.46097
# Shear Modulus (GPa) = 36.67645 42.66265 39.66955
#
# Velocity S-wave (km/s) = 3.69440 3.98450 3.84219
# Velocity P-wave (km/s) = 6.27544 6.87150 6.58022
#
# Compressibility (1/GPa) = 0.01756766
#
# Stress axis : x y z
#
# Youngs Moduli (GPa) = 144.68219 64.77140 82.08316
#
# Poissons Ratio (x) = 0.14485 0.21688
# Poissons Ratio (y) = 0.32356 0.29586
# Poissons Ratio (z) = 0.38227 0.23346
#
# Static dielectric constant tensor:
#      x y z
#    x 2.410270 0.000000 0.064850 
#    y 0.000000 2.200110 0.000000 
#    z 0.064850 0.000000 2.208130 
# 
# From -- ./inp_files/42622.got.cif
#   From: 2010.05.17/outbox.cif.g08.bks.cpg/sg14_22_cif.got.tgz:42622.got - 2010.06.03 17:49:19.
