data_PCOD9252466
_publ_section_title
;
Structure prediction by ZEFSAII (Michael W. Deem and Ramdas Pophale) SiO2 
 PCOD9252466
Probable space group: P 21/C
;
_chemical_formula_sum "Si O2"
_cell_formula_units_Z 20
_cell_length_a 12.137102
_cell_length_b 5.397471
_cell_length_c 16.394863
_cell_angle_alpha 90.000000
_cell_angle_beta 48.847517
_cell_angle_gamma 90.000000
_cell_volume 808.696470
_symmetry_space_group_name_H-M "P 21/C"
_symmetry_group_IT_number 14
_symmetry_cell_setting 'monoclinic'
loop_
_space_group_symop_operation_xyz
x,y,z
-x,1/2+y,1/2-z
-x,-y,-z
x,1/2-y,1/2+z
loop_
_atom_site_type_symbol
_atom_site_label
_atom_site_fract_x
_atom_site_fract_y
_atom_site_fract_z
Si Si1 0.992613 0.055328 0.369628
Si Si2 0.680884 0.803425 0.532241
Si Si3 0.367005 0.587129 0.164612
Si Si4 0.286251 0.088453 0.297794
Si Si5 0.192429 0.896032 0.123094
O O1 0.851073 0.881134 0.438921
O O2 0.089228 0.022773 0.240568
O O3 0.913315 0.317344 0.399084
O O4 0.112346 0.035917 0.381113
O O5 0.539602 0.945182 0.567274
O O6 0.661613 0.828744 0.638811
O O7 0.679745 0.549912 0.481642
O O8 0.311969 0.328013 0.228219
O O9 0.264708 0.671932 0.139443
O O10 0.354046 0.831317 0.230750
#
# Coordination Sequence:
#
# PCOD9252466 Si02
#       5
#     4   4   4   4   4
#     4  11  24  44  70 101 144 187 237 293 350 419
#     4  12  26  44  74 106 138 190 240 292 352 422
#     4  11  27  48  72 104 146 187 234 293 355 421
#     4  11  27  48  72 104 146 187 234 293 355 421
#     4  11  24  44  70 101 144 187 237 293 350 419
#
# _framework density 24.731159000000002
#
# number of rings (size 3 to 8) (size 9 to 14) (size 15 to 20)
#    0.000    0.800    2.000    3.600   11.200    1.600 
#    0.000    0.000    0.000    0.000    0.000    0.000 
#    0.000    0.000    0.000    0.000    0.000    0.000 
#
# Total GULP energy -111668.215693 kJ/mol
# GULP energy per Si atom -5583.410785 kJ/mol
# Density = 2.467487 g / cm^3
# Si number density = 24.731159 Si / 1000 Ang^3
#
#
#
# Elastic Constant Matrix: (Units=GPa)
#
#
# Indices 1 2 3 4 5 6 
#
# 1 144.3654 12.4868 21.2414 0.0000 -18.2147 0.0000
# 2 12.4868 119.6372 50.8559 0.0000 -6.9190 0.0000
# 3 21.2414 50.8559 77.6179 0.0000 -19.2365 0.0000
# 4 0.0000 0.0000 0.0000 10.6254 0.0000 -26.6932
# 5 -18.2147 -6.9190 -19.2365 0.0000 39.8256 0.0000
# 6 0.0000 0.0000 0.0000 -26.6932 0.0000 28.4254
#
#
#
# Elastic Compliance Matrix: (Units=1/GPa)
#
#
# Indices 1 2 3 4 5 6 
#
# 1 0.007476 -0.000059 -0.001321 0.000000 0.002771 0.000000
# 2 -0.000059 0.011711 -0.008133 0.000000 -0.001921 0.000000
# 3 -0.001321 -0.008133 0.020532 0.000000 0.007900 0.000000
# 4 0.000000 0.000000 0.000000 -0.069246 0.000000 -0.065026
# 5 0.002771 -0.001921 0.007900 0.000000 0.029859 0.000000
# 6 0.000000 0.000000 0.000000 -0.065026 0.000000 -0.025884
#
#
# Mechanical properties :
#
#
# Convention : Reuss Voigt Hill
#
# Bulk Modulus (GPa) = 48.32342 56.75432 52.53887
# Shear Modulus (GPa) = 13497.62729 32.91103 6765.26916
#
# Velocity S-wave (km/s) = 73.95667 3.65190 52.35898
# Velocity P-wave (km/s) = 85.51239 6.38594 60.63476
#
# Compressibility (1/GPa) = 0.02069390
#
# Stress axis : x y z
#
# Youngs Moduli (GPa) = 133.76332 85.39081 48.70479
#
# Poissons Ratio (x) = 0.00500 0.06433
# Poissons Ratio (y) = 0.00784 0.39612
# Poissons Ratio (z) = 0.17667 0.69449
#
# Static dielectric constant tensor:
#      x y z
#    x 1.894450 0.000000 0.038280 
#    y 0.000000 2.139960 0.000000 
#    z 0.038280 0.000000 2.006530 
# 
# From -- ./inp_files/56481.got.cif
#   From: 2010.05.17/outbox.cif.g08.bks.cpg/sg14_29_cif.got.tgz:56481.got - 2010.06.03 17:49:19.
