data_PCOD9252577
_publ_section_title
;
Structure prediction by ZEFSAII (Michael W. Deem and Ramdas Pophale) SiO2 
 PCOD9252577
Probable space group: P 21/C
;
_chemical_formula_sum "Si O2"
_cell_formula_units_Z 26
_cell_length_a 5.666700
_cell_length_b 11.053230
_cell_length_c 17.709591
_cell_angle_alpha 90.000000
_cell_angle_beta 86.503656
_cell_angle_gamma 90.000000
_cell_volume 1107.181577
_symmetry_space_group_name_H-M "P 21/C"
_symmetry_group_IT_number 14
_symmetry_cell_setting 'monoclinic'
loop_
_space_group_symop_operation_xyz
x,y,z
-x,1/2+y,1/2-z
-x,-y,-z
x,1/2-y,1/2+z
loop_
_atom_site_type_symbol
_atom_site_label
_atom_site_fract_x
_atom_site_fract_y
_atom_site_fract_z
Si Si1 0.257492 0.465565 0.461975
Si Si2 0.878230 0.544719 0.195913
Si Si3 0.403033 0.278041 0.896225
Si Si4 0.500000 0.500000 0.000000
Si Si5 0.191386 0.350179 0.126348
Si Si6 0.539814 0.342777 0.247591
Si Si7 0.860736 0.143402 0.164792
O O1 0.500000 0.500000 0.500000
O O2 0.279353 0.322654 0.449055
O O3 0.255364 0.541570 0.384284
O O4 0.000000 0.500000 0.500000
O O5 0.793068 0.659512 0.151982
O O6 0.658840 0.472658 0.235768
O O7 0.990367 0.453294 0.132776
O O8 0.041076 0.583753 0.261287
O O9 0.557549 0.204077 0.832498
O O10 0.525931 0.388117 0.937635
O O11 0.382373 0.400730 0.063689
O O12 0.288975 0.348024 0.210503
O O13 0.069148 0.219573 0.118454
O O14 0.677268 0.245290 0.193865
#
# Coordination Sequence:
#
# PCOD9252577 Si02
#       7
#     4   4   4   2   4   4   4
#     4  12  32  52  77 116 165 221 268 330 419 505
#     4  11  25  46  77 116 145 202 274 335 402 484
#     4  12  27  46  81 113 160 210 273 337 418 485
#     4  12  26  46  74 112 156 202 262 334 412 492
#     4  11  24  46  74 110 155 203 262 336 417 481
#     4  11  25  48  75 111 151 206 264 344 397 489
#     4  11  26  45  78 107 156 204 278 335 406 489
#
# _framework density 23.483051
#
# number of rings (size 3 to 8) (size 9 to 14) (size 15 to 20)
#    0.000    0.615    3.077    2.769   10.769    1.846 
#    0.000    0.000    0.000    0.000    0.000    0.000 
#    0.000    0.000    0.000    0.000    0.000    0.000 
#
# Total GULP energy -144899.236410 kJ/mol
# GULP energy per Si atom -5573.047554 kJ/mol
# Density = 2.342960 g / cm^3
# Si number density = 23.483051 Si / 1000 Ang^3
#
#
#
# Elastic Constant Matrix: (Units=GPa)
#
#
# Indices 1 2 3 4 5 6 
#
# 1 56.2886 33.8679 9.6563 0.0000 5.6465 0.0000
# 2 33.8679 146.3536 41.4210 0.0000 21.4879 0.0000
# 3 9.6563 41.4210 78.7545 0.0000 -13.0653 0.0000
# 4 0.0000 0.0000 0.0000 4.5083 0.0000 -34.6716
# 5 5.6465 21.4879 -13.0653 0.0000 27.9015 0.0000
# 6 0.0000 0.0000 0.0000 -34.6716 0.0000 12.8647
#
#
#
# Elastic Compliance Matrix: (Units=1/GPa)
#
#
# Indices 1 2 3 4 5 6 
#
# 1 0.020650 -0.004603 -0.000234 0.000000 -0.000744 0.000000
# 2 -0.004603 0.011743 -0.007543 0.000000 -0.011644 0.000000
# 3 -0.000234 -0.007543 0.019153 0.000000 0.014826 0.000000
# 4 0.000000 0.000000 0.000000 -0.011244 0.000000 -0.030304
# 5 -0.000744 -0.011644 0.014826 0.000000 0.051901 0.000000
# 6 0.000000 0.000000 0.000000 -0.030304 0.000000 -0.003940
#
#
# Mechanical properties :
#
#
# Convention : Reuss Voigt Hill
#
# Bulk Modulus (GPa) = 37.33517 50.14301 43.73909
# Shear Modulus (GPa) = 40.99984 22.15165 31.57574
#
# Velocity S-wave (km/s) = 4.18297 3.07466 3.67088
# Velocity P-wave (km/s) = 6.26601 5.83129 6.05255
#
# Compressibility (1/GPa) = 0.02678440
#
# Stress axis : x y z
#
# Youngs Moduli (GPa) = 48.42607 85.16072 52.21010
#
# Poissons Ratio (x) = 0.39201 0.01223
# Poissons Ratio (y) = 0.22291 0.39384
# Poissons Ratio (z) = 0.01135 0.64239
#
# Static dielectric constant tensor:
#      x y z
#    x 1.959750 0.000000 -0.047590 
#    y 0.000000 2.011830 0.000000 
#    z -0.047590 0.000000 1.894470 
# 
# From -- ./inp_files/53015.got.cif
#   From: 2010.05.17/outbox.cif.g08.bks.cpg/sg14_27_cif.got.tgz:53015.got - 2010.06.03 17:49:19.
