data_PCOD9252563
_publ_section_title
;
Structure prediction by ZEFSAII (Michael W. Deem and Ramdas Pophale) SiO2 
 PCOD9252563
Probable space group: P 21/C
;
_chemical_formula_sum "Si O2"
_cell_formula_units_Z 12
_cell_length_a 10.887003
_cell_length_b 7.283218
_cell_length_c 11.032235
_cell_angle_alpha 90.000000
_cell_angle_beta 32.815955
_cell_angle_gamma 90.000000
_cell_volume 474.076223
_symmetry_space_group_name_H-M "P 21/C"
_symmetry_group_IT_number 14
_symmetry_cell_setting 'monoclinic'
loop_
_space_group_symop_operation_xyz
x,y,z
-x,1/2+y,1/2-z
-x,-y,-z
x,1/2-y,1/2+z
loop_
_atom_site_type_symbol
_atom_site_label
_atom_site_fract_x
_atom_site_fract_y
_atom_site_fract_z
Si Si1 0.249441 0.073486 0.764345
Si Si2 0.923015 0.934874 0.697789
Si Si3 0.661972 0.286808 0.995756
O O1 0.205617 0.243022 0.710809
O O2 0.402099 0.164540 0.745022
O O3 0.346812 0.884476 0.628696
O O4 0.000000 0.000000 0.000000
O O5 0.152400 0.895268 0.581294
O O6 0.758819 0.084797 0.895395
O O7 0.000000 0.000000 0.500000
#
# Coordination Sequence:
#
# PCOD9252563 Si02
#       3
#     4   4   4
#     4  11  24  46  70 103 141 188 240 290 365 424
#     4  12  24  45  73 108 140 192 241 292 369 428
#     4  11  25  45  70 101 147 184 235 305 349 431
#
# _framework density 25.312383000000001
#
# number of rings (size 3 to 8) (size 9 to 14) (size 15 to 20)
#    0.000    0.667    6.667    1.000    0.000    2.667 
#    6.000    0.000    0.000    0.000    0.000    0.000 
#    0.000    0.000    0.000    0.000    0.000    0.000 
#
# Total GULP energy -66996.662198 kJ/mol
# GULP energy per Si atom -5583.055183 kJ/mol
# Density = 2.525477 g / cm^3
# Si number density = 25.312383 Si / 1000 Ang^3
#
#
#
# Elastic Constant Matrix: (Units=GPa)
#
#
# Indices 1 2 3 4 5 6 
#
# 1 153.9796 83.6810 61.7767 0.0000 -69.2542 0.0000
# 2 83.6810 197.5747 62.0169 0.0000 -26.9911 0.0000
# 3 61.7767 62.0169 59.5411 0.0000 -26.0896 0.0000
# 4 0.0000 0.0000 0.0000 26.1896 0.0000 -5.6909
# 5 -69.2542 -26.9911 -26.0896 0.0000 56.7614 0.0000
# 6 0.0000 0.0000 0.0000 -5.6909 0.0000 54.8413
#
#
#
# Elastic Compliance Matrix: (Units=1/GPa)
#
#
# Indices 1 2 3 4 5 6 
#
# 1 0.020936 -0.003071 -0.009981 0.000000 0.019497 0.000000
# 2 -0.003071 0.007971 -0.006382 0.000000 -0.002890 0.000000
# 3 -0.009981 -0.006382 0.033975 0.000000 0.000404 0.000000
# 4 0.000000 0.000000 0.000000 0.039064 0.000000 0.004054
# 5 0.019497 -0.002890 0.000404 0.000000 0.040216 0.000000
# 6 0.000000 0.000000 0.000000 0.004054 0.000000 0.018655
#
#
# Mechanical properties :
#
#
# Convention : Reuss Voigt Hill
#
# Bulk Modulus (GPa) = 41.64205 91.78275 66.71240
# Shear Modulus (GPa) = 24.07431 41.13317 32.60374
#
# Velocity S-wave (km/s) = 3.08732 4.03553 3.59284
# Velocity P-wave (km/s) = 5.40330 7.61923 6.60486
#
# Compressibility (1/GPa) = 0.02401419
#
# Stress axis : x y z
#
# Youngs Moduli (GPa) = 47.76348 125.46232 29.43335
#
# Poissons Ratio (x) = 0.38531 0.29377
# Poissons Ratio (y) = 0.14669 0.18784
# Poissons Ratio (z) = 0.47672 0.80070
#
# Static dielectric constant tensor:
#      x y z
#    x 2.247500 0.000000 -0.650540 
#    y 0.000000 1.955540 0.000000 
#    z -0.650540 0.000000 4.084400 
# 
# From -- ./inp_files/20082.got.cif
#   From: 2010.05.17/outbox.cif.g08.bks.cpg/sg14_11_cif.got.tgz:20082.got - 2010.06.03 17:49:19.
