data_PCOD9252626
_publ_section_title
;
Structure prediction by ZEFSAII (Michael W. Deem and Ramdas Pophale) SiO2 
 PCOD9252626
Probable space group: P 21/C
;
_chemical_formula_sum "Si O2"
_cell_formula_units_Z 20
_cell_length_a 19.286332
_cell_length_b 6.705754
_cell_length_c 9.525686
_cell_angle_alpha 90.000000
_cell_angle_beta 49.224990
_cell_angle_gamma 90.000000
_cell_volume 932.932005
_symmetry_space_group_name_H-M "P 21/C"
_symmetry_group_IT_number 14
_symmetry_cell_setting 'monoclinic'
loop_
_space_group_symop_operation_xyz
x,y,z
-x,1/2+y,1/2-z
-x,-y,-z
x,1/2-y,1/2+z
loop_
_atom_site_type_symbol
_atom_site_label
_atom_site_fract_x
_atom_site_fract_y
_atom_site_fract_z
Si Si1 0.683614 0.999594 0.711050
Si Si2 0.376134 0.781803 0.939326
Si Si3 0.889174 0.950040 0.521384
Si Si4 0.558028 0.632730 0.814376
Si Si5 0.012436 0.307179 0.387316
O O1 0.784726 0.929630 0.615361
O O2 0.612021 0.817682 0.809137
O O3 0.677683 0.107145 0.567908
O O4 0.655044 0.164609 0.863575
O O5 0.482547 0.718222 0.806560
O O6 0.372484 0.986379 0.856727
O O7 0.952241 0.865169 0.312717
O O8 0.914905 0.834717 0.629310
O O9 0.919429 0.179533 0.500165
O O10 0.500000 0.500000 0.000000
O O11 0.000000 0.500000 0.500000
#
# Coordination Sequence:
#
# PCOD9252626 Si02
#       5
#     4   4   4   4   4
#     4  12  29  42  71 107 138 182 238 291 337 420
#     4  12  25  45  67  99 140 183 229 286 349 403
#     4  11  27  45  73 106 137 185 232 288 351 412
#     4  12  24  45  69  97 140 185 232 282 351 406
#     4  11  24  48  72 100 144 183 226 287 359 417
#
# _framework density 21.43779
#
# number of rings (size 3 to 8) (size 9 to 14) (size 15 to 20)
#    0.000    0.400    6.000    1.800    5.600    1.600 
#    0.000    0.000    0.000    0.000    0.000    0.000 
#    0.000    0.000    0.000    0.000    0.000    0.000 
#
# Total GULP energy -111930.029150 kJ/mol
# GULP energy per Si atom -5596.501457 kJ/mol
# Density = 2.138900 g / cm^3
# Si number density = 21.437790 Si / 1000 Ang^3
#
#
#
# Elastic Constant Matrix: (Units=GPa)
#
#
# Indices 1 2 3 4 5 6 
#
# 1 98.5167 20.3773 -1.5226 0.0000 1.2057 0.0000
# 2 20.3773 90.6119 21.4146 0.0000 11.3582 0.0000
# 3 -1.5226 21.4146 24.7873 0.0000 19.0271 0.0000
# 4 0.0000 0.0000 0.0000 38.1622 0.0000 19.4854
# 5 1.2057 11.3582 19.0271 0.0000 26.5074 0.0000
# 6 0.0000 0.0000 0.0000 19.4854 0.0000 30.1743
#
#
#
# Elastic Compliance Matrix: (Units=1/GPa)
#
#
# Indices 1 2 3 4 5 6 
#
# 1 0.011040 -0.003584 0.006639 0.000000 -0.003732 0.000000
# 2 -0.003584 0.015461 -0.019192 0.000000 0.007314 0.000000
# 3 0.006639 -0.019192 0.114142 0.000000 -0.074010 0.000000
# 4 0.000000 0.000000 0.000000 0.039094 0.000000 -0.025245
# 5 -0.003732 0.007314 -0.074010 0.000000 0.087886 0.000000
# 6 0.000000 0.000000 0.000000 -0.025245 0.000000 0.049443
#
#
# Mechanical properties :
#
#
# Convention : Reuss Voigt Hill
#
# Bulk Modulus (GPa) = 9.22754 32.71716 20.97235
# Shear Modulus (GPa) = 12.97143 30.54525 21.75834
#
# Velocity S-wave (km/s) = 2.46249 3.77879 3.18929
# Velocity P-wave (km/s) = 3.52120 5.85949 4.83386
#
# Compressibility (1/GPa) = 0.10837120
#
# Stress axis : x y z
#
# Youngs Moduli (GPa) = 90.57820 64.67926 8.76098
#
# Poissons Ratio (x) = 0.23182 -0.05817
# Poissons Ratio (y) = 0.32464 0.16814
# Poissons Ratio (z) = -0.60139 1.24130
#
# Static dielectric constant tensor:
#      x y z
#    x 1.764490 0.000000 0.026680 
#    y 0.000000 1.795680 0.000000 
#    z 0.026680 0.000000 1.772040 
# 
# From -- ./inp_files/17278.got.cif
#   From: 2010.05.17/outbox.cif.g08.bks.cpg/sg14_9_cif.got.tgz:17278.got - 2010.06.03 17:49:19.
