data_PCOD9252131
_publ_section_title
;
Structure prediction by ZEFSAII (Michael W. Deem and Ramdas Pophale) SiO2 
 PCOD9252131
Probable space group: P 21/C
;
_chemical_formula_sum "Si O2"
_cell_formula_units_Z 20
_cell_length_a 6.205068
_cell_length_b 15.875653
_cell_length_c 8.316518
_cell_angle_alpha 90.000000
_cell_angle_beta 78.297000
_cell_angle_gamma 90.000000
_cell_volume 802.225545
_symmetry_space_group_name_H-M "P 21/C"
_symmetry_group_IT_number 14
_symmetry_cell_setting 'monoclinic'
loop_
_space_group_symop_operation_xyz
x,y,z
-x,1/2+y,1/2-z
-x,-y,-z
x,1/2-y,1/2+z
loop_
_atom_site_type_symbol
_atom_site_label
_atom_site_fract_x
_atom_site_fract_y
_atom_site_fract_z
Si Si1 0.767185 0.668468 0.943749
Si Si2 0.468142 0.657203 0.724074
Si Si3 0.230951 0.012048 0.374878
Si Si4 0.064773 0.786154 0.108964
Si Si5 0.126075 0.081686 0.045790
O O1 0.575769 0.706586 0.858480
O O2 0.947866 0.663245 0.773723
O O3 0.663069 0.582433 0.026139
O O4 0.904546 0.711805 0.068695
O O5 0.343465 0.575943 0.815606
O O6 0.307809 0.717143 0.645536
O O7 0.658500 0.615892 0.581961
O O8 0.195159 0.058440 0.212156
O O9 0.000000 0.000000 0.500000
O O10 0.053435 0.844861 0.952246
O O11 0.000000 0.000000 0.000000
#
# Coordination Sequence:
#
# PCOD9252131 Si02
#       5
#     4   4   4   4   4
#     4  11  25  44  69 105 146 192 251 301 364 446
#     4  11  24  46  75 107 145 198 245 302 381 425
#     4  12  22  45  73 109 147 187 248 308 361 438
#     4  11  24  46  68 103 152 191 247 302 365 447
#     4  11  23  43  73 107 147 186 246 301 359 446
#
# _framework density 24.930648000000001
#
# number of rings (size 3 to 8) (size 9 to 14) (size 15 to 20)
#    0.000    0.800    4.000    3.600    0.000    3.200 
#    0.000    0.000    0.000    0.000    0.000    0.000 
#    0.000    0.000    0.000    0.000    0.000    0.000 
#
# Total GULP energy -111426.552086 kJ/mol
# GULP energy per Si atom -5571.327604 kJ/mol
# Density = 2.487390 g / cm^3
# Si number density = 24.930648 Si / 1000 Ang^3
#
#
#
# Elastic Constant Matrix: (Units=GPa)
#
#
# Indices 1 2 3 4 5 6 
#
# 1 165.1084 42.3801 76.2402 0.0000 46.6753 0.0000
# 2 42.3801 74.4687 20.7724 0.0000 5.4342 0.0000
# 3 76.2402 20.7724 142.1008 0.0000 -1.0866 0.0000
# 4 0.0000 0.0000 0.0000 55.3623 0.0000 1.2795
# 5 46.6753 5.4342 -1.0866 0.0000 50.2732 0.0000
# 6 0.0000 0.0000 0.0000 1.2795 0.0000 48.9752
#
#
#
# Elastic Compliance Matrix: (Units=1/GPa)
#
#
# Indices 1 2 3 4 5 6 
#
# 1 0.014236 -0.005223 -0.006973 0.000000 -0.012804 0.000000
# 2 -0.005223 0.016038 0.000481 0.000000 0.003126 0.000000
# 3 -0.006973 0.000481 0.010759 0.000000 0.006654 0.000000
# 4 0.000000 0.000000 0.000000 0.018074 0.000000 -0.000472
# 5 -0.012804 0.003126 0.006654 0.000000 0.031585 0.000000
# 6 0.000000 0.000000 0.000000 -0.000472 0.000000 0.020431
#
#
# Mechanical properties :
#
#
# Convention : Reuss Voigt Hill
#
# Bulk Modulus (GPa) = 56.79931 73.38480 65.09206
# Shear Modulus (GPa) = 35.60777 47.07448 41.34112
#
# Velocity S-wave (km/s) = 3.78335 4.35008 4.07657
# Velocity P-wave (km/s) = 6.47436 7.39800 6.95154
#
# Compressibility (1/GPa) = 0.01760585
#
# Stress axis : x y z
#
# Youngs Moduli (GPa) = 70.24254 62.35088 92.94790
#
# Poissons Ratio (x) = 0.32564 0.64809
# Poissons Ratio (y) = 0.36685 -0.04475
# Poissons Ratio (z) = 0.48977 -0.03002
#
# Static dielectric constant tensor:
#      x y z
#    x 2.125050 0.000000 -0.001490 
#    y 0.000000 2.112900 0.000000 
#    z -0.001490 0.000000 1.947810 
# 
# From -- ./inp_files/5462.got.cif
#   From: 2010.05.17/outbox.cif.g08.bks.cpg/sg14_3_cif.got.tgz:5462.got - 2010.06.03 17:49:19.
