data_PCOD9252046
_publ_section_title
;
Structure prediction by ZEFSAII (Michael W. Deem and Ramdas Pophale) SiO2 
 PCOD9252046
Probable space group: P 21/C
;
_chemical_formula_sum "Si O2"
_cell_formula_units_Z 24
_cell_length_a 4.822700
_cell_length_b 22.001636
_cell_length_c 9.432912
_cell_angle_alpha 90.000000
_cell_angle_beta 63.229226
_cell_angle_gamma 90.000000
_cell_volume 893.619875
_symmetry_space_group_name_H-M "P 21/C"
_symmetry_group_IT_number 14
_symmetry_cell_setting 'monoclinic'
loop_
_space_group_symop_operation_xyz
x,y,z
-x,1/2+y,1/2-z
-x,-y,-z
x,1/2-y,1/2+z
loop_
_atom_site_type_symbol
_atom_site_label
_atom_site_fract_x
_atom_site_fract_y
_atom_site_fract_z
Si Si1 0.533109 0.264622 0.478064
Si Si2 0.069225 0.182180 0.470678
Si Si3 0.640831 0.484806 0.118632
Si Si4 0.371430 0.572741 0.418785
Si Si5 0.173211 0.616442 0.733410
Si Si6 0.948910 0.857754 0.823054
O O1 0.778976 0.228845 0.518319
O O2 0.688704 0.322405 0.367050
O O3 0.388577 0.219631 0.394649
O O4 0.221082 0.293077 0.619320
O O5 0.099424 0.144038 0.608454
O O6 0.009793 0.137304 0.353602
O O7 0.463160 0.523967 0.280587
O O8 0.630988 0.417854 0.190621
O O9 0.500000 0.500000 0.000000
O O10 0.000000 0.500000 0.000000
O O11 0.144419 0.569399 0.608123
O O12 0.234119 0.628470 0.357994
O O13 0.696388 0.590592 0.417747
#
# Coordination Sequence:
#
# PCOD9252046 Si02
#       6
#     4   4   4   4   4   4
#     4  11  24  41  64  99 135 179 230 283 334 402
#     4  12  23  41  66  98 135 180 230 280 335 400
#     4  12  27  48  74 105 139 178 229 286 348 414
#     4  11  24  45  68 100 137 176 223 278 340 409
#     4  11  26  45  72 102 139 183 229 283 346 407
#     4  11  23  42  65  94 134 178 223 278 337 400
#
# _framework density 26.857056
#
# number of rings (size 3 to 8) (size 9 to 14) (size 15 to 20)
#    0.000    0.667    0.000    8.500    0.000    8.000 
#    0.000    5.833    0.000    0.000    0.000    0.000 
#    0.000    0.000    0.000    0.000    0.000    0.000 
#
# Total GULP energy -134088.947785 kJ/mol
# GULP energy per Si atom -5587.039491 kJ/mol
# Density = 2.679593 g / cm^3
# Si number density = 26.857056 Si / 1000 Ang^3
#
#
#
# Elastic Constant Matrix: (Units=GPa)
#
#
# Indices 1 2 3 4 5 6 
#
# 1 132.8378 27.9013 25.1266 0.0000 23.4622 0.0000
# 2 27.9013 66.3750 26.8719 0.0000 5.2094 0.0000
# 3 25.1266 26.8719 153.2433 0.0000 23.9448 0.0000
# 4 0.0000 0.0000 0.0000 60.2921 0.0000 5.0033
# 5 23.4622 5.2094 23.9448 0.0000 34.7021 0.0000
# 6 0.0000 0.0000 0.0000 5.0033 0.0000 30.8927
#
#
#
# Elastic Compliance Matrix: (Units=1/GPa)
#
#
# Indices 1 2 3 4 5 6 
#
# 1 0.009267 -0.003437 -0.000021 0.000000 -0.005735 0.000000
# 2 -0.003437 0.017501 -0.002755 0.000000 0.001597 0.000000
# 3 -0.000021 -0.002755 0.007785 0.000000 -0.004944 0.000000
# 4 0.000000 0.000000 0.000000 0.016812 0.000000 -0.002723
# 5 -0.005735 0.001597 -0.004944 0.000000 0.035866 0.000000
# 6 0.000000 0.000000 0.000000 -0.002723 0.000000 0.032811
#
#
# Mechanical properties :
#
#
# Convention : Reuss Voigt Hill
#
# Bulk Modulus (GPa) = 45.19351 56.91730 51.05541
# Shear Modulus (GPa) = 35.75490 43.34780 39.55135
#
# Velocity S-wave (km/s) = 3.65266 4.02184 3.84169
# Velocity P-wave (km/s) = 5.88670 6.54260 6.22330
#
# Compressibility (1/GPa) = 0.02212707
#
# Stress axis : x y z
#
# Youngs Moduli (GPa) = 107.91322 57.14103 128.45980
#
# Poissons Ratio (x) = 0.19639 0.00265
# Poissons Ratio (y) = 0.37088 0.35389
# Poissons Ratio (z) = 0.00223 0.15742
#
# Static dielectric constant tensor:
#      x y z
#    x 1.981400 0.000000 -0.149910 
#    y 0.000000 2.206210 0.000000 
#    z -0.149910 0.000000 2.185710 
# 
# From -- ./inp_files/6234.got.cif
#   From: 2010.05.17/outbox.cif.g08.bks.cpg/sg14_4_cif.got.tgz:6234.got - 2010.06.03 17:49:19.
