data_PCOD9252069
_publ_section_title
;
Structure prediction by ZEFSAII (Michael W. Deem and Ramdas Pophale) SiO2 
 PCOD9252069
Probable space group: P 21/C
;
_chemical_formula_sum "Si O2"
_cell_formula_units_Z 24
_cell_length_a 7.932478
_cell_length_b 21.623218
_cell_length_c 8.048377
_cell_angle_alpha 90.000000
_cell_angle_beta 56.548717
_cell_angle_gamma 90.000000
_cell_volume 1151.829752
_symmetry_space_group_name_H-M "P 21/C"
_symmetry_group_IT_number 14
_symmetry_cell_setting 'monoclinic'
loop_
_space_group_symop_operation_xyz
x,y,z
-x,1/2+y,1/2-z
-x,-y,-z
x,1/2-y,1/2+z
loop_
_atom_site_type_symbol
_atom_site_label
_atom_site_fract_x
_atom_site_fract_y
_atom_site_fract_z
Si Si1 0.495234 0.689029 0.430603
Si Si2 0.488509 0.946507 0.372362
Si Si3 0.198509 0.902111 0.278730
Si Si4 0.155177 0.015028 0.059973
Si Si5 0.054760 0.361033 0.808864
Si Si6 0.624555 0.324719 0.888189
O O1 0.367572 0.646370 0.627162
O O2 0.733700 0.675113 0.317799
O O3 0.449456 0.759803 0.499013
O O4 0.414851 0.674469 0.287991
O O5 0.278260 0.942247 0.390519
O O6 0.500010 0.880842 0.459357
O O7 0.500000 0.000000 0.500000
O O8 0.645396 0.962383 0.143118
O O9 0.010195 0.866585 0.461976
O O10 0.169594 0.951176 0.150745
O O11 0.094793 0.071251 0.211194
O O12 0.000000 0.000000 0.000000
O O13 0.860855 0.333591 0.813663
#
# Coordination Sequence:
#
# PCOD9252069 Si02
#       6
#     4   4   4   4   4   4
#     4  12  26  49  75 100 145 197 232 308 362 425
#     4  11  23  42  70 102 143 186 232 301 353 417
#     4  11  24  46  69 106 145 184 240 301 353 435
#     4  12  24  41  71 107 149 186 239 296 364 427
#     4  11  26  46  73 107 141 190 247 288 367 434
#     4  11  27  48  71 105 145 186 251 296 360 438
#
# _framework density 20.836413
#
# number of rings (size 3 to 8) (size 9 to 14) (size 15 to 20)
#    0.000    0.667    1.667    7.000    4.667    2.667 
#    0.000    0.000    0.000    0.000    0.000    0.000 
#    0.000    0.000    0.000    0.000    0.000    0.000 
#
# Total GULP energy -134151.785622 kJ/mol
# GULP energy per Si atom -5589.657734 kJ/mol
# Density = 2.078899 g / cm^3
# Si number density = 20.836413 Si / 1000 Ang^3
#
#
#
# Elastic Constant Matrix: (Units=GPa)
#
#
# Indices 1 2 3 4 5 6 
#
# 1 65.6039 44.7661 32.0769 0.0000 -2.0067 0.0000
# 2 44.7661 111.9657 29.5803 0.0000 -6.6911 0.0000
# 3 32.0769 29.5803 133.8848 0.0000 -14.3181 0.0000
# 4 0.0000 0.0000 0.0000 37.7949 0.0000 4.8344
# 5 -2.0067 -6.6911 -14.3181 0.0000 45.5807 0.0000
# 6 0.0000 0.0000 0.0000 4.8344 0.0000 34.1475
#
#
#
# Elastic Compliance Matrix: (Units=1/GPa)
#
#
# Indices 1 2 3 4 5 6 
#
# 1 0.022579 -0.008116 -0.003764 0.000000 -0.001380 0.000000
# 2 -0.008116 0.012427 -0.000667 0.000000 0.001258 0.000000
# 3 -0.003764 -0.000667 0.008785 0.000000 0.002496 0.000000
# 4 0.000000 0.000000 0.000000 0.026947 0.000000 -0.003815
# 5 -0.001380 0.001258 0.002496 0.000000 0.022847 0.000000
# 6 0.000000 0.000000 0.000000 -0.003815 0.000000 0.029825
#
#
# Mechanical properties :
#
#
# Convention : Reuss Voigt Hill
#
# Bulk Modulus (GPa) = 53.47990 58.25566 55.86778
# Shear Modulus (GPa) = 32.31309 37.17335 34.74322
#
# Velocity S-wave (km/s) = 3.94229 4.22839 4.08785
# Velocity P-wave (km/s) = 6.81502 7.20127 7.01081
#
# Compressibility (1/GPa) = 0.01869862
#
# Stress axis : x y z
#
# Youngs Moduli (GPa) = 44.28880 80.46739 113.82772
#
# Poissons Ratio (x) = 0.65304 0.42846
# Poissons Ratio (y) = 0.35943 0.07590
# Poissons Ratio (z) = 0.16671 0.05366
#
# Static dielectric constant tensor:
#      x y z
#    x 1.797190 0.000000 -0.152520 
#    y 0.000000 2.268970 0.000000 
#    z -0.152520 0.000000 2.138940 
# 
# From -- ./inp_files/10125.got.cif
#   From: 2010.05.17/outbox.cif.g08.bks.cpg/sg14_6_cif.got.tgz:10125.got - 2010.06.03 17:49:19.
