data_PCOD9252415
_publ_section_title
;
Structure prediction by ZEFSAII (Michael W. Deem and Ramdas Pophale) SiO2 
 PCOD9252415
Probable space group: P 21/C
;
_chemical_formula_sum "Si O2"
_cell_formula_units_Z 16
_cell_length_a 4.981464
_cell_length_b 9.272828
_cell_length_c 12.638480
_cell_angle_alpha 90.000000
_cell_angle_beta 86.858099
_cell_angle_gamma 90.000000
_cell_volume 582.922404
_symmetry_space_group_name_H-M "P 21/C"
_symmetry_group_IT_number 14
_symmetry_cell_setting 'monoclinic'
loop_
_space_group_symop_operation_xyz
x,y,z
-x,1/2+y,1/2-z
-x,-y,-z
x,1/2-y,1/2+z
loop_
_atom_site_type_symbol
_atom_site_label
_atom_site_fract_x
_atom_site_fract_y
_atom_site_fract_z
Si Si1 0.626514 0.725712 0.240817
Si Si2 0.711470 0.074061 0.418231
Si Si3 0.988836 0.375578 0.414407
Si Si4 0.122211 0.642837 0.812904
O O1 0.412939 0.793302 0.326276
O O2 0.457949 0.601956 0.186359
O O3 0.721849 0.822489 0.136718
O O4 0.907357 0.728210 0.297569
O O5 0.835411 0.228216 0.451321
O O6 0.500000 0.000000 0.500000
O O7 0.966897 0.973450 0.385557
O O8 0.849468 0.420923 0.307074
O O9 0.000000 0.500000 0.500000
#
# Coordination Sequence:
#
# PCOD9252415 Si02
#       4
#     4   4   4   4
#     4   9  22  45  63  96 138 175 233 283 364 415
#     4  11  24  43  70 108 138 185 246 298 361 440
#     4   9  22  45  67  99 138 184 233 296 368 427
#     4   9  22  42  65  93 138 179 227 281 351 427
#
# _framework density 27.447908999999999
#
# number of rings (size 3 to 8) (size 9 to 14) (size 15 to 20)
#    1.500    1.000    0.000    0.000    3.500    7.000 
#   18.000    0.000    0.000    0.000    0.000    0.000 
#    0.000    0.000    0.000    0.000    0.000    0.000 
#
# Total GULP energy -89428.455774 kJ/mol
# GULP energy per Si atom -5589.278486 kJ/mol
# Density = 2.738544 g / cm^3
# Si number density = 27.447909 Si / 1000 Ang^3
#
#
#
# Elastic Constant Matrix: (Units=GPa)
#
#
# Indices 1 2 3 4 5 6 
#
# 1 170.8226 33.9286 38.2326 0.0000 -47.7267 0.0000
# 2 33.9286 151.3428 62.9147 0.0000 -27.6028 0.0000
# 3 38.2326 62.9147 144.5486 0.0000 -42.1585 0.0000
# 4 0.0000 0.0000 0.0000 61.9443 0.0000 0.4897
# 5 -47.7267 -27.6028 -42.1585 0.0000 57.9018 0.0000
# 6 0.0000 0.0000 0.0000 0.4897 0.0000 39.2970
#
#
#
# Elastic Compliance Matrix: (Units=1/GPa)
#
#
# Indices 1 2 3 4 5 6 
#
# 1 0.007658 -0.000619 -0.000001 0.000000 0.006016 0.000000
# 2 -0.000619 0.008241 -0.003080 0.000000 0.001176 0.000000
# 3 -0.000001 -0.003080 0.009942 0.000000 0.005769 0.000000
# 4 0.000000 0.000000 0.000000 0.016145 0.000000 -0.000201
# 5 0.006016 0.001176 0.005769 0.000000 0.026991 0.000000
# 6 0.000000 0.000000 0.000000 -0.000201 0.000000 0.025450
#
#
# Mechanical properties :
#
#
# Convention : Reuss Voigt Hill
#
# Bulk Modulus (GPa) = 54.23114 81.87396 68.05255
# Shear Modulus (GPa) = 46.30711 53.93783 50.12247
#
# Velocity S-wave (km/s) = 4.11188 4.43775 4.27792
# Velocity P-wave (km/s) = 6.50724 7.49345 7.01769
#
# Compressibility (1/GPa) = 0.01843959
#
# Stress axis : x y z
#
# Youngs Moduli (GPa) = 130.57895 121.34075 100.58590
#
# Poissons Ratio (x) = 0.07510 0.00015
# Poissons Ratio (y) = 0.08082 0.30984
# Poissons Ratio (z) = 0.00019 0.37378
#
# Static dielectric constant tensor:
#      x y z
#    x 2.166400 0.000000 0.126200 
#    y 0.000000 2.317230 0.000000 
#    z 0.126200 0.000000 2.225590 
# 
# From -- ./inp_files/36613.got.cif
#   From: 2010.05.17/outbox.cif.g08.bks.cpg/sg14_19_cif.got.tgz:36613.got - 2010.06.03 17:49:19.
