data_PCOD9252921
_publ_section_title
;
Structure prediction by ZEFSAII (Michael W. Deem and Ramdas Pophale) SiO2 
 PCOD9252921
Probable space group: P 21/C
;
_chemical_formula_sum "Si O2"
_cell_formula_units_Z 24
_cell_length_a 7.471663
_cell_length_b 9.478201
_cell_length_c 14.452789
_cell_angle_alpha 90.000000
_cell_angle_beta 87.586033
_cell_angle_gamma 90.000000
_cell_volume 1022.608233
_symmetry_space_group_name_H-M "P 21/C"
_symmetry_group_IT_number 14
_symmetry_cell_setting 'monoclinic'
loop_
_space_group_symop_operation_xyz
x,y,z
-x,1/2+y,1/2-z
-x,-y,-z
x,1/2-y,1/2+z
loop_
_atom_site_type_symbol
_atom_site_label
_atom_site_fract_x
_atom_site_fract_y
_atom_site_fract_z
Si Si1 0.612118 0.767226 0.672720
Si Si2 0.928823 0.341396 0.478043
Si Si3 0.198260 0.186381 0.598082
Si Si4 0.687695 0.478562 0.779506
Si Si5 0.006968 0.217269 0.283027
Si Si6 0.479204 0.835508 0.980590
O O1 0.715877 0.533753 0.884888
O O2 0.636168 0.611347 0.716736
O O3 0.547129 0.746758 0.569823
O O4 0.805968 0.838798 0.679148
O O5 0.733165 0.314490 0.526369
O O6 0.922127 0.311720 0.367511
O O7 0.000000 0.500000 0.500000
O O8 0.073147 0.232811 0.517150
O O9 0.371286 0.288896 0.596533
O O10 0.070419 0.202922 0.689986
O O11 0.871981 0.401684 0.752423
O O12 0.535718 0.362696 0.776896
O O13 0.500000 0.000000 0.000000
#
# Coordination Sequence:
#
# PCOD9252921 Si02
#       6
#     4   4   4   4   4   4
#     4  11  26  48  77 106 158 197 262 319 391 459
#     4  12  25  49  80 108 156 209 260 320 382 471
#     4  11  28  44  75 116 152 203 258 323 389 454
#     4  11  28  48  76 114 153 205 258 322 391 461
#     4  11  26  48  74 115 152 202 262 317 388 464
#     4  12  25  45  77 113 153 205 263 313 390 465
#
# _framework density 23.469398000000002
#
# number of rings (size 3 to 8) (size 9 to 14) (size 15 to 20)
#    0.000    0.667    5.000    0.000   11.667    5.333 
#    0.000    0.000    0.000    0.000    0.000    0.000 
#    0.000    0.000    0.000    0.000    0.000    0.000 
#
# Total GULP energy -134089.456388 kJ/mol
# GULP energy per Si atom -5587.060683 kJ/mol
# Density = 2.341598 g / cm^3
# Si number density = 23.469398 Si / 1000 Ang^3
#
#
#
# Elastic Constant Matrix: (Units=GPa)
#
#
# Indices 1 2 3 4 5 6 
#
# 1 175.0489 56.2449 11.2980 0.0000 9.3285 0.0000
# 2 56.2449 89.3775 25.3326 0.0000 -0.9949 0.0000
# 3 11.2980 25.3326 86.9739 0.0000 1.3466 0.0000
# 4 0.0000 0.0000 0.0000 34.0509 0.0000 16.4490
# 5 9.3285 -0.9949 1.3466 0.0000 38.1368 0.0000
# 6 0.0000 0.0000 0.0000 16.4490 0.0000 38.3161
#
#
#
# Elastic Compliance Matrix: (Units=1/GPa)
#
#
# Indices 1 2 3 4 5 6 
#
# 1 0.007314 -0.004756 0.000465 0.000000 -0.001929 0.000000
# 2 -0.004756 0.015295 -0.003864 0.000000 0.001699 0.000000
# 3 0.000465 -0.003864 0.012573 0.000000 -0.000658 0.000000
# 4 0.000000 0.000000 0.000000 0.037052 0.000000 -0.015906
# 5 -0.001929 0.001699 -0.000658 0.000000 0.026761 0.000000
# 6 0.000000 0.000000 0.000000 -0.015906 0.000000 0.032927
#
#
# Mechanical properties :
#
#
# Convention : Reuss Voigt Hill
#
# Bulk Modulus (GPa) = 52.98524 59.68349 56.33437
# Shear Modulus (GPa) = 32.35815 39.33575 35.84695
#
# Velocity S-wave (km/s) = 3.71716 4.09839 3.91242
# Velocity P-wave (km/s) = 6.40690 6.91963 6.66820
#
# Compressibility (1/GPa) = 0.01887318
#
# Stress axis : x y z
#
# Youngs Moduli (GPa) = 136.73273 65.38012 79.53669
#
# Poissons Ratio (x) = 0.31093 -0.03698
# Poissons Ratio (y) = 0.65025 0.30729
# Poissons Ratio (z) = -0.06358 0.25260
#
# Static dielectric constant tensor:
#      x y z
#    x 1.906100 0.000000 -0.016120 
#    y 0.000000 1.933600 0.000000 
#    z -0.016120 0.000000 2.006840 
# 
# From -- ./inp_files/39341.got.cif
#   From: 2010.05.17/outbox.cif.g08.bks.cpg/sg14_20_cif.got.tgz:39341.got - 2010.06.03 17:49:19.
