data_PCOD9252931
_publ_section_title
;
Structure prediction by ZEFSAII (Michael W. Deem and Ramdas Pophale) SiO2 
 PCOD9252931
Probable space group: P 21/C
;
_chemical_formula_sum "Si O2"
_cell_formula_units_Z 16
_cell_length_a 18.692304
_cell_length_b 4.888391
_cell_length_c 12.384775
_cell_angle_alpha 90.000000
_cell_angle_beta 34.668570
_cell_angle_gamma 90.000000
_cell_volume 643.721772
_symmetry_space_group_name_H-M "P 21/C"
_symmetry_group_IT_number 14
_symmetry_cell_setting 'monoclinic'
loop_
_space_group_symop_operation_xyz
x,y,z
-x,1/2+y,1/2-z
-x,-y,-z
x,1/2-y,1/2+z
loop_
_atom_site_type_symbol
_atom_site_label
_atom_site_fract_x
_atom_site_fract_y
_atom_site_fract_z
Si Si1 0.993040 0.283401 0.338534
Si Si2 0.414455 0.983494 0.342253
Si Si3 0.197544 0.481480 0.257696
Si Si4 0.406214 0.255329 0.635036
O O1 0.870837 0.342071 0.564940
O O2 0.999545 0.491176 0.228550
O O3 0.101836 0.346084 0.291575
O O4 0.502563 0.217179 0.287001
O O5 0.302428 0.869632 0.555009
O O6 0.359416 0.163903 0.312963
O O7 0.283923 0.266329 0.213870
O O8 0.500000 0.500000 0.500000
O O9 0.500000 0.000000 0.500000
#
# Coordination Sequence:
#
# PCOD9252931 Si02
#       4
#     4   4   4   4
#     4  11  28  51  76 108 145 202 258 314 363 437
#     4  12  24  43  69 106 149 190 234 296 368 444
#     4  11  26  48  78 107 152 196 249 309 376 441
#     4  12  24  43  69 106 148 191 235 296 368 443
#
# _framework density 24.855460000000001
#
# number of rings (size 3 to 8) (size 9 to 14) (size 15 to 20)
#    0.000    0.500    5.000    1.500    0.000   16.000 
#    0.000    0.000    0.000    0.000    0.000    0.000 
#    0.000    0.000    0.000    0.000    0.000    0.000 
#
# Total GULP energy -89426.381297 kJ/mol
# GULP energy per Si atom -5589.148831 kJ/mol
# Density = 2.479889 g / cm^3
# Si number density = 24.855460 Si / 1000 Ang^3
#
#
#
# Elastic Constant Matrix: (Units=GPa)
#
#
# Indices 1 2 3 4 5 6 
#
# 1 107.0322 -9.2370 32.8566 0.0000 7.1320 0.0000
# 2 -9.2370 109.0463 23.9879 0.0000 -3.7142 0.0000
# 3 32.8566 23.9879 176.2664 0.0000 10.5385 0.0000
# 4 0.0000 0.0000 0.0000 25.9902 0.0000 7.3553
# 5 7.1320 -3.7142 10.5385 0.0000 37.1088 0.0000
# 6 0.0000 0.0000 0.0000 7.3553 0.0000 24.3232
#
#
#
# Elastic Compliance Matrix: (Units=1/GPa)
#
#
# Indices 1 2 3 4 5 6 
#
# 1 0.010145 0.001253 -0.001986 0.000000 -0.001260 0.000000
# 2 0.001253 0.009674 -0.001621 0.000000 0.001188 0.000000
# 3 -0.001986 -0.001621 0.006359 0.000000 -0.001586 0.000000
# 4 0.000000 0.000000 0.000000 0.042077 0.000000 -0.012724
# 5 -0.001260 0.001188 -0.001586 0.000000 0.027759 0.000000
# 6 0.000000 0.000000 0.000000 -0.012724 0.000000 0.044961
#
#
# Mechanical properties :
#
#
# Convention : Reuss Voigt Hill
#
# Bulk Modulus (GPa) = 46.57788 54.17330 50.37559
# Shear Modulus (GPa) = 32.71416 40.46692 36.59054
#
# Velocity S-wave (km/s) = 3.63185 4.03934 3.84100
# Velocity P-wave (km/s) = 6.03053 6.60285 6.32317
#
# Compressibility (1/GPa) = 0.02146942
#
# Stress axis : x y z
#
# Youngs Moduli (GPa) = 98.57207 103.37361 157.25901
#
# Poissons Ratio (x) = -0.12956 0.31236
# Poissons Ratio (y) = -0.12355 0.25493
# Poissons Ratio (z) = 0.19579 0.16758
#
# Static dielectric constant tensor:
#      x y z
#    x 2.120110 0.000000 0.123020 
#    y 0.000000 1.898700 0.000000 
#    z 0.123020 0.000000 2.044750 
# 
# From -- ./inp_files/49366.got.cif
#   From: 2010.05.17/outbox.cif.g08.bks.cpg/sg14_25_cif.got.tgz:49366.got - 2010.06.03 17:49:19.
