data_PCOD9252355
_publ_section_title
;
Structure prediction by ZEFSAII (Michael W. Deem and Ramdas Pophale) SiO2 
 PCOD9252355
Probable space group: P 21/C
;
_chemical_formula_sum "Si O2"
_cell_formula_units_Z 28
_cell_length_a 5.560124
_cell_length_b 21.390093
_cell_length_c 11.774529
_cell_angle_alpha 90.000000
_cell_angle_beta 123.983688
_cell_angle_gamma 90.000000
_cell_volume 1161.176612
_symmetry_space_group_name_H-M "P 21/C"
_symmetry_group_IT_number 14
_symmetry_cell_setting 'monoclinic'
loop_
_space_group_symop_operation_xyz
x,y,z
-x,1/2+y,1/2-z
-x,-y,-z
x,1/2-y,1/2+z
loop_
_atom_site_type_symbol
_atom_site_label
_atom_site_fract_x
_atom_site_fract_y
_atom_site_fract_z
Si Si1 0.499633 0.237394 0.199462
Si Si2 0.100740 0.049780 0.352892
Si Si3 0.950316 0.426186 0.063894
Si Si4 0.862104 0.724157 0.605689
Si Si5 0.515593 0.164304 0.417919
Si Si6 0.210763 0.536982 0.467633
Si Si7 0.416150 0.132955 0.812544
O O1 0.509496 0.177096 0.283436
O O2 0.466075 0.304994 0.251743
O O3 0.847419 0.245449 0.264576
O O4 0.211279 0.224974 0.047462
O O5 0.921147 0.058486 0.423095
O O6 0.320366 0.107110 0.406895
O O7 0.947367 0.051493 0.191972
O O8 0.202225 0.978364 0.399817
O O9 0.274563 0.419822 0.195453
O O10 0.827036 0.356567 0.043157
O O11 0.597121 0.770911 0.565052
O O12 0.796991 0.657081 0.643379
O O13 0.500000 0.500000 0.500000
O O14 0.312198 0.600597 0.556390
O O15 0.000000 0.500000 0.500000
#
# Coordination Sequence:
#
# PCOD9252355 Si02
#       7
#     4   4   4   4   4   4   4
#     4  11  25  43  69 104 144 196 250 325 388 476
#     4  11  26  44  75 106 150 197 255 315 392 461
#     4  11  24  48  71 106 146 195 260 314 392 468
#     4  11  26  45  71 104 148 193 255 314 399 461
#     4  11  24  41  71 103 140 189 253 314 383 463
#     4  12  30  51  77 115 158 206 260 323 393 471
#     4  11  26  45  75 104 147 199 256 320 391 466
#
# _framework density 24.113472000000002
#
# number of rings (size 3 to 8) (size 9 to 14) (size 15 to 20)
#    0.000    0.857    1.429    3.857   10.000    4.571 
#    0.000    0.000    0.000    0.000    0.000    0.000 
#    0.000    0.000    0.000    0.000    0.000    0.000 
#
# Total GULP energy -156104.214859 kJ/mol
# GULP energy per Si atom -5575.150531 kJ/mol
# Density = 2.405859 g / cm^3
# Si number density = 24.113472 Si / 1000 Ang^3
#
#
#
# Elastic Constant Matrix: (Units=GPa)
#
#
# Indices 1 2 3 4 5 6 
#
# 1 47.4548 8.0207 15.4483 0.0000 -1.3105 0.0000
# 2 8.0207 82.2342 29.5350 0.0000 -8.1252 0.0000
# 3 15.4483 29.5350 136.7989 0.0000 -7.5350 0.0000
# 4 0.0000 0.0000 0.0000 41.7211 0.0000 -0.4394
# 5 -1.3105 -8.1252 -7.5350 0.0000 15.9733 0.0000
# 6 0.0000 0.0000 0.0000 -0.4394 0.0000 45.8296
#
#
#
# Elastic Compliance Matrix: (Units=1/GPa)
#
#
# Indices 1 2 3 4 5 6 
#
# 1 0.022016 -0.001353 -0.002190 0.000000 0.000085 0.000000
# 2 -0.001353 0.013755 -0.002503 0.000000 0.005705 0.000000
# 3 -0.002190 -0.002503 0.008231 0.000000 0.002430 0.000000
# 4 0.000000 0.000000 0.000000 0.023971 0.000000 0.000230
# 5 0.000085 0.005705 0.002430 0.000000 0.066660 0.000000
# 6 0.000000 0.000000 0.000000 0.000230 0.000000 0.021822
#
#
# Mechanical properties :
#
#
# Convention : Reuss Voigt Hill
#
# Bulk Modulus (GPa) = 31.33500 41.38845 36.36173
# Shear Modulus (GPa) = 27.90441 34.93706 31.42074
#
# Velocity S-wave (km/s) = 3.40547 3.81052 3.61368
# Velocity P-wave (km/s) = 5.33723 6.04660 5.70296
#
# Compressibility (1/GPa) = 0.03191319
#
# Stress axis : x y z
#
# Youngs Moduli (GPa) = 45.42064 72.70150 121.48519
#
# Poissons Ratio (x) = 0.09833 0.26600
# Poissons Ratio (y) = 0.06143 0.30404
# Poissons Ratio (z) = 0.09945 0.18195
#
# Static dielectric constant tensor:
#      x y z
#    x 2.093070 0.000000 -0.063880 
#    y 0.000000 1.914560 0.000000 
#    z -0.063880 0.000000 2.060960 
# 
# From -- ./inp_files/21875.got.cif
#   From: 2010.05.17/outbox.cif.g08.bks.cpg/sg14_11_cif.got.tgz:21875.got - 2010.06.03 17:49:19.
