data_PCOD9252691
_publ_section_title
;
Structure prediction by ZEFSAII (Michael W. Deem and Ramdas Pophale) SiO2 
 PCOD9252691
Probable space group: P 21/C
;
_chemical_formula_sum "Si O2"
_cell_formula_units_Z 26
_cell_length_a 25.789950
_cell_length_b 7.967832
_cell_length_c 17.864698
_cell_angle_alpha 90.000000
_cell_angle_beta 162.762531
_cell_angle_gamma 90.000000
_cell_volume 1087.842252
_symmetry_space_group_name_H-M "P 21/C"
_symmetry_group_IT_number 14
_symmetry_cell_setting 'monoclinic'
loop_
_space_group_symop_operation_xyz
x,y,z
-x,1/2+y,1/2-z
-x,-y,-z
x,1/2-y,1/2+z
loop_
_atom_site_type_symbol
_atom_site_label
_atom_site_fract_x
_atom_site_fract_y
_atom_site_fract_z
Si Si1 0.592282 0.642553 0.579886
Si Si2 0.673494 0.146757 0.420096
Si Si3 0.750239 0.613534 0.415580
Si Si4 0.000000 0.000000 0.000000
Si Si5 0.984840 0.907315 0.811018
Si Si6 0.862933 0.862474 0.335965
Si Si7 0.398436 0.005631 0.139160
O O1 0.500000 0.500000 0.500000
O O2 0.460301 0.683761 0.330998
O O3 0.768357 0.580681 0.781983
O O4 0.644561 0.793931 0.704948
O O5 0.841192 0.058236 0.616845
O O6 0.589592 0.017622 0.365213
O O7 0.687642 0.321525 0.483519
O O8 0.617100 0.560510 0.297092
O O9 0.859833 0.462778 0.529949
O O10 0.885398 0.745454 0.640490
O O11 0.962048 0.103726 0.028583
O O12 0.069492 0.175296 0.059277
O O13 0.716216 0.868644 0.068810
O O14 0.000000 0.000000 0.500000
#
# Coordination Sequence:
#
# PCOD9252691 Si02
#       7
#     4   4   4   2   4   4   4
#     4  11  25  46  69 102 145 188 235 305 369 432
#     4  11  25  45  69  99 140 188 232 294 361 439
#     4  12  25  44  69 103 138 184 236 304 357 432
#     4  12  24  46  74 104 140 188 240 300 354 450
#     4  12  25  44  72 101 143 181 242 298 369 426
#     4  11  25  46  72 104 141 188 243 296 365 437
#     4  11  25  43  68 100 139 184 235 292 363 427
#
# _framework density 23.900524000000001
#
# number of rings (size 3 to 8) (size 9 to 14) (size 15 to 20)
#    0.000    0.615    4.615    2.769    6.462    0.615 
#    2.769    0.000    0.000    0.000    0.000    0.000 
#    0.000    0.000    0.000    0.000    0.000    0.000 
#
# Total GULP energy -145073.285166 kJ/mol
# GULP energy per Si atom -5579.741737 kJ/mol
# Density = 2.384613 g / cm^3
# Si number density = 23.900524 Si / 1000 Ang^3
#
#
#
# Elastic Constant Matrix: (Units=GPa)
#
#
# Indices 1 2 3 4 5 6 
#
# 1 151.6959 9.1500 29.9052 0.0000 9.7503 0.0000
# 2 9.1500 74.2615 13.3621 0.0000 11.7131 0.0000
# 3 29.9052 13.3621 31.2259 0.0000 6.3970 0.0000
# 4 0.0000 0.0000 0.0000 22.0499 0.0000 1.0625
# 5 9.7503 11.7131 6.3970 0.0000 34.4566 0.0000
# 6 0.0000 0.0000 0.0000 1.0625 0.0000 46.7777
#
#
#
# Elastic Compliance Matrix: (Units=1/GPa)
#
#
# Indices 1 2 3 4 5 6 
#
# 1 0.008174 0.000572 -0.007859 0.000000 -0.001049 0.000000
# 2 0.000572 0.015166 -0.006184 0.000000 -0.004169 0.000000
# 3 -0.007859 -0.006184 0.042944 0.000000 -0.003647 0.000000
# 4 0.000000 0.000000 0.000000 0.045401 0.000000 -0.001031
# 5 -0.001049 -0.004169 -0.003647 0.000000 0.031413 0.000000
# 6 0.000000 0.000000 0.000000 -0.001031 0.000000 0.021401
#
#
# Mechanical properties :
#
#
# Convention : Reuss Voigt Hill
#
# Bulk Modulus (GPa) = 25.41670 40.22421 32.82045
# Shear Modulus (GPa) = 24.44341 34.30788 29.37565
#
# Velocity S-wave (km/s) = 3.20146 3.79284 3.50963
# Velocity P-wave (km/s) = 4.93186 6.00393 5.49411
#
# Compressibility (1/GPa) = 0.03934421
#
# Stress axis : x y z
#
# Youngs Moduli (GPa) = 122.33535 65.93840 23.28615
#
# Poissons Ratio (x) = -0.03773 0.18300
# Poissons Ratio (y) = -0.07000 0.14399
# Poissons Ratio (z) = 0.96138 0.40773
#
# Static dielectric constant tensor:
#      x y z
#    x 1.973860 0.000000 -0.013340 
#    y 0.000000 1.868310 0.000000 
#    z -0.013340 0.000000 1.988560 
# 
# From -- ./inp_files/61844.got.cif
#   From: 2010.05.17/outbox.cif.g08.bks.cpg/sg14_31_cif.got.tgz:61844.got - 2010.06.03 17:49:19.
