data_PCOD9252570
_publ_section_title
;
Structure prediction by ZEFSAII (Michael W. Deem and Ramdas Pophale) SiO2 
 PCOD9252570
Probable space group: P 21/C
;
_chemical_formula_sum "Si O2"
_cell_formula_units_Z 22
_cell_length_a 13.723676
_cell_length_b 10.055968
_cell_length_c 11.290269
_cell_angle_alpha 90.000000
_cell_angle_beta 147.538577
_cell_angle_gamma 90.000000
_cell_volume 836.287916
_symmetry_space_group_name_H-M "P 21/C"
_symmetry_group_IT_number 14
_symmetry_cell_setting 'monoclinic'
loop_
_space_group_symop_operation_xyz
x,y,z
-x,1/2+y,1/2-z
-x,-y,-z
x,1/2-y,1/2+z
loop_
_atom_site_type_symbol
_atom_site_label
_atom_site_fract_x
_atom_site_fract_y
_atom_site_fract_z
Si Si1 0.500000 0.000000 0.500000
Si Si2 0.623984 0.779986 0.696971
Si Si3 0.622575 0.944933 0.364839
Si Si4 0.275860 0.056475 0.883098
Si Si5 0.798376 0.240712 0.279595
Si Si6 0.066439 0.847141 0.333282
O O1 0.687023 0.928595 0.754156
O O2 0.567665 0.943098 0.442056
O O3 0.622032 0.704313 0.817182
O O4 0.706304 0.673446 0.693817
O O5 0.405008 0.810249 0.440456
O O6 0.807251 0.022779 0.537121
O O7 0.472400 0.025749 0.137371
O O8 0.127479 0.102188 0.823849
O O9 0.222777 0.917037 0.766748
O O10 0.909127 0.288861 0.275511
O O11 0.867305 0.247307 0.486862
#
# Coordination Sequence:
#
# PCOD9252570 Si02
#       6
#     2   4   4   4   4   4
#     4  12  28  42  82 112 150 198 256 318 380 462
#     4  11  24  46  74 107 148 198 256 304 387 457
#     4  11  25  48  75 109 150 200 253 319 386 456
#     4  11  25  45  78 104 146 208 257 302 392 464
#     4  11  24  46  71 109 147 198 253 319 381 454
#     4  12  25  47  75 110 156 198 255 327 379 460
#
# _framework density 26.306728
#
# number of rings (size 3 to 8) (size 9 to 14) (size 15 to 20)
#    0.000    0.727    5.455    1.636    7.636    2.909 
#    0.000    1.818    0.000    0.000    0.000    0.000 
#    0.000    0.000    0.000    0.000    0.000    0.000 
#
# Total GULP energy -122906.361176 kJ/mol
# GULP energy per Si atom -5586.652781 kJ/mol
# Density = 2.624685 g / cm^3
# Si number density = 26.306728 Si / 1000 Ang^3
#
#
#
# Elastic Constant Matrix: (Units=GPa)
#
#
# Indices 1 2 3 4 5 6 
#
# 1 207.3123 52.6408 33.3895 0.0000 -17.5720 0.0000
# 2 52.6408 134.2579 33.8306 0.0000 -3.0135 0.0000
# 3 33.3895 33.8306 59.0958 0.0000 -11.1438 0.0000
# 4 0.0000 0.0000 0.0000 -80.8297 0.0000 339.5545
# 5 -17.5720 -3.0135 -11.1438 0.0000 48.4136 0.0000
# 6 0.0000 0.0000 0.0000 339.5545 0.0000-1109.7373
#
#
#
# Elastic Compliance Matrix: (Units=1/GPa)
#
#
# Indices 1 2 3 4 5 6 
#
# 1 0.005701 -0.001708 -0.001958 0.000000 0.001512 0.000000
# 2 -0.001708 0.009234 -0.004526 0.000000 -0.001087 0.000000
# 3 -0.001958 -0.004526 0.021359 0.000000 0.003924 0.000000
# 4 0.000000 0.000000 0.000000 0.043353 0.000000 0.013265
# 5 0.001512 -0.001087 0.003924 0.000000 0.022040 0.000000
# 6 0.000000 0.000000 0.000000 0.013265 0.000000 0.003158
#
#
# Mechanical properties :
#
#
# Convention : Reuss Voigt Hill
#
# Bulk Modulus (GPa) = 50.22726 71.15421 60.69073
# Shear Modulus (GPa) = 39.10346 -209.71032 -85.30343
#
# Velocity S-wave (km/s) = 3.85962 -8.93814 -5.70060
# Velocity P-wave (km/s) = 6.24473 8.91145 4.49540
#
# Compressibility (1/GPa) = 0.01990951
#
# Stress axis : x y z
#
# Youngs Moduli (GPa) = 175.41244 108.29392 46.81829
#
# Poissons Ratio (x) = 0.18495 0.09168
# Poissons Ratio (y) = 0.29958 0.21191
# Poissons Ratio (z) = 0.34349 0.49017
#
# Static dielectric constant tensor:
#      x y z
#    x 1.844910 0.000000 -0.075610 
#    y 0.000000 0.760370 0.000000 
#    z -0.075610 0.000000 2.209500 
# 
# From -- ./inp_files/28821.got.cif
#   From: 2010.05.17/outbox.cif.g08.bks.cpg/sg14_15_cif.got.tgz:28821.got - 2010.06.03 17:49:19.
