data_PCOD9252683
_publ_section_title
;
Structure prediction by ZEFSAII (Michael W. Deem and Ramdas Pophale) SiO2 
 PCOD9252683
Probable space group: P 21/C
;
_chemical_formula_sum "Si O2"
_cell_formula_units_Z 24
_cell_length_a 7.896368
_cell_length_b 12.019795
_cell_length_c 10.548093
_cell_angle_alpha 90.000000
_cell_angle_beta 95.341799
_cell_angle_gamma 90.000000
_cell_volume 996.800305
_symmetry_space_group_name_H-M "P 21/C"
_symmetry_group_IT_number 14
_symmetry_cell_setting 'monoclinic'
loop_
_space_group_symop_operation_xyz
x,y,z
-x,1/2+y,1/2-z
-x,-y,-z
x,1/2-y,1/2+z
loop_
_atom_site_type_symbol
_atom_site_label
_atom_site_fract_x
_atom_site_fract_y
_atom_site_fract_z
Si Si1 0.435640 0.978810 0.746541
Si Si2 0.303229 0.173786 0.885788
Si Si3 0.673617 0.316643 0.538859
Si Si4 0.921520 0.607944 0.163730
Si Si5 0.196782 0.488674 0.603810
Si Si6 0.761918 0.412281 0.989719
O O1 0.629891 0.989132 0.801588
O O2 0.404107 0.941770 0.602533
O O3 0.336155 0.093338 0.768210
O O4 0.365213 0.888432 0.840563
O O5 0.493409 0.197639 0.952289
O O6 0.191107 0.280160 0.842770
O O7 0.218246 0.100104 0.991775
O O8 0.799885 0.389736 0.459537
O O9 0.738715 0.194815 0.575272
O O10 0.939776 0.553516 0.304407
O O11 0.100682 0.623506 0.107245
O O12 0.828299 0.517255 0.069653
#
# Coordination Sequence:
#
# PCOD9252683 Si02
#       6
#     4   4   4   4   4   4
#     4   9  20  40  64  88 113 147 195 246 292 338
#     4   9  20  40  64  88 113 147 195 246 292 338
#     4   9  20  40  64  88 113 147 195 246 292 338
#     4  11  25  39  55  86 125 158 191 231 284 349
#     4   9  20  40  64  88 113 147 195 246 292 338
#     4  11  25  39  55  86 125 158 191 231 284 349
#
# _framework density 24.077038000000002
#
# number of rings (size 3 to 8) (size 9 to 14) (size 15 to 20)
#    0.000    2.333    0.000    3.000    4.667    5.333 
#    0.000    3.333    0.000    0.000    0.000    0.000 
#    0.000    0.000    0.000    0.000    0.000    0.000 
#
# Total GULP energy -134355.455588 kJ/mol
# GULP energy per Si atom -5598.143983 kJ/mol
# Density = 2.402224 g / cm^3
# Si number density = 24.077038 Si / 1000 Ang^3
#
#
#
# Elastic Constant Matrix: (Units=GPa)
#
#
# Indices 1 2 3 4 5 6 
#
# 1 70.1793 22.7655 20.9883 0.0000 4.0259 0.0000
# 2 22.7655 117.9563 18.5603 0.0000 8.5142 0.0000
# 3 20.9883 18.5603 56.4172 0.0000 -4.9271 0.0000
# 4 0.0000 0.0000 0.0000 0.5657 0.0000 -16.4341
# 5 4.0259 8.5142 -4.9271 0.0000 38.0760 0.0000
# 6 0.0000 0.0000 0.0000 -16.4341 0.0000 -8.5705
#
#
#
# Elastic Compliance Matrix: (Units=1/GPa)
#
#
# Indices 1 2 3 4 5 6 
#
# 1 0.016781 -0.002197 -0.005697 0.000000 -0.002020 0.000000
# 2 -0.002197 0.009452 -0.002485 0.000000 -0.002203 0.000000
# 3 -0.005697 -0.002485 0.021000 0.000000 0.003875 0.000000
# 4 0.000000 0.000000 0.000000 0.031174 0.000000 -0.059776
# 5 -0.002020 -0.002203 0.003875 0.000000 0.027471 0.000000
# 6 0.000000 0.000000 0.000000 -0.059776 0.000000 -0.002058
#
#
# Mechanical properties :
#
#
# Convention : Reuss Voigt Hill
#
# Bulk Modulus (GPa) = 37.76828 41.02010 39.39419
# Shear Modulus (GPa) = 37.48071 18.16349 27.82210
#
# Velocity S-wave (km/s) = 3.94978 2.74960 3.40302
# Velocity P-wave (km/s) = 6.04330 5.21099 5.64251
#
# Compressibility (1/GPa) = 0.02647725
#
# Stress axis : x y z
#
# Youngs Moduli (GPa) = 59.58982 105.80216 47.61847
#
# Poissons Ratio (x) = 0.23240 0.27127
# Poissons Ratio (y) = 0.13089 0.11831
# Poissons Ratio (z) = 0.33947 0.26288
#
# Static dielectric constant tensor:
#      x y z
#    x 1.984040 0.000000 -0.033650 
#    y 0.000000 1.881510 0.000000 
#    z -0.033650 0.000000 1.859490 
# 
# From -- ./inp_files/24145.got.cif
#   From: 2010.05.17/outbox.cif.g08.bks.cpg/sg14_13_cif.got.tgz:24145.got - 2010.06.03 17:49:19.
