data_PCOD9252137
_publ_section_title
;
Structure prediction by ZEFSAII (Michael W. Deem and Ramdas Pophale) SiO2 
 PCOD9252137
Probable space group: P 21/C
;
_chemical_formula_sum "Si O2"
_cell_formula_units_Z 20
_cell_length_a 22.615588
_cell_length_b 6.656165
_cell_length_c 15.282871
_cell_angle_alpha 90.000000
_cell_angle_beta 23.038906
_cell_angle_gamma 90.000000
_cell_volume 900.345116
_symmetry_space_group_name_H-M "P 21/C"
_symmetry_group_IT_number 14
_symmetry_cell_setting 'monoclinic'
loop_
_space_group_symop_operation_xyz
x,y,z
-x,1/2+y,1/2-z
-x,-y,-z
x,1/2-y,1/2+z
loop_
_atom_site_type_symbol
_atom_site_label
_atom_site_fract_x
_atom_site_fract_y
_atom_site_fract_z
Si Si1 0.899932 0.627274 0.567430
Si Si2 0.675619 0.995730 0.238101
Si Si3 0.197288 0.728715 0.086152
Si Si4 0.612837 0.841893 0.693890
Si Si5 0.322780 0.048245 0.047740
O O1 0.775283 0.493734 0.688884
O O2 0.804466 0.811960 0.736565
O O3 0.000000 0.500000 0.500000
O O4 0.017776 0.705549 0.334128
O O5 0.686329 0.783449 0.172320
O O6 0.500000 0.000000 0.500000
O O7 0.732817 0.165701 0.094120
O O8 0.242643 0.869282 0.105223
O O9 0.271779 0.511882 0.993240
O O10 0.593058 0.686251 0.640176
O O11 0.453497 0.951707 0.929773
#
# Coordination Sequence:
#
# PCOD9252137 Si02
#       5
#     4   4   4   4   4
#     4  12  27  46  72 106 144 189 242 301 364 433
#     4  11  29  48  71 107 147 194 241 293 363 442
#     4  11  25  45  72 102 147 182 237 302 367 422
#     4  11  23  45  73 105 142 188 241 299 360 437
#     4  11  23  43  75 105 138 187 242 299 359 436
#
# _framework density 22.213704
#
# number of rings (size 3 to 8) (size 9 to 14) (size 15 to 20)
#    0.000    0.800    4.000    1.800    8.400    3.200 
#    0.000    0.000    0.000    0.000    0.000    0.000 
#    0.000    0.000    0.000    0.000    0.000    0.000 
#
# Total GULP energy -111890.743829 kJ/mol
# GULP energy per Si atom -5594.537191 kJ/mol
# Density = 2.216314 g / cm^3
# Si number density = 22.213704 Si / 1000 Ang^3
#
#
#
# Elastic Constant Matrix: (Units=GPa)
#
#
# Indices 1 2 3 4 5 6 
#
# 1 85.9131 12.1030 17.0919 0.0000 -22.0895 0.0000
# 2 12.1030 81.0264 12.0943 0.0000 -2.1289 0.0000
# 3 17.0919 12.0943 134.2452 0.0000 -15.2862 0.0000
# 4 0.0000 0.0000 0.0000 28.3559 0.0000 3.6885
# 5 -22.0895 -2.1289 -15.2862 0.0000 33.4980 0.0000
# 6 0.0000 0.0000 0.0000 3.6885 0.0000 20.6776
#
#
#
# Elastic Compliance Matrix: (Units=1/GPa)
#
#
# Indices 1 2 3 4 5 6 
#
# 1 0.014350 -0.001811 -0.000632 0.000000 0.009059 0.000000
# 2 -0.001811 0.012741 -0.001014 0.000000 -0.000847 0.000000
# 3 -0.000632 -0.001014 0.007981 0.000000 0.003160 0.000000
# 4 0.000000 0.000000 0.000000 0.036104 0.000000 -0.006440
# 5 0.009059 -0.000847 0.003160 0.000000 0.037215 0.000000
# 6 0.000000 0.000000 0.000000 -0.006440 0.000000 0.049510
#
#
# Mechanical properties :
#
#
# Convention : Reuss Voigt Hill
#
# Bulk Modulus (GPa) = 35.51442 42.64036 39.07739
# Shear Modulus (GPa) = 28.70253 33.83267 31.26760
#
# Velocity S-wave (km/s) = 3.59849 3.90687 3.75584
# Velocity P-wave (km/s) = 5.76956 6.29195 6.03641
#
# Compressibility (1/GPa) = 0.02815758
#
# Stress axis : x y z
#
# Youngs Moduli (GPa) = 69.68742 78.48535 125.30121
#
# Poissons Ratio (x) = 0.14214 0.07923
# Poissons Ratio (y) = 0.12621 0.12702
# Poissons Ratio (z) = 0.04406 0.07956
#
# Static dielectric constant tensor:
#      x y z
#    x 1.842510 0.000000 0.028400 
#    y 0.000000 1.445740 0.000000 
#    z 0.028400 0.000000 1.829910 
# 
# From -- ./inp_files/62122.got.cif
#   From: 2010.05.17/outbox.cif.g08.bks.cpg/sg14_32_cif.got.tgz:62122.got - 2010.06.03 17:49:19.
