data_PCOD9252719
_publ_section_title
;
Structure prediction by ZEFSAII (Michael W. Deem and Ramdas Pophale) SiO2 
 PCOD9252719
Probable space group: P 21/C
;
_chemical_formula_sum "Si O2"
_cell_formula_units_Z 24
_cell_length_a 10.923889
_cell_length_b 12.118375
_cell_length_c 10.233229
_cell_angle_alpha 90.000000
_cell_angle_beta 57.440393
_cell_angle_gamma 90.000000
_cell_volume 1141.761471
_symmetry_space_group_name_H-M "P 21/C"
_symmetry_group_IT_number 14
_symmetry_cell_setting 'monoclinic'
loop_
_space_group_symop_operation_xyz
x,y,z
-x,1/2+y,1/2-z
-x,-y,-z
x,1/2-y,1/2+z
loop_
_atom_site_type_symbol
_atom_site_label
_atom_site_fract_x
_atom_site_fract_y
_atom_site_fract_z
Si Si1 0.374804 0.805115 0.344956
Si Si2 0.829336 0.651642 0.199544
Si Si3 0.005084 0.983808 0.791337
Si Si4 0.447787 0.249825 0.008461
Si Si5 0.076094 0.676729 0.476431
Si Si6 0.701940 0.548383 0.012581
O O1 0.452765 0.743289 0.420392
O O2 0.477014 0.804965 0.159416
O O3 0.225734 0.743436 0.393625
O O4 0.345068 0.928373 0.411786
O O5 0.707395 0.697015 0.367890
O O6 0.913037 0.550137 0.218363
O O7 0.948033 0.743802 0.097775
O O8 0.753030 0.615423 0.110339
O O9 0.159224 0.033241 0.660559
O O10 0.037472 0.874091 0.857488
O O11 0.920696 0.071629 0.928737
O O12 0.418846 0.377894 0.988859
#
# Coordination Sequence:
#
# PCOD9252719 Si02
#       6
#     4   4   4   4   4   4
#     4  12  28  45  75 103 148 188 238 292 354 431
#     4  12  25  45  75 103 141 185 242 291 350 424
#     4  11  25  44  76 105 140 183 242 298 348 416
#     4  12  27  49  69 106 148 187 229 300 360 417
#     4  11  26  45  72 107 138 187 238 294 352 419
#     4  12  25  46  73 104 140 190 237 292 359 420
#
# _framework density 21.020150999999998
#
# number of rings (size 3 to 8) (size 9 to 14) (size 15 to 20)
#    0.000    0.333    5.000    3.000    2.333    2.000 
#    0.000    0.000    0.000    0.000    0.000    0.000 
#    0.000    0.000    0.000    0.000    0.000    0.000 
#
# Total GULP energy -134406.785914 kJ/mol
# GULP energy per Si atom -5600.282746 kJ/mol
# Density = 2.097231 g / cm^3
# Si number density = 21.020151 Si / 1000 Ang^3
#
#
#
# Elastic Constant Matrix: (Units=GPa)
#
#
# Indices 1 2 3 4 5 6 
#
# 1 74.9987 -3.6696 16.3256 0.0000 0.3143 0.0000
# 2 -3.6696 28.6865 -4.5144 0.0000 -16.0955 0.0000
# 3 16.3256 -4.5144 111.6872 0.0000 -9.4134 0.0000
# 4 0.0000 0.0000 0.0000 -97.9973 0.0000 306.5051
# 5 0.3143 -16.0955 -9.4134 0.0000 35.4820 0.0000
# 6 0.0000 0.0000 0.0000 306.5051 0.0000 -647.1794
#
#
#
# Elastic Compliance Matrix: (Units=1/GPa)
#
#
# Indices 1 2 3 4 5 6 
#
# 1 0.013832 0.001476 -0.001960 0.000000 0.000027 0.000000
# 2 0.001476 0.048517 0.003681 0.000000 0.022972 0.000000
# 3 -0.001960 0.003681 0.009749 0.000000 0.004274 0.000000
# 4 0.000000 0.000000 0.000000 0.021203 0.000000 0.010042
# 5 0.000027 0.022972 0.004274 0.000000 0.039738 0.000000
# 6 0.000000 0.000000 0.000000 0.010042 0.000000 0.003211
#
#
# Mechanical properties :
#
#
# Convention : Reuss Voigt Hill
#
# Bulk Modulus (GPa) = 12.73984 25.73951 19.23968
# Shear Modulus (GPa) = 32.04752 -128.12355 -48.03801
#
# Velocity S-wave (km/s) = 3.90886 -7.81569 -4.78570
# Velocity P-wave (km/s) = 5.14259 8.31715 4.62216
#
# Compressibility (1/GPa) = 0.07849392
#
# Stress axis : x y z
#
# Youngs Moduli (GPa) = 72.29444 20.61134 102.57380
#
# Poissons Ratio (x) = -0.03043 0.20104
# Poissons Ratio (y) = -0.10673 -0.37762
# Poissons Ratio (z) = 0.14169 -0.07588
#
# Static dielectric constant tensor:
#      x y z
#    x 1.725710 0.000000 0.001940 
#    y 0.000000 1.741220 0.000000 
#    z 0.001940 0.000000 1.712700 
# 
# From -- ./inp_files/28487.got.cif
#   From: 2010.05.17/outbox.cif.g08.bks.cpg/sg14_15_cif.got.tgz:28487.got - 2010.06.03 17:49:19.
