data_PCOD9252444
_publ_section_title
;
Structure prediction by ZEFSAII (Michael W. Deem and Ramdas Pophale) SiO2 
 PCOD9252444
Probable space group: P 21/C
;
_chemical_formula_sum "Si O2"
_cell_formula_units_Z 20
_cell_length_a 14.686455
_cell_length_b 7.682478
_cell_length_c 14.606036
_cell_angle_alpha 90.000000
_cell_angle_beta 151.836915
_cell_angle_gamma 90.000000
_cell_volume 777.816036
_symmetry_space_group_name_H-M "P 21/C"
_symmetry_group_IT_number 14
_symmetry_cell_setting 'monoclinic'
loop_
_space_group_symop_operation_xyz
x,y,z
-x,1/2+y,1/2-z
-x,-y,-z
x,1/2-y,1/2+z
loop_
_atom_site_type_symbol
_atom_site_label
_atom_site_fract_x
_atom_site_fract_y
_atom_site_fract_z
Si Si1 0.774895 0.562195 0.182593
Si Si2 0.581265 0.726373 0.834676
Si Si3 0.845462 0.170178 0.264062
Si Si4 0.276562 0.359559 0.226843
Si Si5 0.803890 0.092259 0.015909
O O1 0.758255 0.361701 0.193515
O O2 0.690001 0.688592 0.183323
O O3 0.005112 0.594971 0.375616
O O4 0.680446 0.614211 0.002137
O O5 0.588697 0.635115 0.741827
O O6 0.354127 0.733258 0.655502
O O7 0.698230 0.904758 0.923275
O O8 0.865229 0.129107 0.174222
O O9 0.058923 0.159429 0.495248
O O10 0.279174 0.973961 0.794570
#
# Coordination Sequence:
#
# PCOD9252444 Si02
#       5
#     4   4   4   4   4
#     4  12  24  52  76 108 150 197 250 302 376 435
#     4  12  27  48  76 111 151 200 244 308 373 440
#     4  11  24  43  79 105 141 196 240 306 363 439
#     4  11  25  47  76 113 146 194 253 301 371 440
#     4  12  25  48  73 108 152 198 244 306 373 435
#
# _framework density 25.713021000000001
#
# number of rings (size 3 to 8) (size 9 to 14) (size 15 to 20)
#    0.000    0.400    6.000    1.800    0.000    4.000 
#    3.600    2.000    0.000    0.000    0.000    0.000 
#    0.000    0.000    0.000    0.000    0.000    0.000 
#
# Total GULP energy -112376.656681 kJ/mol
# GULP energy per Si atom -5618.832834 kJ/mol
# Density = 2.565450 g / cm^3
# Si number density = 25.713021 Si / 1000 Ang^3
#
#
#
# Elastic Constant Matrix: (Units=GPa)
#
#
# Indices 1 2 3 4 5 6 
#
# 1 61.0374 48.9082 43.9245 0.0000 0.8443 0.0000
# 2 48.9082 100.5649 7.3011 0.0000 -2.4495 0.0000
# 3 43.9245 7.3011 109.6347 0.0000 22.4035 0.0000
# 4 0.0000 0.0000 0.0000 30.1407 0.0000 -12.7997
# 5 0.8443 -2.4495 22.4035 0.0000 32.0750 0.0000
# 6 0.0000 0.0000 0.0000 -12.7997 0.0000 27.3125
#
#
#
# Elastic Compliance Matrix: (Units=1/GPa)
#
#
# Indices 1 2 3 4 5 6 
#
# 1 0.047960 -0.021600 -0.020042 0.000000 0.011087 0.000000
# 2 -0.021600 0.019777 0.008063 0.000000 -0.003553 0.000000
# 3 -0.020042 0.008063 0.019108 0.000000 -0.012203 0.000000
# 4 0.000000 0.000000 0.000000 0.041421 0.000000 0.019412
# 5 0.011087 -0.003553 -0.012203 0.000000 0.039137 0.000000
# 6 0.000000 0.000000 0.000000 0.019412 0.000000 0.045710
#
#
# Mechanical properties :
#
#
# Convention : Reuss Voigt Hill
#
# Bulk Modulus (GPa) = 50.79644 52.38941 51.59293
# Shear Modulus (GPa) = 17.43169 29.31252 23.37210
#
# Velocity S-wave (km/s) = 2.60654 3.38003 3.01817
# Velocity P-wave (km/s) = 5.37185 5.97091 5.67928
#
# Compressibility (1/GPa) = 0.01968642
#
# Stress axis : x y z
#
# Youngs Moduli (GPa) = 20.85050 50.56485 52.33500
#
# Poissons Ratio (x) = 1.09218 1.04891
# Poissons Ratio (y) = 0.45036 -0.42196
# Poissons Ratio (z) = 0.41789 -0.40769
#
# Static dielectric constant tensor:
#      x y z
#    x 1.950780 0.000000 0.022650 
#    y 0.000000 1.994570 0.000000 
#    z 0.022650 0.000000 2.005740 
# 
# From -- ./inp_files/60388.got.cif
#   From: 2010.05.17/outbox.cif.g08.bks.cpg/sg14_31_cif.got.tgz:60388.got - 2010.06.03 17:49:19.
