data_PCOD9252959
_publ_section_title
;
Structure prediction by ZEFSAII (Michael W. Deem and Ramdas Pophale) SiO2 
 PCOD9252959
Probable space group: P 21/C
;
_chemical_formula_sum "Si O2"
_cell_formula_units_Z 16
_cell_length_a 11.484137
_cell_length_b 5.659119
_cell_length_c 13.512901
_cell_angle_alpha 90.000000
_cell_angle_beta 49.805146
_cell_angle_gamma 90.000000
_cell_volume 670.820215
_symmetry_space_group_name_H-M "P 21/C"
_symmetry_group_IT_number 14
_symmetry_cell_setting 'monoclinic'
loop_
_space_group_symop_operation_xyz
x,y,z
-x,1/2+y,1/2-z
-x,-y,-z
x,1/2-y,1/2+z
loop_
_atom_site_type_symbol
_atom_site_label
_atom_site_fract_x
_atom_site_fract_y
_atom_site_fract_z
Si Si1 0.876142 0.307883 0.100219
Si Si2 0.581104 0.804812 0.228550
Si Si3 0.148653 0.434006 0.545129
Si Si4 0.337499 0.070752 0.136371
O O1 0.734911 0.397537 0.241676
O O2 0.975569 0.136217 0.117188
O O3 0.000000 0.500000 0.000000
O O4 0.831148 0.182035 0.022601
O O5 0.487265 0.561435 0.261820
O O6 0.628303 0.804217 0.318096
O O7 0.732633 0.772666 0.080280
O O8 0.208397 0.419831 0.623297
O O9 0.500000 0.000000 0.000000
#
# Coordination Sequence:
#
# PCOD9252959 Si02
#       4
#     4   4   4   4
#     4  11  26  51  73 108 162 204 263 333 393 482
#     4  12  26  51  75 115 165 203 261 332 396 476
#     4  11  27  48  77 110 157 213 263 327 409 476
#     4  12  27  46  79 117 149 216 263 330 401 482
#
# _framework density 23.851396999999999
#
# number of rings (size 3 to 8) (size 9 to 14) (size 15 to 20)
#    0.000    0.500    5.000    1.500    3.500    1.000 
#    4.500    0.000    0.000    0.000    0.000    0.000 
#    0.000    0.000    0.000    0.000    0.000    0.000 
#
# Total GULP energy -89382.608797 kJ/mol
# GULP energy per Si atom -5586.413050 kJ/mol
# Density = 2.379711 g / cm^3
# Si number density = 23.851397 Si / 1000 Ang^3
#
#
#
# Elastic Constant Matrix: (Units=GPa)
#
#
# Indices 1 2 3 4 5 6 
#
# 1 134.8845 53.7924 14.0151 0.0000 25.9736 0.0000
# 2 53.7924 97.6679 41.8272 0.0000 -5.4667 0.0000
# 3 14.0151 41.8272 102.6167 0.0000 -10.1766 0.0000
# 4 0.0000 0.0000 0.0000 42.0422 0.0000 -8.4574
# 5 25.9736 -5.4667 -10.1766 0.0000 57.3980 0.0000
# 6 0.0000 0.0000 0.0000 -8.4574 0.0000 36.4454
#
#
#
# Elastic Compliance Matrix: (Units=1/GPa)
#
#
# Indices 1 2 3 4 5 6 
#
# 1 0.011082 -0.006699 0.000668 0.000000 -0.005534 0.000000
# 2 -0.006699 0.016459 -0.005433 0.000000 0.003636 0.000000
# 3 0.000668 -0.005433 0.011998 0.000000 0.001307 0.000000
# 4 0.000000 0.000000 0.000000 0.024950 0.000000 0.005790
# 5 -0.005534 0.003636 0.001307 0.000000 0.020505 0.000000
# 6 0.000000 0.000000 0.000000 0.005790 0.000000 0.028782
#
#
# Mechanical properties :
#
#
# Convention : Reuss Voigt Hill
#
# Bulk Modulus (GPa) = 60.20431 61.60429 60.90430
# Shear Modulus (GPa) = 35.15164 42.21274 38.68219
#
# Velocity S-wave (km/s) = 3.84314 4.21149 4.03153
# Velocity P-wave (km/s) = 6.70740 7.03799 6.87468
#
# Compressibility (1/GPa) = 0.01661011
#
# Stress axis : x y z
#
# Youngs Moduli (GPa) = 90.23838 60.75715 83.34745
#
# Poissons Ratio (x) = 0.40704 -0.05571
# Poissons Ratio (y) = 0.60455 0.45284
# Poissons Ratio (z) = -0.06032 0.33011
#
# Static dielectric constant tensor:
#      x y z
#    x 2.086860 0.000000 -0.006590 
#    y 0.000000 1.998400 0.000000 
#    z -0.006590 0.000000 1.886580 
# 
# From -- ./inp_files/34642.got.cif
#   From: 2010.05.17/outbox.cif.g08.bks.cpg/sg14_18_cif.got.tgz:34642.got - 2010.06.03 17:49:19.
