data_PCOD9252119
_publ_section_title
;
Structure prediction by ZEFSAII (Michael W. Deem and Ramdas Pophale) SiO2 
 PCOD9252119
Probable space group: P 21/C
;
_chemical_formula_sum "Si O2"
_cell_formula_units_Z 28
_cell_length_a 8.309440
_cell_length_b 8.202675
_cell_length_c 19.162946
_cell_angle_alpha 90.000000
_cell_angle_beta 95.203727
_cell_angle_gamma 90.000000
_cell_volume 1300.756167
_symmetry_space_group_name_H-M "P 21/C"
_symmetry_group_IT_number 14
_symmetry_cell_setting 'monoclinic'
loop_
_space_group_symop_operation_xyz
x,y,z
-x,1/2+y,1/2-z
-x,-y,-z
x,1/2-y,1/2+z
loop_
_atom_site_type_symbol
_atom_site_label
_atom_site_fract_x
_atom_site_fract_y
_atom_site_fract_z
Si Si1 0.872844 0.685367 0.148587
Si Si2 0.601900 0.159842 0.982833
Si Si3 0.937443 0.670171 0.310261
Si Si4 0.730087 0.338168 0.125303
Si Si5 0.555272 0.682293 0.655974
Si Si6 0.933535 0.090749 0.928630
Si Si7 0.444176 0.176286 0.199026
O O1 0.952393 0.649996 0.227212
O O2 0.767747 0.528566 0.124920
O O3 0.748338 0.833875 0.157444
O O4 0.985303 0.738437 0.089100
O O5 0.495091 0.249832 0.921335
O O6 0.750323 0.108306 0.941424
O O7 0.674008 0.258447 0.050086
O O8 0.500000 0.000000 0.000000
O O9 0.946978 0.509563 0.357799
O O10 0.747499 0.723845 0.316743
O O11 0.095032 0.769212 0.342135
O O12 0.578625 0.290625 0.168385
O O13 0.522084 0.805603 0.717418
O O14 0.480293 0.506599 0.673207
O O15 0.000000 0.000000 0.000000
#
# Coordination Sequence:
#
# PCOD9252119 Si02
#       7
#     4   4   4   4   4   4   4
#     4  11  27  44  68 109 142 188 246 301 369 432
#     4  12  24  45  73 104 140 195 241 286 372 440
#     4  11  23  45  72 104 137 191 247 294 363 444
#     4  12  25  46  72 103 151 186 239 308 358 438
#     4  11  23  44  70 103 141 184 242 295 360 437
#     4  12  23  45  72 100 142 193 240 297 367 441
#     4  11  23  43  71 104 140 186 242 295 369 424
#
# _framework density 21.525939999999999
#
# number of rings (size 3 to 8) (size 9 to 14) (size 15 to 20)
#    0.000    0.571    4.286    4.286    2.000    2.286 
#    2.571    0.000    0.000    0.000    0.000    0.000 
#    0.000    0.000    0.000    0.000    0.000    0.000 
#
# Total GULP energy -156113.441591 kJ/mol
# GULP energy per Si atom -5575.480057 kJ/mol
# Density = 2.147695 g / cm^3
# Si number density = 21.525940 Si / 1000 Ang^3
#
#
#
# Elastic Constant Matrix: (Units=GPa)
#
#
# Indices 1 2 3 4 5 6 
#
# 1 140.9075 72.1487 70.2370 0.0000 -4.1805 0.0000
# 2 72.1487 87.3467 62.2640 0.0000 2.2533 0.0000
# 3 70.2370 62.2640 169.1075 0.0000 25.3087 0.0000
# 4 0.0000 0.0000 0.0000 34.3660 0.0000 -0.0367
# 5 -4.1805 2.2533 25.3087 0.0000 42.3401 0.0000
# 6 0.0000 0.0000 0.0000 -0.0367 0.0000 30.4799
#
#
#
# Elastic Compliance Matrix: (Units=1/GPa)
#
#
# Indices 1 2 3 4 5 6 
#
# 1 0.013153 -0.009083 -0.002620 0.000000 0.003348 0.000000
# 2 -0.009083 0.022114 -0.004458 0.000000 0.000591 0.000000
# 3 -0.002620 -0.004458 0.009495 0.000000 -0.005697 0.000000
# 4 0.000000 0.000000 0.000000 0.029099 0.000000 0.000035
# 5 0.003348 0.000591 -0.005697 0.000000 0.027323 0.000000
# 6 0.000000 0.000000 0.000000 0.000035 0.000000 0.032809
#
#
# Mechanical properties :
#
#
# Convention : Reuss Voigt Hill
#
# Bulk Modulus (GPa) = 80.38186 89.62901 85.00543
# Shear Modulus (GPa) = 29.33218 34.28466 31.80842
#
# Velocity S-wave (km/s) = 3.69540 3.99521 3.84823
# Velocity P-wave (km/s) = 7.45862 7.93791 7.70199
#
# Compressibility (1/GPa) = 0.01244062
#
# Stress axis : x y z
#
# Youngs Moduli (GPa) = 76.02894 45.21989 105.31378
#
# Poissons Ratio (x) = 0.41075 0.27587
# Poissons Ratio (y) = 0.69060 0.46949
# Poissons Ratio (z) = 0.19916 0.20159
#
# Static dielectric constant tensor:
#      x y z
#    x 1.736900 0.000000 -0.046660 
#    y 0.000000 1.927800 0.000000 
#    z -0.046660 0.000000 1.843440 
# 
# From -- ./inp_files/54882.got.cif
#   From: 2010.05.17/outbox.cif.g08.bks.cpg/sg14_28_cif.got.tgz:54882.got - 2010.06.03 17:49:19.
