data_PCOD9252037
_publ_section_title
;
Structure prediction by ZEFSAII (Michael W. Deem and Ramdas Pophale) SiO2 
 PCOD9252037
Probable space group: P 21/C
;
_chemical_formula_sum "Si O2"
_cell_formula_units_Z 28
_cell_length_a 32.699616
_cell_length_b 5.093129
_cell_length_c 9.310330
_cell_angle_alpha 90.000000
_cell_angle_beta 124.936150
_cell_angle_gamma 90.000000
_cell_volume 1271.145909
_symmetry_space_group_name_H-M "P 21/C"
_symmetry_group_IT_number 14
_symmetry_cell_setting 'monoclinic'
loop_
_space_group_symop_operation_xyz
x,y,z
-x,1/2+y,1/2-z
-x,-y,-z
x,1/2-y,1/2+z
loop_
_atom_site_type_symbol
_atom_site_label
_atom_site_fract_x
_atom_site_fract_y
_atom_site_fract_z
Si Si1 0.672657 0.051025 0.833399
Si Si2 0.177862 0.079199 0.595549
Si Si3 0.030042 0.739594 0.990095
Si Si4 0.481510 0.450134 0.299865
Si Si5 0.926782 0.489778 0.194247
Si Si6 0.364111 0.052852 0.566211
Si Si7 0.788546 0.435646 0.514620
O O1 0.664523 0.794807 0.916372
O O2 0.645898 0.294004 0.858328
O O3 0.652463 0.996312 0.631838
O O4 0.730972 0.117647 0.936332
O O5 0.119927 0.155692 0.446732
O O6 0.189239 0.818080 0.523660
O O7 0.186687 0.018516 0.781893
O O8 0.208770 0.320033 0.591357
O O9 0.058037 0.695235 0.900841
O O10 0.079119 0.815755 0.179213
O O11 0.981182 0.902557 0.846904
O O12 0.000000 0.500000 0.000000
O O13 0.509366 0.208535 0.278607
O O14 0.500000 0.500000 0.500000
O O15 0.422872 0.387089 0.185934
#
# Coordination Sequence:
#
# PCOD9252037 Si02
#       7
#     4   4   4   4   4   4   4
#     4  12  24  44  70  96 134 170 232 279 332 397
#     4  12  27  44  71  98 135 172 219 266 343 398
#     4  11  23  42  61  92 121 161 204 253 307 364
#     4  12  24  42  64  97 142 180 225 278 333 396
#     4  11  25  39  67  88 126 161 208 255 309 390
#     4  12  24  42  69 101 130 184 226 277 334 395
#     4  12  26  48  68 102 132 176 216 284 335 394
#
# _framework density 22.027369
#
# number of rings (size 3 to 8) (size 9 to 14) (size 15 to 20)
#    0.000    0.286    1.429    8.143    4.000    0.000 
#    0.000    0.000    0.000    0.000    0.000    0.000 
#    0.000    0.000    0.000    0.000    0.000    0.000 
#
# Total GULP energy -156266.206884 kJ/mol
# GULP energy per Si atom -5580.935960 kJ/mol
# Density = 2.197723 g / cm^3
# Si number density = 22.027369 Si / 1000 Ang^3
#
#
#
# Elastic Constant Matrix: (Units=GPa)
#
#
# Indices 1 2 3 4 5 6 
#
# 1 49.8003 -7.4509 2.1101 0.0000 -7.8254 0.0000
# 2 -7.4509 75.0751 -20.4039 0.0000 -33.1996 0.0000
# 3 2.1101 -20.4039 107.2590 0.0000 -13.0036 0.0000
# 4 0.0000 0.0000 0.0000 25.3009 0.0000 -5.0900
# 5 -7.8254 -33.1996 -13.0036 0.0000 54.4472 0.0000
# 6 0.0000 0.0000 0.0000 -5.0900 0.0000 36.6314
#
#
#
# Elastic Compliance Matrix: (Units=1/GPa)
#
#
# Indices 1 2 3 4 5 6 
#
# 1 0.021959 0.005665 0.001490 0.000000 0.006966 0.000000
# 2 0.005665 0.022682 0.006157 0.000000 0.016115 0.000000
# 3 0.001490 0.006157 0.011273 0.000000 0.006661 0.000000
# 4 0.000000 0.000000 0.000000 0.040661 0.000000 0.005650
# 5 0.006966 0.016115 0.006661 0.000000 0.030785 0.000000
# 6 0.000000 0.000000 0.000000 0.005650 0.000000 0.028084
#
#
# Mechanical properties :
#
#
# Convention : Reuss Voigt Hill
#
# Bulk Modulus (GPa) = 12.11550 20.07165 16.09357
# Shear Modulus (GPa) = 31.98317 40.46784 36.22550
#
# Velocity S-wave (km/s) = 3.81461 4.29086 4.05973
# Velocity P-wave (km/s) = 4.99137 5.80350 5.41269
#
# Compressibility (1/GPa) = 0.08253892
#
# Stress axis : x y z
#
# Youngs Moduli (GPa) = 45.53881 44.08760 88.70971
#
# Poissons Ratio (x) = -0.24976 -0.13220
# Poissons Ratio (y) = -0.25798 -0.54620
# Poissons Ratio (z) = -0.06786 -0.27145
#
# Static dielectric constant tensor:
#      x y z
#    x 0.769080 0.000000 0.514320 
#    y 0.000000 1.509280 0.000000 
#    z 0.514320 0.000000 1.491780 
# 
# From -- ./inp_files/19859.got.cif
#   From: 2010.05.17/outbox.cif.g08.bks.cpg/sg14_10_cif.got.tgz:19859.got - 2010.06.03 17:49:19.
