data_PCOD9252707
_publ_section_title
;
Structure prediction by ZEFSAII (Michael W. Deem and Ramdas Pophale) SiO2 
 PCOD9252707
Probable space group: P 21/C
;
_chemical_formula_sum "Si O2"
_cell_formula_units_Z 20
_cell_length_a 10.998334
_cell_length_b 7.649249
_cell_length_c 23.512960
_cell_angle_alpha 90.000000
_cell_angle_beta 156.071746
_cell_angle_gamma 90.000000
_cell_volume 802.311088
_symmetry_space_group_name_H-M "P 21/C"
_symmetry_group_IT_number 14
_symmetry_cell_setting 'monoclinic'
loop_
_space_group_symop_operation_xyz
x,y,z
-x,1/2+y,1/2-z
-x,-y,-z
x,1/2-y,1/2+z
loop_
_atom_site_type_symbol
_atom_site_label
_atom_site_fract_x
_atom_site_fract_y
_atom_site_fract_z
Si Si1 0.790139 0.191797 0.468838
Si Si2 0.723677 0.921235 0.972548
Si Si3 0.255320 0.098141 0.320472
Si Si4 0.375255 0.725913 0.422696
Si Si5 0.205982 0.867898 0.663707
O O1 0.854437 0.390621 0.513207
O O2 0.477016 0.141216 0.364198
O O3 0.758123 0.171959 0.387544
O O4 0.041601 0.055692 0.597817
O O5 0.507736 0.913576 0.935145
O O6 0.514380 0.867241 0.829735
O O7 0.980174 0.778092 0.090999
O O8 0.383440 0.201296 0.430024
O O9 0.915753 0.157462 0.169267
O O10 0.278583 0.894150 0.344489
#
# Coordination Sequence:
#
# PCOD9252707 Si02
#       5
#     4   4   4   4   4
#     4  11  27  46  73 107 147 199 243 306 367 440
#     4  12  26  48  77 109 148 194 247 308 371 438
#     4  11  25  44  69 102 150 180 248 294 364 438
#     4  11  25  44  70 107 139 194 234 304 362 436
#     4  11  28  48  74 111 149 193 250 305 372 442
#
# _framework density 24.927985
#
# number of rings (size 3 to 8) (size 9 to 14) (size 15 to 20)
#    0.000    0.800    2.000    3.000   11.200    6.400 
#    0.000    0.000    0.000    0.000    0.000    0.000 
#    0.000    0.000    0.000    0.000    0.000    0.000 
#
# Total GULP energy -112404.058971 kJ/mol
# GULP energy per Si atom -5620.202949 kJ/mol
# Density = 2.487125 g / cm^3
# Si number density = 24.927985 Si / 1000 Ang^3
#
#
#
# Elastic Constant Matrix: (Units=GPa)
#
#
# Indices 1 2 3 4 5 6 
#
# 1 91.2253 -0.1351 3.6836 0.0000 4.3816 0.0000
# 2 -0.1351 134.8296 57.0353 0.0000 0.9138 0.0000
# 3 3.6836 57.0353 84.0418 0.0000 -28.3159 0.0000
# 4 0.0000 0.0000 0.0000 31.8327 0.0000 6.0375
# 5 4.3816 0.9138 -28.3159 0.0000 26.9656 0.0000
# 6 0.0000 0.0000 0.0000 6.0375 0.0000 40.0041
#
#
#
# Elastic Compliance Matrix: (Units=1/GPa)
#
#
# Indices 1 2 3 4 5 6 
#
# 1 0.011350 0.001422 -0.003250 0.000000 -0.005305 0.000000
# 2 0.001422 0.013902 -0.015063 0.000000 -0.016519 0.000000
# 3 -0.003250 -0.015063 0.034995 0.000000 0.037786 0.000000
# 4 0.000000 0.000000 0.000000 0.032340 0.000000 -0.004881
# 5 -0.005305 -0.016519 0.037786 0.000000 0.078184 0.000000
# 6 0.000000 0.000000 0.000000 -0.004881 0.000000 0.025734
#
#
# Mechanical properties :
#
#
# Convention : Reuss Voigt Hill
#
# Bulk Modulus (GPa) = 37.78543 47.91827 42.85185
# Shear Modulus (GPa) = 20.91109 36.39468 28.65289
#
# Velocity S-wave (km/s) = 2.89945 3.82513 3.39400
# Velocity P-wave (km/s) = 5.13808 6.22682 5.70846
#
# Compressibility (1/GPa) = 0.02646523
#
# Stress axis : x y z
#
# Youngs Moduli (GPa) = 88.10543 71.93240 28.57580
#
# Poissons Ratio (x) = -0.10230 0.09288
# Poissons Ratio (y) = -0.12531 0.43043
# Poissons Ratio (z) = 0.28636 1.08350
#
# Static dielectric constant tensor:
#      x y z
#    x 1.928770 0.000000 -0.016740 
#    y 0.000000 1.951040 0.000000 
#    z -0.016740 0.000000 1.899350 
# 
# From -- ./inp_files/77177.got.cif
#   From: 2010.05.17/outbox.cif.g08.bks.cpg/sg14_39_cif.got.tgz:77177.got - 2010.06.03 17:49:19.
