data_PCOD9252100
_publ_section_title
;
Structure prediction by ZEFSAII (Michael W. Deem and Ramdas Pophale) SiO2 
 PCOD9252100
Probable space group: P 21/C
;
_chemical_formula_sum "Si O2"
_cell_formula_units_Z 24
_cell_length_a 18.943499
_cell_length_b 7.005361
_cell_length_c 14.175565
_cell_angle_alpha 90.000000
_cell_angle_beta 138.434029
_cell_angle_gamma 90.000000
_cell_volume 1248.131142
_symmetry_space_group_name_H-M "P 21/C"
_symmetry_group_IT_number 14
_symmetry_cell_setting 'monoclinic'
loop_
_space_group_symop_operation_xyz
x,y,z
-x,1/2+y,1/2-z
-x,-y,-z
x,1/2-y,1/2+z
loop_
_atom_site_type_symbol
_atom_site_label
_atom_site_fract_x
_atom_site_fract_y
_atom_site_fract_z
Si Si1 0.862621 0.443931 0.168926
Si Si2 0.000681 0.696191 0.868730
Si Si3 0.647285 0.626735 0.606931
Si Si4 0.637884 0.944728 0.444045
Si Si5 0.852318 0.374172 0.812079
Si Si6 0.500586 0.804451 0.132798
O O1 0.940338 0.351540 0.169726
O O2 0.829684 0.295236 0.216897
O O3 0.925925 0.621295 0.277710
O O4 0.750355 0.499983 0.009619
O O5 0.930272 0.518789 0.834391
O O6 0.088920 0.714951 0.038759
O O7 0.670386 0.796427 0.557768
O O8 0.749696 0.500225 0.735728
O O9 0.569406 0.482531 0.473087
O O10 0.588332 0.715474 0.638378
O O11 0.560216 0.851991 0.289547
O O12 0.574610 0.122630 0.425803
#
# Coordination Sequence:
#
# PCOD9252100 Si02
#       6
#     4   4   4   4   4   4
#     4  12  23  42  67  96 128 173 216 263 324 379
#     4  11  24  41  65  94 131 169 212 268 318 381
#     4  11  23  43  64  93 130 169 215 264 319 379
#     4  12  23  42  67  96 128 173 216 263 324 379
#     4  11  23  43  64  93 130 169 215 264 319 379
#     4  11  24  41  65  94 131 169 212 268 318 381
#
# _framework density 19.228746999999998
#
# number of rings (size 3 to 8) (size 9 to 14) (size 15 to 20)
#    0.000    0.667    6.667    2.000    0.000    0.000 
#    0.000    1.667    0.000    0.000    0.000    0.000 
#    0.000    0.000    0.000    0.000    0.000    0.000 
#
# Total GULP energy -134057.959031 kJ/mol
# GULP energy per Si atom -5585.748293 kJ/mol
# Density = 1.918498 g / cm^3
# Si number density = 19.228747 Si / 1000 Ang^3
#
#
#
# Elastic Constant Matrix: (Units=GPa)
#
#
# Indices 1 2 3 4 5 6 
#
# 1 97.6692 30.3688 24.3806 0.0000 12.4228 0.0000
# 2 30.3688 66.8646 27.2678 0.0000 0.9746 0.0000
# 3 24.3806 27.2678 97.5419 0.0000 10.7104 0.0000
# 4 0.0000 0.0000 0.0000 29.3708 0.0000 15.1976
# 5 12.4228 0.9746 10.7104 0.0000 32.4709 0.0000
# 6 0.0000 0.0000 0.0000 15.1976 0.0000 26.2465
#
#
#
# Elastic Compliance Matrix: (Units=1/GPa)
#
#
# Indices 1 2 3 4 5 6 
#
# 1 0.012715 -0.005202 -0.001252 0.000000 -0.004295 0.000000
# 2 -0.005202 0.019045 -0.004337 0.000000 0.002849 0.000000
# 3 -0.001252 -0.004337 0.012151 0.000000 -0.003398 0.000000
# 4 0.000000 0.000000 0.000000 0.048612 0.000000 -0.028148
# 5 -0.004295 0.002849 -0.003398 0.000000 0.033476 0.000000
# 6 0.000000 0.000000 0.000000 -0.028148 0.000000 0.054399
#
#
# Mechanical properties :
#
#
# Convention : Reuss Voigt Hill
#
# Bulk Modulus (GPa) = 44.78437 47.34557 46.06497
# Shear Modulus (GPa) = 23.87519 29.62152 26.74835
#
# Velocity S-wave (km/s) = 3.52751 3.92915 3.73374
# Velocity P-wave (km/s) = 6.31918 6.72756 6.52657
#
# Compressibility (1/GPa) = 0.02232922
#
# Stress axis : x y z
#
# Youngs Moduli (GPa) = 78.64757 52.50696 82.30093
#
# Poissons Ratio (x) = 0.27312 0.10307
# Poissons Ratio (y) = 0.40909 0.35692
# Poissons Ratio (z) = 0.09850 0.22771
#
# Static dielectric constant tensor:
#      x y z
#    x 1.658200 0.000000 0.022180 
#    y 0.000000 1.647780 0.000000 
#    z 0.022180 0.000000 1.662620 
# 
# From -- ./inp_files/49736.got.cif
#   From: 2010.05.17/outbox.cif.g08.bks.cpg/sg14_25_cif.got.tgz:49736.got - 2010.06.03 17:49:19.
