data_PCOD9252197
_publ_section_title
;
Structure prediction by ZEFSAII (Michael W. Deem and Ramdas Pophale) SiO2 
 PCOD9252197
Probable space group: P 21/C
;
_chemical_formula_sum "Si O2"
_cell_formula_units_Z 26
_cell_length_a 10.534683
_cell_length_b 16.190905
_cell_length_c 9.610653
_cell_angle_alpha 90.000000
_cell_angle_beta 141.147954
_cell_angle_gamma 90.000000
_cell_volume 1028.321061
_symmetry_space_group_name_H-M "P 21/C"
_symmetry_group_IT_number 14
_symmetry_cell_setting 'monoclinic'
loop_
_space_group_symop_operation_xyz
x,y,z
-x,1/2+y,1/2-z
-x,-y,-z
x,1/2-y,1/2+z
loop_
_atom_site_type_symbol
_atom_site_label
_atom_site_fract_x
_atom_site_fract_y
_atom_site_fract_z
Si Si1 0.725268 0.239964 0.261983
Si Si2 0.661189 0.543690 0.742786
Si Si3 0.145140 0.014465 0.993948
Si Si4 0.944451 0.091727 0.596722
Si Si5 0.500000 0.000000 0.500000
Si Si6 0.103419 0.661113 0.365371
Si Si7 0.630231 0.835338 0.452511
O O1 0.820226 0.322051 0.412513
O O2 0.780026 0.213530 0.152925
O O3 0.492182 0.254924 0.102068
O O4 0.831523 0.171378 0.446818
O O5 0.500000 0.500000 0.500000
O O6 0.861305 0.574352 0.832990
O O7 0.766862 0.477235 0.936928
O O8 0.047268 0.092567 0.834624
O O9 0.124166 0.937882 0.867608
O O10 0.368692 0.013336 0.242650
O O11 0.000000 0.000000 0.000000
O O12 0.423442 0.091733 0.486339
O O13 0.867859 0.681406 0.154415
O O14 0.580536 0.622691 0.760028
#
# Coordination Sequence:
#
# PCOD9252197 Si02
#       7
#     4   4   4   4   2   4   4
#     4  12  30  47  82 119 174 225 275 354 438 521
#     4  11  23  44  83 114 157 213 283 350 411 516
#     4  12  24  48  84 115 162 218 288 358 424 518
#     4  11  24  47  77 117 162 216 276 351 438 492
#     4  12  24  44  86 118 148 226 290 354 420 514
#     4  12  27  53  76 118 172 219 279 351 427 512
#     4  12  26  49  80 120 164 216 285 342 430 511
#
# _framework density 25.283930000000002
#
# number of rings (size 3 to 8) (size 9 to 14) (size 15 to 20)
#    0.000    0.308    6.154    1.846    4.308    3.692 
#    0.000    0.000    0.000    0.000    0.000    0.000 
#    0.000    0.000    0.000    0.000    0.000    0.000 
#
# Total GULP energy -144973.119481 kJ/mol
# GULP energy per Si atom -5575.889211 kJ/mol
# Density = 2.522638 g / cm^3
# Si number density = 25.283930 Si / 1000 Ang^3
#
#
#
# Elastic Constant Matrix: (Units=GPa)
#
#
# Indices 1 2 3 4 5 6 
#
# 1 142.9317 51.3029 57.3947 0.0000 18.0974 0.0000
# 2 51.3029 65.3491 20.7839 0.0000 12.2043 0.0000
# 3 57.3947 20.7839 162.6737 0.0000 14.7380 0.0000
# 4 0.0000 0.0000 0.0000 57.0621 0.0000 -4.9936
# 5 18.0974 12.2043 14.7380 0.0000 37.7881 0.0000
# 6 0.0000 0.0000 0.0000 -4.9936 0.0000 46.5337
#
#
#
# Elastic Compliance Matrix: (Units=1/GPa)
#
#
# Indices 1 2 3 4 5 6 
#
# 1 0.010998 -0.007419 -0.002770 0.000000 -0.001791 0.000000
# 2 -0.007419 0.021735 0.000160 0.000000 -0.003529 0.000000
# 3 -0.002770 0.000160 0.007245 0.000000 -0.001551 0.000000
# 4 0.000000 0.000000 0.000000 0.017691 0.000000 0.001898
# 5 -0.001791 -0.003529 -0.001551 0.000000 0.029066 0.000000
# 6 0.000000 0.000000 0.000000 0.001898 0.000000 0.021694
#
#
# Mechanical properties :
#
#
# Convention : Reuss Voigt Hill
#
# Bulk Modulus (GPa) = 50.20052 69.99083 60.09568
# Shear Modulus (GPa) = 37.00261 44.37499 40.68880
#
# Velocity S-wave (km/s) = 3.82970 4.19390 4.01593
# Velocity P-wave (km/s) = 6.28119 7.15498 6.73227
#
# Compressibility (1/GPa) = 0.01992011
#
# Stress axis : x y z
#
# Youngs Moduli (GPa) = 90.92223 46.00928 138.03171
#
# Poissons Ratio (x) = 0.34134 0.38240
# Poissons Ratio (y) = 0.67454 -0.02213
# Poissons Ratio (z) = 0.25189 -0.00738
#
# Static dielectric constant tensor:
#      x y z
#    x 2.054560 0.000000 -0.008280 
#    y 0.000000 2.043650 0.000000 
#    z -0.008280 0.000000 2.026390 
# 
# From -- ./inp_files/49235.got.cif
#   From: 2010.05.17/outbox.cif.g08.bks.cpg/sg14_25_cif.got.tgz:49235.got - 2010.06.03 17:49:19.
