data_PCOD9252267
_publ_section_title
;
Structure prediction by ZEFSAII (Michael W. Deem and Ramdas Pophale) SiO2 
 PCOD9252267
Probable space group: P 21/C
;
_chemical_formula_sum "Si O2"
_cell_formula_units_Z 32
_cell_length_a 13.529995
_cell_length_b 18.544683
_cell_length_c 11.694279
_cell_angle_alpha 90.000000
_cell_angle_beta 33.114236
_cell_angle_gamma 90.000000
_cell_volume 1602.985970
_symmetry_space_group_name_H-M "P 21/C"
_symmetry_group_IT_number 14
_symmetry_cell_setting 'monoclinic'
loop_
_space_group_symop_operation_xyz
x,y,z
-x,1/2+y,1/2-z
-x,-y,-z
x,1/2-y,1/2+z
loop_
_atom_site_type_symbol
_atom_site_label
_atom_site_fract_x
_atom_site_fract_y
_atom_site_fract_z
Si Si1 0.163607 0.048873 0.885679
Si Si2 0.926177 0.322993 0.705374
Si Si3 0.402188 0.019723 0.869915
Si Si4 0.000996 0.333420 0.223632
Si Si5 0.676088 0.363810 0.154504
Si Si6 0.696585 0.199212 0.205277
Si Si7 0.636960 0.903106 0.528868
Si Si8 0.159011 0.951280 0.295365
O O1 0.299107 0.058316 0.649061
O O2 0.264379 0.015942 0.897162
O O3 0.077072 0.124761 0.007320
O O4 0.000000 0.000000 0.000000
O O5 0.008484 0.246193 0.661818
O O6 0.771778 0.308976 0.760266
O O7 0.828905 0.360394 0.907879
O O8 0.559315 0.961843 0.692128
O O9 0.495008 0.097978 0.784659
O O10 0.296185 0.998924 0.087092
O O11 0.858081 0.326475 0.465458
O O12 0.923871 0.390335 0.207408
O O13 0.191926 0.361434 0.084872
O O14 0.652069 0.281982 0.219312
O O15 0.741990 0.411629 0.196615
O O16 0.523181 0.151064 0.347947
O O17 0.000000 0.000000 0.500000
#
# Coordination Sequence:
#
# PCOD9252267 Si02
#       8
#     4   4   4   4   4   4   4   4
#     4  12  24  43  72 105 142 185 233 292 355 413
#     4  11  23  46  71 100 145 183 237 290 349 420
#     4  12  25  44  68 108 140 182 241 289 353 426
#     4  11  24  45  70 103 138 191 231 287 353 412
#     4  11  25  43  69 102 139 191 228 293 350 414
#     4  11  23  47  69 101 143 179 236 296 346 408
#     4  12  24  43  75 102 140 182 237 286 354 416
#     4  12  24  47  68  98 146 186 231 289 352 426
#
# _framework density 19.962744000000001
#
# number of rings (size 3 to 8) (size 9 to 14) (size 15 to 20)
#    0.000    0.500    3.750    5.250    1.750    0.000 
#    4.500    0.000    0.000    0.000    0.000    0.000 
#    0.000    0.000    0.000    0.000    0.000    0.000 
#
# Total GULP energy -179176.531008 kJ/mol
# GULP energy per Si atom -5599.266594 kJ/mol
# Density = 1.991731 g / cm^3
# Si number density = 19.962744 Si / 1000 Ang^3
#
#
#
# Elastic Constant Matrix: (Units=GPa)
#
#
# Indices 1 2 3 4 5 6 
#
# 1 109.0905 27.8092 21.2216 0.0000 -7.8064 0.0000
# 2 27.8092 86.6949 54.2219 0.0000 -6.4011 0.0000
# 3 21.2216 54.2219 121.7853 0.0000 4.0487 0.0000
# 4 0.0000 0.0000 0.0000 41.0410 0.0000 -1.8683
# 5 -7.8064 -6.4011 4.0487 0.0000 34.7198 0.0000
# 6 0.0000 0.0000 0.0000 -1.8683 0.0000 41.5678
#
#
#
# Elastic Compliance Matrix: (Units=1/GPa)
#
#
# Indices 1 2 3 4 5 6 
#
# 1 0.010112 -0.002727 -0.000609 0.000000 0.001842 0.000000
# 2 -0.002727 0.017235 -0.007312 0.000000 0.003417 0.000000
# 3 -0.000609 -0.007312 0.011667 0.000000 -0.002846 0.000000
# 4 0.000000 0.000000 0.000000 0.024416 0.000000 0.001097
# 5 0.001842 0.003417 -0.002846 0.000000 0.030178 0.000000
# 6 0.000000 0.000000 0.000000 0.001097 0.000000 0.024106
#
#
# Mechanical properties :
#
#
# Convention : Reuss Voigt Hill
#
# Bulk Modulus (GPa) = 56.43762 58.23066 57.33414
# Shear Modulus (GPa) = 34.50277 37.75360 36.12818
#
# Velocity S-wave (km/s) = 4.16186 4.35351 4.25877
# Velocity P-wave (km/s) = 7.17131 7.38267 7.27775
#
# Compressibility (1/GPa) = 0.01771868
#
# Stress axis : x y z
#
# Youngs Moduli (GPa) = 98.89146 58.02272 85.70931
#
# Poissons Ratio (x) = 0.15820 0.05223
# Poissons Ratio (y) = 0.26963 0.62669
# Poissons Ratio (z) = 0.06026 0.42425
#
# Static dielectric constant tensor:
#      x y z
#    x 1.688790 0.000000 0.008230 
#    y 0.000000 1.682800 0.000000 
#    z 0.008230 0.000000 1.671930 
# 
# From -- ./inp_files/32968.got.cif
#   From: 2010.05.17/outbox.cif.g08.bks.cpg/sg14_17_cif.got.tgz:32968.got - 2010.06.03 17:49:19.
