data_PCOD9252761
_publ_section_title
;
Structure prediction by ZEFSAII (Michael W. Deem and Ramdas Pophale) SiO2 
 PCOD9252761
Probable space group: P 21/C
;
_chemical_formula_sum "Si O2"
_cell_formula_units_Z 32
_cell_length_a 7.626028
_cell_length_b 12.613031
_cell_length_c 13.069884
_cell_angle_alpha 90.000000
_cell_angle_beta 90.510348
_cell_angle_gamma 90.000000
_cell_volume 1257.107343
_symmetry_space_group_name_H-M "P 21/C"
_symmetry_group_IT_number 14
_symmetry_cell_setting 'monoclinic'
loop_
_space_group_symop_operation_xyz
x,y,z
-x,1/2+y,1/2-z
-x,-y,-z
x,1/2-y,1/2+z
loop_
_atom_site_type_symbol
_atom_site_label
_atom_site_fract_x
_atom_site_fract_y
_atom_site_fract_z
Si Si1 0.428983 0.114650 0.532565
Si Si2 0.620210 0.940903 0.238248
Si Si3 0.107000 0.841670 0.976655
Si Si4 0.333173 0.408596 0.682468
Si Si5 0.503468 0.159039 0.975276
Si Si6 0.980396 0.422652 0.311544
Si Si7 0.970709 0.881212 0.534864
Si Si8 0.017957 0.307353 0.742189
O O1 0.432129 0.113775 0.655539
O O2 0.526317 0.214674 0.484992
O O3 0.232601 0.135230 0.491648
O O4 0.500000 0.000000 0.500000
O O5 0.829476 0.950957 0.232676
O O6 0.513793 0.052530 0.233464
O O7 0.556332 0.880132 0.135617
O O8 0.050552 0.861928 0.860959
O O9 0.302550 0.881322 0.996994
O O10 0.996754 0.894342 0.067690
O O11 0.076748 0.715032 0.985188
O O12 0.375577 0.380231 0.565260
O O13 0.191172 0.503405 0.699889
O O14 0.229796 0.309094 0.730155
O O15 0.941134 0.309091 0.257857
O O16 0.013391 0.869479 0.653981
O O17 0.000000 0.000000 0.500000
#
# Coordination Sequence:
#
# PCOD9252761 Si02
#       8
#     4   4   4   4   4   4   4   4
#     4  12  28  50  79 112 158 207 262 323 393 468
#     4  12  27  48  80 112 159 209 253 330 396 456
#     4  11  25  45  77 108 158 202 257 320 387 463
#     4  12  27  48  75 116 155 201 266 318 389 470
#     4  12  27  48  75 118 158 200 265 326 387 468
#     4  11  26  49  74 115 155 203 261 317 389 464
#     4  11  25  46  70 109 145 198 262 312 381 467
#     4  11  26  46  75 108 155 204 247 325 385 457
#
# _framework density 25.455264
#
# number of rings (size 3 to 8) (size 9 to 14) (size 15 to 20)
#    0.000    0.500    1.250    6.375    7.000    2.000 
#    0.000    0.000    0.000    0.000    0.000    0.000 
#    0.000    0.000    0.000    0.000    0.000    0.000 
#
# Total GULP energy -179326.497259 kJ/mol
# GULP energy per Si atom -5603.953039 kJ/mol
# Density = 2.539733 g / cm^3
# Si number density = 25.455264 Si / 1000 Ang^3
#
#
#
# Elastic Constant Matrix: (Units=GPa)
#
#
# Indices 1 2 3 4 5 6 
#
# 1 87.5126 8.9643 -0.6289 0.0000 -1.6873 0.0000
# 2 8.9643 96.0107 2.4716 0.0000 -17.5825 0.0000
# 3 -0.6289 2.4716 133.2561 0.0000 1.1786 0.0000
# 4 0.0000 0.0000 0.0000 38.5612 0.0000 -12.3903
# 5 -1.6873 -17.5825 1.1786 0.0000 34.5148 0.0000
# 6 0.0000 0.0000 0.0000 -12.3903 0.0000 53.3694
#
#
#
# Elastic Compliance Matrix: (Units=1/GPa)
#
#
# Indices 1 2 3 4 5 6 
#
# 1 0.011538 -0.001077 0.000074 0.000000 0.000013 0.000000
# 2 -0.001077 0.011597 -0.000272 0.000000 0.005864 0.000000
# 3 0.000074 -0.000272 0.007513 0.000000 -0.000392 0.000000
# 4 0.000000 0.000000 0.000000 0.028023 0.000000 0.006506
# 5 0.000013 0.005864 -0.000392 0.000000 0.031974 0.000000
# 6 0.000000 0.000000 0.000000 0.006506 0.000000 0.020248
#
#
# Mechanical properties :
#
#
# Convention : Reuss Voigt Hill
#
# Bulk Modulus (GPa) = 35.58833 37.59928 36.59380
# Shear Modulus (GPa) = 40.71357 45.68724 43.20041
#
# Velocity S-wave (km/s) = 4.00361 4.24111 4.12407
# Velocity P-wave (km/s) = 5.94836 6.22780 6.08968
#
# Compressibility (1/GPa) = 0.02809910
#
# Stress axis : x y z
#
# Youngs Moduli (GPa) = 86.67002 86.22926 133.09895
#
# Poissons Ratio (x) = 0.09285 -0.00989
# Poissons Ratio (y) = 0.09333 0.03621
# Poissons Ratio (z) = -0.00644 0.02346
#
# Static dielectric constant tensor:
#      x y z
#    x 2.073920 0.000000 -0.013400 
#    y 0.000000 1.977000 0.000000 
#    z -0.013400 0.000000 1.968450 
# 
# From -- ./inp_files/25507.got.cif
#   From: 2010.05.17/outbox.cif.g08.bks.cpg/sg14_13_cif.got.tgz:25507.got - 2010.06.03 17:49:19.
