data_PCOD9252409
_publ_section_title
;
Structure prediction by ZEFSAII (Michael W. Deem and Ramdas Pophale) SiO2 
 PCOD9252409
Probable space group: P 21/C
;
_chemical_formula_sum "Si O2"
_cell_formula_units_Z 28
_cell_length_a 12.288616
_cell_length_b 6.008530
_cell_length_c 20.867930
_cell_angle_alpha 90.000000
_cell_angle_beta 123.891625
_cell_angle_gamma 90.000000
_cell_volume 1279.021221
_symmetry_space_group_name_H-M "P 21/C"
_symmetry_group_IT_number 14
_symmetry_cell_setting 'monoclinic'
loop_
_space_group_symop_operation_xyz
x,y,z
-x,1/2+y,1/2-z
-x,-y,-z
x,1/2-y,1/2+z
loop_
_atom_site_type_symbol
_atom_site_label
_atom_site_fract_x
_atom_site_fract_y
_atom_site_fract_z
Si Si1 0.856539 0.700246 0.622884
Si Si2 0.702588 0.518865 0.306018
Si Si3 0.071829 0.351696 0.716189
Si Si4 0.550507 0.754965 0.991877
Si Si5 0.794105 0.335575 0.934989
Si Si6 0.000514 0.470754 0.091589
Si Si7 0.557662 0.643064 0.849697
O O1 0.883026 0.839220 0.696372
O O2 0.704152 0.723299 0.558665
O O3 0.931844 0.472206 0.663545
O O4 0.929491 0.799934 0.584778
O O5 0.814955 0.540094 0.289819
O O6 0.767407 0.378033 0.384084
O O7 0.578441 0.412665 0.229176
O O8 0.641052 0.728261 0.323020
O O9 0.058302 0.115800 0.676740
O O10 0.500000 0.500000 0.000000
O O11 0.530965 0.761703 0.908479
O O12 0.500000 0.000000 0.000000
O O13 0.651859 0.438580 0.900939
O O14 0.883754 0.499274 0.920924
O O15 0.886758 0.309781 0.026930
#
# Coordination Sequence:
#
# PCOD9252409 Si02
#       7
#     4   4   4   4   4   4   4
#     4  12  26  45  74 103 148 198 244 311 375 449
#     4  12  26  43  71 107 141 189 246 307 378 447
#     4  12  26  43  71 107 141 189 246 307 378 447
#     4  12  32  54  78 112 154 206 260 312 382 464
#     4  11  24  43  69 103 143 178 240 302 374 443
#     4  11  24  43  69 103 143 178 240 302 374 443
#     4  12  26  45  74 103 148 198 244 311 375 449
#
# _framework density 21.891742000000001
#
# number of rings (size 3 to 8) (size 9 to 14) (size 15 to 20)
#    0.000    0.286    7.143    0.857    6.000    4.000 
#    0.000    0.000    0.000    0.000    0.000    0.000 
#    0.000    0.000    0.000    0.000    0.000    0.000 
#
# Total GULP energy -156130.438680 kJ/mol
# GULP energy per Si atom -5576.087096 kJ/mol
# Density = 2.184192 g / cm^3
# Si number density = 21.891742 Si / 1000 Ang^3
#
#
#
# Elastic Constant Matrix: (Units=GPa)
#
#
# Indices 1 2 3 4 5 6 
#
# 1 65.2192 22.2682 18.0699 0.0000 1.6506 0.0000
# 2 22.2682 40.6744 5.3010 0.0000 6.0974 0.0000
# 3 18.0699 5.3010 108.2606 0.0000 6.7596 0.0000
# 4 0.0000 0.0000 0.0000 33.0705 0.0000 -8.5155
# 5 1.6506 6.0974 6.7596 0.0000 44.6765 0.0000
# 6 0.0000 0.0000 0.0000 -8.5155 0.0000 35.3074
#
#
#
# Elastic Compliance Matrix: (Units=1/GPa)
#
#
# Indices 1 2 3 4 5 6 
#
# 1 0.019708 -0.010591 -0.002842 0.000000 0.001147 0.000000
# 2 -0.010591 0.030904 0.000498 0.000000 -0.003902 0.000000
# 3 -0.002842 0.000498 0.009777 0.000000 -0.001442 0.000000
# 4 0.000000 0.000000 0.000000 0.032241 0.000000 0.007776
# 5 0.001147 -0.003902 -0.001442 0.000000 0.023091 0.000000
# 6 0.000000 0.000000 0.000000 0.007776 0.000000 0.030198
#
#
# Mechanical properties :
#
#
# Convention : Reuss Voigt Hill
#
# Bulk Modulus (GPa) = 28.97048 33.93694 31.45371
# Shear Modulus (GPa) = 27.27843 33.84522 30.56182
#
# Velocity S-wave (km/s) = 3.53379 3.93622 3.74042
# Velocity P-wave (km/s) = 5.46923 6.01617 5.74920
#
# Compressibility (1/GPa) = 0.03451789
#
# Stress axis : x y z
#
# Youngs Moduli (GPa) = 50.74200 32.35854 102.28017
#
# Poissons Ratio (x) = 0.34271 0.29073
# Poissons Ratio (y) = 0.53740 -0.05095
# Poissons Ratio (z) = 0.14423 -0.01612
#
# Static dielectric constant tensor:
#      x y z
#    x 2.005200 0.000000 -0.089750 
#    y 0.000000 1.886900 0.000000 
#    z -0.089750 0.000000 1.796370 
# 
# From -- ./inp_files/66563.got.cif
#   From: 2010.05.17/outbox.cif.g08.bks.cpg/sg14_34_cif.got.tgz:66563.got - 2010.06.03 17:49:19.
