data_PCOD9252161
_publ_section_title
;
Structure prediction by ZEFSAII (Michael W. Deem and Ramdas Pophale) SiO2 
 PCOD9252161
Probable space group: P 21/C
;
_chemical_formula_sum "Si O2"
_cell_formula_units_Z 32
_cell_length_a 11.266914
_cell_length_b 14.455429
_cell_length_c 9.250758
_cell_angle_alpha 90.000000
_cell_angle_beta 70.918231
_cell_angle_gamma 90.000000
_cell_volume 1423.867054
_symmetry_space_group_name_H-M "P 21/C"
_symmetry_group_IT_number 14
_symmetry_cell_setting 'monoclinic'
loop_
_space_group_symop_operation_xyz
x,y,z
-x,1/2+y,1/2-z
-x,-y,-z
x,1/2-y,1/2+z
loop_
_atom_site_type_symbol
_atom_site_label
_atom_site_fract_x
_atom_site_fract_y
_atom_site_fract_z
Si Si1 0.091726 0.854347 0.373944
Si Si2 0.249714 0.482340 0.667161
Si Si3 0.208496 0.790508 0.632261
Si Si4 0.801066 0.627486 0.033389
Si Si5 0.303312 0.329346 0.442848
Si Si6 0.416355 0.896750 0.687562
Si Si7 0.432043 0.641761 0.507057
Si Si8 0.621362 0.903392 0.376673
O O1 0.166116 0.828194 0.492616
O O2 0.102169 0.765465 0.262878
O O3 0.950034 0.877893 0.472665
O O4 0.150188 0.941830 0.264861
O O5 0.255783 0.408215 0.793971
O O6 0.227294 0.418064 0.535458
O O7 0.371968 0.544575 0.584942
O O8 0.274806 0.868292 0.703798
O O9 0.321020 0.715636 0.575599
O O10 0.762662 0.731782 0.007423
O O11 0.733274 0.566849 0.938199
O O12 0.439938 0.336901 0.461881
O O13 0.326379 0.335815 0.263342
O O14 0.452937 0.858179 0.827300
O O15 0.509702 0.867269 0.522018
O O16 0.428715 0.007029 0.686270
#
# Coordination Sequence:
#
# PCOD9252161 Si02
#       8
#     4   4   4   4   4   4   4   4
#     4  11  27  47  75 101 143 195 246 296 359 426
#     4  11  25  48  73 103 142 192 239 297 368 431
#     4  11  24  44  72 103 138 186 238 298 351 430
#     4  12  27  48  69 104 145 192 243 298 363 429
#     4  12  26  44  72 104 147 185 238 298 369 431
#     4  11  23  44  69 102 144 176 235 291 361 433
#     4  11  24  45  70 107 142 190 233 295 372 429
#     4  11  26  40  68 104 137 185 231 294 356 435
#
# _framework density 22.474008999999999
#
# number of rings (size 3 to 8) (size 9 to 14) (size 15 to 20)
#    0.000    0.750    2.500    3.750   10.500    2.000 
#    0.000    0.625    0.000    0.000    0.000    0.000 
#    0.000    0.000    0.000    0.000    0.000    0.000 
#
# Total GULP energy -178990.292893 kJ/mol
# GULP energy per Si atom -5593.446653 kJ/mol
# Density = 2.242286 g / cm^3
# Si number density = 22.474009 Si / 1000 Ang^3
#
#
#
# Elastic Constant Matrix: (Units=GPa)
#
#
# Indices 1 2 3 4 5 6 
#
# 1 45.6147 6.9106 -4.1904 0.0000 -6.2246 0.0000
# 2 6.9106 93.6985 11.7293 0.0000 -10.7614 0.0000
# 3 -4.1904 11.7293 83.2719 0.0000 13.6229 0.0000
# 4 0.0000 0.0000 0.0000 26.8407 0.0000 8.8386
# 5 -6.2246 -10.7614 13.6229 0.0000 17.6222 0.0000
# 6 0.0000 0.0000 0.0000 8.8386 0.0000 21.5594
#
#
#
# Elastic Compliance Matrix: (Units=1/GPa)
#
#
# Indices 1 2 3 4 5 6 
#
# 1 0.023092 -0.000831 0.000032 0.000000 0.007624 0.000000
# 2 -0.000831 0.012285 -0.003379 0.000000 0.009820 0.000000
# 3 0.000032 -0.003379 0.014678 0.000000 -0.013399 0.000000
# 4 0.000000 0.000000 0.000000 0.043072 0.000000 -0.017658
# 5 0.007624 0.009820 -0.013399 0.000000 0.075795 0.000000
# 6 0.000000 0.000000 0.000000 -0.017658 0.000000 0.053623
#
#
# Mechanical properties :
#
#
# Convention : Reuss Voigt Hill
#
# Bulk Modulus (GPa) = 23.98173 27.94271 25.96222
# Shear Modulus (GPa) = 20.42478 27.08015 23.75247
#
# Velocity S-wave (km/s) = 3.01793 3.47501 3.25451
# Velocity P-wave (km/s) = 4.77890 5.34427 5.06948
#
# Compressibility (1/GPa) = 0.04169842
#
# Stress axis : x y z
#
# Youngs Moduli (GPa) = 43.30495 81.40226 68.12717
#
# Poissons Ratio (x) = 0.06768 -0.00217
# Poissons Ratio (y) = 0.03601 0.23018
# Poissons Ratio (z) = -0.00138 0.27504
#
# Static dielectric constant tensor:
#      x y z
#    x 1.804010 0.000000 -0.014530 
#    y 0.000000 1.863750 0.000000 
#    z -0.014530 0.000000 1.798130 
# 
# From -- ./inp_files/13289.got.cif
#   From: 2010.05.17/outbox.cif.g08.bks.cpg/sg14_7_cif.got.tgz:13289.got - 2010.06.03 17:49:19.
