data_PCOD9252551
_publ_section_title
;
Structure prediction by ZEFSAII (Michael W. Deem and Ramdas Pophale) SiO2 
 PCOD9252551
Probable space group: P 21/C
;
_chemical_formula_sum "Si O2"
_cell_formula_units_Z 32
_cell_length_a 14.908104
_cell_length_b 8.754564
_cell_length_c 12.943054
_cell_angle_alpha 90.000000
_cell_angle_beta 64.198353
_cell_angle_gamma 90.000000
_cell_volume 1520.841549
_symmetry_space_group_name_H-M "P 21/C"
_symmetry_group_IT_number 14
_symmetry_cell_setting 'monoclinic'
loop_
_space_group_symop_operation_xyz
x,y,z
-x,1/2+y,1/2-z
-x,-y,-z
x,1/2-y,1/2+z
loop_
_atom_site_type_symbol
_atom_site_label
_atom_site_fract_x
_atom_site_fract_y
_atom_site_fract_z
Si Si1 0.247759 0.380602 0.302912
Si Si2 0.606151 0.915193 0.447046
Si Si3 0.257694 0.628308 0.449492
Si Si4 0.882507 0.273159 0.808650
Si Si5 0.897570 0.639373 0.800960
Si Si6 0.742625 0.371908 0.207129
Si Si7 0.614023 0.544859 0.443195
Si Si8 0.247926 0.119345 0.449422
O O1 0.330293 0.455582 0.186796
O O2 0.204563 0.507206 0.400972
O O3 0.164652 0.311249 0.268817
O O4 0.291979 0.249986 0.353997
O O5 0.611949 0.729488 0.444266
O O6 0.669441 0.955769 0.517444
O O7 0.500000 0.000000 0.500000
O O8 0.180366 0.714681 0.561748
O O9 0.306902 0.750068 0.346300
O O10 0.331915 0.532142 0.485124
O O11 0.892668 0.455398 0.803445
O O12 0.820149 0.214414 0.741552
O O13 0.991696 0.200530 0.754312
O O14 0.835030 0.688763 0.933077
O O15 0.668580 0.468082 0.317275
O O16 0.795492 0.492870 0.105181
O O17 0.500000 0.500000 0.500000
#
# Coordination Sequence:
#
# PCOD9252551 Si02
#       8
#     4   4   4   4   4   4   4   4
#     4  11  24  46  68  94 134 184 223 276 341 402
#     4  11  26  44  67 101 137 173 229 283 338 407
#     4  11  24  46  69  94 139 179 228 280 337 403
#     4  11  26  42  67 103 135 177 225 285 335 407
#     4  11  26  42  67 101 137 175 227 282 341 399
#     4  11  24  46  69  94 139 179 228 280 337 403
#     4  11  26  44  67 101 135 175 227 283 341 404
#     4  11  24  46  68  94 134 184 223 276 341 402
#
# _framework density 21.040982
#
# number of rings (size 3 to 8) (size 9 to 14) (size 15 to 20)
#    0.000    1.000    5.000    0.000    7.000    3.000 
#    0.000    0.000    0.000    0.000    0.000    0.000 
#    0.000    0.000    0.000    0.000    0.000    0.000 
#
# Total GULP energy -178760.929044 kJ/mol
# GULP energy per Si atom -5586.279033 kJ/mol
# Density = 2.099309 g / cm^3
# Si number density = 21.040982 Si / 1000 Ang^3
#
#
#
# Elastic Constant Matrix: (Units=GPa)
#
#
# Indices 1 2 3 4 5 6 
#
# 1 113.7353 33.3996 74.7924 0.0000 -19.2787 0.0000
# 2 33.3996 79.4281 45.2158 0.0000 5.9159 0.0000
# 3 74.7924 45.2158 125.6755 0.0000 26.7460 0.0000
# 4 0.0000 0.0000 0.0000 31.9832 0.0000 -2.4916
# 5 -19.2787 5.9159 26.7460 0.0000 20.6163 0.0000
# 6 0.0000 0.0000 0.0000 -2.4916 0.0000 37.3358
#
#
#
# Elastic Compliance Matrix: (Units=1/GPa)
#
#
# Indices 1 2 3 4 5 6 
#
# 1 -0.072153 -0.002610 0.080230 0.000000 -0.170808 0.000000
# 2 -0.002610 0.015973 -0.003728 0.000000 -0.002187 0.000000
# 3 0.080230 -0.003728 -0.075483 0.000000 0.174021 0.000000
# 4 0.000000 0.000000 0.000000 0.031430 0.000000 0.002097
# 5 -0.170808 -0.002187 0.174021 0.000000 -0.336355 0.000000
# 6 0.000000 0.000000 0.000000 0.002097 0.000000 0.026924
#
#
# Mechanical properties :
#
#
# Convention : Reuss Voigt Hill
#
# Bulk Modulus (GPa) = 62.03285 69.51717 65.77501
# Shear Modulus (GPa) = -9.05673 29.01580 9.97954
#
# Velocity S-wave (km/s) = -2.07694 3.71754 2.18018
# Velocity P-wave (km/s) = 4.87795 7.17896 6.13725
#
# Compressibility (1/GPa) = 0.01612049
#
# Stress axis : x y z
#
# Youngs Moduli (GPa) = -13.85935 62.60737 -13.24799
#
# Poissons Ratio (x) = 0.16338 1.06289
# Poissons Ratio (y) = -0.03617 -0.04939
# Poissons Ratio (z) = 1.11194 0.23341
#
# Static dielectric constant tensor:
#      x y z
#    x 1.710710 0.000000 0.027030 
#    y 0.000000 1.829320 0.000000 
#    z 0.027030 0.000000 1.766790 
# 
# From -- ./inp_files/31808.got.cif
#   From: 2010.05.17/outbox.cif.g08.bks.cpg/sg14_16_cif.got.tgz:31808.got - 2010.06.03 17:49:19.
