data_PCOD9252672
_publ_section_title
;
Structure prediction by ZEFSAII (Michael W. Deem and Ramdas Pophale) SiO2 
 PCOD9252672
Probable space group: P 21/C
;
_chemical_formula_sum "Si O2"
_cell_formula_units_Z 26
_cell_length_a 5.075092
_cell_length_b 11.665523
_cell_length_c 18.099413
_cell_angle_alpha 90.000000
_cell_angle_beta 75.613569
_cell_angle_gamma 90.000000
_cell_volume 1037.948805
_symmetry_space_group_name_H-M "P 21/C"
_symmetry_group_IT_number 14
_symmetry_cell_setting 'monoclinic'
loop_
_space_group_symop_operation_xyz
x,y,z
-x,1/2+y,1/2-z
-x,-y,-z
x,1/2-y,1/2+z
loop_
_atom_site_type_symbol
_atom_site_label
_atom_site_fract_x
_atom_site_fract_y
_atom_site_fract_z
Si Si1 0.949449 0.315945 0.472262
Si Si2 0.623401 0.614800 0.823848
Si Si3 0.818196 0.648921 0.381006
Si Si4 0.266538 0.926231 0.477481
Si Si5 0.500000 0.000000 0.000000
Si Si6 0.599824 0.761128 0.174890
Si Si7 0.066338 0.613351 0.212202
O O1 0.789088 0.196058 0.480873
O O2 0.762997 0.419556 0.459154
O O3 0.042969 0.336617 0.549408
O O4 0.232413 0.308576 0.406630
O O5 0.743887 0.726462 0.854999
O O6 0.347725 0.592672 0.887111
O O7 0.584576 0.645345 0.741022
O O8 0.815014 0.506256 0.822565
O O9 0.549412 0.578274 0.421184
O O10 0.001908 0.598194 0.303521
O O11 0.500000 0.000000 0.500000
O O12 0.000000 0.000000 0.500000
O O13 0.301078 0.709197 0.183837
O O14 0.792699 0.658519 0.192632
#
# Coordination Sequence:
#
# PCOD9252672 Si02
#       7
#     4   4   4   4   2   4   4
#     4  12  26  48  76 115 155 213 264 330 396 482
#     4  11  24  50  73 110 149 204 254 328 392 473
#     4  11  26  49  77 114 155 209 270 323 405 477
#     4  12  25  43  76 109 149 196 259 319 383 462
#     4  12  26  46  74 110 158 194 276 316 396 472
#     4  11  27  47  75 112 156 201 264 325 402 476
#     4  11  26  48  75 112 153 205 261 331 401 473
#
# _framework density 25.049405
#
# number of rings (size 3 to 8) (size 9 to 14) (size 15 to 20)
#    0.000    0.615    1.538    5.077    4.308    4.923 
#    0.000    0.000    0.000    0.000    0.000    0.000 
#    0.000    0.000    0.000    0.000    0.000    0.000 
#
# Total GULP energy -145445.352424 kJ/mol
# GULP energy per Si atom -5594.052016 kJ/mol
# Density = 2.499239 g / cm^3
# Si number density = 25.049405 Si / 1000 Ang^3
#
#
#
# Elastic Constant Matrix: (Units=GPa)
#
#
# Indices 1 2 3 4 5 6 
#
# 1 68.2981 18.0967 44.0410 0.0000 -6.7537 0.0000
# 2 18.0967 67.1173 5.6493 0.0000 -12.4991 0.0000
# 3 44.0410 5.6493 154.2060 0.0000 -29.6869 0.0000
# 4 0.0000 0.0000 0.0000 46.0913 0.0000 -14.6531
# 5 -6.7537 -12.4991 -29.6869 0.0000 43.5021 0.0000
# 6 0.0000 0.0000 0.0000 -14.6531 0.0000 33.6179
#
#
#
# Elastic Compliance Matrix: (Units=1/GPa)
#
#
# Indices 1 2 3 4 5 6 
#
# 1 0.019575 -0.005245 -0.005875 0.000000 -0.002477 0.000000
# 2 -0.005245 0.017162 0.001913 0.000000 0.005422 0.000000
# 3 -0.005875 0.001913 0.009236 0.000000 0.005941 0.000000
# 4 0.000000 0.000000 0.000000 0.025186 0.000000 0.010978
# 5 -0.002477 0.005422 0.005941 0.000000 0.028215 0.000000
# 6 0.000000 0.000000 0.000000 0.010978 0.000000 0.034531
#
#
# Mechanical properties :
#
#
# Convention : Reuss Voigt Hill
#
# Bulk Modulus (GPa) = 36.28534 47.24396 41.76465
# Shear Modulus (GPa) = 30.95852 39.43121 35.19486
#
# Velocity S-wave (km/s) = 3.51935 3.97184 3.75242
# Velocity P-wave (km/s) = 5.57058 6.31944 5.95679
#
# Compressibility (1/GPa) = 0.02755934
#
# Stress axis : x y z
#
# Youngs Moduli (GPa) = 51.08533 58.26759 108.26706
#
# Poissons Ratio (x) = 0.30560 0.63611
# Poissons Ratio (y) = 0.26793 -0.20712
# Poissons Ratio (z) = 0.30015 -0.11147
#
# Static dielectric constant tensor:
#      x y z
#    x 2.325360 0.000000 0.222640 
#    y 0.000000 2.041060 0.000000 
#    z 0.222640 0.000000 2.212720 
# 
# From -- ./inp_files/63438.got.cif
#   From: 2010.05.17/outbox.cif.g08.bks.cpg/sg14_32_cif.got.tgz:63438.got - 2010.06.03 17:49:19.
