data_PCOD9252222
_publ_section_title
;
Structure prediction by ZEFSAII (Michael W. Deem and Ramdas Pophale) SiO2 
 PCOD9252222
Probable space group: P 21/C
;
_chemical_formula_sum "Si O2"
_cell_formula_units_Z 32
_cell_length_a 9.475055
_cell_length_b 13.571254
_cell_length_c 10.895703
_cell_angle_alpha 90.000000
_cell_angle_beta 64.811517
_cell_angle_gamma 90.000000
_cell_volume 1267.837578
_symmetry_space_group_name_H-M "P 21/C"
_symmetry_group_IT_number 14
_symmetry_cell_setting 'monoclinic'
loop_
_space_group_symop_operation_xyz
x,y,z
-x,1/2+y,1/2-z
-x,-y,-z
x,1/2-y,1/2+z
loop_
_atom_site_type_symbol
_atom_site_label
_atom_site_fract_x
_atom_site_fract_y
_atom_site_fract_z
Si Si1 0.601739 0.465744 0.190039
Si Si2 0.312848 0.424318 0.180054
Si Si3 0.399645 0.574196 0.448938
Si Si4 0.871817 0.111084 0.261870
Si Si5 0.609076 0.239542 0.228920
Si Si6 0.909068 0.593151 0.092083
Si Si7 0.841414 0.934258 0.997047
Si Si8 0.719827 0.764753 0.507383
O O1 0.500517 0.436230 0.109259
O O2 0.456556 0.525112 0.301807
O O3 0.642278 0.356782 0.222647
O O4 0.740881 0.539695 0.165688
O O5 0.226744 0.517788 0.154633
O O6 0.217813 0.410709 0.343517
O O7 0.287530 0.328204 0.110818
O O8 0.500000 0.500000 0.500000
O O9 0.400683 0.688736 0.404960
O O10 0.223514 0.537207 0.531228
O O11 0.746788 0.188095 0.255872
O O12 0.992055 0.130867 0.327986
O O13 0.980575 0.079853 0.106020
O O14 0.439793 0.227588 0.355508
O O15 0.866121 0.688449 0.026717
O O16 0.000000 0.500000 0.000000
O O17 0.747958 0.847626 0.961742
#
# Coordination Sequence:
#
# PCOD9252222 Si02
#       8
#     4   4   4   4   4   4   4   4
#     4  11  25  47  70 107 143 189 256 296 370 443
#     4  11  24  47  75 100 144 195 239 304 357 444
#     4  11  23  45  71 104 144 193 237 305 367 442
#     4  12  26  47  74 103 152 191 242 304 374 432
#     4  12  26  47  74 113 140 196 256 302 370 448
#     4  12  27  47  69 107 154 196 240 312 374 434
#     4  11  26  46  72 109 145 191 242 299 374 436
#     4  12  26  47  75 107 149 195 251 296 371 442
#
# _framework density 25.239826000000001
#
# number of rings (size 3 to 8) (size 9 to 14) (size 15 to 20)
#    0.000    0.500    7.500    1.125    7.000    1.000 
#    0.000    0.000    0.000    0.000    0.000    0.000 
#    0.000    0.000    0.000    0.000    0.000    0.000 
#
# Total GULP energy -178402.306291 kJ/mol
# GULP energy per Si atom -5575.072072 kJ/mol
# Density = 2.518238 g / cm^3
# Si number density = 25.239826 Si / 1000 Ang^3
#
#
#
# Elastic Constant Matrix: (Units=GPa)
#
#
# Indices 1 2 3 4 5 6 
#
# 1 143.6378 14.8074 18.3075 0.0000 -0.1954 0.0000
# 2 14.8074 91.2579 -8.1791 0.0000 -10.6703 0.0000
# 3 18.3075 -8.1791 45.6641 0.0000 -9.8368 0.0000
# 4 0.0000 0.0000 0.0000 8.2052 0.0000 9.5591
# 5 -0.1954 -10.6703 -9.8368 0.0000 42.8735 0.0000
# 6 0.0000 0.0000 0.0000 9.5591 0.0000 41.8722
#
#
#
# Elastic Compliance Matrix: (Units=1/GPa)
#
#
# Indices 1 2 3 4 5 6 
#
# 1 0.007596 -0.001698 -0.003612 0.000000 -0.001217 0.000000
# 2 -0.001698 0.012008 0.003654 0.000000 0.003819 0.000000
# 3 -0.003612 0.003654 0.025452 0.000000 0.006733 0.000000
# 4 0.000000 0.000000 0.000000 0.166032 0.000000 -0.037904
# 5 -0.001217 0.003819 0.006733 0.000000 0.025814 0.000000
# 6 0.000000 0.000000 0.000000 -0.037904 0.000000 0.032535
#
#
# Mechanical properties :
#
#
# Convention : Reuss Voigt Hill
#
# Bulk Modulus (GPa) = 23.95555 36.71459 30.33507
# Shear Modulus (GPa) = 17.44212 35.63178 26.53695
#
# Velocity S-wave (km/s) = 2.63165 3.76137 3.24604
# Velocity P-wave (km/s) = 4.32965 5.78289 5.10821
#
# Compressibility (1/GPa) = 0.04174399
#
# Stress axis : x y z
#
# Youngs Moduli (GPa) = 131.65341 83.28044 39.28984
#
# Poissons Ratio (x) = 0.14145 0.14190
# Poissons Ratio (y) = 0.22360 -0.14358
# Poissons Ratio (z) = 0.47547 -0.30434
#
# Static dielectric constant tensor:
#      x y z
#    x 1.847610 0.000000 -0.044120 
#    y 0.000000 2.136860 0.000000 
#    z -0.044120 0.000000 2.040190 
# 
# From -- ./inp_files/25472.got.cif
#   From: 2010.05.17/outbox.cif.g08.bks.cpg/sg14_13_cif.got.tgz:25472.got - 2010.06.03 17:49:19.
