data_PCOD9252989
_publ_section_title
;
Structure prediction by ZEFSAII (Michael W. Deem and Ramdas Pophale) SiO2 
 PCOD9252989
Probable space group: P 21/C
;
_chemical_formula_sum "Si O2"
_cell_formula_units_Z 16
_cell_length_a 16.666290
_cell_length_b 7.821259
_cell_length_c 16.127287
_cell_angle_alpha 90.000000
_cell_angle_beta 17.578260
_cell_angle_gamma 90.000000
_cell_volume 634.885846
_symmetry_space_group_name_H-M "P 21/C"
_symmetry_group_IT_number 14
_symmetry_cell_setting 'monoclinic'
loop_
_space_group_symop_operation_xyz
x,y,z
-x,1/2+y,1/2-z
-x,-y,-z
x,1/2-y,1/2+z
loop_
_atom_site_type_symbol
_atom_site_label
_atom_site_fract_x
_atom_site_fract_y
_atom_site_fract_z
Si Si1 0.336100 0.701052 0.074837
Si Si2 0.480197 0.460914 0.361838
Si Si3 0.737222 0.118970 0.174238
Si Si4 0.046690 0.977486 0.725785
O O1 0.180970 0.659638 0.312183
O O2 0.156421 0.683860 0.169969
O O3 0.444347 0.892171 0.965495
O O4 0.564394 0.555686 0.843348
O O5 0.561952 0.279912 0.318797
O O6 0.215368 0.443207 0.568497
O O7 0.713373 0.524819 0.070787
O O8 0.967495 0.101688 0.879619
#
# Coordination Sequence:
#
# PCOD9252989 Si02
#       4
#     4   4   4   4
#     4  11  27  50  76 111 152 200 249 311 378 449
#     4  12  29  48  79 110 154 198 256 308 377 446
#     4  11  27  50  76 111 152 200 249 311 378 449
#     4  12  27  48  77 116 148 200 252 312 369 450
#
# _framework density 25.20138
#
# number of rings (size 3 to 8) (size 9 to 14) (size 15 to 20)
#    0.000    0.500    2.500    3.000   14.000    0.000 
#    0.000    2.500    0.000    0.000    0.000    0.000 
#    0.000    0.000    0.000    0.000    0.000    0.000 
#
# Total GULP energy -89756.932734 kJ/mol
# GULP energy per Si atom -5609.808296 kJ/mol
# Density = 2.514402 g / cm^3
# Si number density = 25.201380 Si / 1000 Ang^3
#
#
#
# Elastic Constant Matrix: (Units=GPa)
#
#
# Indices 1 2 3 4 5 6 
#
# 1 88.0534 3.3914 22.9544 0.0000 10.8218 0.0000
# 2 3.3914 117.0978 9.8223 0.0000 -6.4143 0.0000
# 3 22.9544 9.8223 111.2505 0.0000 -5.8102 0.0000
# 4 0.0000 0.0000 0.0000 34.8004 0.0000 -1.8265
# 5 10.8218 -6.4143 -5.8102 0.0000 30.8596 0.0000
# 6 0.0000 0.0000 0.0000 -1.8265 0.0000 23.0830
#
#
#
# Elastic Compliance Matrix: (Units=1/GPa)
#
#
# Indices 1 2 3 4 5 6 
#
# 1 0.012744 -0.000408 -0.002859 0.000000 -0.005092 0.000000
# 2 -0.000408 0.008702 -0.000588 0.000000 0.001841 0.000000
# 3 -0.002859 -0.000588 0.009773 0.000000 0.002720 0.000000
# 4 0.000000 0.000000 0.000000 0.028855 0.000000 0.002283
# 5 -0.005092 0.001841 0.002720 0.000000 0.035085 0.000000
# 6 0.000000 0.000000 0.000000 0.002283 0.000000 0.043503
#
#
# Mechanical properties :
#
#
# Convention : Reuss Voigt Hill
#
# Bulk Modulus (GPa) = 42.53977 43.19309 42.86643
# Shear Modulus (GPa) = 32.42375 36.43085 34.42730
#
# Velocity S-wave (km/s) = 3.59079 3.80622 3.70007
# Velocity P-wave (km/s) = 5.84023 6.04092 5.94142
#
# Compressibility (1/GPa) = 0.02350742
#
# Stress axis : x y z
#
# Youngs Moduli (GPa) = 78.47039 114.91798 102.32617
#
# Poissons Ratio (x) = 0.04691 0.29258
# Poissons Ratio (y) = 0.03203 0.06016
# Poissons Ratio (z) = 0.22437 0.06756
#
# Static dielectric constant tensor:
#      x y z
#    x 1.950380 0.000000 -0.008990 
#    y 0.000000 2.059480 0.000000 
#    z -0.008990 0.000000 1.946120 
# 
# From -- ./inp_files/60089.got.cif
#   From: 2010.05.17/outbox.cif.g08.bks.cpg/sg14_31_cif.got.tgz:60089.got - 2010.06.03 17:49:19.
