data_PCOD9252000
_publ_section_title
;
Structure prediction by ZEFSAII (Michael W. Deem and Ramdas Pophale) SiO2 
 PCOD9252000
Probable space group: P 21/C
;
_chemical_formula_sum "Si O2"
_cell_formula_units_Z 28
_cell_length_a 5.401921
_cell_length_b 7.949253
_cell_length_c 31.961132
_cell_angle_alpha 90.000000
_cell_angle_beta 61.422506
_cell_angle_gamma 90.000000
_cell_volume 1205.246176
_symmetry_space_group_name_H-M "P 21/C"
_symmetry_group_IT_number 14
_symmetry_cell_setting 'monoclinic'
loop_
_space_group_symop_operation_xyz
x,y,z
-x,1/2+y,1/2-z
-x,-y,-z
x,1/2-y,1/2+z
loop_
_atom_site_type_symbol
_atom_site_label
_atom_site_fract_x
_atom_site_fract_y
_atom_site_fract_z
Si Si1 0.334558 0.031045 0.970273
Si Si2 0.433347 0.153722 0.410946
Si Si3 0.297368 0.322443 0.342233
Si Si4 0.854851 0.324572 0.249500
Si Si5 0.001866 0.872397 0.688042
Si Si6 0.862837 0.176416 0.161468
Si Si7 0.490870 0.767793 0.393247
O O1 0.410594 0.225342 0.952397
O O2 0.420535 0.892090 0.928316
O O3 0.500000 0.000000 0.000000
O O4 0.000000 0.000000 0.000000
O O5 0.249660 0.262658 0.392949
O O6 0.733145 0.163650 0.362532
O O7 0.382981 0.952753 0.417810
O O8 0.590608 0.386691 0.298719
O O9 0.093581 0.476440 0.348428
O O10 0.259906 0.145486 0.321037
O O11 0.048238 0.254832 0.270304
O O12 0.765660 0.208909 0.217269
O O13 0.031885 0.463108 0.211776
O O14 0.651475 0.234712 0.141135
O O15 0.167549 0.265728 0.132981
#
# Coordination Sequence:
#
# PCOD9252000 Si02
#       7
#     4   4   4   4   4   4   4
#     4  12  29  52  82 113 146 182 243 315 390 463
#     4  11  26  47  76 107 146 197 243 305 376 449
#     4  11  24  40  69 100 154 203 251 308 359 425
#     4  11  24  37  64 103 149 200 260 303 352 422
#     4  11  23  41  63 102 146 200 252 301 358 428
#     4  12  25  44  72 106 153 198 249 298 362 433
#     4  12  27  49  78 111 145 193 243 303 375 448
#
# _framework density 23.231770000000001
#
# number of rings (size 3 to 8) (size 9 to 14) (size 15 to 20)
#    0.000    0.571    2.857    4.286    8.000    3.429 
#    0.000    0.000    0.000    0.000    0.000    0.000 
#    0.000    0.000    0.000    0.000    0.000    0.000 
#
# Total GULP energy -156014.952640 kJ/mol
# GULP energy per Si atom -5571.962594 kJ/mol
# Density = 2.317889 g / cm^3
# Si number density = 23.231770 Si / 1000 Ang^3
#
#
#
# Elastic Constant Matrix: (Units=GPa)
#
#
# Indices 1 2 3 4 5 6 
#
# 1 77.6658 -1.0589 22.8729 0.0000 17.3354 0.0000
# 2 -1.0589 91.5817 6.2330 0.0000 1.2019 0.0000
# 3 22.8729 6.2330 49.9842 0.0000 13.1892 0.0000
# 4 0.0000 0.0000 0.0000 41.6449 0.0000 1.8702
# 5 17.3354 1.2019 13.1892 0.0000 39.9428 0.0000
# 6 0.0000 0.0000 0.0000 1.8702 0.0000 25.5931
#
#
#
# Elastic Compliance Matrix: (Units=1/GPa)
#
#
# Indices 1 2 3 4 5 6 
#
# 1 0.015738 0.000654 -0.005998 0.000000 -0.004869 0.000000
# 2 0.000654 0.011041 -0.001658 0.000000 -0.000069 0.000000
# 3 -0.005998 -0.001658 0.024382 0.000000 -0.005398 0.000000
# 4 0.000000 0.000000 0.000000 0.024092 0.000000 -0.001760
# 5 -0.004869 -0.000069 -0.005398 0.000000 0.028934 0.000000
# 6 0.000000 0.000000 0.000000 -0.001760 0.000000 0.039202
#
#
# Mechanical properties :
#
#
# Convention : Reuss Voigt Hill
#
# Bulk Modulus (GPa) = 26.91336 30.59174 28.75255
# Shear Modulus (GPa) = 29.45025 34.18180 31.81603
#
# Velocity S-wave (km/s) = 3.56430 3.83996 3.70470
# Velocity P-wave (km/s) = 5.34311 5.73211 5.54103
#
# Compressibility (1/GPa) = 0.03715626
#
# Stress axis : x y z
#
# Youngs Moduli (GPa) = 63.54033 90.57548 41.01336
#
# Poissons Ratio (x) = -0.05925 0.24602
# Poissons Ratio (y) = -0.04156 0.06800
# Poissons Ratio (z) = 0.38114 0.15017
#
# Static dielectric constant tensor:
#      x y z
#    x 2.029220 0.000000 0.012970 
#    y 0.000000 2.074570 0.000000 
#    z 0.012970 0.000000 1.916650 
# 
# From -- ./inp_files/78664.got.cif
#   From: 2010.05.17/outbox.cif.g08.bks.cpg/sg14_40_cif.got.tgz:78664.got - 2010.06.03 17:49:19.
