data_PCOD9252439
_publ_section_title
;
Structure prediction by ZEFSAII (Michael W. Deem and Ramdas Pophale) SiO2 
 PCOD9252439
Probable space group: P 21/C
;
_chemical_formula_sum "Si O2"
_cell_formula_units_Z 20
_cell_length_a 10.826312
_cell_length_b 8.282760
_cell_length_c 9.476697
_cell_angle_alpha 90.000000
_cell_angle_beta 84.092782
_cell_angle_gamma 90.000000
_cell_volume 845.279433
_symmetry_space_group_name_H-M "P 21/C"
_symmetry_group_IT_number 14
_symmetry_cell_setting 'monoclinic'
loop_
_space_group_symop_operation_xyz
x,y,z
-x,1/2+y,1/2-z
-x,-y,-z
x,1/2-y,1/2+z
loop_
_atom_site_type_symbol
_atom_site_label
_atom_site_fract_x
_atom_site_fract_y
_atom_site_fract_z
Si Si1 0.920859 0.339841 0.486279
Si Si2 0.224719 0.840480 0.287558
Si Si3 0.538041 0.513203 0.333076
Si Si4 0.685964 0.657618 0.749416
Si Si5 0.165539 0.150711 0.486166
O O1 0.862235 0.338948 0.339009
O O2 0.812129 0.311953 0.612767
O O3 0.000000 0.500000 0.500000
O O4 0.022252 0.198766 0.495359
O O5 0.363856 0.872765 0.219240
O O6 0.194653 0.994320 0.389975
O O7 0.500000 0.500000 0.500000
O O8 0.414740 0.482389 0.256431
O O9 0.606847 0.681763 0.298023
O O10 0.757025 0.704359 0.597353
O O11 0.784655 0.628688 0.861783
#
# Coordination Sequence:
#
# PCOD9252439 Si02
#       5
#     4   4   4   4   4
#     4  12  25  45  72 104 144 187 247 308 364 436
#     4  11  27  44  70 104 142 191 246 297 370 438
#     4  11  25  46  71 107 144 191 245 304 366 439
#     4  11  24  43  76 100 146 188 245 305 372 441
#     4  11  24  46  68 105 141 194 235 302 374 436
#
# _framework density 23.660813999999998
#
# number of rings (size 3 to 8) (size 9 to 14) (size 15 to 20)
#    0.000    0.800    2.000    5.400    2.800    6.400 
#    0.000    0.000    0.000    0.000    0.000    0.000 
#    0.000    0.000    0.000    0.000    0.000    0.000 
#
# Total GULP energy -112116.619153 kJ/mol
# GULP energy per Si atom -5605.830958 kJ/mol
# Density = 2.360696 g / cm^3
# Si number density = 23.660814 Si / 1000 Ang^3
#
#
#
# Elastic Constant Matrix: (Units=GPa)
#
#
# Indices 1 2 3 4 5 6 
#
# 1 101.6396 22.1283 10.2709 0.0000 -2.9200 0.0000
# 2 22.1283 81.3548 13.2768 0.0000 -9.6056 0.0000
# 3 10.2709 13.2768 89.8656 0.0000 11.9219 0.0000
# 4 0.0000 0.0000 0.0000 31.4370 0.0000 0.0923
# 5 -2.9200 -9.6056 11.9219 0.0000 64.6288 0.0000
# 6 0.0000 0.0000 0.0000 0.0923 0.0000 44.0036
#
#
#
# Elastic Compliance Matrix: (Units=1/GPa)
#
#
# Indices 1 2 3 4 5 6 
#
# 1 0.010517 -0.002698 -0.000834 0.000000 0.000228 0.000000
# 2 -0.002698 0.013621 -0.002006 0.000000 0.002273 0.000000
# 3 -0.000834 -0.002006 0.011854 0.000000 -0.002522 0.000000
# 4 0.000000 0.000000 0.000000 0.031810 0.000000 -0.000067
# 5 0.000228 0.002273 -0.002522 0.000000 0.016286 0.000000
# 6 0.000000 0.000000 0.000000 -0.000067 0.000000 0.022726
#
#
# Mechanical properties :
#
#
# Convention : Reuss Voigt Hill
#
# Bulk Modulus (GPa) = 40.13122 40.46800 40.29961
# Shear Modulus (GPa) = 39.62171 43.15948 41.39059
#
# Velocity S-wave (km/s) = 4.09659 4.27557 4.18704
# Velocity P-wave (km/s) = 6.27487 6.44318 6.35958
#
# Compressibility (1/GPa) = 0.02491825
#
# Stress axis : x y z
#
# Youngs Moduli (GPa) = 95.08614 73.41504 84.36008
#
# Poissons Ratio (x) = 0.19804 0.07033
# Poissons Ratio (y) = 0.25650 0.16919
# Poissons Ratio (z) = 0.07927 0.14724
#
# Static dielectric constant tensor:
#      x y z
#    x 1.868660 0.000000 -0.042230 
#    y 0.000000 1.897060 0.000000 
#    z -0.042230 0.000000 1.806020 
# 
# From -- ./inp_files/11844.got.cif
#   From: 2010.05.17/outbox.cif.g08.bks.cpg/sg14_6_cif.got.tgz:11844.got - 2010.06.03 17:49:19.
