data_PCOD9252254
_publ_section_title
;
Structure prediction by ZEFSAII (Michael W. Deem and Ramdas Pophale) SiO2 
 PCOD9252254
Probable space group: P 21/C
;
_chemical_formula_sum "Si O2"
_cell_formula_units_Z 32
_cell_length_a 9.380443
_cell_length_b 10.677231
_cell_length_c 15.072923
_cell_angle_alpha 90.000000
_cell_angle_beta 107.083149
_cell_angle_gamma 90.000000
_cell_volume 1443.054037
_symmetry_space_group_name_H-M "P 21/C"
_symmetry_group_IT_number 14
_symmetry_cell_setting 'monoclinic'
loop_
_space_group_symop_operation_xyz
x,y,z
-x,1/2+y,1/2-z
-x,-y,-z
x,1/2-y,1/2+z
loop_
_atom_site_type_symbol
_atom_site_label
_atom_site_fract_x
_atom_site_fract_y
_atom_site_fract_z
Si Si1 0.382276 0.386722 0.578584
Si Si2 0.262805 0.783354 0.595801
Si Si3 0.282409 0.548140 0.717326
Si Si4 0.994864 0.055154 0.401709
Si Si5 0.934394 0.545561 0.707074
Si Si6 0.483733 0.446366 0.898991
Si Si7 0.751033 0.772125 0.588726
Si Si8 0.295823 0.619616 0.433345
O O1 0.327931 0.429391 0.664506
O O2 0.290442 0.274898 0.516987
O O3 0.341897 0.503918 0.506322
O O4 0.558276 0.359595 0.600661
O O5 0.320630 0.671849 0.668220
O O6 0.103072 0.820023 0.604962
O O7 0.359083 0.909828 0.614789
O O8 0.259169 0.732426 0.493925
O O9 0.384857 0.537650 0.821966
O O10 0.105875 0.546734 0.705696
O O11 0.155771 0.101408 0.400125
O O12 0.933473 0.967513 0.312935
O O13 0.000000 0.000000 0.500000
O O14 0.843559 0.666505 0.656899
O O15 0.845290 0.426931 0.649079
O O16 0.401147 0.311098 0.891205
O O17 0.500000 0.500000 0.000000
#
# Coordination Sequence:
#
# PCOD9252254 Si02
#       8
#     4   4   4   4   4   4   4   4
#     4   9  20  39  68  97 129 173 225 274 325 396
#     4  11  25  44  71  99 136 181 222 280 341 394
#     4  11  25  44  69 102 133 177 235 276 334 411
#     4  12  27  44  66 101 138 179 225 275 342 408
#     4  11  25  43  70 100 136 178 230 281 331 410
#     4  12  27  46  68  98 139 178 223 282 341 403
#     4  11  23  46  69  95 140 182 221 279 344 390
#     4   9  20  40  67  98 131 169 225 276 325 394
#
# _framework density 22.175191999999999
#
# number of rings (size 3 to 8) (size 9 to 14) (size 15 to 20)
#    0.000    1.250    3.750    0.750    5.250    5.500 
#    0.000    0.000    0.000    0.000    0.000    0.000 
#    0.000    0.000    0.000    0.000    0.000    0.000 
#
# Total GULP energy -178909.842085 kJ/mol
# GULP energy per Si atom -5590.932565 kJ/mol
# Density = 2.212472 g / cm^3
# Si number density = 22.175192 Si / 1000 Ang^3
#
#
#
# Elastic Constant Matrix: (Units=GPa)
#
#
# Indices 1 2 3 4 5 6 
#
# 1 74.4298 11.0753 38.8001 0.0000 -1.4358 0.0000
# 2 11.0753 51.3440 37.4994 0.0000 2.1210 0.0000
# 3 38.8001 37.4994 149.5338 0.0000 2.7328 0.0000
# 4 0.0000 0.0000 0.0000 29.2555 0.0000 -3.2946
# 5 -1.4358 2.1210 2.7328 0.0000 29.3541 0.0000
# 6 0.0000 0.0000 0.0000 -3.2946 0.0000 36.3274
#
#
#
# Elastic Compliance Matrix: (Units=1/GPa)
#
#
# Indices 1 2 3 4 5 6 
#
# 1 0.015587 -0.000540 -0.003930 0.000000 0.001167 0.000000
# 2 -0.000540 0.023902 -0.005832 0.000000 -0.001211 0.000000
# 3 -0.003930 -0.005832 0.009181 0.000000 -0.000626 0.000000
# 4 0.000000 0.000000 0.000000 0.034534 0.000000 0.003132
# 5 0.001167 -0.001211 -0.000626 0.000000 0.034270 0.000000
# 6 0.000000 0.000000 0.000000 0.003132 0.000000 0.027811
#
#
# Mechanical properties :
#
#
# Convention : Reuss Voigt Hill
#
# Bulk Modulus (GPa) = 35.62990 50.00638 42.81814
# Shear Modulus (GPa) = 28.53131 31.51625 30.02378
#
# Velocity S-wave (km/s) = 3.59086 3.77402 3.68358
# Velocity P-wave (km/s) = 5.77015 6.44907 6.11904
#
# Compressibility (1/GPa) = 0.02806631
#
# Stress axis : x y z
#
# Youngs Moduli (GPa) = 64.15494 41.83698 108.91799
#
# Poissons Ratio (x) = 0.02259 0.42809
# Poissons Ratio (y) = 0.03464 0.63520
# Poissons Ratio (z) = 0.25216 0.24399
#
# Static dielectric constant tensor:
#      x y z
#    x 1.770980 0.000000 0.018110 
#    y 0.000000 1.884630 0.000000 
#    z 0.018110 0.000000 1.797270 
# 
# From -- ./inp_files/40367.got.cif
#   From: 2010.05.17/outbox.cif.g08.bks.cpg/sg14_21_cif.got.tgz:40367.got - 2010.06.03 17:49:19.
