data_PCOD9252032
_publ_section_title
;
Structure prediction by ZEFSAII (Michael W. Deem and Ramdas Pophale) SiO2 
 PCOD9252032
Probable space group: P 21/C
;
_chemical_formula_sum "Si O2"
_cell_formula_units_Z 20
_cell_length_a 16.655061
_cell_length_b 8.055946
_cell_length_c 17.556462
_cell_angle_alpha 90.000000
_cell_angle_beta 158.403659
_cell_angle_gamma 90.000000
_cell_volume 867.010791
_symmetry_space_group_name_H-M "P 21/C"
_symmetry_group_IT_number 14
_symmetry_cell_setting 'monoclinic'
loop_
_space_group_symop_operation_xyz
x,y,z
-x,1/2+y,1/2-z
-x,-y,-z
x,1/2-y,1/2+z
loop_
_atom_site_type_symbol
_atom_site_label
_atom_site_fract_x
_atom_site_fract_y
_atom_site_fract_z
Si Si1 0.855361 0.059585 0.515935
Si Si2 0.115750 0.775538 0.813618
Si Si3 0.746650 0.055797 0.696488
Si Si4 0.531696 0.542350 0.618338
Si Si5 0.059449 0.267808 0.066076
O O1 0.890577 0.207586 0.606697
O O2 0.021136 0.085223 0.591805
O O3 0.631499 0.079766 0.270707
O O4 0.906125 0.882740 0.601238
O O5 0.189142 0.612243 0.831066
O O6 0.311692 0.897533 0.963457
O O7 0.500000 0.000000 0.500000
O O8 0.887643 0.896994 0.840993
O O9 0.844613 0.213671 0.829798
O O10 0.500000 0.500000 0.500000
O O11 0.720424 0.685122 0.784518
#
# Coordination Sequence:
#
# PCOD9252032 Si02
#       5
#     4   4   4   4   4
#     4  12  27  45  72 102 147 186 241 299 378 426
#     4  12  26  46  69 104 144 186 235 309 367 434
#     4  11  23  41  72 102 139 182 242 290 353 426
#     4  12  24  46  76 104 142 195 247 293 366 446
#     4  11  23  43  71 103 137 188 242 293 348 448
#
# _framework density 23.067762999999999
#
# number of rings (size 3 to 8) (size 9 to 14) (size 15 to 20)
#    0.000    0.400    6.000    3.000    0.000    3.200 
#    0.000    0.000    0.000    0.000    0.000    0.000 
#    0.000    0.000    0.000    0.000    0.000    0.000 
#
# Total GULP energy -111422.686265 kJ/mol
# GULP energy per Si atom -5571.134313 kJ/mol
# Density = 2.301526 g / cm^3
# Si number density = 23.067763 Si / 1000 Ang^3
#
#
#
# Elastic Constant Matrix: (Units=GPa)
#
#
# Indices 1 2 3 4 5 6 
#
# 1 109.2996 16.5886 45.8802 0.0000 -30.3060 0.0000
# 2 16.5886 61.0567 28.1208 0.0000 -19.9189 0.0000
# 3 45.8802 28.1208 116.5163 0.0000 -21.3959 0.0000
# 4 0.0000 0.0000 0.0000 55.2176 0.0000 -8.0265
# 5 -30.3060 -19.9189 -21.3959 0.0000 35.4957 0.0000
# 6 0.0000 0.0000 0.0000 -8.0265 0.0000 55.9649
#
#
#
# Elastic Compliance Matrix: (Units=1/GPa)
#
#
# Indices 1 2 3 4 5 6 
#
# 1 0.013228 0.001316 -0.003730 0.000000 0.009784 0.000000
# 2 0.001316 0.021240 -0.003654 0.000000 0.010840 0.000000
# 3 -0.003730 -0.003654 0.011213 0.000000 0.001524 0.000000
# 4 0.000000 0.000000 0.000000 0.018496 0.000000 0.002653
# 5 0.009784 0.010840 0.001524 0.000000 0.043528 0.000000
# 6 0.000000 0.000000 0.000000 0.002653 0.000000 0.018249
#
#
# Mechanical properties :
#
#
# Convention : Reuss Voigt Hill
#
# Bulk Modulus (GPa) = 29.81024 52.00577 40.90800
# Shear Modulus (GPa) = 33.49635 42.42118 37.95877
#
# Velocity S-wave (km/s) = 3.81476 4.29299 4.06092
# Velocity P-wave (km/s) = 5.68807 6.86780 6.30559
#
# Compressibility (1/GPa) = 0.03354552
#
# Stress axis : x y z
#
# Youngs Moduli (GPa) = 75.59754 47.08110 89.18404
#
# Poissons Ratio (x) = -0.06195 0.33262
# Poissons Ratio (y) = -0.09947 0.32585
# Poissons Ratio (z) = 0.28195 0.17202
#
# Static dielectric constant tensor:
#      x y z
#    x 1.883170 0.000000 -0.034100 
#    y 0.000000 1.952260 0.000000 
#    z -0.034100 0.000000 1.998410 
# 
# From -- ./inp_files/52716.got.cif
#   From: 2010.05.17/outbox.cif.g08.bks.cpg/sg14_27_cif.got.tgz:52716.got - 2010.06.03 17:49:19.
