data_PCOD9252412
_publ_section_title
;
Structure prediction by ZEFSAII (Michael W. Deem and Ramdas Pophale) SiO2 
 PCOD9252412
Probable space group: P 21/C
;
_chemical_formula_sum "Si O2"
_cell_formula_units_Z 32
_cell_length_a 9.931276
_cell_length_b 11.904002
_cell_length_c 15.762187
_cell_angle_alpha 90.000000
_cell_angle_beta 62.994742
_cell_angle_gamma 90.000000
_cell_volume 1660.256132
_symmetry_space_group_name_H-M "P 21/C"
_symmetry_group_IT_number 14
_symmetry_cell_setting 'monoclinic'
loop_
_space_group_symop_operation_xyz
x,y,z
-x,1/2+y,1/2-z
-x,-y,-z
x,1/2-y,1/2+z
loop_
_atom_site_type_symbol
_atom_site_label
_atom_site_fract_x
_atom_site_fract_y
_atom_site_fract_z
Si Si1 0.408557 0.302122 0.726038
Si Si2 0.845032 0.461131 0.587892
Si Si3 0.823240 0.239012 0.861686
Si Si4 0.729285 0.234076 0.692874
Si Si5 0.210259 0.482849 0.880938
Si Si6 0.871016 0.012007 0.409384
Si Si7 0.599489 0.078331 0.030287
Si Si8 0.851153 0.874686 0.241971
O O1 0.551658 0.261282 0.739493
O O2 0.323529 0.400289 0.800932
O O3 0.485097 0.349621 0.619367
O O4 0.289261 0.207058 0.734817
O O5 0.822272 0.328602 0.613691
O O6 0.706946 0.489880 0.564570
O O7 0.835715 0.523817 0.679898
O O8 0.000000 0.500000 0.500000
O O9 0.784839 0.235401 0.773261
O O10 0.809840 0.365971 0.899505
O O11 0.710490 0.157424 0.944413
O O12 0.993768 0.192076 0.821786
O O13 0.750776 0.112531 0.646194
O O14 0.044668 0.467778 0.887353
O O15 0.205816 0.464752 0.983319
O O16 0.858870 0.926849 0.334047
O O17 0.500000 0.000000 0.000000
#
# Coordination Sequence:
#
# PCOD9252412 Si02
#       8
#     4   4   4   4   4   4   4   4
#     4  11  27  45  67 103 139 180 230 285 356 417
#     4  11  24  44  69 101 138 180 234 284 339 411
#     4  12  23  45  68 102 142 181 233 285 340 424
#     4  11  25  42  71 101 143 184 223 290 357 406
#     4  11  24  45  70 100 141 177 231 290 349 411
#     4  11  24  43  70 104 132 180 232 289 346 405
#     4  11  26  45  69 100 138 185 226 285 346 409
#     4  12  25  44  71 102 137 179 236 286 338 421
#
# _framework density 19.274134
#
# number of rings (size 3 to 8) (size 9 to 14) (size 15 to 20)
#    0.000    0.750    5.000    2.250    5.250    2.000 
#    0.000    1.875    0.000    0.000    0.000    0.000 
#    0.000    0.000    0.000    0.000    0.000    0.000 
#
# Total GULP energy -178919.258305 kJ/mol
# GULP energy per Si atom -5591.226822 kJ/mol
# Density = 1.923027 g / cm^3
# Si number density = 19.274134 Si / 1000 Ang^3
#
#
#
# Elastic Constant Matrix: (Units=GPa)
#
#
# Indices 1 2 3 4 5 6 
#
# 1 83.0628 41.3314 50.1158 0.0000 -3.0981 0.0000
# 2 41.3314 87.3356 46.2436 0.0000 -4.6567 0.0000
# 3 50.1158 46.2436 105.9946 0.0000 0.9070 0.0000
# 4 0.0000 0.0000 0.0000 32.3830 0.0000 -3.7993
# 5 -3.0981 -4.6567 0.9070 0.0000 35.9538 0.0000
# 6 0.0000 0.0000 0.0000 -3.7993 0.0000 37.5328
#
#
#
# Elastic Compliance Matrix: (Units=1/GPa)
#
#
# Indices 1 2 3 4 5 6 
#
# 1 0.018655 -0.005326 -0.006506 0.000000 0.001082 0.000000
# 2 -0.005326 0.016569 -0.004726 0.000000 0.001806 0.000000
# 3 -0.006506 -0.004726 0.014586 0.000000 -0.001541 0.000000
# 4 0.000000 0.000000 0.000000 0.031252 0.000000 0.003163
# 5 0.001082 0.001806 -0.001541 0.000000 0.028179 0.000000
# 6 0.000000 0.000000 0.000000 0.003163 0.000000 0.026964
#
#
# Mechanical properties :
#
#
# Convention : Reuss Voigt Hill
#
# Bulk Modulus (GPa) = 59.90232 61.30826 60.60529
# Shear Modulus (GPa) = 28.59018 30.42076 29.50547
#
# Velocity S-wave (km/s) = 3.85560 3.97712 3.91683
# Velocity P-wave (km/s) = 7.13915 7.27788 7.20885
#
# Compressibility (1/GPa) = 0.01669384
#
# Stress axis : x y z
#
# Youngs Moduli (GPa) = 53.60526 60.35246 68.56018
#
# Poissons Ratio (x) = 0.32143 0.44605
# Poissons Ratio (y) = 0.28549 0.32403
# Poissons Ratio (z) = 0.34876 0.28524
#
# Static dielectric constant tensor:
#      x y z
#    x 1.657690 0.000000 0.006190 
#    y 0.000000 1.732310 0.000000 
#    z 0.006190 0.000000 1.660960 
# 
# From -- ./inp_files/40298.got.cif
#   From: 2010.05.17/outbox.cif.g08.bks.cpg/sg14_21_cif.got.tgz:40298.got - 2010.06.03 17:49:19.
