data_PCOD9252813
_publ_section_title
;
Structure prediction by ZEFSAII (Michael W. Deem and Ramdas Pophale) SiO2 
 PCOD9252813
Probable space group: P 21/C
;
_chemical_formula_sum "Si O2"
_cell_formula_units_Z 24
_cell_length_a 11.309086
_cell_length_b 10.721272
_cell_length_c 9.545545
_cell_angle_alpha 90.000000
_cell_angle_beta 108.765876
_cell_angle_gamma 90.000000
_cell_volume 1095.851276
_symmetry_space_group_name_H-M "P 21/C"
_symmetry_group_IT_number 14
_symmetry_cell_setting 'monoclinic'
loop_
_space_group_symop_operation_xyz
x,y,z
-x,1/2+y,1/2-z
-x,-y,-z
x,1/2-y,1/2+z
loop_
_atom_site_type_symbol
_atom_site_label
_atom_site_fract_x
_atom_site_fract_y
_atom_site_fract_z
Si Si1 0.104248 0.833357 0.111149
Si Si2 0.422853 0.118534 0.024952
Si Si3 0.523926 0.664992 0.149899
Si Si4 0.861192 0.459703 0.911060
Si Si5 0.149261 0.456281 0.406369
Si Si6 0.304565 0.946704 0.402502
O O1 0.135782 0.690615 0.092295
O O2 0.204737 0.885546 0.260670
O O3 0.964525 0.859125 0.116969
O O4 0.112505 0.917754 0.974839
O O5 0.414381 0.214727 0.894468
O O6 0.281495 0.088334 0.015745
O O7 0.490040 0.172546 0.188949
O O8 0.500000 0.000000 0.000000
O O9 0.607376 0.544274 0.144047
O O10 0.394356 0.649485 0.017461
O O11 0.828749 0.512189 0.746990
O O12 0.771016 0.508974 0.998496
O O13 0.000000 0.500000 0.000000
#
# Coordination Sequence:
#
# PCOD9252813 Si02
#       6
#     4   4   4   4   4   4
#     4  11  25  47  72 102 148 186 236 308 356 445
#     4  12  29  49  76 108 149 191 248 299 369 435
#     4  11  29  47  77 104 149 194 241 307 357 444
#     4  12  26  43  73 107 140 190 240 295 371 439
#     4  11  26  45  72 105 142 186 236 301 371 422
#     4  11  25  50  71 105 141 191 247 292 368 427
#
# _framework density 21.900782
#
# number of rings (size 3 to 8) (size 9 to 14) (size 15 to 20)
#    0.000    0.667    3.333    2.000   16.333    0.000 
#    0.000    0.000    0.000    0.000    0.000    0.000 
#    0.000    0.000    0.000    0.000    0.000    0.000 
#
# Total GULP energy -134343.218296 kJ/mol
# GULP energy per Si atom -5597.634096 kJ/mol
# Density = 2.185094 g / cm^3
# Si number density = 21.900782 Si / 1000 Ang^3
#
#
#
# Elastic Constant Matrix: (Units=GPa)
#
#
# Indices 1 2 3 4 5 6 
#
# 1 89.4703 -4.2343 9.0182 0.0000 14.4806 0.0000
# 2 -4.2343 44.4304 8.5694 0.0000 4.5071 0.0000
# 3 9.0182 8.5694 127.6198 0.0000 -4.8594 0.0000
# 4 0.0000 0.0000 0.0000 27.0711 0.0000 -6.6586
# 5 14.4806 4.5071 -4.8594 0.0000 41.5255 0.0000
# 6 0.0000 0.0000 0.0000 -6.6586 0.0000 21.8689
#
#
#
# Elastic Compliance Matrix: (Units=1/GPa)
#
#
# Indices 1 2 3 4 5 6 
#
# 1 0.012118 0.001840 -0.001154 0.000000 -0.004561 0.000000
# 2 0.001840 0.023379 -0.001829 0.000000 -0.003393 0.000000
# 3 -0.001154 -0.001829 0.008099 0.000000 0.001549 0.000000
# 4 0.000000 0.000000 0.000000 0.039930 0.000000 0.012158
# 5 -0.004561 -0.003393 0.001549 0.000000 0.026221 0.000000
# 6 0.000000 0.000000 0.000000 0.012158 0.000000 0.049429
#
#
# Mechanical properties :
#
#
# Convention : Reuss Voigt Hill
#
# Bulk Modulus (GPa) = 24.20625 32.02523 28.11574
# Shear Modulus (GPa) = 28.53336 34.63757 31.58546
#
# Velocity S-wave (km/s) = 3.61341 3.98121 3.80176
# Velocity P-wave (km/s) = 5.33720 5.98230 5.66893
#
# Compressibility (1/GPa) = 0.04131165
#
# Stress axis : x y z
#
# Youngs Moduli (GPa) = 82.51932 42.77258 123.47081
#
# Poissons Ratio (x) = -0.07870 0.14243
# Poissons Ratio (y) = -0.15184 0.22584
# Poissons Ratio (z) = 0.09519 0.07824
#
# Static dielectric constant tensor:
#      x y z
#    x 1.861130 0.000000 -0.050990 
#    y 0.000000 1.804410 0.000000 
#    z -0.050990 0.000000 1.854270 
# 
# From -- ./inp_files/12506.got.cif
#   From: 2010.05.17/outbox.cif.g08.bks.cpg/sg14_7_cif.got.tgz:12506.got - 2010.06.03 17:49:19.
