data_PCOD9252286
_publ_section_title
;
Structure prediction by ZEFSAII (Michael W. Deem and Ramdas Pophale) SiO2 
 PCOD9252286
Probable space group: P 21/C
;
_chemical_formula_sum "Si O2"
_cell_formula_units_Z 20
_cell_length_a 8.305286
_cell_length_b 6.764777
_cell_length_c 16.677453
_cell_angle_alpha 90.000000
_cell_angle_beta 91.508418
_cell_angle_gamma 90.000000
_cell_volume 936.671443
_symmetry_space_group_name_H-M "P 21/C"
_symmetry_group_IT_number 14
_symmetry_cell_setting 'monoclinic'
loop_
_space_group_symop_operation_xyz
x,y,z
-x,1/2+y,1/2-z
-x,-y,-z
x,1/2-y,1/2+z
loop_
_atom_site_type_symbol
_atom_site_label
_atom_site_fract_x
_atom_site_fract_y
_atom_site_fract_z
Si Si1 0.721222 0.478180 0.296025
Si Si2 0.366390 0.880902 0.805723
Si Si3 0.116212 0.859637 0.054209
Si Si4 0.165269 0.226444 0.338821
Si Si5 0.346853 0.912606 0.451334
O O1 0.718516 0.257111 0.260995
O O2 0.541251 0.555495 0.277159
O O3 0.758977 0.484657 0.390388
O O4 0.842342 0.609813 0.245228
O O5 0.392750 0.750466 0.885582
O O6 0.258454 0.069355 0.825105
O O7 0.001943 0.763285 0.119647
O O8 0.215389 0.697185 0.005752
O O9 0.000000 0.000000 0.000000
O O10 0.266718 0.090248 0.400773
O O11 0.500000 0.000000 0.500000
#
# Coordination Sequence:
#
# PCOD9252286 Si02
#       5
#     4   4   4   4   4
#     4  11  26  43  73 100 140 186 236 292 350 432
#     4  11  23  47  69 105 135 185 245 291 351 425
#     4  12  27  46  70 106 147 186 231 299 366 426
#     4  11  25  46  69 100 144 183 236 292 361 425
#     4  11  26  45  73 103 138 190 239 295 358 430
#
# _framework density 21.352204
#
# number of rings (size 3 to 8) (size 9 to 14) (size 15 to 20)
#    0.000    0.800    4.000    1.800    8.400    1.600 
#    0.000    0.000    0.000    0.000    0.000    0.000 
#    0.000    0.000    0.000    0.000    0.000    0.000 
#
# Total GULP energy -111894.800552 kJ/mol
# GULP energy per Si atom -5594.740028 kJ/mol
# Density = 2.130361 g / cm^3
# Si number density = 21.352204 Si / 1000 Ang^3
#
#
#
# Elastic Constant Matrix: (Units=GPa)
#
#
# Indices 1 2 3 4 5 6 
#
# 1 79.6327 49.1519 37.2454 0.0000 -17.6271 0.0000
# 2 49.1519 122.4140 49.1888 0.0000 5.1129 0.0000
# 3 37.2454 49.1888 101.1193 0.0000 6.5010 0.0000
# 4 0.0000 0.0000 0.0000 31.5827 0.0000 -21.3683
# 5 -17.6271 5.1129 6.5010 0.0000 47.9471 0.0000
# 6 0.0000 0.0000 0.0000 -21.3683 0.0000 34.1878
#
#
#
# Elastic Compliance Matrix: (Units=1/GPa)
#
#
# Indices 1 2 3 4 5 6 
#
# 1 0.021201 -0.006863 -0.005063 0.000000 0.009212 0.000000
# 2 -0.006863 0.012384 -0.003278 0.000000 -0.003399 0.000000
# 3 -0.005063 -0.003278 0.013564 0.000000 -0.003351 0.000000
# 4 0.000000 0.000000 0.000000 0.054864 0.000000 0.034291
# 5 0.009212 -0.003399 -0.003351 0.000000 0.025060 0.000000
# 6 0.000000 0.000000 0.000000 0.034291 0.000000 0.050683
#
#
# Mechanical properties :
#
#
# Convention : Reuss Voigt Hill
#
# Bulk Modulus (GPa) = 59.73101 63.81535 61.77318
# Shear Modulus (GPa) = 23.39263 33.91551 28.65407
#
# Velocity S-wave (km/s) = 3.31352 3.98978 3.66727
# Velocity P-wave (km/s) = 6.53254 7.15376 6.85020
#
# Compressibility (1/GPa) = 0.01674172
#
# Stress axis : x y z
#
# Youngs Moduli (GPa) = 47.16775 80.75173 73.72560
#
# Poissons Ratio (x) = 0.55421 0.37325
# Poissons Ratio (y) = 0.32372 0.24164
# Poissons Ratio (z) = 0.23880 0.26466
#
# Static dielectric constant tensor:
#      x y z
#    x 1.785310 0.000000 0.015350 
#    y 0.000000 1.781950 0.000000 
#    z 0.015350 0.000000 1.776100 
# 
# From -- ./inp_files/53968.got.cif
#   From: 2010.05.17/outbox.cif.g08.bks.cpg/sg14_27_cif.got.tgz:53968.got - 2010.06.03 17:49:19.
