data_PCOD9252468
_publ_section_title
;
Structure prediction by ZEFSAII (Michael W. Deem and Ramdas Pophale) SiO2 
 PCOD9252468
Probable space group: P 21/C
;
_chemical_formula_sum "Si O2"
_cell_formula_units_Z 12
_cell_length_a 7.219192
_cell_length_b 9.102453
_cell_length_c 9.749162
_cell_angle_alpha 90.000000
_cell_angle_beta 45.684198
_cell_angle_gamma 90.000000
_cell_volume 458.378263
_symmetry_space_group_name_H-M "P 21/C"
_symmetry_group_IT_number 14
_symmetry_cell_setting 'monoclinic'
loop_
_space_group_symop_operation_xyz
x,y,z
-x,1/2+y,1/2-z
-x,-y,-z
x,1/2-y,1/2+z
loop_
_atom_site_type_symbol
_atom_site_label
_atom_site_fract_x
_atom_site_fract_y
_atom_site_fract_z
Si Si1 0.426108 0.928756 0.369901
Si Si2 0.164008 0.178884 0.657296
Si Si3 0.846652 0.178708 0.100922
O O1 0.555675 0.817114 0.412945
O O2 0.317828 0.828929 0.306403
O O3 0.199974 0.027984 0.552480
O O4 0.653356 0.043221 0.217496
O O5 0.068309 0.301659 0.600734
O O6 0.970917 0.175903 0.885711
#
# Coordination Sequence:
#
# PCOD9252468 Si02
#       3
#     4   4   4
#     4  11  26  45  72 107 142 187 238 291 358 423
#     4  11  24  44  70 104 142 183 234 290 350 418
#     4  12  26  46  74 106 144 186 236 296 356 424
#
# _framework density 26.179254
#
# number of rings (size 3 to 8) (size 9 to 14) (size 15 to 20)
#    0.000    0.667    0.000    8.000    0.000    6.667 
#    0.000    0.000    0.000    6.000    0.000    0.000 
#    0.000    0.000    0.000    0.000    0.000    0.000 
#
# Total GULP energy -67194.348884 kJ/mol
# GULP energy per Si atom -5599.529074 kJ/mol
# Density = 2.611967 g / cm^3
# Si number density = 26.179254 Si / 1000 Ang^3
#
#
#
# Elastic Constant Matrix: (Units=GPa)
#
#
# Indices 1 2 3 4 5 6 
#
# 1 108.0833 59.5689 57.5574 0.0000 -7.7345 0.0000
# 2 59.5689 102.5730 73.1125 0.0000 -14.5912 0.0000
# 3 57.5574 73.1125 168.8791 0.0000 15.1634 0.0000
# 4 0.0000 0.0000 0.0000 57.9911 0.0000 -10.9312
# 5 -7.7345 -14.5912 15.1634 0.0000 37.1429 0.0000
# 6 0.0000 0.0000 0.0000 -10.9312 0.0000 63.1838
#
#
#
# Elastic Compliance Matrix: (Units=1/GPa)
#
#
# Indices 1 2 3 4 5 6 
#
# 1 0.014023 -0.006487 -0.002080 0.000000 0.001221 0.000000
# 2 -0.006487 0.020121 -0.007358 0.000000 0.009557 0.000000
# 3 -0.002080 -0.007358 0.010499 0.000000 -0.007610 0.000000
# 4 0.000000 0.000000 0.000000 0.017825 0.000000 0.003084
# 5 0.001221 0.009557 -0.007610 0.000000 0.034039 0.000000
# 6 0.000000 0.000000 0.000000 0.003084 0.000000 0.016360
#
#
# Mechanical properties :
#
#
# Convention : Reuss Voigt Hill
#
# Bulk Modulus (GPa) = 78.17616 84.44589 81.31103
# Shear Modulus (GPa) = 33.56117 44.28333 38.92225
#
# Velocity S-wave (km/s) = 3.58435 4.11730 3.86004
# Velocity P-wave (km/s) = 6.85980 7.41146 7.14096
#
# Compressibility (1/GPa) = 0.01279162
#
# Stress axis : x y z
#
# Youngs Moduli (GPa) = 71.31333 49.70006 95.24492
#
# Poissons Ratio (x) = 0.32240 0.19815
# Poissons Ratio (y) = 0.46261 0.70082
# Poissons Ratio (z) = 0.14836 0.36570
#
# Static dielectric constant tensor:
#      x y z
#    x 1.997640 0.000000 0.014880 
#    y 0.000000 2.089460 0.000000 
#    z 0.014880 0.000000 2.098830 
# 
# From -- ./inp_files/22473.got.cif
#   From: 2010.05.17/outbox.cif.g08.bks.cpg/sg14_12_cif.got.tgz:22473.got - 2010.06.03 17:49:19.
