data_PCOD9252316
_publ_section_title
;
Structure prediction by ZEFSAII (Michael W. Deem and Ramdas Pophale) SiO2 
 PCOD9252316
Probable space group: P 21/C
;
_chemical_formula_sum "Si O2"
_cell_formula_units_Z 20
_cell_length_a 7.288706
_cell_length_b 6.612586
_cell_length_c 15.782113
_cell_angle_alpha 90.000000
_cell_angle_beta 104.799610
_cell_angle_gamma 90.000000
_cell_volume 735.418996
_symmetry_space_group_name_H-M "P 21/C"
_symmetry_group_IT_number 14
_symmetry_cell_setting 'monoclinic'
loop_
_space_group_symop_operation_xyz
x,y,z
-x,1/2+y,1/2-z
-x,-y,-z
x,1/2-y,1/2+z
loop_
_atom_site_type_symbol
_atom_site_label
_atom_site_fract_x
_atom_site_fract_y
_atom_site_fract_z
Si Si1 0.733838 0.667045 0.694880
Si Si2 0.490577 0.740179 0.997506
Si Si3 0.946481 0.331681 0.063173
Si Si4 0.864853 0.174672 0.307659
Si Si5 0.710597 0.929785 0.862469
O O1 0.611128 0.702011 0.595695
O O2 0.723112 0.435610 0.726015
O O3 0.954399 0.696967 0.698337
O O4 0.680495 0.817422 0.767186
O O5 0.414364 0.159576 0.074325
O O6 0.500000 0.500000 0.000000
O O7 0.262731 0.758863 0.966671
O O8 0.018350 0.476818 0.146680
O O9 0.084249 0.143892 0.082326
O O10 0.000000 0.500000 0.000000
O O11 0.736612 0.329987 0.347345
#
# Coordination Sequence:
#
# PCOD9252316 Si02
#       5
#     4   4   4   4   4
#     4  11  24  48  84 124 181 237 306 379 454 555
#     4  12  25  52  89 136 178 225 314 383 454 546
#     4  11  24  49  87 122 170 227 298 378 463 544
#     4  11  23  48  83 118 175 250 294 365 463 539
#     4  11  26  52  85 122 183 240 296 375 461 546
#
# _framework density 27.195383
#
# number of rings (size 3 to 8) (size 9 to 14) (size 15 to 20)
#    0.000    0.800    6.000    0.000    0.000    3.200 
#    0.000   24.000    0.000    0.000    0.000    0.000 
#    0.000    0.000    0.000    0.000    0.000    0.000 
#
# Total GULP energy -111739.318586 kJ/mol
# GULP energy per Si atom -5586.965929 kJ/mol
# Density = 2.713349 g / cm^3
# Si number density = 27.195383 Si / 1000 Ang^3
#
#
#
# Elastic Constant Matrix: (Units=GPa)
#
#
# Indices 1 2 3 4 5 6 
#
# 1 190.8689 70.2504 118.2071 0.0000 -5.2417 0.0000
# 2 70.2504 191.9008 82.5438 0.0000 2.5773 0.0000
# 3 118.2071 82.5438 230.2206 0.0000 2.6637 0.0000
# 4 0.0000 0.0000 0.0000 55.9612 0.0000 6.1920
# 5 -5.2417 2.5773 2.6637 0.0000 34.9800 0.0000
# 6 0.0000 0.0000 0.0000 6.1920 0.0000 49.6515
#
#
#
# Elastic Compliance Matrix: (Units=1/GPa)
#
#
# Indices 1 2 3 4 5 6 
#
# 1 0.008062 -0.001400 -0.003656 0.000000 0.001590 0.000000
# 2 -0.001400 0.006407 -0.001572 0.000000 -0.000562 0.000000
# 3 -0.003656 -0.001572 0.006795 0.000000 -0.000950 0.000000
# 4 0.000000 0.000000 0.000000 0.018120 0.000000 -0.002260
# 5 0.001590 -0.000562 -0.000950 0.000000 0.028940 0.000000
# 6 0.000000 0.000000 0.000000 -0.002260 0.000000 0.020422
#
#
# Mechanical properties :
#
#
# Convention : Reuss Voigt Hill
#
# Bulk Modulus (GPa) = 124.86014 128.33252 126.59633
# Shear Modulus (GPa) = 47.76811 50.91780 49.34295
#
# Velocity S-wave (km/s) = 4.19558 4.33170 4.26418
# Velocity P-wave (km/s) = 8.33562 8.50351 8.41998
#
# Compressibility (1/GPa) = 0.00800896
#
# Stress axis : x y z
#
# Youngs Moduli (GPa) = 124.03221 156.07281 147.15842
#
# Poissons Ratio (x) = 0.21854 0.53801
# Poissons Ratio (y) = 0.17367 0.23131
# Poissons Ratio (z) = 0.45346 0.24532
#
# Static dielectric constant tensor:
#      x y z
#    x 2.346940 0.000000 -0.271460 
#    y 0.000000 2.142770 0.000000 
#    z -0.271460 0.000000 2.702760 
# 
# From -- ./inp_files/64205.got.cif
#   From: 2010.05.17/outbox.cif.g08.bks.cpg/sg14_33_cif.got.tgz:64205.got - 2010.06.03 17:49:19.
