data_PCOD9252478
_publ_section_title
;
Structure prediction by ZEFSAII (Michael W. Deem and Ramdas Pophale) SiO2 
 PCOD9252478
Probable space group: P 21/C
;
_chemical_formula_sum "Si O2"
_cell_formula_units_Z 24
_cell_length_a 5.038473
_cell_length_b 10.908163
_cell_length_c 20.030703
_cell_angle_alpha 90.000000
_cell_angle_beta 123.051500
_cell_angle_gamma 90.000000
_cell_volume 922.750723
_symmetry_space_group_name_H-M "P 21/C"
_symmetry_group_IT_number 14
_symmetry_cell_setting 'monoclinic'
loop_
_space_group_symop_operation_xyz
x,y,z
-x,1/2+y,1/2-z
-x,-y,-z
x,1/2-y,1/2+z
loop_
_atom_site_type_symbol
_atom_site_label
_atom_site_fract_x
_atom_site_fract_y
_atom_site_fract_z
Si Si1 0.504573 0.603380 0.813210
Si Si2 0.780377 0.356445 0.703348
Si Si3 0.164797 0.678000 0.436427
Si Si4 0.859310 0.967509 0.631119
Si Si5 0.759749 0.046179 0.861383
Si Si6 0.879530 0.762143 0.528947
O O1 0.450275 0.747659 0.805437
O O2 0.843455 0.555572 0.838328
O O3 0.266123 0.552094 0.722710
O O4 0.418244 0.545514 0.873269
O O5 0.914074 0.308204 0.652316
O O6 0.035940 0.374406 0.795857
O O7 0.567660 0.478668 0.662921
O O8 0.542190 0.694433 0.490905
O O9 0.031028 0.541356 0.428944
O O10 0.998106 0.763615 0.468700
O O11 0.824659 0.889595 0.559469
O O12 0.842209 0.181454 0.898259
#
# Coordination Sequence:
#
# PCOD9252478 Si02
#       6
#     4   4   4   4   4   4
#     4  11  25  44  73  99 138 179 237 285 329 419
#     4  11  25  46  71 102 137 183 234 278 344 413
#     4  12  25  43  70 105 139 179 222 289 349 403
#     4  11  25  46  68 102 137 184 230 278 346 407
#     4  11  24  44  72 105 136 177 225 293 348 398
#     4  12  26  44  70 105 143 173 227 286 349 407
#
# _framework density 26.009188999999999
#
# number of rings (size 3 to 8) (size 9 to 14) (size 15 to 20)
#    0.000    0.667    5.000    2.000    4.667    0.000 
#    0.000    5.000    0.000    0.000    0.000    0.000 
#    0.000    0.000    0.000    0.000    0.000    0.000 
#
# Total GULP energy -134434.911726 kJ/mol
# GULP energy per Si atom -5601.454655 kJ/mol
# Density = 2.594999 g / cm^3
# Si number density = 26.009189 Si / 1000 Ang^3
#
#
#
# Elastic Constant Matrix: (Units=GPa)
#
#
# Indices 1 2 3 4 5 6 
#
# 1 152.4151 15.9681 38.5194 0.0000 -17.9476 0.0000
# 2 15.9681 64.6705 27.5352 0.0000 -3.6354 0.0000
# 3 38.5194 27.5352 126.7311 0.0000 -24.6532 0.0000
# 4 0.0000 0.0000 0.0000 32.8310 0.0000 -1.4306
# 5 -17.9476 -3.6354 -24.6532 0.0000 36.3554 0.0000
# 6 0.0000 0.0000 0.0000 -1.4306 0.0000 36.4884
#
#
#
# Elastic Compliance Matrix: (Units=1/GPa)
#
#
# Indices 1 2 3 4 5 6 
#
# 1 0.007347 -0.001024 -0.001526 0.000000 0.002490 0.000000
# 2 -0.001024 0.017209 -0.003676 0.000000 -0.001278 0.000000
# 3 -0.001526 -0.003676 0.010293 0.000000 0.005859 0.000000
# 4 0.000000 0.000000 0.000000 0.030511 0.000000 0.001196
# 5 0.002490 -0.001278 0.005859 0.000000 0.032581 0.000000
# 6 0.000000 0.000000 0.000000 0.001196 0.000000 0.027453
#
#
# Mechanical properties :
#
#
# Convention : Reuss Voigt Hill
#
# Bulk Modulus (GPa) = 44.65116 56.42912 50.54014
# Shear Modulus (GPa) = 34.40835 38.58789 36.49812
#
# Velocity S-wave (km/s) = 3.64116 3.85596 3.75010
# Velocity P-wave (km/s) = 5.90611 6.44729 6.18262
#
# Compressibility (1/GPa) = 0.02239584
#
# Stress axis : x y z
#
# Youngs Moduli (GPa) = 136.10527 58.10778 97.15216
#
# Poissons Ratio (x) = 0.05952 0.14828
# Poissons Ratio (y) = 0.13942 0.35717
# Poissons Ratio (z) = 0.20774 0.21362
#
# Static dielectric constant tensor:
#      x y z
#    x 2.012870 0.000000 -0.000630 
#    y 0.000000 2.076810 0.000000 
#    z -0.000630 0.000000 2.059940 
# 
# From -- ./inp_files/63386.got.cif
#   From: 2010.05.17/outbox.cif.g08.bks.cpg/sg14_32_cif.got.tgz:63386.got - 2010.06.03 17:49:19.
