data_PCOD9252241
_publ_section_title
;
Structure prediction by ZEFSAII (Michael W. Deem and Ramdas Pophale) SiO2 
 PCOD9252241
Probable space group: P 21/C
;
_chemical_formula_sum "Si O2"
_cell_formula_units_Z 20
_cell_length_a 9.523586
_cell_length_b 9.840811
_cell_length_c 8.185500
_cell_angle_alpha 90.000000
_cell_angle_beta 108.069115
_cell_angle_gamma 90.000000
_cell_volume 729.310335
_symmetry_space_group_name_H-M "P 21/C"
_symmetry_group_IT_number 14
_symmetry_cell_setting 'monoclinic'
loop_
_space_group_symop_operation_xyz
x,y,z
-x,1/2+y,1/2-z
-x,-y,-z
x,1/2-y,1/2+z
loop_
_atom_site_type_symbol
_atom_site_label
_atom_site_fract_x
_atom_site_fract_y
_atom_site_fract_z
Si Si1 0.760032 0.811485 0.768819
Si Si2 0.503915 0.119460 0.750410
Si Si3 0.072812 0.407453 0.352233
Si Si4 0.307939 0.941066 0.492356
Si Si5 0.182949 0.838615 0.002869
O O1 0.602115 0.742218 0.741005
O O2 0.815429 0.873972 0.957545
O O3 0.872905 0.690689 0.768021
O O4 0.750445 0.922746 0.620360
O O5 0.580455 0.125148 0.599759
O O6 0.646027 0.115076 0.917469
O O7 0.395838 0.990763 0.684989
O O8 0.100810 0.568033 0.338197
O O9 0.914274 0.372828 0.371422
O O10 0.193408 0.823109 0.490929
#
# Coordination Sequence:
#
# PCOD9252241 Si02
#       5
#     4   4   4   4   4
#     4  12  25  50  74 109 154 196 252 314 371 449
#     4  11  23  45  76 107 146 192 254 302 363 439
#     4  11  28  50  72 111 153 196 247 312 384 444
#     4  11  25  46  78 111 146 199 256 309 374 444
#     4  11  27  46  75 108 150 197 251 308 377 453
#
# _framework density 27.423168
#
# number of rings (size 3 to 8) (size 9 to 14) (size 15 to 20)
#    0.000    0.800    4.000    2.400    2.800    4.800 
#    3.600    0.000    0.000    0.000    0.000    0.000 
#    0.000    0.000    0.000    0.000    0.000    0.000 
#
# Total GULP energy -112080.459210 kJ/mol
# GULP energy per Si atom -5604.022961 kJ/mol
# Density = 2.736075 g / cm^3
# Si number density = 27.423168 Si / 1000 Ang^3
#
#
#
# Elastic Constant Matrix: (Units=GPa)
#
#
# Indices 1 2 3 4 5 6 
#
# 1 161.3263 71.9323 18.6409 0.0000 24.5334 0.0000
# 2 71.9323 179.5396 36.1282 0.0000 5.1785 0.0000
# 3 18.6409 36.1282 47.9336 0.0000 11.1959 0.0000
# 4 0.0000 0.0000 0.0000 36.1965 0.0000 0.0928
# 5 24.5334 5.1785 11.1959 0.0000 36.5390 0.0000
# 6 0.0000 0.0000 0.0000 0.0928 0.0000 69.7068
#
#
#
# Elastic Compliance Matrix: (Units=1/GPa)
#
#
# Indices 1 2 3 4 5 6 
#
# 1 0.008437 -0.003320 0.000468 0.000000 -0.005338 0.000000
# 2 -0.003320 0.007886 -0.005291 0.000000 0.002733 0.000000
# 3 0.000468 -0.005291 0.026460 0.000000 -0.007672 0.000000
# 4 0.000000 0.000000 0.000000 0.027627 0.000000 -0.000037
# 5 -0.005338 0.002733 -0.007672 0.000000 0.032915 0.000000
# 6 0.000000 0.000000 0.000000 -0.000037 0.000000 0.014346
#
#
# Mechanical properties :
#
#
# Convention : Reuss Voigt Hill
#
# Bulk Modulus (GPa) = 37.74038 71.35582 54.54810
# Shear Modulus (GPa) = 35.01675 45.96165 40.48920
#
# Velocity S-wave (km/s) = 3.57726 4.09836 3.84664
# Velocity P-wave (km/s) = 5.55468 6.96219 6.29788
#
# Compressibility (1/GPa) = 0.02649682
#
# Stress axis : x y z
#
# Youngs Moduli (GPa) = 118.52926 126.80740 37.79316
#
# Poissons Ratio (x) = 0.42106 -0.01770
# Poissons Ratio (y) = 0.39357 0.19996
# Poissons Ratio (z) = -0.05552 0.67091
#
# Static dielectric constant tensor:
#      x y z
#    x 2.142260 0.000000 0.062230 
#    y 0.000000 2.273330 0.000000 
#    z 0.062230 0.000000 2.155880 
# 
# From -- ./inp_files/7993.got.cif
#   From: 2010.05.17/outbox.cif.g08.bks.cpg/sg14_4_cif.got.tgz:7993.got - 2010.06.03 17:49:19.
