data_PCOD9252596
_publ_section_title
;
Structure prediction by ZEFSAII (Michael W. Deem and Ramdas Pophale) SiO2 
 PCOD9252596
Probable space group: P 21/C
;
_chemical_formula_sum "Si O2"
_cell_formula_units_Z 28
_cell_length_a 10.242386
_cell_length_b 11.315799
_cell_length_c 13.702417
_cell_angle_alpha 90.000000
_cell_angle_beta 125.194711
_cell_angle_gamma 90.000000
_cell_volume 1297.809338
_symmetry_space_group_name_H-M "P 21/C"
_symmetry_group_IT_number 14
_symmetry_cell_setting 'monoclinic'
loop_
_space_group_symop_operation_xyz
x,y,z
-x,1/2+y,1/2-z
-x,-y,-z
x,1/2-y,1/2+z
loop_
_atom_site_type_symbol
_atom_site_label
_atom_site_fract_x
_atom_site_fract_y
_atom_site_fract_z
Si Si1 0.895342 0.082354 0.303179
Si Si2 0.118035 0.057730 0.893762
Si Si3 0.243333 0.178363 0.470581
Si Si4 0.773642 0.344918 0.241856
Si Si5 0.637951 0.509301 0.829498
Si Si6 0.640838 0.391899 0.395237
Si Si7 0.457575 0.842155 0.535564
O O1 0.834240 0.212170 0.246746
O O2 0.800840 0.047186 0.359713
O O3 0.854756 0.984712 0.205121
O O4 0.085119 0.098164 0.393630
O O5 0.191358 0.185636 0.948138
O O6 0.927428 0.071500 0.821633
O O7 0.206789 0.962016 0.998474
O O8 0.489678 0.477534 0.312145
O O9 0.367156 0.160453 0.435869
O O10 0.324405 0.136089 0.605993
O O11 0.683043 0.344085 0.305778
O O12 0.661572 0.378238 0.103345
O O13 0.564200 0.430250 0.883633
O O14 0.591082 0.286604 0.445262
#
# Coordination Sequence:
#
# PCOD9252596 Si02
#       7
#     4   4   4   4   4   4   4
#     4  11  24  47  72 102 147 189 235 295 359 428
#     4  11  26  46  72 106 144 192 235 299 359 426
#     4  11  26  45  71 106 143 186 244 293 358 428
#     4  11  24  48  70 106 145 186 241 293 365 425
#     4  12  26  43  73 107 143 191 238 296 357 428
#     4  12  26  44  76 107 144 188 243 296 357 429
#     4  12  25  47  75 102 145 190 236 303 361 419
#
# _framework density 21.574818
#
# number of rings (size 3 to 8) (size 9 to 14) (size 15 to 20)
#    0.000    0.571    4.286    3.000    6.000    1.143 
#    0.000    0.000    0.000    0.000    0.000    0.000 
#    0.000    0.000    0.000    0.000    0.000    0.000 
#
# Total GULP energy -156680.480208 kJ/mol
# GULP energy per Si atom -5595.731436 kJ/mol
# Density = 2.152571 g / cm^3
# Si number density = 21.574818 Si / 1000 Ang^3
#
#
#
# Elastic Constant Matrix: (Units=GPa)
#
#
# Indices 1 2 3 4 5 6 
#
# 1 134.8993 14.2958 33.9930 0.0000 11.3927 0.0000
# 2 14.2958 59.2576 22.9215 0.0000 10.8433 0.0000
# 3 33.9930 22.9215 89.9048 0.0000 11.1993 0.0000
# 4 0.0000 0.0000 0.0000 28.9894 0.0000 3.0777
# 5 11.3927 10.8433 11.1993 0.0000 30.5711 0.0000
# 6 0.0000 0.0000 0.0000 3.0777 0.0000 22.9614
#
#
#
# Elastic Compliance Matrix: (Units=1/GPa)
#
#
# Indices 1 2 3 4 5 6 
#
# 1 0.008331 -0.000597 -0.002764 0.000000 -0.001881 0.000000
# 2 -0.000597 0.019564 -0.004113 0.000000 -0.005210 0.000000
# 3 -0.002764 -0.004113 0.013524 0.000000 -0.002465 0.000000
# 4 0.000000 0.000000 0.000000 0.034993 0.000000 -0.004690
# 5 -0.001881 -0.005210 -0.002465 0.000000 0.036163 0.000000
# 6 0.000000 0.000000 0.000000 -0.004690 0.000000 0.044180
#
#
# Mechanical properties :
#
#
# Convention : Reuss Voigt Hill
#
# Bulk Modulus (GPa) = 37.77650 47.38691 42.58170
# Shear Modulus (GPa) = 27.69685 30.69449 29.19567
#
# Velocity S-wave (km/s) = 3.58684 3.77596 3.68262
# Velocity P-wave (km/s) = 5.89080 6.40486 6.15320
#
# Compressibility (1/GPa) = 0.02647148
#
# Stress axis : x y z
#
# Youngs Moduli (GPa) = 120.02751 51.11480 73.94475
#
# Poissons Ratio (x) = 0.03050 0.20436
# Poissons Ratio (y) = 0.07163 0.30415
# Poissons Ratio (z) = 0.33172 0.21025
#
# Static dielectric constant tensor:
#      x y z
#    x 1.777330 0.000000 0.035500 
#    y 0.000000 1.777760 0.000000 
#    z 0.035500 0.000000 1.769870 
# 
# From -- ./inp_files/40107.got.cif
#   From: 2010.05.17/outbox.cif.g08.bks.cpg/sg14_21_cif.got.tgz:40107.got - 2010.06.03 17:49:19.
