data_PCOD9252417
_publ_section_title
;
Structure prediction by ZEFSAII (Michael W. Deem and Ramdas Pophale) SiO2 
 PCOD9252417
Probable space group: P 21/C
;
_chemical_formula_sum "Si O2"
_cell_formula_units_Z 32
_cell_length_a 12.140592
_cell_length_b 8.533723
_cell_length_c 14.132492
_cell_angle_alpha 90.000000
_cell_angle_beta 70.421275
_cell_angle_gamma 90.000000
_cell_volume 1379.532490
_symmetry_space_group_name_H-M "P 21/C"
_symmetry_group_IT_number 14
_symmetry_cell_setting 'monoclinic'
loop_
_space_group_symop_operation_xyz
x,y,z
-x,1/2+y,1/2-z
-x,-y,-z
x,1/2-y,1/2+z
loop_
_atom_site_type_symbol
_atom_site_label
_atom_site_fract_x
_atom_site_fract_y
_atom_site_fract_z
Si Si1 0.720214 0.625925 0.915383
Si Si2 0.713457 0.347793 0.600673
Si Si3 0.121607 0.615447 0.709570
Si Si4 0.946620 0.166583 0.552641
Si Si5 0.102951 0.266997 0.761191
Si Si6 0.500822 0.680711 0.476922
Si Si7 0.814177 0.699690 0.560750
Si Si8 0.653845 0.308778 0.839664
O O1 0.840768 0.640423 0.823796
O O2 0.676168 0.457708 0.899330
O O3 0.623228 0.749775 0.907167
O O4 0.747568 0.676400 0.013855
O O5 0.823428 0.232600 0.549350
O O6 0.602982 0.297995 0.569114
O O7 0.758368 0.526613 0.569639
O O8 0.674767 0.340879 0.722866
O O9 0.083870 0.646974 0.828481
O O10 0.109518 0.430160 0.704189
O O11 0.252317 0.675421 0.659299
O O12 0.028511 0.715857 0.677259
O O13 0.050199 0.292759 0.510602
O O14 0.000000 0.000000 0.500000
O O15 0.179481 0.261694 0.833780
O O16 0.500000 0.500000 0.500000
O O17 0.472161 0.756996 0.587536
#
# Coordination Sequence:
#
# PCOD9252417 Si02
#       8
#     4   4   4   4   4   4   4   4
#     4  12  26  48  73 109 145 195 246 302 363 439
#     4  11  27  48  74 109 148 196 246 303 372 442
#     4  11  25  42  68 109 152 187 234 306 369 438
#     4  11  24  43  70 109 146 186 241 301 367 440
#     4  12  25  42  72 108 148 193 239 301 370 439
#     4  12  27  49  76 106 146 194 250 304 360 442
#     4  12  25  44  74 104 148 193 245 296 367 439
#     4  11  27  48  74 109 147 191 246 305 373 434
#
# _framework density 23.196263999999999
#
# number of rings (size 3 to 8) (size 9 to 14) (size 15 to 20)
#    0.000    0.500    5.000    2.250    5.250    2.000 
#    0.000    0.000    0.000    0.000    0.000    0.000 
#    0.000    0.000    0.000    0.000    0.000    0.000 
#
# Total GULP energy -178986.284388 kJ/mol
# GULP energy per Si atom -5593.321387 kJ/mol
# Density = 2.314347 g / cm^3
# Si number density = 23.196264 Si / 1000 Ang^3
#
#
#
# Elastic Constant Matrix: (Units=GPa)
#
#
# Indices 1 2 3 4 5 6 
#
# 1 105.3255 -7.7459 11.1224 0.0000 14.9450 0.0000
# 2 -7.7459 63.0028 -3.1917 0.0000 15.7498 0.0000
# 3 11.1224 -3.1917 86.5197 0.0000 17.2771 0.0000
# 4 0.0000 0.0000 0.0000 33.8182 0.0000 -9.1756
# 5 14.9450 15.7498 17.2771 0.0000 34.7369 0.0000
# 6 0.0000 0.0000 0.0000 -9.1756 0.0000 37.8343
#
#
#
# Elastic Compliance Matrix: (Units=1/GPa)
#
#
# Indices 1 2 3 4 5 6 
#
# 1 0.010514 0.002711 -0.000114 0.000000 -0.005696 0.000000
# 2 0.002711 0.019114 0.002576 0.000000 -0.011114 0.000000
# 3 -0.000114 0.002576 0.013202 0.000000 -0.007685 0.000000
# 4 0.000000 0.000000 0.000000 0.031653 0.000000 0.007676
# 5 -0.005696 -0.011114 -0.007685 0.000000 0.040100 0.000000
# 6 0.000000 0.000000 0.000000 0.007676 0.000000 0.028293
#
#
# Mechanical properties :
#
#
# Convention : Reuss Voigt Hill
#
# Bulk Modulus (GPa) = 18.80556 28.35753 23.58155
# Shear Modulus (GPa) = 33.27644 38.25542 35.76593
#
# Velocity S-wave (km/s) = 3.79167 4.06545 3.93094
# Velocity P-wave (km/s) = 5.22434 5.85566 5.54899
#
# Compressibility (1/GPa) = 0.05317576
#
# Stress axis : x y z
#
# Youngs Moduli (GPa) = 95.11154 52.31654 75.74351
#
# Poissons Ratio (x) = -0.14181 0.00865
# Poissons Ratio (y) = -0.25782 -0.19512
# Poissons Ratio (z) = 0.01087 -0.13477
#
# Static dielectric constant tensor:
#      x y z
#    x 1.871740 0.000000 0.034070 
#    y 0.000000 1.921900 0.000000 
#    z 0.034070 0.000000 1.879630 
# 
# From -- ./inp_files/43709.got.cif
#   From: 2010.05.17/outbox.cif.g08.bks.cpg/sg14_22_cif.got.tgz:43709.got - 2010.06.03 17:49:19.
