data_PCOD9252448
_publ_section_title
;
Structure prediction by ZEFSAII (Michael W. Deem and Ramdas Pophale) SiO2 
 PCOD9252448
Probable space group: P 21/C
;
_chemical_formula_sum "Si O2"
_cell_formula_units_Z 32
_cell_length_a 11.503136
_cell_length_b 13.525007
_cell_length_c 9.589691
_cell_angle_alpha 90.000000
_cell_angle_beta 90.698354
_cell_angle_gamma 90.000000
_cell_volume 1491.853254
_symmetry_space_group_name_H-M "P 21/C"
_symmetry_group_IT_number 14
_symmetry_cell_setting 'monoclinic'
loop_
_space_group_symop_operation_xyz
x,y,z
-x,1/2+y,1/2-z
-x,-y,-z
x,1/2-y,1/2+z
loop_
_atom_site_type_symbol
_atom_site_label
_atom_site_fract_x
_atom_site_fract_y
_atom_site_fract_z
Si Si1 0.088612 0.035090 0.618282
Si Si2 0.322594 0.006868 0.189083
Si Si3 0.302039 0.355524 0.438769
Si Si4 0.568203 0.966567 0.307259
Si Si5 0.969676 0.599538 0.583604
Si Si6 0.205941 0.823164 0.032632
Si Si7 0.733276 0.362626 0.785422
Si Si8 0.709117 0.625968 0.042727
O O1 0.024244 0.078505 0.751572
O O2 0.177856 0.113467 0.552803
O O3 0.168200 0.943000 0.670477
O O4 0.000000 0.000000 0.500000
O O5 0.355417 0.086844 0.071304
O O6 0.264816 0.067259 0.314552
O O7 0.436694 0.957675 0.256902
O O8 0.246628 0.922486 0.114074
O O9 0.353459 0.406338 0.302501
O O10 0.163245 0.371809 0.446438
O O11 0.322213 0.239221 0.434872
O O12 0.603421 0.925851 0.458576
O O13 0.612170 0.079267 0.296788
O O14 0.000000 0.500000 0.500000
O O15 0.065951 0.678785 0.540572
O O16 0.258226 0.729323 0.111468
O O17 0.244808 0.831071 0.873363
#
# Coordination Sequence:
#
# PCOD9252448 Si02
#       8
#     4   4   4   4   4   4   4   4
#     4  11  24  44  66  99 144 183 225 286 342 409
#     4  12  25  46  76  98 139 187 229 288 353 410
#     4  12  24  45  73 103 139 184 233 284 351 416
#     4  11  24  52  67 101 145 179 230 296 342 409
#     4  12  22  46  70  95 145 182 225 284 347 415
#     4  12  27  44  71 104 137 189 232 281 351 413
#     4  11  26  46  66 103 143 179 237 284 342 414
#     4  11  26  43  70 108 136 177 237 287 346 412
#
# _framework density 21.449832000000001
#
# number of rings (size 3 to 8) (size 9 to 14) (size 15 to 20)
#    0.000    0.500    6.250    2.250    7.000    2.000 
#    0.000    0.000    0.000    0.000    0.000    0.000 
#    0.000    0.000    0.000    0.000    0.000    0.000 
#
# Total GULP energy -179147.209973 kJ/mol
# GULP energy per Si atom -5598.350312 kJ/mol
# Density = 2.140101 g / cm^3
# Si number density = 21.449832 Si / 1000 Ang^3
#
#
#
# Elastic Constant Matrix: (Units=GPa)
#
#
# Indices 1 2 3 4 5 6 
#
# 1 49.2511 -5.7305 -11.3679 0.0000 10.5302 0.0000
# 2 -5.7305 100.4726 26.3843 0.0000 -7.6252 0.0000
# 3 -11.3679 26.3843 110.8450 0.0000 4.0929 0.0000
# 4 0.0000 0.0000 0.0000 37.2861 0.0000 9.3369
# 5 10.5302 -7.6252 4.0929 0.0000 31.4299 0.0000
# 6 0.0000 0.0000 0.0000 9.3369 0.0000 15.2107
#
#
#
# Elastic Compliance Matrix: (Units=1/GPa)
#
#
# Indices 1 2 3 4 5 6 
#
# 1 0.022598 0.000003 0.002609 0.000000 -0.007910 0.000000
# 2 0.000003 0.010890 -0.002702 0.000000 0.002993 0.000000
# 3 0.002609 -0.002702 0.010037 0.000000 -0.002837 0.000000
# 4 0.000000 0.000000 0.000000 0.031691 0.000000 -0.019453
# 5 -0.007910 0.002993 -0.002837 0.000000 0.035562 0.000000
# 6 0.000000 0.000000 0.000000 -0.019453 0.000000 0.077684
#
#
# Mechanical properties :
#
#
# Convention : Reuss Voigt Hill
#
# Bulk Modulus (GPa) = 23.07071 31.01560 27.04316
# Shear Modulus (GPa) = 24.61957 33.53754 29.07855
#
# Velocity S-wave (km/s) = 3.39156 3.95844 3.68592
# Velocity P-wave (km/s) = 5.11037 5.94839 5.54523
#
# Compressibility (1/GPa) = 0.04334500
#
# Stress axis : x y z
#
# Youngs Moduli (GPa) = 44.25193 91.82814 99.63018
#
# Poissons Ratio (x) = -0.00032 -0.25992
# Poissons Ratio (y) = -0.00015 0.26923
# Poissons Ratio (z) = -0.11544 0.24814
#
# Static dielectric constant tensor:
#      x y z
#    x 1.782990 0.000000 0.006130 
#    y 0.000000 1.751850 0.000000 
#    z 0.006130 0.000000 1.769880 
# 
# From -- ./inp_files/13327.got.cif
#   From: 2010.05.17/outbox.cif.g08.bks.cpg/sg14_7_cif.got.tgz:13327.got - 2010.06.03 17:49:19.
