data_PCOD9252172
_publ_section_title
;
Structure prediction by ZEFSAII (Michael W. Deem and Ramdas Pophale) SiO2 
 PCOD9252172
Probable space group: P 21/C
;
_chemical_formula_sum "Si O2"
_cell_formula_units_Z 18
_cell_length_a 29.577222
_cell_length_b 5.306609
_cell_length_c 27.434434
_cell_angle_alpha 90.000000
_cell_angle_beta 9.048607
_cell_angle_gamma 90.000000
_cell_volume 677.209057
_symmetry_space_group_name_H-M "P 21/C"
_symmetry_group_IT_number 14
_symmetry_cell_setting 'monoclinic'
loop_
_space_group_symop_operation_xyz
x,y,z
-x,1/2+y,1/2-z
-x,-y,-z
x,1/2-y,1/2+z
loop_
_atom_site_type_symbol
_atom_site_label
_atom_site_fract_x
_atom_site_fract_y
_atom_site_fract_z
Si Si1 0.668210 0.261868 0.915419
Si Si2 0.786101 0.678633 0.906405
Si Si3 0.981415 0.285957 0.939468
Si Si4 0.721120 0.621678 0.584454
Si Si5 0.500000 0.500000 0.000000
O O1 0.851128 0.524138 0.724510
O O2 0.478001 0.226667 0.166284
O O3 0.475042 0.316513 0.074691
O O4 0.874313 0.025762 0.689507
O O5 0.972824 0.820151 0.667083
O O6 0.972827 0.425448 0.716540
O O7 0.471976 0.629795 0.218593
O O8 0.760337 0.783134 0.988017
O O9 0.666234 0.224722 0.292727
#
# Coordination Sequence:
#
# PCOD9252172 Si02
#       5
#     4   4   4   4   2
#     4  11  26  46  72 108 151 199 260 326 394 473
#     4  11  23  44  70 110 149 200 255 324 401 479
#     4  11  26  46  72 108 151 199 260 326 394 473
#     4  11  23  44  70 110 149 200 255 324 401 479
#     4  12  24  50  72 112 144 214 260 324 386 474
#
# _framework density 26.57968
#
# number of rings (size 3 to 8) (size 9 to 14) (size 15 to 20)
#    0.000    0.889    2.222    4.000    0.000    7.111 
#    0.000    0.000    0.000    0.000    0.000    0.000 
#    0.000    0.000    0.000    0.000    0.000    0.000 
#
# Total GULP energy -100309.976418 kJ/mol
# GULP energy per Si atom -5572.776468 kJ/mol
# Density = 2.651918 g / cm^3
# Si number density = 26.579680 Si / 1000 Ang^3
#
#
#
# Elastic Constant Matrix: (Units=GPa)
#
#
# Indices 1 2 3 4 5 6 
#
# 1 95.4081 69.4226 145.6604 0.0000 81.2839 0.0000
# 2 69.4226 145.5185 -3.1716 0.0000 -26.0977 0.0000
# 3 145.6604 -3.1716 -73.7346 0.0000 -59.2848 0.0000
# 4 0.0000 0.0000 0.0000 49.2422 0.0000 -20.7175
# 5 81.2839 -26.0977 -59.2848 0.0000 20.9392 0.0000
# 6 0.0000 0.0000 0.0000 -20.7175 0.0000 36.6968
#
#
#
# Elastic Compliance Matrix: (Units=1/GPa)
#
#
# Indices 1 2 3 4 5 6 
#
# 1 0.002893 -0.001070 0.004842 0.000000 0.001144 0.000000
# 2 -0.001070 0.007664 -0.004109 0.000000 0.002072 0.000000
# 3 0.004842 -0.004109 0.004703 0.000000 -0.010601 0.000000
# 4 0.000000 0.000000 0.000000 0.026634 0.000000 0.015036
# 5 0.001144 0.002072 -0.010601 0.000000 0.015885 0.000000
# 6 0.000000 0.000000 0.000000 0.015036 0.000000 0.035739
#
#
# Mechanical properties :
#
#
# Convention : Reuss Voigt Hill
#
# Bulk Modulus (GPa) = 68.55338 65.66833 67.11085
# Shear Modulus (GPa) = 50.47786 18.39437 34.43612
#
# Velocity S-wave (km/s) = 4.36261 2.63353 3.60332
# Velocity P-wave (km/s) = 7.15710 5.83157 6.52807
#
# Compressibility (1/GPa) = 0.01458717
#
# Stress axis : x y z
#
# Youngs Moduli (GPa) = 345.64014 130.47523 212.64808
#
# Poissons Ratio (x) = 0.13955 -1.02957
# Poissons Ratio (y) = 0.36969 0.87367
# Poissons Ratio (z) = -1.67346 0.53606
#
# Static dielectric constant tensor:
#      x y z
#    x 2.060880 0.000000 -0.046600 
#    y 0.000000 2.126980 0.000000 
#    z -0.046600 0.000000 2.106920 
# 
# From -- ./inp_files/70782.got.cif
#   From: 2010.05.17/outbox.cif.g08.bks.cpg/sg14_36_cif.got.tgz:70782.got - 2010.06.03 17:49:19.
