data_PCOD9252867
_publ_section_title
;
Structure prediction by ZEFSAII (Michael W. Deem and Ramdas Pophale) SiO2 
 PCOD9252867
Probable space group: P 21/C
;
_chemical_formula_sum "Si O2"
_cell_formula_units_Z 20
_cell_length_a 5.100722
_cell_length_b 14.335000
_cell_length_c 9.515538
_cell_angle_alpha 90.000000
_cell_angle_beta 92.513303
_cell_angle_gamma 90.000000
_cell_volume 695.095915
_symmetry_space_group_name_H-M "P 21/C"
_symmetry_group_IT_number 14
_symmetry_cell_setting 'monoclinic'
loop_
_space_group_symop_operation_xyz
x,y,z
-x,1/2+y,1/2-z
-x,-y,-z
x,1/2-y,1/2+z
loop_
_atom_site_type_symbol
_atom_site_label
_atom_site_fract_x
_atom_site_fract_y
_atom_site_fract_z
Si Si1 0.344562 0.911740 0.892106
Si Si2 0.241174 0.259494 0.544392
Si Si3 0.913375 0.039350 0.812609
Si Si4 0.088773 0.740790 0.719577
Si Si5 0.744113 0.945582 0.557551
O O1 0.241888 0.828898 0.784125
O O2 0.592138 0.853393 0.964805
O O3 0.205779 0.944214 0.036513
O O4 0.217427 0.004866 0.810217
O O5 0.189075 0.248187 0.707568
O O6 0.968274 0.265081 0.447631
O O7 0.321430 0.159718 0.487703
O O8 0.836135 0.136181 0.735040
O O9 0.763703 0.957216 0.726898
O O10 0.500000 0.000000 0.500000
O O11 0.000000 0.000000 0.500000
#
# Coordination Sequence:
#
# PCOD9252867 Si02
#       5
#     4   4   4   4   4
#     4  11  27  49  75 114 159 216 273 348 427 507
#     4  12  28  45  78 111 159 214 273 345 419 498
#     4  11  25  51  79 111 166 211 279 347 428 508
#     4  12  25  48  72 114 153 206 267 342 411 506
#     4  12  27  48  81 120 160 214 283 350 420 504
#
# _framework density 28.773007
#
# number of rings (size 3 to 8) (size 9 to 14) (size 15 to 20)
#    0.000    0.400    6.000    1.200    5.600    2.400 
#    0.000    0.000    0.000    0.000    0.000    0.000 
#    0.000    0.000    0.000    0.000    0.000    0.000 
#
# Total GULP energy -111423.023943 kJ/mol
# GULP energy per Si atom -5571.151197 kJ/mol
# Density = 2.870752 g / cm^3
# Si number density = 28.773007 Si / 1000 Ang^3
#
#
#
# Elastic Constant Matrix: (Units=GPa)
#
#
# Indices 1 2 3 4 5 6 
#
# 1 54.7121 11.6474 10.3755 0.0000 28.8198 0.0000
# 2 11.6474 203.4076 34.7991 0.0000 33.1287 0.0000
# 3 10.3755 34.7991 104.8548 0.0000 14.6654 0.0000
# 4 0.0000 0.0000 0.0000 68.1592 0.0000 21.8693
# 5 28.8198 33.1287 14.6654 0.0000 36.9425 0.0000
# 6 0.0000 0.0000 0.0000 21.8693 0.0000 44.8579
#
#
#
# Elastic Compliance Matrix: (Units=1/GPa)
#
#
# Indices 1 2 3 4 5 6 
#
# 1 0.032192 0.002661 -0.000235 0.000000 -0.027406 0.000000
# 2 0.002661 0.006138 -0.001313 0.000000 -0.007059 0.000000
# 3 -0.000235 -0.001313 0.010382 0.000000 -0.002760 0.000000
# 4 0.000000 0.000000 0.000000 0.017392 0.000000 -0.008479
# 5 -0.027406 -0.007059 -0.002760 0.000000 0.055875 0.000000
# 6 0.000000 0.000000 0.000000 -0.008479 0.000000 0.026426
#
#
# Mechanical properties :
#
#
# Convention : Reuss Voigt Hill
#
# Bulk Modulus (GPa) = 19.63221 52.95763 36.29492
# Shear Modulus (GPa) = 30.64458 50.40207 40.52333
#
# Velocity S-wave (km/s) = 3.26704 4.18989 3.75691
# Velocity P-wave (km/s) = 4.59014 6.46932 5.60899
#
# Compressibility (1/GPa) = 0.05093671
#
# Stress axis : x y z
#
# Youngs Moduli (GPa) = 31.06353 162.91445 96.31911
#
# Poissons Ratio (x) = -0.43344 0.02266
# Poissons Ratio (y) = -0.08264 0.12648
# Poissons Ratio (z) = 0.00731 0.21393
#
# Static dielectric constant tensor:
#      x y z
#    x 2.524220 0.000000 -0.055790 
#    y 0.000000 2.632210 0.000000 
#    z -0.055790 0.000000 2.347130 
# 
# From -- ./inp_files/20705.got.cif
#   From: 2010.05.17/outbox.cif.g08.bks.cpg/sg14_11_cif.got.tgz:20705.got - 2010.06.03 17:49:19.
