data_PCOD9252326
_publ_section_title
;
Structure prediction by ZEFSAII (Michael W. Deem and Ramdas Pophale) SiO2 
 PCOD9252326
Probable space group: P 21/C
;
_chemical_formula_sum "Si O2"
_cell_formula_units_Z 16
_cell_length_a 14.250226
_cell_length_b 11.228023
_cell_length_c 10.274057
_cell_angle_alpha 90.000000
_cell_angle_beta 28.120164
_cell_angle_gamma 90.000000
_cell_volume 774.791776
_symmetry_space_group_name_H-M "P 21/C"
_symmetry_group_IT_number 14
_symmetry_cell_setting 'monoclinic'
loop_
_space_group_symop_operation_xyz
x,y,z
-x,1/2+y,1/2-z
-x,-y,-z
x,1/2-y,1/2+z
loop_
_atom_site_type_symbol
_atom_site_label
_atom_site_fract_x
_atom_site_fract_y
_atom_site_fract_z
Si Si1 0.114370 0.411144 0.763531
Si Si2 0.358121 0.176407 0.184073
Si Si3 0.738741 0.072037 0.571080
Si Si4 0.525550 0.575884 0.839681
O O1 0.209338 0.312317 0.742537
O O2 0.303205 0.475241 0.465340
O O3 0.000000 0.500000 0.000000
O O4 0.952709 0.378735 0.852450
O O5 0.391893 0.295161 0.222282
O O6 0.279071 0.067504 0.368766
O O7 0.569704 0.136972 0.864041
O O8 0.673918 0.086410 0.501397
O O9 0.500000 0.500000 0.000000
#
# Coordination Sequence:
#
# PCOD9252326 Si02
#       4
#     4   4   4   4
#     4   9  20  43  63  85 119 166 208 251 305 369
#     4   9  20  40  62  88 124 165 203 253 311 368
#     4   9  20  40  64  84 123 169 203 249 315 366
#     4  11  24  37  63  98 129 155 208 263 306 371
#
# _framework density 20.650708999999999
#
# number of rings (size 3 to 8) (size 9 to 14) (size 15 to 20)
#    0.000    2.500    0.000    1.500    7.000    3.000 
#    9.000    0.000    0.000    0.000    0.000    0.000 
#    0.000    0.000    0.000    0.000    0.000    0.000 
#
# Total GULP energy -89268.488110 kJ/mol
# GULP energy per Si atom -5579.280507 kJ/mol
# Density = 2.060371 g / cm^3
# Si number density = 20.650709 Si / 1000 Ang^3
#
#
#
# Elastic Constant Matrix: (Units=GPa)
#
#
# Indices 1 2 3 4 5 6 
#
# 1 212.6935 33.1789 33.2206 0.0000 -26.0003 0.0000
# 2 33.1789 61.5936 7.2442 0.0000 0.5829 0.0000
# 3 33.2206 7.2442 45.9284 0.0000 0.7042 0.0000
# 4 0.0000 0.0000 0.0000 8.6807 0.0000 3.1943
# 5 -26.0003 0.5829 0.7042 0.0000 42.8230 0.0000
# 6 0.0000 0.0000 0.0000 3.1943 0.0000 24.3563
#
#
#
# Elastic Compliance Matrix: (Units=1/GPa)
#
#
# Indices 1 2 3 4 5 6 
#
# 1 0.006287 -0.002936 -0.004144 0.000000 0.003925 0.000000
# 2 -0.002936 0.017915 -0.000671 0.000000 -0.002016 0.000000
# 3 -0.004144 -0.000671 0.024921 0.000000 -0.002917 0.000000
# 4 0.000000 0.000000 0.000000 0.121039 0.000000 -0.015874
# 5 0.003925 -0.002016 -0.002917 0.000000 0.025811 0.000000
# 6 0.000000 0.000000 0.000000 -0.015874 0.000000 0.043139
#
#
# Mechanical properties :
#
#
# Convention : Reuss Voigt Hill
#
# Bulk Modulus (GPa) = 29.74425 51.94478 40.84451
# Shear Modulus (GPa) = 18.80963 31.61012 25.20987
#
# Velocity S-wave (km/s) = 3.02130 3.91667 3.49775
# Velocity P-wave (km/s) = 5.15808 6.75739 6.01116
#
# Compressibility (1/GPa) = 0.03361994
#
# Stress axis : x y z
#
# Youngs Moduli (GPa) = 159.06425 55.81877 40.12641
#
# Poissons Ratio (x) = 0.16390 0.16630
# Poissons Ratio (y) = 0.46705 0.02692
# Poissons Ratio (z) = 0.65922 0.03745
#
# Static dielectric constant tensor:
#      x y z
#    x 1.797630 0.000000 -0.003100 
#    y 0.000000 1.726880 0.000000 
#    z -0.003100 0.000000 1.757110 
# 
# From -- ./inp_files/7608.got.cif
#   From: 2010.05.17/outbox.cif.g08.bks.cpg/sg14_4_cif.got.tgz:7608.got - 2010.06.03 17:49:19.
