data_PCOD9252599
_publ_section_title
;
Structure prediction by ZEFSAII (Michael W. Deem and Ramdas Pophale) SiO2 
 PCOD9252599
Probable space group: P 21/C
;
_chemical_formula_sum "Si O2"
_cell_formula_units_Z 28
_cell_length_a 10.284908
_cell_length_b 23.308389
_cell_length_c 8.270098
_cell_angle_alpha 90.000000
_cell_angle_beta 30.794085
_cell_angle_gamma 90.000000
_cell_volume 1014.972846
_symmetry_space_group_name_H-M "P 21/C"
_symmetry_group_IT_number 14
_symmetry_cell_setting 'monoclinic'
loop_
_space_group_symop_operation_xyz
x,y,z
-x,1/2+y,1/2-z
-x,-y,-z
x,1/2-y,1/2+z
loop_
_atom_site_type_symbol
_atom_site_label
_atom_site_fract_x
_atom_site_fract_y
_atom_site_fract_z
Si Si1 0.558058 0.806581 0.733802
Si Si2 0.359633 0.507838 0.983387
Si Si3 0.923801 0.897841 0.250105
Si Si4 0.227758 0.954680 0.196856
Si Si5 0.787621 0.124940 0.488268
Si Si6 0.827856 0.706898 0.266481
Si Si7 0.204650 0.799272 0.796275
O O1 0.670328 0.869564 0.589263
O O2 0.750400 0.755911 0.474084
O O3 0.596014 0.800708 0.888188
O O4 0.353210 0.801079 0.807329
O O5 0.139231 0.461644 0.228758
O O6 0.552890 0.490553 0.630109
O O7 0.243533 0.570676 0.096622
O O8 0.500000 0.500000 0.000000
O O9 0.116138 0.908824 0.189064
O O10 0.000615 0.850121 0.038821
O O11 0.310924 0.911188 0.250509
O O12 0.000000 0.000000 0.500000
O O13 0.668593 0.177503 0.506536
O O14 0.053902 0.151457 0.271117
O O15 0.071090 0.737788 0.918462
#
# Coordination Sequence:
#
# PCOD9252599 Si02
#       7
#     4   4   4   4   4   4   4
#     4  11  24  47  72 109 155 209 271 334 416 489
#     4  12  28  50  77 121 163 223 278 337 427 507
#     4  11  24  47  76 104 159 207 263 336 401 498
#     4  12  26  47  75 116 160 208 266 340 408 490
#     4  12  25  49  77 116 162 211 274 348 413 502
#     4  11  25  48  74 112 158 212 271 346 418 501
#     4  11  27  49  76 115 155 215 276 338 419 495
#
# _framework density 27.586945
#
# number of rings (size 3 to 8) (size 9 to 14) (size 15 to 20)
#    0.000    0.571    4.286    3.000    4.000    1.143 
#    5.143    0.000    0.000    0.000    0.000    0.000 
#    0.000    0.000    0.000    0.000    0.000    0.000 
#
# Total GULP energy -156304.485731 kJ/mol
# GULP energy per Si atom -5582.303062 kJ/mol
# Density = 2.752416 g / cm^3
# Si number density = 27.586945 Si / 1000 Ang^3
#
#
#
# Elastic Constant Matrix: (Units=GPa)
#
#
# Indices 1 2 3 4 5 6 
#
# 1 199.4263 40.2492 40.1861 0.0000 0.3751 0.0000
# 2 40.2492 137.5121 53.8701 0.0000 8.5135 0.0000
# 3 40.1861 53.8701 96.0191 0.0000 8.6363 0.0000
# 4 0.0000 0.0000 0.0000 55.4937 0.0000 11.1734
# 5 0.3751 8.5135 8.6363 0.0000 37.2707 0.0000
# 6 0.0000 0.0000 0.0000 11.1734 0.0000 35.9161
#
#
#
# Elastic Compliance Matrix: (Units=1/GPa)
#
#
# Indices 1 2 3 4 5 6 
#
# 1 0.005578 -0.000941 -0.001860 0.000000 0.000590 0.000000
# 2 -0.000941 0.009511 -0.004849 0.000000 -0.001040 0.000000
# 3 -0.001860 -0.004849 0.014106 0.000000 -0.002142 0.000000
# 4 0.000000 0.000000 0.000000 0.019224 0.000000 -0.005981
# 5 0.000590 -0.001040 -0.002142 0.000000 0.027559 0.000000
# 6 0.000000 0.000000 0.000000 -0.005981 0.000000 0.029703
#
#
# Mechanical properties :
#
#
# Convention : Reuss Voigt Hill
#
# Bulk Modulus (GPa) = 71.96049 77.95204 74.95627
# Shear Modulus (GPa) = 39.80495 45.64625 42.72560
#
# Velocity S-wave (km/s) = 3.80266 4.07213 3.93970
# Velocity P-wave (km/s) = 6.73958 7.10126 6.92278
#
# Compressibility (1/GPa) = 0.01389651
#
# Stress axis : x y z
#
# Youngs Moduli (GPa) = 179.27997 105.13750 70.89104
#
# Poissons Ratio (x) = 0.09889 0.13184
# Poissons Ratio (y) = 0.16862 0.34376
# Poissons Ratio (z) = 0.33343 0.50982
#
# Static dielectric constant tensor:
#      x y z
#    x 2.125180 0.000000 0.106390 
#    y 0.000000 2.049410 0.000000 
#    z 0.106390 0.000000 2.383560 
# 
# From -- ./inp_files/11151.got.cif
#   From: 2010.05.17/outbox.cif.g08.bks.cpg/sg14_6_cif.got.tgz:11151.got - 2010.06.03 17:49:19.
