data_PCOD9252580
_publ_section_title
;
Structure prediction by ZEFSAII (Michael W. Deem and Ramdas Pophale) SiO2 
 PCOD9252580
Probable space group: P 21/C
;
_chemical_formula_sum "Si O2"
_cell_formula_units_Z 20
_cell_length_a 16.470765
_cell_length_b 8.684492
_cell_length_c 15.393541
_cell_angle_alpha 90.000000
_cell_angle_beta 157.127933
_cell_angle_gamma 90.000000
_cell_volume 855.821342
_symmetry_space_group_name_H-M "P 21/C"
_symmetry_group_IT_number 14
_symmetry_cell_setting 'monoclinic'
loop_
_space_group_symop_operation_xyz
x,y,z
-x,1/2+y,1/2-z
-x,-y,-z
x,1/2-y,1/2+z
loop_
_atom_site_type_symbol
_atom_site_label
_atom_site_fract_x
_atom_site_fract_y
_atom_site_fract_z
Si Si1 0.747244 0.499652 0.499206
Si Si2 0.579782 0.008573 0.177276
Si Si3 0.546535 0.658865 0.140324
Si Si4 0.817948 0.950310 0.754915
Si Si5 0.915753 0.211850 0.594407
O O1 0.596834 0.554380 0.427901
O O2 0.656736 0.547517 0.317444
O O3 0.777454 0.317293 0.521419
O O4 0.963016 0.584026 0.731888
O O5 0.774258 0.121530 0.384554
O O6 0.612988 0.829646 0.233707
O O7 0.500000 0.000000 0.000000
O O8 0.642506 0.637094 0.138933
O O9 0.306572 0.601325 0.901087
O O10 0.923204 0.832274 0.791341
O O11 0.000000 0.000000 0.000000
#
# Coordination Sequence:
#
# PCOD9252580 Si02
#       5
#     4   4   4   4   4
#     4  12  28  45  75 107 148 189 248 303 368 440
#     4  12  28  47  72 106 148 195 244 307 367 441
#     4  11  26  45  76 105 147 190 243 305 369 441
#     4  11  24  46  75 108 144 191 246 302 374 439
#     4  12  28  46  75 110 147 196 247 304 368 443
#
# _framework density 23.369364000000001
#
# number of rings (size 3 to 8) (size 9 to 14) (size 15 to 20)
#    0.000    0.400    2.000    4.800   14.000    6.400 
#    0.000    0.000    0.000    0.000    0.000    0.000 
#    0.000    0.000    0.000    0.000    0.000    0.000 
#
# Total GULP energy -111907.976134 kJ/mol
# GULP energy per Si atom -5595.398807 kJ/mol
# Density = 2.331617 g / cm^3
# Si number density = 23.369364 Si / 1000 Ang^3
#
#
#
# Elastic Constant Matrix: (Units=GPa)
#
#
# Indices 1 2 3 4 5 6 
#
# 1 110.9344 15.8247 26.8851 0.0000 8.8203 0.0000
# 2 15.8247 118.1107 42.1351 0.0000 0.9838 0.0000
# 3 26.8851 42.1351 106.7785 0.0000 -14.9309 0.0000
# 4 0.0000 0.0000 0.0000 51.4854 0.0000 -9.2102
# 5 8.8203 0.9838 -14.9309 0.0000 38.8270 0.0000
# 6 0.0000 0.0000 0.0000 -9.2102 0.0000 42.5056
#
#
#
# Elastic Compliance Matrix: (Units=1/GPa)
#
#
# Indices 1 2 3 4 5 6 
#
# 1 0.010022 -0.000286 -0.002883 0.000000 -0.003378 0.000000
# 2 -0.000286 0.009988 -0.004117 0.000000 -0.001771 0.000000
# 3 -0.002883 -0.004117 0.012494 0.000000 0.005564 0.000000
# 4 0.000000 0.000000 0.000000 0.020206 0.000000 0.004378
# 5 -0.003378 -0.001771 0.005564 0.000000 0.028707 0.000000
# 6 0.000000 0.000000 0.000000 0.004378 0.000000 0.024475
#
#
# Mechanical properties :
#
#
# Convention : Reuss Voigt Hill
#
# Bulk Modulus (GPa) = 55.76596 56.16815 55.96705
# Shear Modulus (GPa) = 39.54363 43.29553 41.41958
#
# Velocity S-wave (km/s) = 4.11799 4.30893 4.21454
# Velocity P-wave (km/s) = 6.82094 6.98877 6.90536
#
# Compressibility (1/GPa) = 0.01793209
#
# Stress axis : x y z
#
# Youngs Moduli (GPa) = 99.77616 100.11537 80.04080
#
# Poissons Ratio (x) = 0.02866 0.23075
# Poissons Ratio (y) = 0.02856 0.32954
# Poissons Ratio (z) = 0.28764 0.41218
#
# Static dielectric constant tensor:
#      x y z
#    x 1.872500 0.000000 0.048970 
#    y 0.000000 1.874930 0.000000 
#    z 0.048970 0.000000 1.872020 
# 
# From -- ./inp_files/52722.got.cif
#   From: 2010.05.17/outbox.cif.g08.bks.cpg/sg14_27_cif.got.tgz:52722.got - 2010.06.03 17:49:19.
