data_PCOD9252695
_publ_section_title
;
Structure prediction by ZEFSAII (Michael W. Deem and Ramdas Pophale) SiO2 
 PCOD9252695
Probable space group: P 21/C
;
_chemical_formula_sum "Si O2"
_cell_formula_units_Z 22
_cell_length_a 22.146183
_cell_length_b 8.995450
_cell_length_c 13.572236
_cell_angle_alpha 90.000000
_cell_angle_beta 155.288471
_cell_angle_gamma 90.000000
_cell_volume 1130.319652
_symmetry_space_group_name_H-M "P 21/C"
_symmetry_group_IT_number 14
_symmetry_cell_setting 'monoclinic'
loop_
_space_group_symop_operation_xyz
x,y,z
-x,1/2+y,1/2-z
-x,-y,-z
x,1/2-y,1/2+z
loop_
_atom_site_type_symbol
_atom_site_label
_atom_site_fract_x
_atom_site_fract_y
_atom_site_fract_z
Si Si1 0.920895 0.676386 0.786723
Si Si2 0.517808 0.288716 0.365733
Si Si3 0.207459 0.497637 0.218839
Si Si4 0.000000 0.500000 0.500000
Si Si5 0.694432 0.765561 0.778803
Si Si6 0.663593 0.978162 0.553508
O O1 0.836837 0.578909 0.743892
O O2 0.819097 0.696080 0.541723
O O3 0.963881 0.833754 0.898163
O O4 0.066468 0.587859 0.974916
O O5 0.658759 0.391559 0.572649
O O6 0.445378 0.280662 0.365812
O O7 0.564414 0.123864 0.403990
O O8 0.401768 0.359338 0.119600
O O9 0.250240 0.369116 0.206395
O O10 0.173124 0.519390 0.731618
O O11 0.663415 0.903057 0.660805
#
# Coordination Sequence:
#
# PCOD9252695 Si02
#       6
#     4   4   4   2   4   4
#     4  11  25  45  69  99 133 177 228 281 330 398
#     4  12  25  45  68  99 139 181 217 281 338 399
#     4  11  25  43  69  99 135 175 227 274 340 399
#     4  12  22  50  68  96 132 188 222 276 334 396
#     4  12  24  43  66 101 136 173 229 275 334 406
#     4  12  26  45  72  99 138 179 228 276 337 402
#
# _framework density 19.463519000000002
#
# number of rings (size 3 to 8) (size 9 to 14) (size 15 to 20)
#    0.000    0.364    5.455    3.273    2.545    0.000 
#    0.000    3.636    0.000    0.000    0.000    0.000 
#    0.000    0.000    0.000    0.000    0.000    0.000 
#
# Total GULP energy -122567.893843 kJ/mol
# GULP energy per Si atom -5571.267902 kJ/mol
# Density = 1.941922 g / cm^3
# Si number density = 19.463519 Si / 1000 Ang^3
#
#
#
# Elastic Constant Matrix: (Units=GPa)
#
#
# Indices 1 2 3 4 5 6 
#
# 1 53.2635 17.5747 44.2041 0.0000 20.8316 0.0000
# 2 17.5747 95.4253 46.1314 0.0000 -0.0337 0.0000
# 3 44.2041 46.1314 103.0965 0.0000 25.7093 0.0000
# 4 0.0000 0.0000 0.0000 43.5684 0.0000 4.0707
# 5 20.8316 -0.0337 25.7093 0.0000 31.7213 0.0000
# 6 0.0000 0.0000 0.0000 4.0707 0.0000 12.6134
#
#
#
# Elastic Compliance Matrix: (Units=1/GPa)
#
#
# Indices 1 2 3 4 5 6 
#
# 1 0.032856 -0.001071 -0.010311 0.000000 -0.013221 0.000000
# 2 -0.001071 0.014418 -0.007735 0.000000 0.006988 0.000000
# 3 -0.010311 -0.007735 0.019922 0.000000 -0.009383 0.000000
# 4 0.000000 0.000000 0.000000 0.023666 0.000000 -0.007638
# 5 -0.013221 0.006988 -0.009383 0.000000 0.047819 0.000000
# 6 0.000000 0.000000 0.000000 -0.007638 0.000000 0.081746
#
#
# Mechanical properties :
#
#
# Convention : Reuss Voigt Hill
#
# Bulk Modulus (GPa) = 34.52851 51.95619 43.24235
# Shear Modulus (GPa) = 18.63477 27.17229 22.90353
#
# Velocity S-wave (km/s) = 3.09758 3.74045 3.43409
# Velocity P-wave (km/s) = 5.52919 6.73845 6.16355
#
# Compressibility (1/GPa) = 0.02896157
#
# Stress axis : x y z
#
# Youngs Moduli (GPa) = 30.43546 69.35574 50.19662
#
# Poissons Ratio (x) = 0.07428 0.51760
# Poissons Ratio (y) = 0.03260 0.38827
# Poissons Ratio (z) = 0.31383 0.53646
#
# Static dielectric constant tensor:
#      x y z
#    x 1.670810 0.000000 0.004370 
#    y 0.000000 1.673700 0.000000 
#    z 0.004370 0.000000 1.662520 
# 
# From -- ./inp_files/42979.got.cif
#   From: 2010.05.17/outbox.cif.g08.bks.cpg/sg14_22_cif.got.tgz:42979.got - 2010.06.03 17:49:19.
