data_PCOD9252944
_publ_section_title
;
Structure prediction by ZEFSAII (Michael W. Deem and Ramdas Pophale) SiO2 
 PCOD9252944
Probable space group: P 21/C
;
_chemical_formula_sum "Si O2"
_cell_formula_units_Z 24
_cell_length_a 13.493960
_cell_length_b 8.860266
_cell_length_c 14.486312
_cell_angle_alpha 90.000000
_cell_angle_beta 151.129461
_cell_angle_gamma 90.000000
_cell_volume 836.257846
_symmetry_space_group_name_H-M "P 21/C"
_symmetry_group_IT_number 14
_symmetry_cell_setting 'monoclinic'
loop_
_space_group_symop_operation_xyz
x,y,z
-x,1/2+y,1/2-z
-x,-y,-z
x,1/2-y,1/2+z
loop_
_atom_site_type_symbol
_atom_site_label
_atom_site_fract_x
_atom_site_fract_y
_atom_site_fract_z
Si Si1 0.998453 0.101294 0.381766
Si Si2 0.167640 0.642668 0.621908
Si Si3 0.332359 0.357332 0.378092
Si Si4 0.901224 0.922898 0.735506
Si Si5 0.501547 0.898706 0.618234
Si Si6 0.598777 0.077103 0.264495
O O1 0.941773 0.251904 0.390789
O O2 0.956681 0.100081 0.237692
O O3 0.853873 0.966990 0.301804
O O4 0.236906 0.054806 0.582674
O O5 0.353873 0.533010 0.801804
O O6 0.274998 0.768977 0.644522
O O7 0.016510 0.559323 0.426971
O O8 0.225001 0.231023 0.355477
O O9 0.441773 0.251903 0.390790
O O10 0.483490 0.440677 0.573028
O O11 0.736907 0.054806 0.582675
O O12 0.543317 0.899918 0.762307
#
# Coordination Sequence:
#
# PCOD9252944 Si02
#       6
#     4   4   4   4   4   4
#     4  11  28  51  80 117 161 209 271 327 404 479
#     4  12  26  50  81 119 155 212 266 333 402 478
#     4  12  26  50  81 119 155 212 266 333 402 478
#     4  11  26  49  77 117 161 209 262 327 402 478
#     4  11  28  51  80 117 161 209 271 327 404 479
#     4  11  26  49  77 117 161 209 262 327 402 478
#
# _framework density 28.699283000000001
#
# number of rings (size 3 to 8) (size 9 to 14) (size 15 to 20)
#    0.000    0.667    3.333    2.000    0.000    9.333 
#    0.000    0.000    0.000    0.000    0.000    0.000 
#    0.000    0.000    0.000    0.000    0.000    0.000 
#
# Total GULP energy -134872.727129 kJ/mol
# GULP energy per Si atom -5619.696964 kJ/mol
# Density = 2.863396 g / cm^3
# Si number density = 28.699283 Si / 1000 Ang^3
#
#
#
# Elastic Constant Matrix: (Units=GPa)
#
#
# Indices 1 2 3 4 5 6 
#
# 1 238.2883 68.8631 53.4456 0.0000 -30.5918 0.0000
# 2 68.8631 213.1486 64.6130 0.0000 5.5358 0.0000
# 3 53.4456 64.6130 170.9019 0.0000 -22.0267 0.0000
# 4 0.0000 0.0000 0.0000 60.1470 0.0000 -7.2673
# 5 -30.5918 5.5358 -22.0267 0.0000 62.2359 0.0000
# 6 0.0000 0.0000 0.0000 -7.2673 0.0000 14.5926
#
#
#
# Elastic Compliance Matrix: (Units=1/GPa)
#
#
# Indices 1 2 3 4 5 6 
#
# 1 0.005095 -0.001488 -0.000724 0.000000 0.002381 0.000000
# 2 -0.001488 0.005826 -0.001989 0.000000 -0.001954 0.000000
# 3 -0.000724 -0.001989 0.007132 0.000000 0.002345 0.000000
# 4 0.000000 0.000000 0.000000 0.017690 0.000000 0.008810
# 5 0.002381 -0.001954 0.002345 0.000000 0.018242 0.000000
# 6 0.000000 0.000000 0.000000 0.008810 0.000000 0.072916
#
#
# Mechanical properties :
#
#
# Convention : Reuss Voigt Hill
#
# Bulk Modulus (GPa) = 103.62266 110.68693 107.15480
# Shear Modulus (GPa) = 36.09594 56.42288 46.25941
#
# Velocity S-wave (km/s) = 3.55030 4.43877 4.01916
# Velocity P-wave (km/s) = 7.27948 8.05741 7.67830
#
# Compressibility (1/GPa) = 0.00965040
#
# Stress axis : x y z
#
# Youngs Moduli (GPa) = 196.28363 171.64066 140.21490
#
# Poissons Ratio (x) = 0.25547 0.10147
# Poissons Ratio (y) = 0.29215 0.27889
# Poissons Ratio (z) = 0.14205 0.34140
#
# Static dielectric constant tensor:
#      x y z
#    x 2.221010 0.000000 -0.047080 
#    y 0.000000 2.262100 0.000000 
#    z -0.047080 0.000000 2.294260 
# 
# From -- ./inp_files/46871.got.cif
#   From: 2010.05.17/outbox.cif.g08.bks.cpg/sg14_24_cif.got.tgz:46871.got - 2010.06.03 17:49:19.
