data_PCOD9252077
_publ_section_title
;
Structure prediction by ZEFSAII (Michael W. Deem and Ramdas Pophale) SiO2 
 PCOD9252077
Probable space group: P 21/C
;
_chemical_formula_sum "Si O2"
_cell_formula_units_Z 24
_cell_length_a 11.217493
_cell_length_b 9.185649
_cell_length_c 9.880568
_cell_angle_alpha 90.000000
_cell_angle_beta 97.830401
_cell_angle_gamma 90.000000
_cell_volume 1008.600249
_symmetry_space_group_name_H-M "P 21/C"
_symmetry_group_IT_number 14
_symmetry_cell_setting 'monoclinic'
loop_
_space_group_symop_operation_xyz
x,y,z
-x,1/2+y,1/2-z
-x,-y,-z
x,1/2-y,1/2+z
loop_
_atom_site_type_symbol
_atom_site_label
_atom_site_fract_x
_atom_site_fract_y
_atom_site_fract_z
Si Si1 0.280633 0.571692 0.371965
Si Si2 0.487058 0.194137 0.239760
Si Si3 0.097771 0.364078 0.856583
Si Si4 0.879725 0.184013 0.722683
Si Si5 0.236651 0.180960 0.657458
Si Si6 0.353465 0.568176 0.662634
O O1 0.403706 0.644349 0.338556
O O2 0.179233 0.693854 0.383467
O O3 0.233252 0.463096 0.250414
O O4 0.314981 0.493812 0.516659
O O5 0.377660 0.285305 0.159836
O O6 0.553516 0.300896 0.353941
O O7 0.422127 0.044143 0.270893
O O8 0.071992 0.536387 0.837661
O O9 0.176448 0.307138 0.740452
O O10 0.979482 0.264930 0.826705
O O11 0.168476 0.337877 0.006316
O O12 0.765105 0.133283 0.790895
#
# Coordination Sequence:
#
# PCOD9252077 Si02
#       6
#     4   4   4   4   4   4
#     4  11  26  45  75 105 153 194 247 308 375 441
#     4  11  23  42  71 111 142 191 241 305 366 442
#     4  12  29  49  77 106 152 194 255 304 371 439
#     4  11  28  48  75 108 142 202 252 311 365 441
#     4  12  27  48  76 112 149 198 245 310 372 442
#     4  11  24  46  74 107 151 193 246 305 376 441
#
# _framework density 23.795355000000001
#
# number of rings (size 3 to 8) (size 9 to 14) (size 15 to 20)
#    0.000    0.667    3.333    2.500    9.333    2.000 
#    0.000    4.167    0.000    0.000    0.000    0.000 
#    0.000    0.000    0.000    0.000    0.000    0.000 
#
# Total GULP energy -134208.405511 kJ/mol
# GULP energy per Si atom -5592.016896 kJ/mol
# Density = 2.374120 g / cm^3
# Si number density = 23.795355 Si / 1000 Ang^3
#
#
#
# Elastic Constant Matrix: (Units=GPa)
#
#
# Indices 1 2 3 4 5 6 
#
# 1 112.4030 43.7215 23.9746 0.0000 36.0818 0.0000
# 2 43.7215 144.1957 45.4446 0.0000 19.4963 0.0000
# 3 23.9746 45.4446 101.7742 0.0000 22.2648 0.0000
# 4 0.0000 0.0000 0.0000 30.7115 0.0000 13.7839
# 5 36.0818 19.4963 22.2648 0.0000 22.1059 0.0000
# 6 0.0000 0.0000 0.0000 13.7839 0.0000 48.6593
#
#
#
# Elastic Compliance Matrix: (Units=1/GPa)
#
#
# Indices 1 2 3 4 5 6 
#
# 1 0.020225 -0.002715 0.004035 0.000000 -0.034681 0.000000
# 2 -0.002715 0.008796 -0.003284 0.000000 -0.000019 0.000000
# 3 0.004035 -0.003284 0.014299 0.000000 -0.018092 0.000000
# 4 0.000000 0.000000 0.000000 0.037304 0.000000 -0.010567
# 5 -0.034681 -0.000019 -0.018092 0.000000 0.120082 0.000000
# 6 0.000000 0.000000 0.000000 -0.010567 0.000000 0.023544
#
#
# Mechanical properties :
#
#
# Convention : Reuss Voigt Hill
#
# Bulk Modulus (GPa) = 25.38580 64.96160 45.17370
# Shear Modulus (GPa) = 20.72042 36.64416 28.68229
#
# Velocity S-wave (km/s) = 2.95409 3.92850 3.47562
# Velocity P-wave (km/s) = 4.72516 6.92365 5.92723
#
# Compressibility (1/GPa) = 0.03939210
#
# Stress axis : x y z
#
# Youngs Moduli (GPa) = 49.44481 113.69257 69.93302
#
# Poissons Ratio (x) = 0.30866 -0.28218
# Poissons Ratio (y) = 0.13424 0.22965
# Poissons Ratio (z) = -0.19951 0.37335
#
# Static dielectric constant tensor:
#      x y z
#    x 1.906510 0.000000 -0.007550 
#    y 0.000000 1.970940 0.000000 
#    z -0.007550 0.000000 1.827260 
# 
# From -- ./inp_files/28206.got.cif
#   From: 2010.05.17/outbox.cif.g08.bks.cpg/sg14_15_cif.got.tgz:28206.got - 2010.06.03 17:49:19.
