data_PCOD9252469
_publ_section_title
;
Structure prediction by ZEFSAII (Michael W. Deem and Ramdas Pophale) SiO2 
 PCOD9252469
Probable space group: P 21/C
;
_chemical_formula_sum "Si O2"
_cell_formula_units_Z 16
_cell_length_a 4.957448
_cell_length_b 11.298434
_cell_length_c 11.063020
_cell_angle_alpha 90.000000
_cell_angle_beta 97.355469
_cell_angle_gamma 90.000000
_cell_volume 614.556063
_symmetry_space_group_name_H-M "P 21/C"
_symmetry_group_IT_number 14
_symmetry_cell_setting 'monoclinic'
loop_
_space_group_symop_operation_xyz
x,y,z
-x,1/2+y,1/2-z
-x,-y,-z
x,1/2-y,1/2+z
loop_
_atom_site_type_symbol
_atom_site_label
_atom_site_fract_x
_atom_site_fract_y
_atom_site_fract_z
Si Si1 0.340535 0.733303 0.417927
Si Si2 0.089106 0.682574 0.652198
Si Si3 0.271634 0.446516 0.070713
Si Si4 0.589965 0.971382 0.154746
O O1 0.807255 0.246269 0.460614
O O2 0.615618 0.810577 0.417128
O O3 0.389592 0.592676 0.415890
O O4 0.156736 0.763776 0.288502
O O5 0.280687 0.566490 0.659171
O O6 0.780252 0.638243 0.623800
O O7 0.288405 0.495203 0.206249
O O8 0.500000 0.500000 0.000000
O O9 0.000000 0.500000 0.000000
#
# Coordination Sequence:
#
# PCOD9252469 Si02
#       4
#     4   4   4   4
#     4  11  25  46  72 101 144 191 233 302 367 421
#     4  11  26  44  70 105 141 189 245 296 359 437
#     4  11  24  44  70 106 145 189 244 300 363 442
#     4  11  25  44  69 104 142 187 244 296 358 438
#
# _framework density 26.035053000000001
#
# number of rings (size 3 to 8) (size 9 to 14) (size 15 to 20)
#    0.000    1.000    0.000    6.000    0.000   14.000 
#    0.000    0.000    0.000    0.000    0.000    0.000 
#    0.000    0.000    0.000    0.000    0.000    0.000 
#
# Total GULP energy -89541.845452 kJ/mol
# GULP energy per Si atom -5596.365341 kJ/mol
# Density = 2.597580 g / cm^3
# Si number density = 26.035053 Si / 1000 Ang^3
#
#
#
# Elastic Constant Matrix: (Units=GPa)
#
#
# Indices 1 2 3 4 5 6 
#
# 1 142.8649 12.9249 29.7153 0.0000 -1.3474 0.0000
# 2 12.9249 112.1936 12.9049 0.0000 1.6916 0.0000
# 3 29.7153 12.9049 187.0456 0.0000 -3.2892 0.0000
# 4 0.0000 0.0000 0.0000 55.5544 0.0000 -1.7431
# 5 -1.3474 1.6916 -3.2892 0.0000 42.3820 0.0000
# 6 0.0000 0.0000 0.0000 -1.7431 0.0000 36.3714
#
#
#
# Elastic Compliance Matrix: (Units=1/GPa)
#
#
# Indices 1 2 3 4 5 6 
#
# 1 0.007296 -0.000716 -0.001107 0.000000 0.000175 0.000000
# 2 -0.000716 0.009062 -0.000519 0.000000 -0.000425 0.000000
# 3 -0.001107 -0.000519 0.005565 0.000000 0.000417 0.000000
# 4 0.000000 0.000000 0.000000 0.018027 0.000000 0.000864
# 5 0.000175 -0.000425 0.000417 0.000000 0.023650 0.000000
# 6 0.000000 0.000000 0.000000 0.000864 0.000000 0.027536
#
#
# Mechanical properties :
#
#
# Convention : Reuss Voigt Hill
#
# Bulk Modulus (GPa) = 58.00388 61.46605 59.73496
# Shear Modulus (GPa) = 49.22921 52.63216 50.93068
#
# Velocity S-wave (km/s) = 4.35314 4.50109 4.42773
# Velocity P-wave (km/s) = 6.89884 7.11851 7.00954
#
# Compressibility (1/GPa) = 0.01724023
#
# Stress axis : x y z
#
# Youngs Moduli (GPa) = 137.05743 110.35419 179.68659
#
# Poissons Ratio (x) = 0.07900 0.19885
# Poissons Ratio (y) = 0.09812 0.09325
# Poissons Ratio (z) = 0.15168 0.05727
#
# Static dielectric constant tensor:
#      x y z
#    x 1.980380 0.000000 0.055180 
#    y 0.000000 2.037960 0.000000 
#    z 0.055180 0.000000 2.106190 
# 
# From -- ./inp_files/36771.got.cif
#   From: 2010.05.17/outbox.cif.g08.bks.cpg/sg14_19_cif.got.tgz:36771.got - 2010.06.03 17:49:19.
