data_PCOD9252445
_publ_section_title
;
Structure prediction by ZEFSAII (Michael W. Deem and Ramdas Pophale) SiO2 
 PCOD9252445
Probable space group: P 21/C
;
_chemical_formula_sum "Si O2"
_cell_formula_units_Z 28
_cell_length_a 19.005972
_cell_length_b 5.696805
_cell_length_c 10.208021
_cell_angle_alpha 90.000000
_cell_angle_beta 86.858965
_cell_angle_gamma 90.000000
_cell_volume 1103.595842
_symmetry_space_group_name_H-M "P 21/C"
_symmetry_group_IT_number 14
_symmetry_cell_setting 'monoclinic'
loop_
_space_group_symop_operation_xyz
x,y,z
-x,1/2+y,1/2-z
-x,-y,-z
x,1/2-y,1/2+z
loop_
_atom_site_type_symbol
_atom_site_label
_atom_site_fract_x
_atom_site_fract_y
_atom_site_fract_z
Si Si1 0.591689 0.134341 0.281768
Si Si2 0.087548 0.074083 0.368743
Si Si3 0.991653 0.801752 0.892070
Si Si4 0.774647 0.683815 0.290445
Si Si5 0.540251 0.794711 0.069863
Si Si6 0.655157 0.524712 0.122495
Si Si7 0.257711 0.681605 0.095685
O O1 0.526838 0.141577 0.386642
O O2 0.592969 0.370508 0.191676
O O3 0.669085 0.168389 0.332168
O O4 0.573825 0.914006 0.195135
O O5 0.061405 0.138347 0.517457
O O6 0.039277 0.159832 0.249691
O O7 0.163900 0.159540 0.323104
O O8 0.070374 0.798543 0.365023
O O9 0.000000 0.000000 0.000000
O O10 0.700871 0.670401 0.220887
O O11 0.777007 0.437325 0.374182
O O12 0.780870 0.935634 0.362701
O O13 0.613845 0.677412 0.015704
O O14 0.500000 0.000000 0.000000
O O15 0.712900 0.349247 0.053869
#
# Coordination Sequence:
#
# PCOD9252445 Si02
#       7
#     4   4   4   4   4   4   4
#     4  11  24  44  62  98 130 177 238 305 361 435
#     4  11  26  46  78 115 150 207 248 319 376 453
#     4  11  24  47  77 113 160 191 257 313 378 445
#     4  11  28  48  73 106 146 193 245 293 370 444
#     4  12  25  39  70  94 130 181 238 301 374 428
#     4  11  26  45  66  98 141 183 242 304 368 447
#     4  11  27  46  70  99 144 189 238 300 362 443
#
# _framework density 25.371604999999999
#
# number of rings (size 3 to 8) (size 9 to 14) (size 15 to 20)
#    0.000    0.857    4.286    0.857   12.000    2.286 
#    0.000    0.000    0.000    0.000    0.000    0.000 
#    0.000    0.000    0.000    0.000    0.000    0.000 
#
# Total GULP energy -156153.856642 kJ/mol
# GULP energy per Si atom -5576.923451 kJ/mol
# Density = 2.531386 g / cm^3
# Si number density = 25.371605 Si / 1000 Ang^3
#
#
#
# Elastic Constant Matrix: (Units=GPa)
#
#
# Indices 1 2 3 4 5 6 
#
# 1 59.0403 20.9140 -2.8145 0.0000 -12.9866 0.0000
# 2 20.9140 74.0371 -2.3405 0.0000 -8.3573 0.0000
# 3 -2.8145 -2.3405 66.6768 0.0000 -6.3039 0.0000
# 4 0.0000 0.0000 0.0000 53.1156 0.0000 -8.6417
# 5 -12.9866 -8.3573 -6.3039 0.0000 42.4483 0.0000
# 6 0.0000 0.0000 0.0000 -8.6417 0.0000 25.9683
#
#
#
# Elastic Compliance Matrix: (Units=1/GPa)
#
#
# Indices 1 2 3 4 5 6 
#
# 1 0.019925 -0.004995 0.001165 0.000000 0.005286 0.000000
# 2 -0.004995 0.015103 0.000462 0.000000 0.001514 0.000000
# 3 0.001165 0.000462 0.015321 0.000000 0.002723 0.000000
# 4 0.000000 0.000000 0.000000 0.019905 0.000000 0.006624
# 5 0.005286 0.001514 0.002723 0.000000 0.025878 0.000000
# 6 0.000000 0.000000 0.000000 0.006624 0.000000 0.040713
#
#
# Mechanical properties :
#
#
# Convention : Reuss Voigt Hill
#
# Bulk Modulus (GPa) = 22.92797 25.69690 24.31243
# Shear Modulus (GPa) = 31.62230 36.57278 34.09754
#
# Velocity S-wave (km/s) = 3.53422 3.80081 3.66994
# Velocity P-wave (km/s) = 5.07058 5.42326 5.24988
#
# Compressibility (1/GPa) = 0.04361485
#
# Stress axis : x y z
#
# Youngs Moduli (GPa) = 50.18782 66.21093 65.27165
#
# Poissons Ratio (x) = 0.33072 -0.07607
# Poissons Ratio (y) = 0.25069 -0.03019
# Poissons Ratio (z) = -0.05849 -0.03062
#
# Static dielectric constant tensor:
#      x y z
#    x 1.972010 0.000000 0.070180 
#    y 0.000000 2.659470 0.000000 
#    z 0.070180 0.000000 2.195380 
# 
# From -- ./inp_files/34697.got.cif
#   From: 2010.05.17/outbox.cif.g08.bks.cpg/sg14_18_cif.got.tgz:34697.got - 2010.06.03 17:49:19.
