data_PCOD9252957
_publ_section_title
;
Structure prediction by ZEFSAII (Michael W. Deem and Ramdas Pophale) SiO2 
 PCOD9252957
Probable space group: P 21/C
;
_chemical_formula_sum "Si O2"
_cell_formula_units_Z 12
_cell_length_a 4.802118
_cell_length_b 8.337050
_cell_length_c 10.138442
_cell_angle_alpha 90.000000
_cell_angle_beta 91.609692
_cell_angle_gamma 90.000000
_cell_volume 405.737397
_symmetry_space_group_name_H-M "P 21/C"
_symmetry_group_IT_number 14
_symmetry_cell_setting 'monoclinic'
loop_
_space_group_symop_operation_xyz
x,y,z
-x,1/2+y,1/2-z
-x,-y,-z
x,1/2-y,1/2+z
loop_
_atom_site_type_symbol
_atom_site_label
_atom_site_fract_x
_atom_site_fract_y
_atom_site_fract_z
Si Si1 0.243513 0.377958 0.485990
Si Si2 0.474320 0.352273 0.825507
Si Si3 0.808754 0.178101 0.610983
O O1 0.500000 0.500000 0.500000
O O2 0.266358 0.296240 0.345091
O O3 0.000000 0.500000 0.500000
O O4 0.123243 0.230361 0.576175
O O5 0.670263 0.310744 0.705579
O O6 0.282553 0.510432 0.821817
O O7 0.654824 0.337766 0.964540
#
# Coordination Sequence:
#
# PCOD9252957 Si02
#       3
#     4   4   4
#     4  12  25  50  80 116 162 220 275 344 422 502
#     4  11  26  50  82 122 169 223 283 353 425 515
#     4  11  26  50  82 122 169 222 285 349 431 510
#
# _framework density 29.575779000000001
#
# number of rings (size 3 to 8) (size 9 to 14) (size 15 to 20)
#    0.000    0.667    3.333    3.000    0.000    2.667 
#   12.000    0.000    0.000    0.000    0.000    0.000 
#    0.000    0.000    0.000    0.000    0.000    0.000 
#
# Total GULP energy -67136.232625 kJ/mol
# GULP energy per Si atom -5594.686052 kJ/mol
# Density = 2.950846 g / cm^3
# Si number density = 29.575779 Si / 1000 Ang^3
#
#
#
# Elastic Constant Matrix: (Units=GPa)
#
#
# Indices 1 2 3 4 5 6 
#
# 1 231.1647 73.7257 81.1199 0.0000 -55.6691 0.0000
# 2 73.7257 198.1204 60.6380 0.0000 -15.7102 0.0000
# 3 81.1199 60.6380 224.2941 0.0000 -33.9972 0.0000
# 4 0.0000 0.0000 0.0000 45.3333 0.0000 -27.4393
# 5 -55.6691 -15.7102 -33.9972 0.0000 57.2928 0.0000
# 6 0.0000 0.0000 0.0000 -27.4393 0.0000 71.5141
#
#
#
# Elastic Compliance Matrix: (Units=1/GPa)
#
#
# Indices 1 2 3 4 5 6 
#
# 1 0.006499 -0.001666 -0.001112 0.000000 0.005198 0.000000
# 2 -0.001666 0.005955 -0.001105 0.000000 -0.000641 0.000000
# 3 -0.001112 -0.001105 0.005439 0.000000 0.001844 0.000000
# 4 0.000000 0.000000 0.000000 0.028731 0.000000 0.011024
# 5 0.005198 -0.000641 0.001844 0.000000 0.023423 0.000000
# 6 0.000000 0.000000 0.000000 0.011024 0.000000 0.018213
#
#
# Mechanical properties :
#
#
# Convention : Reuss Voigt Hill
#
# Bulk Modulus (GPa) = 98.74345 120.50515 109.62430
# Shear Modulus (GPa) = 50.30081 64.03443 57.16762
#
# Velocity S-wave (km/s) = 4.12848 4.65811 4.40127
# Velocity P-wave (km/s) = 7.49566 8.35246 7.93563
#
# Compressibility (1/GPa) = 0.01012725
#
# Stress axis : x y z
#
# Youngs Moduli (GPa) = 153.85905 167.93795 183.86488
#
# Poissons Ratio (x) = 0.27978 0.20451
# Poissons Ratio (y) = 0.25632 0.20308
# Poissons Ratio (z) = 0.17114 0.18549
#
# Static dielectric constant tensor:
#      x y z
#    x 2.368530 0.000000 0.131680 
#    y 0.000000 2.346370 0.000000 
#    z 0.131680 0.000000 2.257620 
# 
# From -- ./inp_files/20136.got.cif
#   From: 2010.05.17/outbox.cif.g08.bks.cpg/sg14_11_cif.got.tgz:20136.got - 2010.06.03 17:49:19.
