data_PCOD9252166
_publ_section_title
;
Structure prediction by ZEFSAII (Michael W. Deem and Ramdas Pophale) SiO2 
 PCOD9252166
Probable space group: P 21/C
;
_chemical_formula_sum "Si O2"
_cell_formula_units_Z 20
_cell_length_a 7.370920
_cell_length_b 13.220517
_cell_length_c 14.917072
_cell_angle_alpha 90.000000
_cell_angle_beta 144.836808
_cell_angle_gamma 90.000000
_cell_volume 837.155752
_symmetry_space_group_name_H-M "P 21/C"
_symmetry_group_IT_number 14
_symmetry_cell_setting 'monoclinic'
loop_
_space_group_symop_operation_xyz
x,y,z
-x,1/2+y,1/2-z
-x,-y,-z
x,1/2-y,1/2+z
loop_
_atom_site_type_symbol
_atom_site_label
_atom_site_fract_x
_atom_site_fract_y
_atom_site_fract_z
Si Si1 0.373993 0.884868 0.955457
Si Si2 0.088119 0.157373 0.610111
Si Si3 0.017524 0.268334 0.277051
Si Si4 0.402096 0.808857 0.742740
Si Si5 0.366089 0.978293 0.129802
O O1 0.642030 0.800160 0.050153
O O2 0.332301 0.887118 0.045614
O O3 0.048081 0.846523 0.781965
O O4 0.500000 0.000000 0.000000
O O5 0.288392 0.257570 0.670307
O O6 0.973941 0.164015 0.668663
O O7 0.810719 0.156393 0.426334
O O8 0.343271 0.067968 0.695944
O O9 0.785501 0.270242 0.269161
O O10 0.496514 0.909616 0.836674
O O11 0.000000 0.000000 0.000000
#
# Coordination Sequence:
#
# PCOD9252166 Si02
#       5
#     4   4   4   4   4
#     4  11  23  44  69  99 138 183 236 288 351 427
#     4  11  25  42  68 102 140 179 240 292 347 430
#     4  11  24  44  69 101 140 184 232 294 353 417
#     4  12  23  44  69 100 139 184 236 289 357 424
#     4  11  24  43  70 100 139 186 235 294 357 421
#
# _framework density 23.890419000000001
#
# number of rings (size 3 to 8) (size 9 to 14) (size 15 to 20)
#    0.000    0.800    2.000    6.600    2.800    0.000 
#    0.000    1.000    0.000    0.000    0.000    0.000 
#    0.000    0.000    0.000    0.000    0.000    0.000 
#
# Total GULP energy -111340.040127 kJ/mol
# GULP energy per Si atom -5567.002006 kJ/mol
# Density = 2.383604 g / cm^3
# Si number density = 23.890419 Si / 1000 Ang^3
#
#
#
# Elastic Constant Matrix: (Units=GPa)
#
#
# Indices 1 2 3 4 5 6 
#
# 1 82.0058 17.2708 14.0191 0.0000 15.1293 0.0000
# 2 17.2708 122.5997 56.9976 0.0000 23.8537 0.0000
# 3 14.0191 56.9976 108.8088 0.0000 2.3143 0.0000
# 4 0.0000 0.0000 0.0000 63.7132 0.0000 7.8834
# 5 15.1293 23.8537 2.3143 0.0000 38.2669 0.0000
# 6 0.0000 0.0000 0.0000 7.8834 0.0000 39.0614
#
#
#
# Elastic Compliance Matrix: (Units=1/GPa)
#
#
# Indices 1 2 3 4 5 6 
#
# 1 0.013436 -0.000193 -0.001521 0.000000 -0.005100 0.000000
# 2 -0.000193 0.012609 -0.006423 0.000000 -0.007395 0.000000
# 3 -0.001521 -0.006423 0.012669 0.000000 0.003839 0.000000
# 4 0.000000 0.000000 0.000000 0.016097 0.000000 -0.003249
# 5 -0.005100 -0.007395 0.003839 0.000000 0.032526 0.000000
# 6 0.000000 0.000000 0.000000 -0.003249 0.000000 0.026256
#
#
# Mechanical properties :
#
#
# Convention : Reuss Voigt Hill
#
# Bulk Modulus (GPa) = 44.56499 54.44324 49.50411
# Shear Modulus (GPa) = 36.40412 43.21675 39.81044
#
# Velocity S-wave (km/s) = 3.90782 4.25780 4.08656
# Velocity P-wave (km/s) = 6.24946 6.85638 6.55995
#
# Compressibility (1/GPa) = 0.02243914
#
# Stress axis : x y z
#
# Youngs Moduli (GPa) = 74.42764 79.31156 78.93187
#
# Poissons Ratio (x) = 0.01532 0.12009
# Poissons Ratio (y) = 0.01438 0.50695
# Poissons Ratio (z) = 0.11324 0.50938
#
# Static dielectric constant tensor:
#      x y z
#    x 2.235980 0.000000 -0.191370 
#    y 0.000000 1.929470 0.000000 
#    z -0.191370 0.000000 2.034300 
# 
# From -- ./inp_files/55879.got.cif
#   From: 2010.05.17/outbox.cif.g08.bks.cpg/sg14_28_cif.got.tgz:55879.got - 2010.06.03 17:49:19.
