data_PCOD9252437
_publ_section_title
;
Structure prediction by ZEFSAII (Michael W. Deem and Ramdas Pophale) SiO2 
 PCOD9252437
Probable space group: P 21/C
;
_chemical_formula_sum "Si O2"
_cell_formula_units_Z 28
_cell_length_a 22.327202
_cell_length_b 7.604129
_cell_length_c 9.056649
_cell_angle_alpha 90.000000
_cell_angle_beta 132.286116
_cell_angle_gamma 90.000000
_cell_volume 1137.528305
_symmetry_space_group_name_H-M "P 21/C"
_symmetry_group_IT_number 14
_symmetry_cell_setting 'monoclinic'
loop_
_space_group_symop_operation_xyz
x,y,z
-x,1/2+y,1/2-z
-x,-y,-z
x,1/2-y,1/2+z
loop_
_atom_site_type_symbol
_atom_site_label
_atom_site_fract_x
_atom_site_fract_y
_atom_site_fract_z
Si Si1 0.303074 0.910655 0.626408
Si Si2 0.960107 0.717641 0.368567
Si Si3 0.937032 0.389877 0.726672
Si Si4 0.824974 0.019985 0.800434
Si Si5 0.423619 0.411795 0.732833
Si Si6 0.317732 0.278359 0.811952
Si Si7 0.596198 0.221912 0.463748
O O1 0.370936 0.906503 0.609426
O O2 0.221494 0.869536 0.401660
O O3 0.292751 0.102654 0.680760
O O4 0.334854 0.780521 0.805749
O O5 0.895267 0.601304 0.346793
O O6 0.037837 0.757673 0.602140
O O7 0.987691 0.624878 0.263375
O O8 0.929251 0.913436 0.278236
O O9 0.860937 0.365201 0.493390
O O10 0.759164 0.883350 0.756642
O O11 0.370417 0.398775 0.790989
O O12 0.375977 0.291595 0.536393
O O13 0.425494 0.601352 0.661739
O O14 0.514020 0.341274 0.903360
#
# Coordination Sequence:
#
# PCOD9252437 Si02
#       7
#     4   4   4   4   4   4   4
#     4  11  26  46  70 107 145 188 242 294 367 412
#     4  11  25  49  75 109 138 189 238 289 356 436
#     4  11  25  46  78 105 140 184 240 285 357 431
#     4  12  25  47  77 103 149 187 233 304 355 433
#     4  11  24  43  74 101 144 192 246 295 349 426
#     4  11  24  45  71 105 139 199 238 288 369 417
#     4  11  26  46  71 108 144 191 248 299 350 425
#
# _framework density 24.61477
#
# number of rings (size 3 to 8) (size 9 to 14) (size 15 to 20)
#    0.000    0.857    2.857    3.000    2.000    4.571 
#    0.000    0.000    0.000    0.000    0.000    0.000 
#    0.000    0.000    0.000    0.000    0.000    0.000 
#
# Total GULP energy -156972.369079 kJ/mol
# GULP energy per Si atom -5606.156039 kJ/mol
# Density = 2.455875 g / cm^3
# Si number density = 24.614770 Si / 1000 Ang^3
#
#
#
# Elastic Constant Matrix: (Units=GPa)
#
#
# Indices 1 2 3 4 5 6 
#
# 1 95.1200 47.5793 27.8303 0.0000 -12.1293 0.0000
# 2 47.5793 83.8350 13.5535 0.0000 -7.2098 0.0000
# 3 27.8303 13.5535 170.1572 0.0000 -3.3414 0.0000
# 4 0.0000 0.0000 0.0000 40.8072 0.0000 -10.5321
# 5 -12.1293 -7.2098 -3.3414 0.0000 37.1591 0.0000
# 6 0.0000 0.0000 0.0000 -10.5321 0.0000 41.9563
#
#
#
# Elastic Compliance Matrix: (Units=1/GPa)
#
#
# Indices 1 2 3 4 5 6 
#
# 1 0.015614 -0.008280 -0.001829 0.000000 0.003326 0.000000
# 2 -0.008280 0.016667 0.000037 0.000000 0.000535 0.000000
# 3 -0.001829 0.000037 0.006172 0.000000 -0.000035 0.000000
# 4 0.000000 0.000000 0.000000 0.026203 0.000000 0.006578
# 5 0.003326 0.000535 -0.000035 0.000000 0.028097 0.000000
# 6 0.000000 0.000000 0.000000 0.006578 0.000000 0.025485
#
#
# Mechanical properties :
#
#
# Convention : Reuss Voigt Hill
#
# Bulk Modulus (GPa) = 54.61390 58.55981 56.58686
# Shear Modulus (GPa) = 34.60549 41.32780 37.96664
#
# Velocity S-wave (km/s) = 3.75358 4.10199 3.93164
# Velocity P-wave (km/s) = 6.40480 6.80274 6.60676
#
# Compressibility (1/GPa) = 0.01831036
#
# Stress axis : x y z
#
# Youngs Moduli (GPa) = 64.04623 59.99825 162.01127
#
# Poissons Ratio (x) = 0.49676 0.29630
# Poissons Ratio (y) = 0.53028 -0.00601
# Poissons Ratio (z) = 0.11714 -0.00223
#
# Static dielectric constant tensor:
#      x y z
#    x 1.919840 0.000000 -0.013550 
#    y 0.000000 1.933350 0.000000 
#    z -0.013550 0.000000 1.978330 
# 
# From -- ./inp_files/18778.got.cif
#   From: 2010.05.17/outbox.cif.g08.bks.cpg/sg14_10_cif.got.tgz:18778.got - 2010.06.03 17:49:19.
