data_PCOD9252319
_publ_section_title
;
Structure prediction by ZEFSAII (Michael W. Deem and Ramdas Pophale) SiO2 
 PCOD9252319
Probable space group: P 21/C
;
_chemical_formula_sum "Si O2"
_cell_formula_units_Z 24
_cell_length_a 11.024088
_cell_length_b 4.868849
_cell_length_c 18.416976
_cell_angle_alpha 90.000000
_cell_angle_beta 116.983427
_cell_angle_gamma 90.000000
_cell_volume 880.911273
_symmetry_space_group_name_H-M "P 21/C"
_symmetry_group_IT_number 14
_symmetry_cell_setting 'monoclinic'
loop_
_space_group_symop_operation_xyz
x,y,z
-x,1/2+y,1/2-z
-x,-y,-z
x,1/2-y,1/2+z
loop_
_atom_site_type_symbol
_atom_site_label
_atom_site_fract_x
_atom_site_fract_y
_atom_site_fract_z
Si Si1 0.079995 0.649803 0.434926
Si Si2 0.391904 0.183539 0.386679
Si Si3 0.916608 0.709607 0.698516
Si Si4 0.799714 0.649619 0.397512
Si Si5 0.666951 0.460123 0.978334
Si Si6 0.420901 0.647382 0.756670
O O1 0.070506 0.388225 0.380888
O O2 0.133476 0.565512 0.528631
O O3 0.206759 0.828273 0.444763
O O4 0.932598 0.786543 0.398174
O O5 0.244966 0.309111 0.325621
O O6 0.552933 0.262386 0.422280
O O7 0.402625 0.911844 0.337434
O O8 0.386980 0.154893 0.472256
O O9 0.015611 0.501425 0.768130
O O10 0.711516 0.478194 0.317350
O O11 0.717564 0.863558 0.424167
O O12 0.459079 0.956225 0.745960
#
# Coordination Sequence:
#
# PCOD9252319 Si02
#       6
#     4   4   4   4   4   4
#     4  11  25  45  75 107 151 204 255 312 375 466
#     4  11  25  47  78 109 151 197 252 324 375 460
#     4  12  27  49  74 116 155 201 255 314 390 456
#     4  11  24  46  73 106 152 201 251 312 380 452
#     4  11  23  49  75 112 146 203 256 314 385 449
#     4  12  27  48  71 109 150 194 250 308 380 451
#
# _framework density 27.244516000000001
#
# number of rings (size 3 to 8) (size 9 to 14) (size 15 to 20)
#    0.000    0.667    3.333    3.500    0.000    4.667 
#    6.000    0.000    0.000    0.000    0.000    0.000 
#    0.000    0.000    0.000    0.000    0.000    0.000 
#
# Total GULP energy -134270.853189 kJ/mol
# GULP energy per Si atom -5594.618883 kJ/mol
# Density = 2.718251 g / cm^3
# Si number density = 27.244516 Si / 1000 Ang^3
#
#
#
# Elastic Constant Matrix: (Units=GPa)
#
#
# Indices 1 2 3 4 5 6 
#
# 1 162.1267 26.4460 33.9171 0.0000 46.2910 0.0000
# 2 26.4460 56.0968 5.0505 0.0000 7.1176 0.0000
# 3 33.9171 5.0505 140.0032 0.0000 27.8615 0.0000
# 4 0.0000 0.0000 0.0000 39.2674 0.0000 7.2879
# 5 46.2910 7.1176 27.8615 0.0000 65.3894 0.0000
# 6 0.0000 0.0000 0.0000 7.2879 0.0000 28.5667
#
#
#
# Elastic Compliance Matrix: (Units=1/GPa)
#
#
# Indices 1 2 3 4 5 6 
#
# 1 0.008356 -0.003202 -0.000875 0.000000 -0.005194 0.000000
# 2 -0.003202 0.019313 0.000051 0.000000 0.000143 0.000000
# 3 -0.000875 0.000051 0.007901 0.000000 -0.002752 0.000000
# 4 0.000000 0.000000 0.000000 0.026732 0.000000 -0.006820
# 5 -0.005194 0.000143 -0.002752 0.000000 0.020127 0.000000
# 6 0.000000 0.000000 0.000000 -0.006820 0.000000 0.036746
#
#
# Mechanical properties :
#
#
# Convention : Reuss Voigt Hill
#
# Bulk Modulus (GPa) = 36.34068 54.33930 45.33999
# Shear Modulus (GPa) = 36.65671 46.16556 41.41114
#
# Velocity S-wave (km/s) = 3.67205 4.12088 3.90292
# Velocity P-wave (km/s) = 5.59877 6.52921 6.08181
#
# Compressibility (1/GPa) = 0.02751737
#
# Stress axis : x y z
#
# Youngs Moduli (GPa) = 119.66754 51.77850 126.57246
#
# Poissons Ratio (x) = 0.16578 0.11078
# Poissons Ratio (y) = 0.38314 -0.00639
# Poissons Ratio (z) = 0.10474 -0.00262
#
# Static dielectric constant tensor:
#      x y z
#    x 2.340510 0.000000 0.019450 
#    y 0.000000 2.145400 0.000000 
#    z 0.019450 0.000000 2.099810 
# 
# From -- ./inp_files/66358.got.cif
#   From: 2010.05.17/outbox.cif.g08.bks.cpg/sg14_34_cif.got.tgz:66358.got - 2010.06.03 17:49:19.
