data_PCOD9252870
_publ_section_title
;
Structure prediction by ZEFSAII (Michael W. Deem and Ramdas Pophale) SiO2 
 PCOD9252870
Probable space group: P 21/C
;
_chemical_formula_sum "Si O2"
_cell_formula_units_Z 30
_cell_length_a 5.673343
_cell_length_b 12.723085
_cell_length_c 16.624170
_cell_angle_alpha 90.000000
_cell_angle_beta 71.268773
_cell_angle_gamma 90.000000
_cell_volume 1136.416821
_symmetry_space_group_name_H-M "P 21/C"
_symmetry_group_IT_number 14
_symmetry_cell_setting 'monoclinic'
loop_
_space_group_symop_operation_xyz
x,y,z
-x,1/2+y,1/2-z
-x,-y,-z
x,1/2-y,1/2+z
loop_
_atom_site_type_symbol
_atom_site_label
_atom_site_fract_x
_atom_site_fract_y
_atom_site_fract_z
Si Si1 0.163279 0.256270 0.082186
Si Si2 0.269004 0.806446 0.268412
Si Si3 0.520124 0.436188 0.106755
Si Si4 0.822916 0.130841 0.888660
Si Si5 0.398526 0.120573 0.303655
Si Si6 0.489780 0.432050 0.607684
Si Si7 0.914697 0.154976 0.450230
Si Si8 0.000000 0.000000 0.000000
O O1 0.306639 0.356601 0.103324
O O2 0.328387 0.152726 0.075228
O O3 0.921624 0.233635 0.162650
O O4 0.079375 0.292387 0.003576
O O5 0.360130 0.887038 0.325478
O O6 0.118201 0.855014 0.211573
O O7 0.498024 0.739068 0.209479
O O8 0.544472 0.448034 0.854944
O O9 0.730498 0.427703 0.013684
O O10 0.769685 0.246587 0.928026
O O11 0.600142 0.046577 0.910222
O O12 0.037191 0.071200 0.913732
O O13 0.436884 0.083368 0.207681
O O14 0.112904 0.114002 0.363820
O O15 0.773951 0.421937 0.551332
#
# Coordination Sequence:
#
# PCOD9252870 Si02
#       8
#     4   4   4   4   4   4   4   2
#     4  11  26  51  76 112 163 204 257 329 387 467
#     4  11  27  47  78 111 155 205 257 325 387 472
#     4  11  25  53  79 110 157 205 260 326 395 472
#     4  12  27  48  78 113 155 208 259 323 398 466
#     4  12  27  50  80 115 154 205 268 321 397 473
#     4  12  27  49  77 116 157 205 264 327 390 471
#     4  11  28  49  77 114 159 205 260 321 397 476
#     4  12  30  44  76 114 158 200 260 326 394 462
#
# _framework density 26.398768
#
# number of rings (size 3 to 8) (size 9 to 14) (size 15 to 20)
#    0.000    0.533    2.667    3.200   11.200    0.533 
#    4.800    0.000    0.000    0.000    0.000    0.000 
#    0.000    0.000    0.000    0.000    0.000    0.000 
#
# Total GULP energy -167789.827111 kJ/mol
# GULP energy per Si atom -5592.994237 kJ/mol
# Density = 2.633868 g / cm^3
# Si number density = 26.398768 Si / 1000 Ang^3
#
#
#
# Elastic Constant Matrix: (Units=GPa)
#
#
# Indices 1 2 3 4 5 6 
#
# 1 56.2553 19.9386 41.7683 0.0000 -1.6905 0.0000
# 2 19.9386 92.9121 33.0372 0.0000 3.9353 0.0000
# 3 41.7683 33.0372 159.3481 0.0000 4.5808 0.0000
# 4 0.0000 0.0000 0.0000 45.2325 0.0000 8.5266
# 5 -1.6905 3.9353 4.5808 0.0000 49.0466 0.0000
# 6 0.0000 0.0000 0.0000 8.5266 0.0000 57.2526
#
#
#
# Elastic Compliance Matrix: (Units=1/GPa)
#
#
# Indices 1 2 3 4 5 6 
#
# 1 0.022932 -0.003059 -0.005421 0.000000 0.001542 0.000000
# 2 -0.003059 0.012052 -0.001671 0.000000 -0.000916 0.000000
# 3 -0.005421 -0.001671 0.008066 0.000000 -0.000806 0.000000
# 4 0.000000 0.000000 0.000000 0.022747 0.000000 -0.003388
# 5 0.001542 -0.000916 -0.000806 0.000000 0.020591 0.000000
# 6 0.000000 0.000000 0.000000 -0.003388 0.000000 0.017971
#
#
# Mechanical properties :
#
#
# Convention : Reuss Voigt Hill
#
# Bulk Modulus (GPa) = 43.95805 55.33375 49.64590
# Shear Modulus (GPa) = 37.80955 44.55777 41.18366
#
# Velocity S-wave (km/s) = 3.78861 4.11283 3.95404
# Velocity P-wave (km/s) = 5.98546 6.60001 6.30023
#
# Compressibility (1/GPa) = 0.02274896
#
# Stress axis : x y z
#
# Youngs Moduli (GPa) = 43.60808 82.97304 123.97635
#
# Poissons Ratio (x) = 0.25380 0.67207
# Poissons Ratio (y) = 0.13339 0.20712
# Poissons Ratio (z) = 0.23640 0.13862
#
# Static dielectric constant tensor:
#      x y z
#    x 2.100760 0.000000 0.048530 
#    y 0.000000 2.055840 0.000000 
#    z 0.048530 0.000000 2.073310 
# 
# From -- ./inp_files/37681.got.cif
#   From: 2010.05.17/outbox.cif.g08.bks.cpg/sg14_19_cif.got.tgz:37681.got - 2010.06.03 17:49:19.
