data_PCOD9252011
_publ_section_title
;
Structure prediction by ZEFSAII (Michael W. Deem and Ramdas Pophale) SiO2 
 PCOD9252011
Probable space group: P 21/C
;
_chemical_formula_sum "Si O2"
_cell_formula_units_Z 32
_cell_length_a 8.388904
_cell_length_b 28.949781
_cell_length_c 5.895114
_cell_angle_alpha 90.000000
_cell_angle_beta 64.279121
_cell_angle_gamma 90.000000
_cell_volume 1289.817987
_symmetry_space_group_name_H-M "P 21/C"
_symmetry_group_IT_number 14
_symmetry_cell_setting 'monoclinic'
loop_
_space_group_symop_operation_xyz
x,y,z
-x,1/2+y,1/2-z
-x,-y,-z
x,1/2-y,1/2+z
loop_
_atom_site_type_symbol
_atom_site_label
_atom_site_fract_x
_atom_site_fract_y
_atom_site_fract_z
Si Si1 0.034661 0.553545 0.540429
Si Si2 0.043935 0.730720 0.696247
Si Si3 0.399094 0.928671 0.583604
Si Si4 0.641850 0.992486 0.717087
Si Si5 0.967374 0.369188 0.139427
Si Si6 0.783578 0.589354 0.336216
Si Si7 0.530146 0.266031 0.521040
Si Si8 0.553708 0.135849 0.795364
O O1 0.232279 0.569347 0.349283
O O2 0.020423 0.577516 0.789960
O O3 0.000000 0.500000 0.500000
O O4 0.887425 0.583497 0.503227
O O5 0.981395 0.751388 0.488932
O O6 0.008425 0.675423 0.715953
O O7 0.256521 0.740512 0.580242
O O8 0.560489 0.958300 0.578823
O O9 0.465017 0.879288 0.456504
O O10 0.325375 0.958899 0.418388
O O11 0.794547 0.962847 0.732500
O O12 0.500000 0.000000 0.000000
O O13 0.764947 0.364175 0.187372
O O14 0.118321 0.370106 0.856854
O O15 0.576695 0.600284 0.496835
O O16 0.469583 0.262812 0.827292
O O17 0.496094 0.316176 0.435796
#
# Coordination Sequence:
#
# PCOD9252011 Si02
#       8
#     4   4   4   4   4   4   4   4
#     4  12  27  42  66 100 143 190 243 296 354 428
#     4   9  20  40  75 103 139 185 237 299 370 441
#     4  11  24  41  67  98 133 184 237 288 350 415
#     4  11  23  41  66  95 137 181 236 287 348 413
#     4  11  26  46  68 103 141 184 238 297 362 438
#     4  12  26  43  66  99 141 181 238 290 356 424
#     4   9  20  41  69 104 138 180 234 292 363 440
#     4  11  24  45  70 102 134 184 231 295 356 427
#
# _framework density 24.809704
#
# number of rings (size 3 to 8) (size 9 to 14) (size 15 to 20)
#    0.000    1.250    2.500    2.250    7.000    5.000 
#    0.000    1.250    0.000    0.000    0.000    0.000 
#    0.000    0.000    0.000    0.000    0.000    0.000 
#
# Total GULP energy -178234.379089 kJ/mol
# GULP energy per Si atom -5569.824347 kJ/mol
# Density = 2.475324 g / cm^3
# Si number density = 24.809704 Si / 1000 Ang^3
#
#
#
# Elastic Constant Matrix: (Units=GPa)
#
#
# Indices 1 2 3 4 5 6 
#
# 1 51.3016 5.9187 7.8315 0.0000 0.6760 0.0000
# 2 5.9187 72.5120 2.0456 0.0000 7.9067 0.0000
# 3 7.8315 2.0456 64.7366 0.0000 -2.2770 0.0000
# 4 0.0000 0.0000 0.0000 34.3218 0.0000 10.9066
# 5 0.6760 7.9067 -2.2770 0.0000 34.4456 0.0000
# 6 0.0000 0.0000 0.0000 10.9066 0.0000 21.7595
#
#
#
# Elastic Compliance Matrix: (Units=1/GPa)
#
#
# Indices 1 2 3 4 5 6 
#
# 1 0.020037 -0.001547 -0.002382 0.000000 -0.000196 0.000000
# 2 -0.001547 0.014285 -0.000379 0.000000 -0.003274 0.000000
# 3 -0.002382 -0.000379 0.015789 0.000000 0.001178 0.000000
# 4 0.000000 0.000000 0.000000 0.034656 0.000000 -0.017371
# 5 -0.000196 -0.003274 0.001178 0.000000 0.029864 0.000000
# 6 0.000000 0.000000 0.000000 -0.017371 0.000000 0.054664
#
#
# Mechanical properties :
#
#
# Convention : Reuss Voigt Hill
#
# Bulk Modulus (GPa) = 24.09984 24.46019 24.28001
# Shear Modulus (GPa) = 26.07652 29.62232 27.84942
#
# Velocity S-wave (km/s) = 3.24552 3.45915 3.35404
# Velocity P-wave (km/s) = 4.87643 5.08280 4.98068
#
# Compressibility (1/GPa) = 0.04149406
#
# Stress axis : x y z
#
# Youngs Moduli (GPa) = 49.90700 70.00473 63.33608
#
# Poissons Ratio (x) = 0.10830 0.15087
# Poissons Ratio (y) = 0.07721 0.02403
# Poissons Ratio (z) = 0.11888 0.02656
#
# Static dielectric constant tensor:
#      x y z
#    x 1.765940 0.000000 -0.201350 
#    y 0.000000 2.032120 0.000000 
#    z -0.201350 0.000000 1.790190 
# 
# From -- ./inp_files/2212.got.cif
#   From: 2010.05.17/outbox.cif.g08.bks.cpg/sg14_2_cif.got.tgz:2212.got - 2010.06.03 17:49:19.
