data_PCOD9252285
_publ_section_title
;
Structure prediction by ZEFSAII (Michael W. Deem and Ramdas Pophale) SiO2 
 PCOD9252285
Probable space group: P 21/C
;
_chemical_formula_sum "Si O2"
_cell_formula_units_Z 24
_cell_length_a 19.267702
_cell_length_b 5.315064
_cell_length_c 13.832768
_cell_angle_alpha 90.000000
_cell_angle_beta 136.510284
_cell_angle_gamma 90.000000
_cell_volume 974.939256
_symmetry_space_group_name_H-M "P 21/C"
_symmetry_group_IT_number 14
_symmetry_cell_setting 'monoclinic'
loop_
_space_group_symop_operation_xyz
x,y,z
-x,1/2+y,1/2-z
-x,-y,-z
x,1/2-y,1/2+z
loop_
_atom_site_type_symbol
_atom_site_label
_atom_site_fract_x
_atom_site_fract_y
_atom_site_fract_z
Si Si1 0.960449 0.974063 0.703540
Si Si2 0.603611 0.473151 0.470750
Si Si3 0.289507 0.176620 0.289218
Si Si4 0.733825 0.088858 0.530289
Si Si5 0.594728 0.760690 0.770264
Si Si6 0.946216 0.749955 0.983314
O O1 0.957816 0.770506 0.610654
O O2 0.009564 0.743630 0.815931
O O3 0.849430 0.029779 0.630792
O O4 0.643433 0.585300 0.609986
O O5 0.702716 0.376419 0.512777
O O6 0.510827 0.287101 0.390144
O O7 0.560219 0.650699 0.342212
O O8 0.338154 0.081121 0.238546
O O9 0.172711 0.243907 0.158296
O O10 0.295623 0.011553 0.392523
O O11 0.669214 0.966245 0.378652
O O12 0.000000 0.500000 0.000000
O O13 0.000000 0.000000 0.000000
#
# Coordination Sequence:
#
# PCOD9252285 Si02
#       6
#     4   4   4   4   4   4
#     4  12  27  48  76 107 148 195 246 307 371 441
#     4  11  25  44  74 101 146 184 244 300 363 440
#     4  11  26  44  71 104 144 185 243 298 368 436
#     4  11  25  45  70 104 143 188 238 298 363 440
#     4  11  23  47  69 104 138 190 237 298 367 432
#     4  12  27  48  73 110 149 193 248 305 369 443
#
# _framework density 24.616917999999998
#
# number of rings (size 3 to 8) (size 9 to 14) (size 15 to 20)
#    0.000    0.667    3.333    3.500    9.333    3.333 
#    0.000    0.000    0.000    0.000    0.000    0.000 
#    0.000    0.000    0.000    0.000    0.000    0.000 
#
# Total GULP energy -133771.072514 kJ/mol
# GULP energy per Si atom -5573.794688 kJ/mol
# Density = 2.456089 g / cm^3
# Si number density = 24.616918 Si / 1000 Ang^3
#
#
#
# Elastic Constant Matrix: (Units=GPa)
#
#
# Indices 1 2 3 4 5 6 
#
# 1 132.7538 29.7549 73.7587 0.0000 4.5387 0.0000
# 2 29.7549 111.1623 81.1033 0.0000 -2.0753 0.0000
# 3 73.7587 81.1033 298.7777 0.0000 -30.2200 0.0000
# 4 0.0000 0.0000 0.0000 27.1212 0.0000 5.3332
# 5 4.5387 -2.0753 -30.2200 0.0000 64.6763 0.0000
# 6 0.0000 0.0000 0.0000 5.3332 0.0000 28.6808
#
#
#
# Elastic Compliance Matrix: (Units=1/GPa)
#
#
# Indices 1 2 3 4 5 6 
#
# 1 0.008978 -0.000866 -0.002149 0.000000 -0.001662 0.000000
# 2 -0.000866 0.011378 -0.002972 0.000000 -0.000963 0.000000
# 3 -0.002149 -0.002972 0.004923 0.000000 0.002356 0.000000
# 4 0.000000 0.000000 0.000000 0.038271 0.000000 -0.007117
# 5 -0.001662 -0.000963 0.002356 0.000000 0.016648 0.000000
# 6 0.000000 0.000000 0.000000 -0.007117 0.000000 0.036190
#
#
# Mechanical properties :
#
#
# Convention : Reuss Voigt Hill
#
# Bulk Modulus (GPa) = 75.16791 101.32531 88.24661
# Shear Modulus (GPa) = 37.65138 47.96744 42.80941
#
# Velocity S-wave (km/s) = 3.91511 4.41903 4.17468
# Velocity P-wave (km/s) = 7.14415 8.20289 7.69176
#
# Compressibility (1/GPa) = 0.01330355
#
# Stress axis : x y z
#
# Youngs Moduli (GPa) = 111.38487 87.88739 203.14218
#
# Poissons Ratio (x) = 0.07611 0.43664
# Poissons Ratio (y) = 0.09645 0.60379
# Poissons Ratio (z) = 0.23941 0.26122
#
# Static dielectric constant tensor:
#      x y z
#    x 1.894440 0.000000 0.109070 
#    y 0.000000 1.855200 0.000000 
#    z 0.109070 0.000000 0.772910 
# 
# From -- ./inp_files/49743.got.cif
#   From: 2010.05.17/outbox.cif.g08.bks.cpg/sg14_25_cif.got.tgz:49743.got - 2010.06.03 17:49:19.
