data_PCOD9252308
_publ_section_title
;
Structure prediction by ZEFSAII (Michael W. Deem and Ramdas Pophale) SiO2 
 PCOD9252308
Probable space group: P 21/C
;
_chemical_formula_sum "Si O2"
_cell_formula_units_Z 20
_cell_length_a 14.651367
_cell_length_b 6.488747
_cell_length_c 9.652445
_cell_angle_alpha 90.000000
_cell_angle_beta 98.808431
_cell_angle_gamma 90.000000
_cell_volume 906.825551
_symmetry_space_group_name_H-M "P 21/C"
_symmetry_group_IT_number 14
_symmetry_cell_setting 'monoclinic'
loop_
_space_group_symop_operation_xyz
x,y,z
-x,1/2+y,1/2-z
-x,-y,-z
x,1/2-y,1/2+z
loop_
_atom_site_type_symbol
_atom_site_label
_atom_site_fract_x
_atom_site_fract_y
_atom_site_fract_z
Si Si1 0.631070 0.217648 0.257206
Si Si2 0.953096 0.190738 0.411358
Si Si3 0.313050 0.004572 0.997684
Si Si4 0.115567 0.005983 0.873387
Si Si5 0.554841 0.863241 0.402188
O O1 0.684292 0.393420 0.352897
O O2 0.523573 0.282878 0.220749
O O3 0.666171 0.169542 0.112223
O O4 0.629140 0.004021 0.340821
O O5 0.905102 0.336291 0.513171
O O6 0.033983 0.326800 0.359555
O O7 0.887051 0.103849 0.276202
O O8 0.000000 0.000000 0.500000
O O9 0.214653 0.098532 0.934578
O O10 0.393527 0.172800 0.015592
O O11 0.500000 0.000000 0.500000
#
# Coordination Sequence:
#
# PCOD9252308 Si02
#       5
#     4   4   4   4   4
#     4  12  24  45  68  97 139 180 223 286 342 393
#     4  11  23  48  73  96 141 179 214 285 356 404
#     4  12  27  42  71 105 132 178 237 280 329 417
#     4  11  25  45  71 103 134 178 228 278 343 412
#     4  12  24  45  67  95 142 185 225 278 347 397
#
# _framework density 22.054960000000001
#
# number of rings (size 3 to 8) (size 9 to 14) (size 15 to 20)
#    0.000    0.400    6.000    3.000    0.000    3.200 
#    0.000    0.000    0.000    0.000    0.000    0.000 
#    0.000    0.000    0.000    0.000    0.000    0.000 
#
# Total GULP energy -111968.636057 kJ/mol
# GULP energy per Si atom -5598.431803 kJ/mol
# Density = 2.200476 g / cm^3
# Si number density = 22.054960 Si / 1000 Ang^3
#
#
#
# Elastic Constant Matrix: (Units=GPa)
#
#
# Indices 1 2 3 4 5 6 
#
# 1 43.4318 -2.5381 15.1681 0.0000 30.3580 0.0000
# 2 -2.5381 62.1829 30.3902 0.0000 8.3887 0.0000
# 3 15.1681 30.3902 102.9792 0.0000 21.5274 0.0000
# 4 0.0000 0.0000 0.0000 31.4187 0.0000 0.2933
# 5 30.3580 8.3887 21.5274 0.0000 36.0660 0.0000
# 6 0.0000 0.0000 0.0000 0.2933 0.0000 18.7869
#
#
#
# Elastic Compliance Matrix: (Units=1/GPa)
#
#
# Indices 1 2 3 4 5 6 
#
# 1 0.061224 0.010112 -0.000842 0.000000 -0.053383 0.000000
# 2 0.010112 0.020509 -0.005445 0.000000 -0.010032 0.000000
# 3 -0.000842 -0.005445 0.012601 0.000000 -0.005546 0.000000
# 4 0.000000 0.000000 0.000000 0.031833 0.000000 -0.000497
# 5 -0.053383 -0.010032 -0.005546 0.000000 0.078305 0.000000
# 6 0.000000 0.000000 0.000000 -0.000497 0.000000 0.053236
#
#
# Mechanical properties :
#
#
# Convention : Reuss Voigt Hill
#
# Bulk Modulus (GPa) = 9.80550 32.73715 21.27132
# Shear Modulus (GPa) = 17.60244 28.29256 22.94750
#
# Velocity S-wave (km/s) = 2.82816 3.58553 3.22913
# Velocity P-wave (km/s) = 3.88848 5.65836 4.85476
#
# Compressibility (1/GPa) = 0.10198359
#
# Stress axis : x y z
#
# Youngs Moduli (GPa) = 16.33356 48.75999 79.35956
#
# Poissons Ratio (x) = -0.49308 0.06686
# Poissons Ratio (y) = -0.16517 0.43208
# Poissons Ratio (z) = 0.01376 0.26548
#
# Static dielectric constant tensor:
#      x y z
#    x 1.818530 0.000000 -0.010610 
#    y 0.000000 1.790890 0.000000 
#    z -0.010610 0.000000 1.813540 
# 
# From -- ./inp_files/17235.got.cif
#   From: 2010.05.17/outbox.cif.g08.bks.cpg/sg14_9_cif.got.tgz:17235.got - 2010.06.03 17:49:19.
