data_PCOD9252182
_publ_section_title
;
Structure prediction by ZEFSAII (Michael W. Deem and Ramdas Pophale) SiO2 
 PCOD9252182
Probable space group: P 21/C
;
_chemical_formula_sum "Si O2"
_cell_formula_units_Z 32
_cell_length_a 11.747032
_cell_length_b 14.954847
_cell_length_c 14.927598
_cell_angle_alpha 90.000000
_cell_angle_beta 150.890576
_cell_angle_gamma 90.000000
_cell_volume 1275.746063
_symmetry_space_group_name_H-M "P 21/C"
_symmetry_group_IT_number 14
_symmetry_cell_setting 'monoclinic'
loop_
_space_group_symop_operation_xyz
x,y,z
-x,1/2+y,1/2-z
-x,-y,-z
x,1/2-y,1/2+z
loop_
_atom_site_type_symbol
_atom_site_label
_atom_site_fract_x
_atom_site_fract_y
_atom_site_fract_z
Si Si1 0.732557 0.037981 0.038781
Si Si2 0.345777 0.131503 0.882010
Si Si3 0.327660 0.634727 0.003377
Si Si4 0.172979 0.165734 0.082054
Si Si5 0.509963 0.961580 0.321579
Si Si6 0.138606 0.972553 0.218307
Si Si7 0.415998 0.252864 0.089375
Si Si8 0.899975 0.294646 0.002899
O O1 0.712957 0.946734 0.085186
O O2 0.003819 0.042664 0.190490
O O3 0.592115 0.108696 0.003614
O O4 0.585781 0.037693 0.845255
O O5 0.132347 0.142543 0.663495
O O6 0.367181 0.221053 0.955596
O O7 0.586456 0.668300 0.199032
O O8 0.301366 0.542084 0.043571
O O9 0.163582 0.707068 0.936714
O O10 0.248079 0.606834 0.852255
O O11 0.218232 0.222171 0.023685
O O12 0.981099 0.203324 0.015847
O O13 0.072107 0.072430 0.980239
O O14 0.561141 0.858943 0.381290
O O15 0.344169 0.994194 0.290977
O O16 0.648936 0.195309 0.280402
#
# Coordination Sequence:
#
# PCOD9252182 Si02
#       8
#     4   4   4   4   4   4   4   4
#     4  11  23  47  74 104 145 192 244 305 373 437
#     4  11  24  48  74 104 149 192 245 310 368 448
#     4  11  25  45  71 107 139 190 254 291 366 459
#     4  11  23  44  72 100 149 186 238 310 367 434
#     4  12  25  46  73 107 148 194 247 306 369 447
#     4  12  23  48  72 102 144 193 243 303 375 435
#     4  11  24  46  68 110 146 189 245 303 373 445
#     4  11  23  46  75 102 145 190 238 309 369 429
#
# _framework density 25.083362999999999
#
# number of rings (size 3 to 8) (size 9 to 14) (size 15 to 20)
#    0.000    0.750    5.000    2.250    1.750    0.000 
#    6.750    3.750    0.000    0.000    0.000    0.000 
#    0.000    0.000    0.000    0.000    0.000    0.000 
#
# Total GULP energy -178608.298596 kJ/mol
# GULP energy per Si atom -5581.509331 kJ/mol
# Density = 2.502627 g / cm^3
# Si number density = 25.083363 Si / 1000 Ang^3
#
#
#
# Elastic Constant Matrix: (Units=GPa)
#
#
# Indices 1 2 3 4 5 6 
#
# 1 120.3991 41.7972 13.5405 0.0000 -4.4124 0.0000
# 2 41.7972 68.5793 -2.7741 0.0000 -0.9863 0.0000
# 3 13.5405 -2.7741 73.7137 0.0000 -7.9162 0.0000
# 4 0.0000 0.0000 0.0000 23.6805 0.0000 6.1130
# 5 -4.4124 -0.9863 -7.9162 0.0000 36.1790 0.0000
# 6 0.0000 0.0000 0.0000 6.1130 0.0000 33.4312
#
#
#
# Elastic Compliance Matrix: (Units=1/GPa)
#
#
# Indices 1 2 3 4 5 6 
#
# 1 0.010912 -0.006730 -0.002186 0.000000 0.000669 0.000000
# 2 -0.006730 0.018764 0.001955 0.000000 0.000119 0.000000
# 3 -0.002186 0.001955 0.014356 0.000000 0.002928 0.000000
# 4 0.000000 0.000000 0.000000 0.044321 0.000000 -0.008104
# 5 0.000669 0.000119 0.002928 0.000000 0.028366 0.000000
# 6 0.000000 0.000000 0.000000 -0.008104 0.000000 0.031394
#
#
# Mechanical properties :
#
#
# Convention : Reuss Voigt Hill
#
# Bulk Modulus (GPa) = 33.21050 40.86882 37.03966
# Shear Modulus (GPa) = 29.05793 32.66671 30.86232
#
# Velocity S-wave (km/s) = 3.40730 3.61269 3.51150
# Velocity P-wave (km/s) = 5.36175 5.80781 5.58923
#
# Compressibility (1/GPa) = 0.03011096
#
# Stress axis : x y z
#
# Youngs Moduli (GPa) = 91.64003 53.29375 69.65967
#
# Poissons Ratio (x) = 0.35864 0.15227
# Poissons Ratio (y) = 0.61669 -0.13619
# Poissons Ratio (z) = 0.20031 -0.10419
#
# Static dielectric constant tensor:
#      x y z
#    x 1.983270 0.000000 0.052730 
#    y 0.000000 2.008840 0.000000 
#    z 0.052730 0.000000 2.034880 
# 
# From -- ./inp_files/45400.got.cif
#   From: 2010.05.17/outbox.cif.g08.bks.cpg/sg14_23_cif.got.tgz:45400.got - 2010.06.03 17:49:19.
