data_PCOD9252726
_publ_section_title
;
Structure prediction by ZEFSAII (Michael W. Deem and Ramdas Pophale) SiO2 
 PCOD9252726
Probable space group: P 21/C
;
_chemical_formula_sum "Si O2"
_cell_formula_units_Z 20
_cell_length_a 20.718070
_cell_length_b 10.360345
_cell_length_c 14.345496
_cell_angle_alpha 90.000000
_cell_angle_beta 162.543885
_cell_angle_gamma 90.000000
_cell_volume 923.686227
_symmetry_space_group_name_H-M "P 21/C"
_symmetry_group_IT_number 14
_symmetry_cell_setting 'monoclinic'
loop_
_space_group_symop_operation_xyz
x,y,z
-x,1/2+y,1/2-z
-x,-y,-z
x,1/2-y,1/2+z
loop_
_atom_site_type_symbol
_atom_site_label
_atom_site_fract_x
_atom_site_fract_y
_atom_site_fract_z
Si Si1 0.161529 0.612447 0.190300
Si Si2 0.441482 0.972584 0.312866
Si Si3 0.122995 0.207211 0.855616
Si Si4 0.648749 0.543041 0.908996
Si Si5 0.155075 0.729859 0.861412
O O1 0.406609 0.567782 0.538130
O O2 0.125925 0.726693 0.215079
O O3 0.000000 0.500000 0.000000
O O4 0.091834 0.659884 0.992964
O O5 0.500000 0.000000 0.500000
O O6 0.629978 0.962576 0.495805
O O7 0.296653 0.094472 0.082354
O O8 0.303532 0.841586 0.111596
O O9 0.064031 0.226142 0.882024
O O10 0.208206 0.337891 0.927714
O O11 0.736634 0.409477 0.990437
#
# Coordination Sequence:
#
# PCOD9252726 Si02
#       5
#     4   4   4   4   4
#     4  11  25  47  72  99 146 184 238 289 350 427
#     4  11  25  45  69 102 139 184 234 288 349 414
#     4  12  26  47  71 105 141 189 236 286 360 419
#     4  11  26  47  73 101 146 186 233 298 352 413
#     4  11  26  45  70 106 138 186 235 287 354 419
#
# _framework density 21.652374999999999
#
# number of rings (size 3 to 8) (size 9 to 14) (size 15 to 20)
#    0.000    0.800    4.000    3.600    8.400    1.600 
#    0.000    0.000    0.000    0.000    0.000    0.000 
#    0.000    0.000    0.000    0.000    0.000    0.000 
#
# Total GULP energy -111939.848895 kJ/mol
# GULP energy per Si atom -5596.992445 kJ/mol
# Density = 2.160309 g / cm^3
# Si number density = 21.652375 Si / 1000 Ang^3
#
#
#
# Elastic Constant Matrix: (Units=GPa)
#
#
# Indices 1 2 3 4 5 6 
#
# 1 82.0396 41.3381 10.6341 0.0000 15.7899 0.0000
# 2 41.3381 172.6750 20.5602 0.0000 15.2743 0.0000
# 3 10.6341 20.5602 29.3768 0.0000 -3.3236 0.0000
# 4 0.0000 0.0000 0.0000 9.9771 0.0000 19.4053
# 5 15.7899 15.2743 -3.3236 0.0000 46.0597 0.0000
# 6 0.0000 0.0000 0.0000 19.4053 0.0000 36.8602
#
#
#
# Elastic Compliance Matrix: (Units=1/GPa)
#
#
# Indices 1 2 3 4 5 6 
#
# 1 0.014940 -0.002697 -0.004032 0.000000 -0.004518 0.000000
# 2 -0.002697 0.007087 -0.004179 0.000000 -0.001727 0.000000
# 3 -0.004032 -0.004179 0.039057 0.000000 0.005587 0.000000
# 4 0.000000 0.000000 0.000000 -4.185676 0.000000 2.203575
# 5 -0.004518 -0.001727 0.005587 0.000000 0.024236 0.000000
# 6 0.000000 0.000000 0.000000 2.203575 0.000000 -1.132956
#
#
# Mechanical properties :
#
#
# Convention : Reuss Voigt Hill
#
# Bulk Modulus (GPa) = 25.46588 47.68404 36.57496
# Shear Modulus (GPa) = -0.96183 32.68333 15.86075
#
# Velocity S-wave (km/s) = -0.66722 3.88939 2.70944
# Velocity P-wave (km/s) = 3.34562 6.49924 5.16882
#
# Compressibility (1/GPa) = 0.03926822
#
# Stress axis : x y z
#
# Youngs Moduli (GPa) = 66.93250 141.09740 25.60354
#
# Poissons Ratio (x) = 0.38053 0.10323
# Poissons Ratio (y) = 0.18051 0.10701
# Poissons Ratio (z) = 0.26987 0.58970
#
# Static dielectric constant tensor:
#      x y z
#    x 1.778710 0.000000 -0.015300 
#    y 0.000000 1.748550 0.000000 
#    z -0.015300 0.000000 1.787510 
# 
# From -- ./inp_files/28897.got.cif
#   From: 2010.05.17/outbox.cif.g08.bks.cpg/sg14_15_cif.got.tgz:28897.got - 2010.06.03 17:49:19.
