data_PCOD9252354
_publ_section_title
;
Structure prediction by ZEFSAII (Michael W. Deem and Ramdas Pophale) SiO2 
 PCOD9252354
Probable space group: P 21/C
;
_chemical_formula_sum "Si O2"
_cell_formula_units_Z 28
_cell_length_a 8.675349
_cell_length_b 8.746354
_cell_length_c 17.568620
_cell_angle_alpha 90.000000
_cell_angle_beta 85.607455
_cell_angle_gamma 90.000000
_cell_volume 1329.150431
_symmetry_space_group_name_H-M "P 21/C"
_symmetry_group_IT_number 14
_symmetry_cell_setting 'monoclinic'
loop_
_space_group_symop_operation_xyz
x,y,z
-x,1/2+y,1/2-z
-x,-y,-z
x,1/2-y,1/2+z
loop_
_atom_site_type_symbol
_atom_site_label
_atom_site_fract_x
_atom_site_fract_y
_atom_site_fract_z
Si Si1 0.456565 0.903517 0.283858
Si Si2 0.979293 0.841838 0.099890
Si Si3 0.004275 0.661308 0.323861
Si Si4 0.728460 0.783075 0.723427
Si Si5 0.597172 0.941926 0.424728
Si Si6 0.062110 0.350013 0.041640
Si Si7 0.756479 0.197162 0.314947
O O1 0.624124 0.867214 0.240919
O O2 0.484268 0.852011 0.370565
O O3 0.344633 0.802918 0.235944
O O4 0.383140 0.072220 0.285275
O O5 0.844395 0.751007 0.150149
O O6 0.143087 0.788712 0.127505
O O7 0.964496 0.790233 0.014283
O O8 0.971312 0.017769 0.122645
O O9 0.835363 0.678993 0.292261
O O10 0.023514 0.813156 0.375141
O O11 0.116885 0.632776 0.248644
O O12 0.755321 0.864734 0.447431
O O13 0.500000 0.000000 0.500000
O O14 0.658169 0.078050 0.367553
O O15 0.000000 0.500000 0.000000
#
# Coordination Sequence:
#
# PCOD9252354 Si02
#       7
#     4   4   4   4   4   4   4
#     4  12  23  43  68 101 141 186 239 291 368 440
#     4  11  24  44  68 101 139 182 241 295 362 417
#     4  11  25  44  70 103 139 182 245 299 352 425
#     4  11  24  41  71 102 139 186 236 300 351 435
#     4  12  26  45  66 106 148 187 236 299 373 445
#     4  12  26  43  70 100 142 188 235 298 368 433
#     4  11  25  41  73 101 133 186 244 298 353 428
#
# _framework density 21.066088000000001
#
# number of rings (size 3 to 8) (size 9 to 14) (size 15 to 20)
#    0.000    0.571    5.714    2.143    6.000    0.000 
#    0.000    0.000    0.000    3.429    0.000    0.000 
#    0.000    0.000    0.000    0.000    0.000    0.000 
#
# Total GULP energy -156331.773901 kJ/mol
# GULP energy per Si atom -5583.277639 kJ/mol
# Density = 2.101814 g / cm^3
# Si number density = 21.066088 Si / 1000 Ang^3
#
#
#
# Elastic Constant Matrix: (Units=GPa)
#
#
# Indices 1 2 3 4 5 6 
#
# 1 113.0599 37.0096 53.0008 0.0000 15.7723 0.0000
# 2 37.0096 66.6559 30.1344 0.0000 11.0663 0.0000
# 3 53.0008 30.1344 135.6164 0.0000 13.8043 0.0000
# 4 0.0000 0.0000 0.0000 43.6734 0.0000 8.3318
# 5 15.7723 11.0663 13.8043 0.0000 33.9860 0.0000
# 6 0.0000 0.0000 0.0000 8.3318 0.0000 32.4593
#
#
#
# Elastic Compliance Matrix: (Units=1/GPa)
#
#
# Indices 1 2 3 4 5 6 
#
# 1 0.012474 -0.004879 -0.003508 0.000000 -0.002775 0.000000
# 2 -0.004879 0.019151 -0.002028 0.000000 -0.003148 0.000000
# 3 -0.003508 -0.002028 0.009349 0.000000 -0.001509 0.000000
# 4 0.000000 0.000000 0.000000 0.024076 0.000000 -0.006180
# 5 -0.002775 -0.003148 -0.001509 0.000000 0.032350 0.000000
# 6 0.000000 0.000000 0.000000 -0.006180 0.000000 0.032394
#
#
# Mechanical properties :
#
#
# Convention : Reuss Voigt Hill
#
# Bulk Modulus (GPa) = 49.64573 61.73576 55.69075
# Shear Modulus (GPa) = 31.77849 35.03624 33.40737
#
# Velocity S-wave (km/s) = 3.88817 4.08261 3.98658
# Velocity P-wave (km/s) = 6.61627 7.18282 6.90536
#
# Compressibility (1/GPa) = 0.02014272
#
# Stress axis : x y z
#
# Youngs Moduli (GPa) = 80.16809 52.21669 106.96236
#
# Poissons Ratio (x) = 0.25477 0.37526
# Poissons Ratio (y) = 0.39115 0.21694
# Poissons Ratio (z) = 0.28125 0.10591
#
# Static dielectric constant tensor:
#      x y z
#    x 1.798040 0.000000 0.014720 
#    y 0.000000 1.814160 0.000000 
#    z 0.014720 0.000000 1.759640 
# 
# From -- ./inp_files/54868.got.cif
#   From: 2010.05.17/outbox.cif.g08.bks.cpg/sg14_28_cif.got.tgz:54868.got - 2010.06.03 17:49:19.
