data_PCOD9252243
_publ_section_title
;
Structure prediction by ZEFSAII (Michael W. Deem and Ramdas Pophale) SiO2 
 PCOD9252243
Probable space group: P 21/C
;
_chemical_formula_sum "Si O2"
_cell_formula_units_Z 18
_cell_length_a 9.437899
_cell_length_b 12.388463
_cell_length_c 7.691619
_cell_angle_alpha 90.000000
_cell_angle_beta 45.540070
_cell_angle_gamma 90.000000
_cell_volume 641.875549
_symmetry_space_group_name_H-M "P 21/C"
_symmetry_group_IT_number 14
_symmetry_cell_setting 'monoclinic'
loop_
_space_group_symop_operation_xyz
x,y,z
-x,1/2+y,1/2-z
-x,-y,-z
x,1/2-y,1/2+z
loop_
_atom_site_type_symbol
_atom_site_label
_atom_site_fract_x
_atom_site_fract_y
_atom_site_fract_z
Si Si1 0.695531 0.843817 0.577787
Si Si2 0.803339 0.152160 0.387876
Si Si3 0.863658 0.119081 0.938332
Si Si4 0.228496 0.389315 0.609041
Si Si5 0.500000 0.000000 0.500000
O O1 0.662225 0.884480 0.801507
O O2 0.707415 0.713774 0.557812
O O3 0.918187 0.880694 0.330742
O O4 0.549988 0.885809 0.554100
O O5 0.750924 0.276905 0.460170
O O6 0.632877 0.064292 0.537813
O O7 0.991529 0.128464 0.349643
O O8 0.890609 0.135473 0.119721
O O9 0.761048 0.003054 0.999765
#
# Coordination Sequence:
#
# PCOD9252243 Si02
#       5
#     4   4   4   4   2
#     4  11  25  44  75 105 142 183 241 293 353 410
#     4  11  25  44  75 105 142 183 241 293 353 410
#     4  11  23  45  78 100 134 194 245 276 341 442
#     4  11  23  45  78 100 134 194 245 276 341 442
#     4  12  28  44  68 104 154 172 224 314 354 400
#
# _framework density 28.042819000000001
#
# number of rings (size 3 to 8) (size 9 to 14) (size 15 to 20)
#    0.000    0.889    2.222    6.667    6.222    1.778 
#    0.000    2.222    0.000    0.000    0.000    0.000 
#    0.000    0.000    0.000    0.000    0.000    0.000 
#
# Total GULP energy -100685.182010 kJ/mol
# GULP energy per Si atom -5593.621223 kJ/mol
# Density = 2.797899 g / cm^3
# Si number density = 28.042819 Si / 1000 Ang^3
#
#
#
# Elastic Constant Matrix: (Units=GPa)
#
#
# Indices 1 2 3 4 5 6 
#
# 1 156.7214 56.5661 26.4171 0.0000 18.1163 0.0000
# 2 56.5661 220.2828 25.1728 0.0000 -1.5620 0.0000
# 3 26.4171 25.1728 55.7281 0.0000 9.2492 0.0000
# 4 0.0000 0.0000 0.0000 51.7937 0.0000 -0.9147
# 5 18.1163 -1.5620 9.2492 0.0000 56.4493 0.0000
# 6 0.0000 0.0000 0.0000 -0.9147 0.0000 78.0590
#
#
#
# Elastic Compliance Matrix: (Units=1/GPa)
#
#
# Indices 1 2 3 4 5 6 
#
# 1 0.007658 -0.001694 -0.002518 0.000000 -0.002092 0.000000
# 2 -0.001694 0.005175 -0.001695 0.000000 0.000964 0.000000
# 3 -0.002518 -0.001695 0.020330 0.000000 -0.002570 0.000000
# 4 0.000000 0.000000 0.000000 0.019311 0.000000 0.000226
# 5 -0.002092 0.000964 -0.002570 0.000000 0.018834 0.000000
# 6 0.000000 0.000000 0.000000 0.000226 0.000000 0.012813
#
#
# Mechanical properties :
#
#
# Convention : Reuss Voigt Hill
#
# Bulk Modulus (GPa) = 46.83777 72.11604 59.47691
# Shear Modulus (GPa) = 48.51909 58.89882 53.70896
#
# Velocity S-wave (km/s) = 4.16405 4.58789 4.38110
# Velocity P-wave (km/s) = 6.31329 7.33739 6.84452
#
# Compressibility (1/GPa) = 0.02135029
#
# Stress axis : x y z
#
# Youngs Moduli (GPa) = 130.57680 193.23503 49.18839
#
# Poissons Ratio (x) = 0.32727 0.12386
# Poissons Ratio (y) = 0.22115 0.08337
# Poissons Ratio (z) = 0.32880 0.32750
#
# Static dielectric constant tensor:
#      x y z
#    x 2.123720 0.000000 -0.055840 
#    y 0.000000 1.675560 0.000000 
#    z -0.055840 0.000000 2.621680 
# 
# From -- ./inp_files/7601.got.cif
#   From: 2010.05.17/outbox.cif.g08.bks.cpg/sg14_4_cif.got.tgz:7601.got - 2010.06.03 17:49:19.
