data_PCOD9252632
_publ_section_title
;
Structure prediction by ZEFSAII (Michael W. Deem and Ramdas Pophale) SiO2 
 PCOD9252632
Probable space group: P 21/C
;
_chemical_formula_sum "Si O2"
_cell_formula_units_Z 20
_cell_length_a 25.520990
_cell_length_b 5.103361
_cell_length_c 9.137637
_cell_angle_alpha 90.000000
_cell_angle_beta 136.661799
_cell_angle_gamma 90.000000
_cell_volume 816.777713
_symmetry_space_group_name_H-M "P 21/C"
_symmetry_group_IT_number 14
_symmetry_cell_setting 'monoclinic'
loop_
_space_group_symop_operation_xyz
x,y,z
-x,1/2+y,1/2-z
-x,-y,-z
x,1/2-y,1/2+z
loop_
_atom_site_type_symbol
_atom_site_label
_atom_site_fract_x
_atom_site_fract_y
_atom_site_fract_z
Si Si1 0.732997 0.930581 0.620146
Si Si2 0.592658 0.596580 0.349737
Si Si3 0.439343 0.803230 0.950547
Si Si4 0.029277 0.937890 0.222841
Si Si5 0.789513 0.427895 0.910098
O O1 0.643164 0.853183 0.432564
O O2 0.770916 0.667540 0.762433
O O3 0.752216 0.165734 0.768352
O O4 0.762730 0.000053 0.519478
O O5 0.500770 0.625808 0.163484
O O6 0.611204 0.467251 0.541775
O O7 0.605900 0.392591 0.245659
O O8 0.500000 0.000000 0.000000
O O9 0.988431 0.685306 0.209230
O O10 0.119552 0.887644 0.401355
O O11 0.000000 0.000000 0.000000
#
# Coordination Sequence:
#
# PCOD9252632 Si02
#       5
#     4   4   4   4   4
#     4  12  30  51  79 109 165 207 264 312 407 469
#     4  11  27  46  77 110 148 207 253 335 386 464
#     4  11  24  48  75 107 149 191 272 317 386 453
#     4  12  25  46  82 118 157 204 264 323 385 454
#     4  12  27  52  77 117 158 212 256 323 385 485
#
# _framework density 24.486467000000001
#
# number of rings (size 3 to 8) (size 9 to 14) (size 15 to 20)
#    0.000    0.400    2.000    5.400    5.600    1.600 
#    0.000    0.000    0.000    0.000    0.000    0.000 
#    0.000    0.000    0.000    0.000    0.000    0.000 
#
# Total GULP energy -112262.653914 kJ/mol
# GULP energy per Si atom -5613.132696 kJ/mol
# Density = 2.443073 g / cm^3
# Si number density = 24.486467 Si / 1000 Ang^3
#
#
#
# Elastic Constant Matrix: (Units=GPa)
#
#
# Indices 1 2 3 4 5 6 
#
# 1 156.9136 56.6525 65.1492 0.0000 -5.6012 0.0000
# 2 56.6525 168.4479 50.6455 0.0000 -8.2105 0.0000
# 3 65.1492 50.6455 130.1537 0.0000 4.4007 0.0000
# 4 0.0000 0.0000 0.0000 60.1028 0.0000 -4.0433
# 5 -5.6012 -8.2105 4.4007 0.0000 43.7923 0.0000
# 6 0.0000 0.0000 0.0000 -4.0433 0.0000 39.9637
#
#
#
# Elastic Compliance Matrix: (Units=1/GPa)
#
#
# Indices 1 2 3 4 5 6 
#
# 1 0.008550 -0.001723 -0.003648 0.000000 0.001137 0.000000
# 2 -0.001723 0.007174 -0.001974 0.000000 0.001323 0.000000
# 3 -0.003648 -0.001974 0.010340 0.000000 -0.001876 0.000000
# 4 0.000000 0.000000 0.000000 0.016752 0.000000 0.001695
# 5 0.001137 0.001323 -0.001876 0.000000 0.023417 0.000000
# 6 0.000000 0.000000 0.000000 0.001695 0.000000 0.025194
#
#
# Mechanical properties :
#
#
# Convention : Reuss Voigt Hill
#
# Bulk Modulus (GPa) = 87.91015 88.93440 88.42227
# Shear Modulus (GPa) = 45.49198 47.64296 46.56747
#
# Velocity S-wave (km/s) = 4.31494 4.41578 4.36565
# Velocity P-wave (km/s) = 7.79772 7.89921 7.84863
#
# Compressibility (1/GPa) = 0.01137525
#
# Stress axis : x y z
#
# Youngs Moduli (GPa) = 116.95552 139.39097 96.70735
#
# Poissons Ratio (x) = 0.24024 0.35276
# Poissons Ratio (y) = 0.20157 0.19086
# Poissons Ratio (z) = 0.42662 0.27510
#
# Static dielectric constant tensor:
#      x y z
#    x 1.911510 0.000000 0.032850 
#    y 0.000000 1.987420 0.000000 
#    z 0.032850 0.000000 2.025800 
# 
# From -- ./inp_files/19291.got.cif
#   From: 2010.05.17/outbox.cif.g08.bks.cpg/sg14_10_cif.got.tgz:19291.got - 2010.06.03 17:49:19.
