data_PCOD9252768
_publ_section_title
;
Structure prediction by ZEFSAII (Michael W. Deem and Ramdas Pophale) SiO2 
 PCOD9252768
Probable space group: P 21/C
;
_chemical_formula_sum "Si O2"
_cell_formula_units_Z 24
_cell_length_a 5.142363
_cell_length_b 22.714993
_cell_length_c 9.013719
_cell_angle_alpha 90.000000
_cell_angle_beta 59.539905
_cell_angle_gamma 90.000000
_cell_volume 907.565065
_symmetry_space_group_name_H-M "P 21/C"
_symmetry_group_IT_number 14
_symmetry_cell_setting 'monoclinic'
loop_
_space_group_symop_operation_xyz
x,y,z
-x,1/2+y,1/2-z
-x,-y,-z
x,1/2-y,1/2+z
loop_
_atom_site_type_symbol
_atom_site_label
_atom_site_fract_x
_atom_site_fract_y
_atom_site_fract_z
Si Si1 0.620576 0.410544 0.788437
Si Si2 0.364837 0.747430 0.450918
Si Si3 0.691935 0.476702 0.154472
Si Si4 0.360386 0.130566 0.644749
Si Si5 0.155096 0.949448 0.061925
Si Si6 0.028584 0.189012 0.189431
O O1 0.620342 0.413697 0.610613
O O2 0.561071 0.479089 0.837094
O O3 0.631523 0.411285 0.118346
O O4 0.937343 0.379386 0.733325
O O5 0.560663 0.803331 0.337319
O O6 0.116184 0.776197 0.629970
O O7 0.182269 0.712829 0.380798
O O8 0.626605 0.705362 0.439171
O O9 0.375890 0.375736 0.959698
O O10 0.704361 0.475821 0.329038
O O11 0.000000 0.500000 0.000000
O O12 0.080551 0.099349 0.805626
O O13 0.000000 0.000000 0.000000
#
# Coordination Sequence:
#
# PCOD9252768 Si02
#       6
#     4   4   4   4   4   4
#     4  11  25  46  68 106 143 192 246 306 374 456
#     4  11  27  48  76 107 150 196 259 317 384 449
#     4  12  24  44  74 106 152 197 242 311 384 460
#     4  11  26  46  68 103 146 193 241 313 372 455
#     4  12  25  42  71 105 144 187 246 292 383 446
#     4  11  27  49  76 108 147 201 255 320 382 453
#
# _framework density 26.444386000000002
#
# number of rings (size 3 to 8) (size 9 to 14) (size 15 to 20)
#    0.000    0.667    3.333    3.000    7.000    4.000 
#    0.000    0.000    0.000    0.000    0.000    0.000 
#    0.000    0.000    0.000    0.000    0.000    0.000 
#
# Total GULP energy -134283.036684 kJ/mol
# GULP energy per Si atom -5595.126528 kJ/mol
# Density = 2.638420 g / cm^3
# Si number density = 26.444386 Si / 1000 Ang^3
#
#
#
# Elastic Constant Matrix: (Units=GPa)
#
#
# Indices 1 2 3 4 5 6 
#
# 1 100.8957 61.6329 32.3647 0.0000 8.1793 0.0000
# 2 61.6329 115.6068 19.1509 0.0000 9.4420 0.0000
# 3 32.3647 19.1509 165.8243 0.0000 23.7609 0.0000
# 4 0.0000 0.0000 0.0000 41.7959 0.0000 -8.0599
# 5 8.1793 9.4420 23.7609 0.0000 35.4155 0.0000
# 6 0.0000 0.0000 0.0000 -8.0599 0.0000 41.7386
#
#
#
# Elastic Compliance Matrix: (Units=1/GPa)
#
#
# Indices 1 2 3 4 5 6 
#
# 1 0.015380 -0.007849 -0.002087 0.000000 -0.000059 0.000000
# 2 -0.007849 0.012935 0.000301 0.000000 -0.001838 0.000000
# 3 -0.002087 0.000301 0.007020 0.000000 -0.004308 0.000000
# 4 0.000000 0.000000 0.000000 0.024851 0.000000 0.004799
# 5 -0.000059 -0.001838 -0.004308 0.000000 0.031631 0.000000
# 6 0.000000 0.000000 0.000000 0.004799 0.000000 0.024885
#
#
# Mechanical properties :
#
#
# Convention : Reuss Voigt Hill
#
# Bulk Modulus (GPa) = 62.24157 67.62486 64.93321
# Shear Modulus (GPa) = 35.37914 41.73521 38.55718
#
# Velocity S-wave (km/s) = 3.66166 3.97700 3.82258
# Velocity P-wave (km/s) = 6.43932 6.83496 6.64009
#
# Compressibility (1/GPa) = 0.01606643
#
# Stress axis : x y z
#
# Youngs Moduli (GPa) = 65.01945 77.31173 142.44372
#
# Poissons Ratio (x) = 0.60681 0.29725
# Poissons Ratio (y) = 0.51033 -0.04294
# Poissons Ratio (z) = 0.13568 -0.02331
#
# Static dielectric constant tensor:
#      x y z
#    x 2.059830 0.000000 0.013780 
#    y 0.000000 2.077850 0.000000 
#    z 0.013780 0.000000 2.165950 
# 
# From -- ./inp_files/22043.got.cif
#   From: 2010.05.17/outbox.cif.g08.bks.cpg/sg14_12_cif.got.tgz:22043.got - 2010.06.03 17:49:19.
