data_PCOD9252531
_publ_section_title
;
Structure prediction by ZEFSAII (Michael W. Deem and Ramdas Pophale) SiO2 
 PCOD9252531
Probable space group: P 21/C
;
_chemical_formula_sum "Si O2"
_cell_formula_units_Z 20
_cell_length_a 8.499958
_cell_length_b 11.274977
_cell_length_c 9.579359
_cell_angle_alpha 90.000000
_cell_angle_beta 67.904285
_cell_angle_gamma 90.000000
_cell_volume 850.630450
_symmetry_space_group_name_H-M "P 21/C"
_symmetry_group_IT_number 14
_symmetry_cell_setting 'monoclinic'
loop_
_space_group_symop_operation_xyz
x,y,z
-x,1/2+y,1/2-z
-x,-y,-z
x,1/2-y,1/2+z
loop_
_atom_site_type_symbol
_atom_site_label
_atom_site_fract_x
_atom_site_fract_y
_atom_site_fract_z
Si Si1 0.153157 0.456970 0.360105
Si Si2 0.498150 0.488815 0.667110
Si Si3 0.064348 0.570256 0.116857
Si Si4 0.443073 0.623354 0.943487
Si Si5 0.738396 0.719692 0.259241
O O1 0.312487 0.537531 0.346099
O O2 0.105596 0.468654 0.215221
O O3 0.206862 0.322027 0.365948
O O4 0.000000 0.500000 0.500000
O O5 0.500000 0.500000 0.500000
O O6 0.444215 0.602493 0.774945
O O7 0.373083 0.387503 0.759458
O O8 0.917202 0.654123 0.231929
O O9 0.243729 0.641343 0.042758
O O10 0.000000 0.500000 0.000000
O O11 0.598777 0.716931 0.909536
O O12 0.500000 0.500000 0.000000
#
# Coordination Sequence:
#
# PCOD9252531 Si02
#       5
#     4   4   4   4   4
#     4  11  27  48  67 108 148 182 247 302 343 437
#     4  11  24  45  72 104 143 186 240 296 358 428
#     4  12  25  47  76 105 143 193 244 294 361 437
#     4  11  24  49  71 104 146 187 243 302 349 432
#     4  11  26  47  75 102 145 195 235 298 375 407
#
# _framework density 23.511973000000001
#
# number of rings (size 3 to 8) (size 9 to 14) (size 15 to 20)
#    0.000    0.800    6.000    1.200    2.800    9.600 
#    0.000    0.000    0.000    0.000    0.000    0.000 
#    0.000    0.000    0.000    0.000    0.000    0.000 
#
# Total GULP energy -111489.322383 kJ/mol
# GULP energy per Si atom -5574.466119 kJ/mol
# Density = 2.345846 g / cm^3
# Si number density = 23.511973 Si / 1000 Ang^3
#
#
#
# Elastic Constant Matrix: (Units=GPa)
#
#
# Indices 1 2 3 4 5 6 
#
# 1 207.5902 51.4468 52.2596 0.0000 -39.3170 0.0000
# 2 51.4468 71.6590 14.5535 0.0000 -12.2414 0.0000
# 3 52.2596 14.5535 112.2109 0.0000 17.6825 0.0000
# 4 0.0000 0.0000 0.0000 27.3394 0.0000 -17.0444
# 5 -39.3170 -12.2414 17.6825 0.0000 56.4844 0.0000
# 6 0.0000 0.0000 0.0000 -17.0444 0.0000 48.2348
#
#
#
# Elastic Compliance Matrix: (Units=1/GPa)
#
#
# Indices 1 2 3 4 5 6 
#
# 1 0.007950 -0.003840 -0.004150 0.000000 0.006001 0.000000
# 2 -0.003840 0.017043 -0.000613 0.000000 0.001213 0.000000
# 3 -0.004150 -0.000613 0.011992 0.000000 -0.006776 0.000000
# 4 0.000000 0.000000 0.000000 0.046912 0.000000 0.016577
# 5 0.006001 0.001213 -0.006776 0.000000 0.024265 0.000000
# 6 0.000000 0.000000 0.000000 0.016577 0.000000 0.026590
#
#
# Mechanical properties :
#
#
# Convention : Reuss Voigt Hill
#
# Bulk Modulus (GPa) = 50.55888 69.77552 60.16720
# Shear Modulus (GPa) = 31.53538 44.62506 38.08022
#
# Velocity S-wave (km/s) = 3.66628 4.36130 4.02880
# Velocity P-wave (km/s) = 6.28270 7.42309 6.87657
#
# Compressibility (1/GPa) = 0.01977892
#
# Stress axis : x y z
#
# Youngs Moduli (GPa) = 125.78430 58.67357 83.38911
#
# Poissons Ratio (x) = 0.22529 0.34608
# Poissons Ratio (y) = 0.48297 0.05115
# Poissons Ratio (z) = 0.52203 0.03599
#
# Static dielectric constant tensor:
#      x y z
#    x 1.938420 0.000000 -0.035270 
#    y 0.000000 1.925260 0.000000 
#    z -0.035270 0.000000 1.941200 
# 
# From -- ./inp_files/7838.got.cif
#   From: 2010.05.17/outbox.cif.g08.bks.cpg/sg14_4_cif.got.tgz:7838.got - 2010.06.03 17:49:19.
