data_PCOD9252429
_publ_section_title
;
Structure prediction by ZEFSAII (Michael W. Deem and Ramdas Pophale) SiO2 
 PCOD9252429
Probable space group: P 21/C
;
_chemical_formula_sum "Si O2"
_cell_formula_units_Z 18
_cell_length_a 7.449110
_cell_length_b 5.730245
_cell_length_c 24.180721
_cell_angle_alpha 90.000000
_cell_angle_beta 34.662741
_cell_angle_gamma 90.000000
_cell_volume 587.035331
_symmetry_space_group_name_H-M "P 21/C"
_symmetry_group_IT_number 14
_symmetry_cell_setting 'monoclinic'
loop_
_space_group_symop_operation_xyz
x,y,z
-x,1/2+y,1/2-z
-x,-y,-z
x,1/2-y,1/2+z
loop_
_atom_site_type_symbol
_atom_site_label
_atom_site_fract_x
_atom_site_fract_y
_atom_site_fract_z
Si Si1 0.779517 0.208122 0.334443
Si Si2 0.500000 0.000000 0.000000
Si Si3 0.421735 0.233156 0.114040
Si Si4 0.865362 0.705966 0.144425
Si Si5 0.781608 0.209009 0.134316
O O1 0.595383 0.429039 0.408399
O O2 0.034041 0.236062 0.221706
O O3 0.010239 0.158657 0.326582
O O4 0.539372 0.012971 0.379043
O O5 0.507030 0.744268 0.971357
O O6 0.635834 0.139639 0.112395
O O7 0.922929 0.468822 0.096494
O O8 0.488077 0.732821 0.249653
O O9 0.991439 0.977892 0.099316
#
# Coordination Sequence:
#
# PCOD9252429 Si02
#       5
#     4   2   4   4   4
#     4  11  24  43  73 101 139 187 237 292 355 422
#     4  12  26  44  68 106 144 176 240 296 352 412
#     4  11  24  43  73 101 139 187 237 292 355 422
#     4   9  20  38  66  99 136 182 233 287 353 421
#     4   9  20  38  66  99 136 182 233 287 353 421
#
# _framework density 30.662551000000001
#
# number of rings (size 3 to 8) (size 9 to 14) (size 15 to 20)
#    0.000    1.778    2.222    0.667    6.222    1.778 
#    0.000    2.222    0.000    0.000    0.000    0.000 
#    0.000    0.000    0.000    0.000    0.000    0.000 
#
# Total GULP energy -100271.341421 kJ/mol
# GULP energy per Si atom -5570.630079 kJ/mol
# Density = 3.059276 g / cm^3
# Si number density = 30.662551 Si / 1000 Ang^3
#
#
#
# Elastic Constant Matrix: (Units=GPa)
#
#
# Indices 1 2 3 4 5 6 
#
# 1 100.5943 52.5692 15.0690 0.0000 39.5394 0.0000
# 2 52.5692 233.6865 55.4324 0.0000 24.9303 0.0000
# 3 15.0690 55.4324 178.5116 0.0000 -19.0580 0.0000
# 4 0.0000 0.0000 0.0000 56.8145 0.0000 4.9920
# 5 39.5394 24.9303 -19.0580 0.0000 55.3543 0.0000
# 6 0.0000 0.0000 0.0000 4.9920 0.0000 70.7841
#
#
#
# Elastic Compliance Matrix: (Units=1/GPa)
#
#
# Indices 1 2 3 4 5 6 
#
# 1 0.015469 -0.001876 -0.001882 0.000000 -0.010852 0.000000
# 2 -0.001876 0.005262 -0.001646 0.000000 -0.001597 0.000000
# 3 -0.001882 -0.001646 0.006742 0.000000 0.004407 0.000000
# 4 0.000000 0.000000 0.000000 0.017711 0.000000 -0.001249
# 5 -0.010852 -0.001597 0.004407 0.000000 0.028054 0.000000
# 6 0.000000 0.000000 0.000000 -0.001249 0.000000 0.014216
#
#
# Mechanical properties :
#
#
# Convention : Reuss Voigt Hill
#
# Bulk Modulus (GPa) = 60.00371 84.32596 72.16484
# Shear Modulus (GPa) = 48.16216 62.57201 55.36708
#
# Velocity S-wave (km/s) = 3.96753 4.52227 4.25395
# Velocity P-wave (km/s) = 6.37180 7.40466 6.90756
#
# Compressibility (1/GPa) = 0.01666563
#
# Stress axis : x y z
#
# Youngs Moduli (GPa) = 64.64700 190.04160 148.31485
#
# Poissons Ratio (x) = 0.35644 0.27912
# Poissons Ratio (y) = 0.12125 0.24415
# Poissons Ratio (z) = 0.12166 0.31284
#
# Static dielectric constant tensor:
#      x y z
#    x 1.947670 0.000000 -0.161260 
#    y 0.000000 2.595430 0.000000 
#    z -0.161260 0.000000 2.381130 
# 
# From -- ./inp_files/53886.got.cif
#   From: 2010.05.17/outbox.cif.g08.bks.cpg/sg14_27_cif.got.tgz:53886.got - 2010.06.03 17:49:19.
