data_PCOD9252977
_publ_section_title
;
Structure prediction by ZEFSAII (Michael W. Deem and Ramdas Pophale) SiO2 
 PCOD9252977
Probable space group: P 21/C
;
_chemical_formula_sum "Si O2"
_cell_formula_units_Z 16
_cell_length_a 11.881636
_cell_length_b 4.891215
_cell_length_c 9.493436
_cell_angle_alpha 90.000000
_cell_angle_beta 89.323795
_cell_angle_gamma 90.000000
_cell_volume 551.678650
_symmetry_space_group_name_H-M "P 21/C"
_symmetry_group_IT_number 14
_symmetry_cell_setting 'monoclinic'
loop_
_space_group_symop_operation_xyz
x,y,z
-x,1/2+y,1/2-z
-x,-y,-z
x,1/2-y,1/2+z
loop_
_atom_site_type_symbol
_atom_site_label
_atom_site_fract_x
_atom_site_fract_y
_atom_site_fract_z
Si Si1 0.690166 0.488645 0.492731
Si Si2 0.882179 0.727019 0.171417
Si Si3 0.495701 0.312088 0.160594
Si Si4 0.874707 0.370985 0.917741
O O1 0.778465 0.620278 0.598308
O O2 0.617145 0.715877 0.414439
O O3 0.603048 0.293478 0.574270
O O4 0.765647 0.307722 0.386732
O O5 0.012334 0.790197 0.126874
O O6 0.874387 0.847374 0.329358
O O7 0.874354 0.438697 0.085100
O O8 0.497789 0.128880 0.302452
#
# Coordination Sequence:
#
# PCOD9252977 Si02
#       4
#     4   4   4   4
#     4  11  27  47  77 109 153 208 263 321 402 472
#     4  11  28  47  75 112 158 200 260 320 397 473
#     4  11  28  49  77 115 157 205 269 332 397 467
#     4  11  28  47  75 115 155 209 256 324 394 476
#
# _framework density 29.002393999999999
#
# number of rings (size 3 to 8) (size 9 to 14) (size 15 to 20)
#    0.000    1.000    0.000    2.250   21.000    2.000 
#    0.000    0.000    0.000    0.000    0.000    0.000 
#    0.000    0.000    0.000    0.000    0.000    0.000 
#
# Total GULP energy -89784.898073 kJ/mol
# GULP energy per Si atom -5611.556130 kJ/mol
# Density = 2.893638 g / cm^3
# Si number density = 29.002394 Si / 1000 Ang^3
#
#
#
# Elastic Constant Matrix: (Units=GPa)
#
#
# Indices 1 2 3 4 5 6 
#
# 1 208.2356 34.7727 54.1613 0.0000 -2.8829 0.0000
# 2 34.7727 83.7733 16.3142 0.0000 3.8464 0.0000
# 3 54.1613 16.3142 116.9761 0.0000 17.9012 0.0000
# 4 0.0000 0.0000 0.0000 54.3572 0.0000 -5.6435
# 5 -2.8829 3.8464 17.9012 0.0000 44.8832 0.0000
# 6 0.0000 0.0000 0.0000 -5.6435 0.0000 25.4499
#
#
#
# Elastic Compliance Matrix: (Units=1/GPa)
#
#
# Indices 1 2 3 4 5 6 
#
# 1 0.005853 -0.001981 -0.002681 0.000000 0.001615 0.000000
# 2 -0.001981 0.012948 -0.000744 0.000000 -0.000940 0.000000
# 3 -0.002681 -0.000744 0.010555 0.000000 -0.004318 0.000000
# 4 0.000000 0.000000 0.000000 0.018830 0.000000 0.004176
# 5 0.001615 -0.000940 -0.004318 0.000000 0.024186 0.000000
# 6 0.000000 0.000000 0.000000 0.004176 0.000000 0.040219
#
#
# Mechanical properties :
#
#
# Convention : Reuss Voigt Hill
#
# Bulk Modulus (GPa) = 53.93256 68.83126 61.38191
# Shear Modulus (GPa) = 38.58494 45.18719 41.88606
#
# Velocity S-wave (km/s) = 3.65143 3.95150 3.80442
# Velocity P-wave (km/s) = 6.03436 6.67859 6.36463
#
# Compressibility (1/GPa) = 0.01854168
#
# Stress axis : x y z
#
# Youngs Moduli (GPa) = 170.86069 77.23450 94.74582
#
# Poissons Ratio (x) = 0.15304 0.25398
# Poissons Ratio (y) = 0.33855 0.07053
# Poissons Ratio (z) = 0.45802 0.05750
#
# Static dielectric constant tensor:
#      x y z
#    x 2.165660 0.000000 0.008030 
#    y 0.000000 2.223350 0.000000 
#    z 0.008030 0.000000 2.335300 
# 
# From -- ./inp_files/27280.got.cif
#   From: 2010.05.17/outbox.cif.g08.bks.cpg/sg14_14_cif.got.tgz:27280.got - 2010.06.03 17:49:19.
