data_PCOD9252095
_publ_section_title
;
Structure prediction by ZEFSAII (Michael W. Deem and Ramdas Pophale) SiO2 
 PCOD9252095
Probable space group: P 21/C
;
_chemical_formula_sum "Si O2"
_cell_formula_units_Z 28
_cell_length_a 28.893192
_cell_length_b 5.285824
_cell_length_c 9.152613
_cell_angle_alpha 90.000000
_cell_angle_beta 59.070108
_cell_angle_gamma 90.000000
_cell_volume 1199.051336
_symmetry_space_group_name_H-M "P 21/C"
_symmetry_group_IT_number 14
_symmetry_cell_setting 'monoclinic'
loop_
_space_group_symop_operation_xyz
x,y,z
-x,1/2+y,1/2-z
-x,-y,-z
x,1/2-y,1/2+z
loop_
_atom_site_type_symbol
_atom_site_label
_atom_site_fract_x
_atom_site_fract_y
_atom_site_fract_z
Si Si1 0.480474 0.054767 0.697561
Si Si2 0.799250 0.463332 0.584506
Si Si3 0.887119 0.105581 0.342875
Si Si4 0.060401 0.541634 0.952025
Si Si5 0.170484 0.216952 0.221733
Si Si6 0.683927 0.434837 0.884271
Si Si7 0.353081 0.067407 0.885847
O O1 0.491304 0.801143 0.775834
O O2 0.416946 0.113936 0.796189
O O3 0.500000 0.000000 0.500000
O O4 0.854210 0.305367 0.497997
O O5 0.791130 0.532542 0.428424
O O6 0.813109 0.727706 0.642479
O O7 0.746269 0.369638 0.747974
O O8 0.929129 0.999787 0.393639
O O9 0.923359 0.194711 0.149081
O O10 0.835280 0.981345 0.349645
O O11 0.108638 0.373398 0.805408
O O12 0.000000 0.500000 0.000000
O O13 0.660161 0.510698 0.763228
O O14 0.659558 0.185799 0.999621
O O15 0.676560 0.682008 0.000530
#
# Coordination Sequence:
#
# PCOD9252095 Si02
#       7
#     4   4   4   4   4   4   4
#     4  12  25  45  76 105 146 199 242 297 357 422
#     4  11  25  42  69  91 128 175 217 268 344 401
#     4  11  24  42  62  92 124 160 216 262 318 417
#     4  11  26  41  64  92 125 166 206 275 337 393
#     4  11  23  43  63  93 125 162 221 266 318 423
#     4  12  28  45  75 103 152 190 236 308 359 425
#     4  12  26  48  69 114 146 188 248 297 356 425
#
# _framework density 23.351793000000001
#
# number of rings (size 3 to 8) (size 9 to 14) (size 15 to 20)
#    0.000    0.571    2.857    4.714    6.000    0.571 
#    0.000    0.000    0.000    0.000    0.000    0.000 
#    0.000    0.000    0.000    0.000    0.000    0.000 
#
# Total GULP energy -156231.374192 kJ/mol
# GULP energy per Si atom -5579.691935 kJ/mol
# Density = 2.329864 g / cm^3
# Si number density = 23.351793 Si / 1000 Ang^3
#
#
#
# Elastic Constant Matrix: (Units=GPa)
#
#
# Indices 1 2 3 4 5 6 
#
# 1 74.7164 -15.7493 13.0039 0.0000 11.3475 0.0000
# 2 -15.7493 60.3043 14.8063 0.0000 16.7047 0.0000
# 3 13.0039 14.8063 81.4757 0.0000 14.9178 0.0000
# 4 0.0000 0.0000 0.0000 33.4376 0.0000 6.6477
# 5 11.3475 16.7047 14.9178 0.0000 43.7873 0.0000
# 6 0.0000 0.0000 0.0000 6.6477 0.0000 30.1502
#
#
#
# Elastic Compliance Matrix: (Units=1/GPa)
#
#
# Indices 1 2 3 4 5 6 
#
# 1 0.016076 0.006440 -0.002691 0.000000 -0.005706 0.000000
# 2 0.006440 0.021503 -0.003336 0.000000 -0.008736 0.000000
# 3 -0.002691 -0.003336 0.013810 0.000000 -0.002735 0.000000
# 4 0.000000 0.000000 0.000000 0.031277 0.000000 -0.006896
# 5 -0.005706 -0.008736 -0.002735 0.000000 0.028581 0.000000
# 6 0.000000 0.000000 0.000000 -0.006896 0.000000 0.034688
#
#
# Mechanical properties :
#
#
# Convention : Reuss Voigt Hill
#
# Bulk Modulus (GPa) = 19.15159 26.73537 22.94348
# Shear Modulus (GPa) = 30.76618 35.10406 32.93512
#
# Velocity S-wave (km/s) = 3.63369 3.88141 3.75959
# Velocity P-wave (km/s) = 5.08174 5.61791 5.35654
#
# Compressibility (1/GPa) = 0.05221498
#
# Stress axis : x y z
#
# Youngs Moduli (GPa) = 62.20279 46.50422 72.41060
#
# Poissons Ratio (x) = -0.29949 0.19489
# Poissons Ratio (y) = -0.40059 0.24157
# Poissons Ratio (z) = 0.16741 0.15514
#
# Static dielectric constant tensor:
#      x y z
#    x 1.851950 0.000000 0.022530 
#    y 0.000000 2.444350 0.000000 
#    z 0.022530 0.000000 1.886410 
# 
# From -- ./inp_files/19874.got.cif
#   From: 2010.05.17/outbox.cif.g08.bks.cpg/sg14_10_cif.got.tgz:19874.got - 2010.06.03 17:49:19.
