data_PCOD9252193
_publ_section_title
;
Structure prediction by ZEFSAII (Michael W. Deem and Ramdas Pophale) SiO2 
 PCOD9252193
Probable space group: P 21/C
;
_chemical_formula_sum "Si O2"
_cell_formula_units_Z 28
_cell_length_a 8.367545
_cell_length_b 11.068721
_cell_length_c 14.054689
_cell_angle_alpha 90.000000
_cell_angle_beta 54.292152
_cell_angle_gamma 90.000000
_cell_volume 1056.999268
_symmetry_space_group_name_H-M "P 21/C"
_symmetry_group_IT_number 14
_symmetry_cell_setting 'monoclinic'
loop_
_space_group_symop_operation_xyz
x,y,z
-x,1/2+y,1/2-z
-x,-y,-z
x,1/2-y,1/2+z
loop_
_atom_site_type_symbol
_atom_site_label
_atom_site_fract_x
_atom_site_fract_y
_atom_site_fract_z
Si Si1 0.758326 0.550786 0.696311
Si Si2 0.190449 0.587319 0.056311
Si Si3 0.210253 0.484454 0.727872
Si Si4 0.164069 0.066246 0.043829
Si Si5 0.493506 0.376608 0.921991
Si Si6 0.562624 0.790559 0.744562
Si Si7 0.870877 0.290833 0.117522
O O1 0.730989 0.537960 0.591859
O O2 0.636858 0.460331 0.805837
O O3 0.684821 0.683393 0.749329
O O4 0.991639 0.533787 0.621806
O O5 0.367142 0.666037 0.041031
O O6 0.004744 0.577505 0.188867
O O7 0.306545 0.459088 0.012299
O O8 0.102474 0.626874 0.985679
O O9 0.286790 0.449249 0.597163
O O10 0.345997 0.416658 0.756851
O O11 0.173850 0.620701 0.777854
O O12 0.036782 0.190911 0.079092
O O13 0.419437 0.276626 0.875943
O O14 0.332709 0.773744 0.840438
#
# Coordination Sequence:
#
# PCOD9252193 Si02
#       7
#     4   4   4   4   4   4   4
#     4  11  23  48  67  98 147 183 233 289 358 424
#     4  11  23  44  75 102 141 183 243 306 348 421
#     4  12  26  45  73 110 137 190 252 291 360 430
#     4  11  27  46  73 100 147 194 235 292 365 426
#     4  11  23  45  70 106 140 189 235 296 362 416
#     4  12  24  44  71 102 150 185 240 300 351 431
#     4  12  25  46  72 108 146 186 243 299 356 429
#
# _framework density 26.490085000000001
#
# number of rings (size 3 to 8) (size 9 to 14) (size 15 to 20)
#    0.000    0.571    5.714    1.286    4.000    1.143 
#    5.143    2.857    0.000    0.000    0.000    0.000 
#    0.000    0.000    0.000    0.000    0.000    0.000 
#
# Total GULP energy -156717.939867 kJ/mol
# GULP energy per Si atom -5597.069281 kJ/mol
# Density = 2.642979 g / cm^3
# Si number density = 26.490085 Si / 1000 Ang^3
#
#
#
# Elastic Constant Matrix: (Units=GPa)
#
#
# Indices 1 2 3 4 5 6 
#
# 1 111.8146 32.1443 32.7965 0.0000 6.9409 0.0000
# 2 32.1443 90.9804 12.1147 0.0000 -7.9988 0.0000
# 3 32.7965 12.1147 118.1443 0.0000 5.7216 0.0000
# 4 0.0000 0.0000 0.0000 30.9671 0.0000 -0.1312
# 5 6.9409 -7.9988 5.7216 0.0000 62.0187 0.0000
# 6 0.0000 0.0000 0.0000 -0.1312 0.0000 34.5855
#
#
#
# Elastic Compliance Matrix: (Units=1/GPa)
#
#
# Indices 1 2 3 4 5 6 
#
# 1 0.010822 -0.003609 -0.002564 0.000000 -0.001440 0.000000
# 2 -0.003609 0.012497 -0.000379 0.000000 0.002051 0.000000
# 3 -0.002564 -0.000379 0.009245 0.000000 -0.000615 0.000000
# 4 0.000000 0.000000 0.000000 0.032293 0.000000 0.000123
# 5 -0.001440 0.002051 -0.000615 0.000000 0.016607 0.000000
# 6 0.000000 0.000000 0.000000 0.000123 0.000000 0.028914
#
#
# Mechanical properties :
#
#
# Convention : Reuss Voigt Hill
#
# Bulk Modulus (GPa) = 51.38806 52.78338 52.08572
# Shear Modulus (GPa) = 38.47068 41.77320 40.12194
#
# Velocity S-wave (km/s) = 3.81500 3.97537 3.89601
# Velocity P-wave (km/s) = 6.23271 6.40628 6.32009
#
# Compressibility (1/GPa) = 0.01945977
#
# Stress axis : x y z
#
# Youngs Moduli (GPa) = 92.40087 80.01816 108.16944
#
# Poissons Ratio (x) = 0.28877 0.27740
# Poissons Ratio (y) = 0.33346 0.04100
# Poissons Ratio (z) = 0.23696 0.03033
#
# Static dielectric constant tensor:
#      x y z
#    x 2.105840 0.000000 0.079620 
#    y 0.000000 2.147640 0.000000 
#    z 0.079620 0.000000 2.119130 
# 
# From -- ./inp_files/40229.got.cif
#   From: 2010.05.17/outbox.cif.g08.bks.cpg/sg14_21_cif.got.tgz:40229.got - 2010.06.03 17:49:19.
