data_PCOD9252881
_publ_section_title
;
Structure prediction by ZEFSAII (Michael W. Deem and Ramdas Pophale) SiO2 
 PCOD9252881
Probable space group: P 21/C
;
_chemical_formula_sum "Si O2"
_cell_formula_units_Z 24
_cell_length_a 16.720893
_cell_length_b 7.781850
_cell_length_c 14.044961
_cell_angle_alpha 90.000000
_cell_angle_beta 32.863595
_cell_angle_gamma 90.000000
_cell_volume 991.688667
_symmetry_space_group_name_H-M "P 21/C"
_symmetry_group_IT_number 14
_symmetry_cell_setting 'monoclinic'
loop_
_space_group_symop_operation_xyz
x,y,z
-x,1/2+y,1/2-z
-x,-y,-z
x,1/2-y,1/2+z
loop_
_atom_site_type_symbol
_atom_site_label
_atom_site_fract_x
_atom_site_fract_y
_atom_site_fract_z
Si Si1 0.025241 0.881940 0.282255
Si Si2 0.124837 0.119826 0.922493
Si Si3 0.375163 0.880175 0.672167
Si Si4 0.160398 0.241875 0.186216
Si Si5 0.474759 0.118059 0.832738
Si Si6 0.339602 0.741876 0.507012
O O1 0.938333 0.761090 0.443002
O O2 0.931000 0.883871 0.279945
O O3 0.058408 0.072299 0.286267
O O4 0.186409 0.798939 0.108817
O O5 0.195021 0.210982 0.759733
O O6 0.250000 0.000000 0.842939
O O7 0.000000 0.000000 0.000000
O O8 0.438332 0.738909 0.680331
O O9 0.304978 0.789020 0.649776
O O10 0.500000 0.000000 0.500000
O O11 0.313591 0.201061 0.981636
O O12 0.569000 0.116129 0.641946
O O13 0.441593 0.927700 0.903083
#
# Coordination Sequence:
#
# PCOD9252881 Si02
#       6
#     4   4   4   4   4   4
#     4  11  26  45  73 103 142 189 237 297 355 420
#     4  12  25  46  71 100 141 185 236 292 354 423
#     4  12  25  46  71 100 141 185 236 292 354 423
#     4  11  26  46  70 105 142 186 242 291 357 422
#     4  11  26  45  73 103 142 189 237 297 355 420
#     4  11  26  46  70 105 142 186 242 291 357 422
#
# _framework density 24.201143999999999
#
# number of rings (size 3 to 8) (size 9 to 14) (size 15 to 20)
#    0.000    0.667    3.333    3.000    9.333    0.000 
#    0.000    0.000    0.000    0.000    0.000    0.000 
#    0.000    0.000    0.000    0.000    0.000    0.000 
#
# Total GULP energy -134583.237085 kJ/mol
# GULP energy per Si atom -5607.634879 kJ/mol
# Density = 2.414606 g / cm^3
# Si number density = 24.201144 Si / 1000 Ang^3
#
#
#
# Elastic Constant Matrix: (Units=GPa)
#
#
# Indices 1 2 3 4 5 6 
#
# 1 90.8716 13.0986 25.9668 0.0000 14.1091 0.0000
# 2 13.0986 90.4055 12.5080 0.0000 0.5965 0.0000
# 3 25.9668 12.5080 68.7714 0.0000 8.1578 0.0000
# 4 0.0000 0.0000 0.0000 48.0038 0.0000 -2.0296
# 5 14.1091 0.5965 8.1578 0.0000 31.4466 0.0000
# 6 0.0000 0.0000 0.0000 -2.0296 0.0000 45.9895
#
#
#
# Elastic Compliance Matrix: (Units=1/GPa)
#
#
# Indices 1 2 3 4 5 6 
#
# 1 0.013120 -0.001295 -0.004151 0.000000 -0.004785 0.000000
# 2 -0.001295 0.011478 -0.001694 0.000000 0.000803 0.000000
# 3 -0.004151 -0.001694 0.016706 0.000000 -0.002439 0.000000
# 4 0.000000 0.000000 0.000000 0.020871 0.000000 0.000921
# 5 -0.004785 0.000803 -0.002439 0.000000 0.034565 0.000000
# 6 0.000000 0.000000 0.000000 0.000921 0.000000 0.021785
#
#
# Mechanical properties :
#
#
# Convention : Reuss Voigt Hill
#
# Bulk Modulus (GPa) = 37.00350 39.24394 38.12372
# Shear Modulus (GPa) = 35.25810 38.31964 36.78887
#
# Velocity S-wave (km/s) = 3.82105 3.98349 3.90311
# Velocity P-wave (km/s) = 5.89834 6.11625 6.00828
#
# Compressibility (1/GPa) = 0.02702447
#
# Stress axis : x y z
#
# Youngs Moduli (GPa) = 76.21776 87.12347 59.86013
#
# Poissons Ratio (x) = 0.11283 0.24847
# Poissons Ratio (y) = 0.09871 0.10139
# Poissons Ratio (z) = 0.31636 0.14757
#
# Static dielectric constant tensor:
#      x y z
#    x 1.917860 0.000000 0.015000 
#    y 0.000000 1.926810 0.000000 
#    z 0.015000 0.000000 1.902980 
# 
# From -- ./inp_files/48488.got.cif
#   From: 2010.05.17/outbox.cif.g08.bks.cpg/sg14_25_cif.got.tgz:48488.got - 2010.06.03 17:49:19.
