data_PCOD9252248
_publ_section_title
;
Structure prediction by ZEFSAII (Michael W. Deem and Ramdas Pophale) SiO2 
 PCOD9252248
Probable space group: P 21/C
;
_chemical_formula_sum "Si O2"
_cell_formula_units_Z 28
_cell_length_a 18.161105
_cell_length_b 6.765323
_cell_length_c 12.913197
_cell_angle_alpha 90.000000
_cell_angle_beta 133.814179
_cell_angle_gamma 90.000000
_cell_volume 1144.865422
_symmetry_space_group_name_H-M "P 21/C"
_symmetry_group_IT_number 14
_symmetry_cell_setting 'monoclinic'
loop_
_space_group_symop_operation_xyz
x,y,z
-x,1/2+y,1/2-z
-x,-y,-z
x,1/2-y,1/2+z
loop_
_atom_site_type_symbol
_atom_site_label
_atom_site_fract_x
_atom_site_fract_y
_atom_site_fract_z
Si Si1 0.845034 0.051905 0.389170
Si Si2 0.561817 0.187611 0.675384
Si Si3 0.988497 0.726425 0.587605
Si Si4 0.637412 0.500770 0.917988
Si Si5 0.910558 0.136808 0.108315
Si Si6 0.654111 0.159408 0.074559
Si Si7 0.297264 0.419232 0.569183
O O1 0.857221 0.171669 0.507410
O O2 0.735537 0.068296 0.231968
O O3 0.919884 0.175831 0.386826
O O4 0.887967 0.832881 0.445145
O O5 0.593399 0.362347 0.784645
O O6 0.457340 0.092315 0.611241
O O7 0.562675 0.269492 0.559396
O O8 0.649723 0.020204 0.779556
O O9 0.971608 0.493604 0.583607
O O10 0.013173 0.799792 0.727995
O O11 0.697942 0.684464 0.930234
O O12 0.694101 0.354759 0.053107
O O13 0.817384 0.998643 0.054871
O O14 0.638702 0.004908 0.966963
#
# Coordination Sequence:
#
# PCOD9252248 Si02
#       7
#     4   4   4   4   4   4   4
#     4  11  24  45  62  98 134 168 222 272 324 386
#     4  11  23  46  68  97 135 172 214 275 329 388
#     4  11  25  41  67  96 129 176 217 271 327 384
#     4  11  25  44  70  97 131 172 221 268 330 403
#     4  12  23  42  69  92 132 174 222 264 329 386
#     4  11  25  42  70  98 136 171 218 277 324 396
#     4  11  25  42  65 102 131 176 221 268 329 392
#
# _framework density 24.457024000000001
#
# number of rings (size 3 to 8) (size 9 to 14) (size 15 to 20)
#    0.000    0.857    5.714    0.857    2.000    4.000 
#    0.000    0.000    0.000    0.000    0.000    0.000 
#    0.000    0.000    0.000    0.000    0.000    0.000 
#
# Total GULP energy -156783.702498 kJ/mol
# GULP energy per Si atom -5599.417946 kJ/mol
# Density = 2.440136 g / cm^3
# Si number density = 24.457024 Si / 1000 Ang^3
#
#
#
# Elastic Constant Matrix: (Units=GPa)
#
#
# Indices 1 2 3 4 5 6 
#
# 1 58.1519 -20.1035 -6.8795 0.0000 -13.8459 0.0000
# 2 -20.1035 83.5334 7.2049 0.0000 -8.2122 0.0000
# 3 -6.8795 7.2049 59.6302 0.0000 -3.8449 0.0000
# 4 0.0000 0.0000 0.0000 35.6726 0.0000 -0.2774
# 5 -13.8459 -8.2122 -3.8449 0.0000 37.5389 0.0000
# 6 0.0000 0.0000 0.0000 -0.2774 0.0000 33.5389
#
#
#
# Elastic Compliance Matrix: (Units=1/GPa)
#
#
# Indices 1 2 3 4 5 6 
#
# 1 0.021844 0.005994 0.002416 0.000000 0.009616 0.000000
# 2 0.005994 0.013982 -0.000663 0.000000 0.005202 0.000000
# 3 0.002416 -0.000663 0.017291 0.000000 0.002517 0.000000
# 4 0.000000 0.000000 0.000000 0.028034 0.000000 0.000232
# 5 0.009616 0.005202 0.002517 0.000000 0.031581 0.000000
# 6 0.000000 0.000000 0.000000 0.000232 0.000000 0.029818
#
#
# Mechanical properties :
#
#
# Convention : Reuss Voigt Hill
#
# Bulk Modulus (GPa) = 14.57475 17.97326 16.27400
# Shear Modulus (GPa) = 33.34953 36.08966 34.71959
#
# Velocity S-wave (km/s) = 3.69670 3.84557 3.77187
# Velocity P-wave (km/s) = 4.91864 5.20411 5.06339
#
# Compressibility (1/GPa) = 0.06861181
#
# Stress axis : x y z
#
# Youngs Moduli (GPa) = 45.77967 71.51892 57.83323
#
# Poissons Ratio (x) = -0.42868 -0.13972
# Poissons Ratio (y) = -0.27440 0.03831
# Poissons Ratio (z) = -0.11060 0.04738
#
# Static dielectric constant tensor:
#      x y z
#    x 2.020260 0.000000 -0.033450 
#    y 0.000000 1.909380 0.000000 
#    z -0.033450 0.000000 1.863930 
# 
# From -- ./inp_files/49718.got.cif
#   From: 2010.05.17/outbox.cif.g08.bks.cpg/sg14_25_cif.got.tgz:49718.got - 2010.06.03 17:49:19.
