data_PCOD9252701
_publ_section_title
;
Structure prediction by ZEFSAII (Michael W. Deem and Ramdas Pophale) SiO2 
 PCOD9252701
Probable space group: P 21/C
;
_chemical_formula_sum "Si O2"
_cell_formula_units_Z 20
_cell_length_a 6.636209
_cell_length_b 11.748699
_cell_length_c 17.991897
_cell_angle_alpha 90.000000
_cell_angle_beta 45.928666
_cell_angle_gamma 90.000000
_cell_volume 1007.855053
_symmetry_space_group_name_H-M "P 21/C"
_symmetry_group_IT_number 14
_symmetry_cell_setting 'monoclinic'
loop_
_space_group_symop_operation_xyz
x,y,z
-x,1/2+y,1/2-z
-x,-y,-z
x,1/2-y,1/2+z
loop_
_atom_site_type_symbol
_atom_site_label
_atom_site_fract_x
_atom_site_fract_y
_atom_site_fract_z
Si Si1 0.063593 0.283133 0.093301
Si Si2 0.676869 0.934349 0.893999
Si Si3 0.441698 0.298677 0.716454
Si Si4 0.730771 0.921430 0.589054
Si Si5 0.190353 0.419818 0.203488
O O1 0.186930 0.171921 0.099327
O O2 0.124451 0.383699 0.136092
O O3 0.735567 0.258920 0.164306
O O4 0.225955 0.314675 0.976648
O O5 0.513976 0.883933 0.864444
O O6 0.922813 0.015035 0.802502
O O7 0.500000 0.000000 0.000000
O O8 0.305083 0.370216 0.818998
O O9 0.250783 0.194964 0.735167
O O10 0.458060 0.997214 0.641048
O O11 0.000000 0.000000 0.500000
#
# Coordination Sequence:
#
# PCOD9252701 Si02
#       5
#     4   4   4   4   4
#     4  11  25  44  68 101 133 182 230 282 342 412
#     4  11  27  43  68  99 141 181 223 283 349 400
#     4  11  26  45  67 106 134 176 240 280 334 423
#     4  12  24  44  73  97 138 184 230 287 350 405
#     4  11  25  45  68 100 138 179 229 286 341 413
#
# _framework density 19.844121999999999
#
# number of rings (size 3 to 8) (size 9 to 14) (size 15 to 20)
#    0.000    0.800    4.000    1.800    5.600    0.800 
#    0.000    0.000    0.000    0.000    0.000    0.000 
#    0.000    0.000    0.000    0.000    0.000    0.000 
#
# Total GULP energy -111797.086896 kJ/mol
# GULP energy per Si atom -5589.854345 kJ/mol
# Density = 1.979896 g / cm^3
# Si number density = 19.844122 Si / 1000 Ang^3
#
#
#
# Elastic Constant Matrix: (Units=GPa)
#
#
# Indices 1 2 3 4 5 6 
#
# 1 94.9132 22.2904 28.0405 0.0000 13.9217 0.0000
# 2 22.2904 61.9851 19.8286 0.0000 14.0146 0.0000
# 3 28.0405 19.8286 70.9404 0.0000 17.7325 0.0000
# 4 0.0000 0.0000 0.0000 51.4777 0.0000 5.3474
# 5 13.9217 14.0146 17.7325 0.0000 40.1793 0.0000
# 6 0.0000 0.0000 0.0000 5.3474 0.0000 31.9565
#
#
#
# Elastic Compliance Matrix: (Units=1/GPa)
#
#
# Indices 1 2 3 4 5 6 
#
# 1 0.012576 -0.002950 -0.003725 0.000000 -0.001684 0.000000
# 2 -0.002950 0.019160 -0.003118 0.000000 -0.004285 0.000000
# 3 -0.003725 -0.003118 0.017811 0.000000 -0.005482 0.000000
# 4 0.000000 0.000000 0.000000 0.019770 0.000000 -0.003308
# 5 -0.001684 -0.004285 -0.005482 0.000000 0.029386 0.000000
# 6 0.000000 0.000000 0.000000 -0.003308 0.000000 0.031846
#
#
# Mechanical properties :
#
#
# Convention : Reuss Voigt Hill
#
# Bulk Modulus (GPa) = 33.37827 40.90641 37.14234
# Shear Modulus (GPa) = 31.22596 35.23463 33.23029
#
# Velocity S-wave (km/s) = 3.97112 4.21832 4.09659
# Velocity P-wave (km/s) = 6.15493 6.66215 6.41356
#
# Compressibility (1/GPa) = 0.02995961
#
# Stress axis : x y z
#
# Youngs Moduli (GPa) = 79.51365 52.19194 56.14569
#
# Poissons Ratio (x) = 0.15397 0.20917
# Poissons Ratio (y) = 0.23457 0.17508
# Poissons Ratio (z) = 0.29623 0.16275
#
# Static dielectric constant tensor:
#      x y z
#    x 1.705090 0.000000 0.028050 
#    y 0.000000 1.705240 0.000000 
#    z 0.028050 0.000000 1.668610 
# 
# From -- ./inp_files/20673.got.cif
#   From: 2010.05.17/outbox.cif.g08.bks.cpg/sg14_11_cif.got.tgz:20673.got - 2010.06.03 17:49:19.
