data_PCOD9252023
_publ_section_title
;
Structure prediction by ZEFSAII (Michael W. Deem and Ramdas Pophale) SiO2 
 PCOD9252023
Probable space group: P 21/C
;
_chemical_formula_sum "Si O2"
_cell_formula_units_Z 26
_cell_length_a 8.187202
_cell_length_b 8.519084
_cell_length_c 18.077455
_cell_angle_alpha 90.000000
_cell_angle_beta 57.022312
_cell_angle_gamma 90.000000
_cell_volume 1057.710657
_symmetry_space_group_name_H-M "P 21/C"
_symmetry_group_IT_number 14
_symmetry_cell_setting 'monoclinic'
loop_
_space_group_symop_operation_xyz
x,y,z
-x,1/2+y,1/2-z
-x,-y,-z
x,1/2-y,1/2+z
loop_
_atom_site_type_symbol
_atom_site_label
_atom_site_fract_x
_atom_site_fract_y
_atom_site_fract_z
Si Si1 0.435237 0.331327 0.988417
Si Si2 0.084288 0.151190 0.148087
Si Si3 0.871614 0.856138 0.565383
Si Si4 0.281987 0.627896 0.361057
Si Si5 0.392211 0.550232 0.783593
Si Si6 0.000000 0.000000 0.000000
Si Si7 0.227712 0.670657 0.675090
O O1 0.313478 0.348925 0.943040
O O2 0.636725 0.247369 0.919540
O O3 0.500000 0.500000 0.000000
O O4 0.277781 0.248347 0.081187
O O5 0.950656 0.125703 0.105776
O O6 0.942487 0.231876 0.242288
O O7 0.137036 0.983937 0.164429
O O8 0.963419 0.684636 0.548818
O O9 0.780555 0.925456 0.662938
O O10 0.000000 0.000000 0.500000
O O11 0.403098 0.536733 0.269558
O O12 0.362392 0.802789 0.345774
O O13 0.243097 0.529637 0.443390
O O14 0.364493 0.623396 0.710108
#
# Coordination Sequence:
#
# PCOD9252023 Si02
#       7
#     4   4   4   4   4   2   4
#     4  12  26  48  71 106 152 191 246 313 366 456
#     4  11  24  46  68 101 141 194 240 297 370 442
#     4  12  24  47  72 107 146 190 248 303 380 439
#     4  11  23  41  68  99 143 181 238 297 364 435
#     4  11  24  44  69 106 143 187 244 308 369 444
#     4  12  22  42  70 102 146 184 236 312 350 446
#     4  11  25  46  70 104 146 187 250 302 362 454
#
# _framework density 24.581392000000001
#
# number of rings (size 3 to 8) (size 9 to 14) (size 15 to 20)
#    0.000    0.615    3.077    6.000    0.000    4.923 
#    2.769    0.000    0.000    0.000    0.000    0.000 
#    0.000    0.000    0.000    0.000    0.000    0.000 
#
# Total GULP energy -145087.742410 kJ/mol
# GULP energy per Si atom -5580.297785 kJ/mol
# Density = 2.452544 g / cm^3
# Si number density = 24.581392 Si / 1000 Ang^3
#
#
#
# Elastic Constant Matrix: (Units=GPa)
#
#
# Indices 1 2 3 4 5 6 
#
# 1 36.8552 43.7398 45.9020 0.0000 -3.5672 0.0000
# 2 43.7398 196.5136 100.9240 0.0000 -35.6291 0.0000
# 3 45.9020 100.9240 174.7330 0.0000 -75.9264 0.0000
# 4 0.0000 0.0000 0.0000 57.4615 0.0000 -16.7920
# 5 -3.5672 -35.6291 -75.9264 0.0000 17.4086 0.0000
# 6 0.0000 0.0000 0.0000 -16.7920 0.0000 41.8922
#
#
#
# Elastic Compliance Matrix: (Units=1/GPa)
#
#
# Indices 1 2 3 4 5 6 
#
# 1 0.026798 -0.004863 0.006892 0.000000 0.025598 0.000000
# 2 -0.004863 0.007897 -0.003694 0.000000 -0.000943 0.000000
# 3 0.006892 -0.003694 -0.003770 0.000000 -0.022589 0.000000
# 4 0.000000 0.000000 0.000000 0.019712 0.000000 0.007901
# 5 0.025598 -0.000943 -0.022589 0.000000 -0.037764 0.000000
# 6 0.000000 0.000000 0.000000 0.007901 0.000000 0.027038
#
#
# Mechanical properties :
#
#
# Convention : Reuss Voigt Hill
#
# Bulk Modulus (GPa) = 36.23638 87.69259 61.96448
# Shear Modulus (GPa) = 95.34737 37.85486 66.60111
#
# Velocity S-wave (km/s) = 6.23479 3.92852 5.21085
# Velocity P-wave (km/s) = 8.16110 7.50530 7.84006
#
# Compressibility (1/GPa) = 0.02759658
#
# Stress axis : x y z
#
# Youngs Moduli (GPa) = 37.31567 126.62911 -265.26048
#
# Poissons Ratio (x) = 0.61584 1.82828
# Poissons Ratio (y) = 0.18148 -0.97975
# Poissons Ratio (z) = -0.25719 0.46771
#
# Static dielectric constant tensor:
#      x y z
#    x 1.776970 0.000000 -0.471180 
#    y 0.000000 5.036960 0.000000 
#    z -0.471180 0.000000 1.318100 
# 
# From -- ./inp_files/64988.got.cif
#   From: 2010.05.17/outbox.cif.g08.bks.cpg/sg14_33_cif.got.tgz:64988.got - 2010.06.03 17:49:19.
