data_PCOD9252050
_publ_section_title
;
Structure prediction by ZEFSAII (Michael W. Deem and Ramdas Pophale) SiO2 
 PCOD9252050
Probable space group: P 21/C
;
_chemical_formula_sum "Si O2"
_cell_formula_units_Z 30
_cell_length_a 17.127890
_cell_length_b 5.023218
_cell_length_c 14.582488
_cell_angle_alpha 90.000000
_cell_angle_beta 107.919634
_cell_angle_gamma 90.000000
_cell_volume 1193.771762
_symmetry_space_group_name_H-M "P 21/C"
_symmetry_group_IT_number 14
_symmetry_cell_setting 'monoclinic'
loop_
_space_group_symop_operation_xyz
x,y,z
-x,1/2+y,1/2-z
-x,-y,-z
x,1/2-y,1/2+z
loop_
_atom_site_type_symbol
_atom_site_label
_atom_site_fract_x
_atom_site_fract_y
_atom_site_fract_z
Si Si1 0.004763 0.771556 0.357257
Si Si2 0.758274 0.836064 0.962615
Si Si3 0.871292 0.052359 0.411822
Si Si4 0.235407 0.875008 0.236735
Si Si5 0.415392 0.145126 0.144718
Si Si6 0.130371 0.209938 0.339933
Si Si7 0.000000 0.000000 0.000000
Si Si8 0.405562 0.648620 0.269983
O O1 0.939803 0.813463 0.254668
O O2 0.016315 0.468507 0.392182
O O3 0.942537 0.823466 0.426189
O O4 0.080916 0.961500 0.369797
O O5 0.797118 0.555223 0.945109
O O6 0.761535 0.994797 0.865728
O O7 0.661938 0.823546 0.949941
O O8 0.815290 0.891253 0.071200
O O9 0.830502 0.141800 0.302450
O O10 0.919120 0.302420 0.466697
O O11 0.199000 0.073642 0.297703
O O12 0.323232 0.745648 0.289545
O O13 0.399451 0.356162 0.222409
O O14 0.508714 0.183011 0.145192
O O15 0.413911 0.850861 0.187151
#
# Coordination Sequence:
#
# PCOD9252050 Si02
#       8
#     4   4   4   4   4   4   2   4
#     4  12  27  42  61  90 128 168 222 276 332 391
#     4  11  23  42  66  94 130 173 221 272 337 395
#     4  12  22  42  66  87 123 171 219 272 335 387
#     4  11  23  43  63  93 131 170 215 274 333 397
#     4   9  18  36  64 101 125 171 223 268 337 413
#     4  12  26  43  61  94 127 171 226 272 328 401
#     4  12  24  42  66  86 122 172 222 276 340 384
#     4   9  18  35  67  95 132 171 216 273 338 409
#
# _framework density 25.13043
#
# number of rings (size 3 to 8) (size 9 to 14) (size 15 to 20)
#    0.000    1.067    5.333    1.200    1.867    0.000 
#    2.400    0.667    0.000    0.000    0.000   11.200 
#    0.000    0.000    0.000    0.000    0.000    0.000 
#
# Total GULP energy -167149.903754 kJ/mol
# GULP energy per Si atom -5571.663458 kJ/mol
# Density = 2.507323 g / cm^3
# Si number density = 25.130430 Si / 1000 Ang^3
#
#
#
# Elastic Constant Matrix: (Units=GPa)
#
#
# Indices 1 2 3 4 5 6 
#
# 1 124.8328 17.3930 62.2083 0.0000 42.2802 0.0000
# 2 17.3930 67.7173 15.8744 0.0000 -5.0994 0.0000
# 3 62.2083 15.8744 117.0932 0.0000 23.8691 0.0000
# 4 0.0000 0.0000 0.0000 29.5088 0.0000 0.8414
# 5 42.2802 -5.0994 23.8691 0.0000 47.4308 0.0000
# 6 0.0000 0.0000 0.0000 0.8414 0.0000 36.6426
#
#
#
# Elastic Compliance Matrix: (Units=1/GPa)
#
#
# Indices 1 2 3 4 5 6 
#
# 1 0.014750 -0.003404 -0.005148 0.000000 -0.010924 0.000000
# 2 -0.003404 0.016427 -0.001557 0.000000 0.005584 0.000000
# 3 -0.005148 -0.001557 0.011795 0.000000 -0.001514 0.000000
# 4 0.000000 0.000000 0.000000 0.033910 0.000000 -0.000779
# 5 -0.010924 0.005584 -0.001514 0.000000 0.032183 0.000000
# 6 0.000000 0.000000 0.000000 -0.000779 0.000000 0.027309
#
#
# Mechanical properties :
#
#
# Convention : Reuss Voigt Hill
#
# Bulk Modulus (GPa) = 43.94829 55.62163 49.78496
# Shear Modulus (GPa) = 30.45480 36.99427 33.72453
#
# Velocity S-wave (km/s) = 3.48497 3.84095 3.66728
# Velocity P-wave (km/s) = 5.80684 6.46929 6.14699
#
# Compressibility (1/GPa) = 0.02275401
#
# Stress axis : x y z
#
# Youngs Moduli (GPa) = 67.79483 60.87494 84.78227
#
# Poissons Ratio (x) = 0.20724 0.43647
# Poissons Ratio (y) = 0.23080 0.13198
# Poissons Ratio (z) = 0.34902 0.09477
#
# Static dielectric constant tensor:
#      x y z
#    x 2.151570 0.000000 0.173500 
#    y 0.000000 7.238520 0.000000 
#    z 0.173500 0.000000 3.311360 
# 
# From -- ./inp_files/48219.got.cif
#   From: 2010.05.17/outbox.cif.g08.bks.cpg/sg14_25_cif.got.tgz:48219.got - 2010.06.03 17:49:19.
