data_PCOD9252699
_publ_section_title
;
Structure prediction by ZEFSAII (Michael W. Deem and Ramdas Pophale) SiO2 
 PCOD9252699
Probable space group: P 21/C
;
_chemical_formula_sum "Si O2"
_cell_formula_units_Z 24
_cell_length_a 11.051603
_cell_length_b 12.029390
_cell_length_c 9.027139
_cell_angle_alpha 90.000000
_cell_angle_beta 115.684754
_cell_angle_gamma 90.000000
_cell_volume 1081.524901
_symmetry_space_group_name_H-M "P 21/C"
_symmetry_group_IT_number 14
_symmetry_cell_setting 'monoclinic'
loop_
_space_group_symop_operation_xyz
x,y,z
-x,1/2+y,1/2-z
-x,-y,-z
x,1/2-y,1/2+z
loop_
_atom_site_type_symbol
_atom_site_label
_atom_site_fract_x
_atom_site_fract_y
_atom_site_fract_z
Si Si1 0.830272 0.562993 0.817460
Si Si2 0.517306 0.633603 0.019985
Si Si3 0.675381 0.744509 0.348186
Si Si4 0.876202 0.141066 0.517325
Si Si5 0.144517 0.465714 0.507463
Si Si6 0.237874 0.661262 0.734033
O O1 0.720993 0.658572 0.760469
O O2 0.852464 0.512635 0.666567
O O3 0.969620 0.619483 0.942484
O O4 0.797711 0.466696 0.916538
O O5 0.626785 0.687021 0.966014
O O6 0.376978 0.684526 0.889600
O O7 0.500000 0.500000 0.000000
O O8 0.558770 0.674245 0.205547
O O9 0.799234 0.659119 0.440289
O O10 0.867683 0.150464 0.688430
O O11 0.813947 0.246548 0.405289
O O12 0.245580 0.547044 0.647557
O O13 0.000000 0.500000 0.500000
#
# Coordination Sequence:
#
# PCOD9252699 Si02
#       6
#     4   4   4   4   4   4
#     4  11  25  44  69 107 144 191 241 310 377 445
#     4  12  26  48  73 105 153 202 250 312 367 449
#     4  12  26  46  74 107 146 195 253 303 375 447
#     4  11  25  43  71 104 145 185 245 308 372 445
#     4  12  24  45  73 106 146 189 242 314 382 444
#     4  12  24  46  71 102 141 193 244 299 372 441
#
# _framework density 22.190891000000001
#
# number of rings (size 3 to 8) (size 9 to 14) (size 15 to 20)
#    0.000    0.333    5.000    4.000    0.000    0.000 
#    0.000    2.500    0.000    0.000    0.000    0.000 
#    0.000    0.000    0.000    0.000    0.000    0.000 
#
# Total GULP energy -134191.774396 kJ/mol
# GULP energy per Si atom -5591.323933 kJ/mol
# Density = 2.214038 g / cm^3
# Si number density = 22.190891 Si / 1000 Ang^3
#
#
#
# Elastic Constant Matrix: (Units=GPa)
#
#
# Indices 1 2 3 4 5 6 
#
# 1 43.4942 25.1830 -0.4122 0.0000 -6.3635 0.0000
# 2 25.1830 131.8378 36.8515 0.0000 -19.7038 0.0000
# 3 -0.4122 36.8515 89.8406 0.0000 -6.3077 0.0000
# 4 0.0000 0.0000 0.0000 40.4711 0.0000 1.1877
# 5 -6.3635 -19.7038 -6.3077 0.0000 25.4200 0.0000
# 6 0.0000 0.0000 0.0000 1.1877 0.0000 35.6688
#
#
#
# Elastic Compliance Matrix: (Units=1/GPa)
#
#
# Indices 1 2 3 4 5 6 
#
# 1 0.026548 -0.005303 0.002519 0.000000 0.003161 0.000000
# 2 -0.005303 0.010584 -0.003952 0.000000 0.005896 0.000000
# 3 0.002519 -0.003952 0.012816 0.000000 0.000748 0.000000
# 4 0.000000 0.000000 0.000000 0.024733 0.000000 -0.000824
# 5 0.003161 0.005896 0.000748 0.000000 0.044886 0.000000
# 6 0.000000 0.000000 0.000000 -0.000824 0.000000 0.028063
#
#
# Mechanical properties :
#
#
# Convention : Reuss Voigt Hill
#
# Bulk Modulus (GPa) = 27.41501 43.15746 35.28624
# Shear Modulus (GPa) = 28.85838 33.88198 31.37018
#
# Velocity S-wave (km/s) = 3.61010 3.91172 3.76393
# Velocity P-wave (km/s) = 5.45510 6.31606 5.90130
#
# Compressibility (1/GPa) = 0.03647636
#
# Stress axis : x y z
#
# Youngs Moduli (GPa) = 37.66744 94.48472 78.02858
#
# Poissons Ratio (x) = 0.50103 -0.19654
# Poissons Ratio (y) = 0.19974 0.30835
# Poissons Ratio (z) = -0.09488 0.37338
#
# Static dielectric constant tensor:
#      x y z
#    x 1.879170 0.000000 -0.014390 
#    y 0.000000 1.820830 0.000000 
#    z -0.014390 0.000000 1.793060 
# 
# From -- ./inp_files/12498.got.cif
#   From: 2010.05.17/outbox.cif.g08.bks.cpg/sg14_7_cif.got.tgz:12498.got - 2010.06.03 17:49:19.
