data_PCOD9252970
_publ_section_title
;
Structure prediction by ZEFSAII (Michael W. Deem and Ramdas Pophale) SiO2 
 PCOD9252970
Probable space group: P 21/C
;
_chemical_formula_sum "Si O2"
_cell_formula_units_Z 20
_cell_length_a 12.375268
_cell_length_b 5.123782
_cell_length_c 19.311705
_cell_angle_alpha 90.000000
_cell_angle_beta 136.156221
_cell_angle_gamma 90.000000
_cell_volume 848.218205
_symmetry_space_group_name_H-M "P 21/C"
_symmetry_group_IT_number 14
_symmetry_cell_setting 'monoclinic'
loop_
_space_group_symop_operation_xyz
x,y,z
-x,1/2+y,1/2-z
-x,-y,-z
x,1/2-y,1/2+z
loop_
_atom_site_type_symbol
_atom_site_label
_atom_site_fract_x
_atom_site_fract_y
_atom_site_fract_z
Si Si1 0.243014 0.921667 0.381032
Si Si2 0.984205 0.078477 0.154406
Si Si3 0.442690 0.883532 0.762138
Si Si4 0.073175 0.580764 0.107258
Si Si5 0.530202 0.810295 0.949708
O O1 0.322387 0.125262 0.469593
O O2 0.374818 0.870221 0.384297
O O3 0.093192 0.023926 0.270953
O O4 0.184574 0.666452 0.395198
O O5 0.049526 0.333697 0.146173
O O6 0.995846 0.833737 0.107941
O O7 0.509788 0.606995 0.769272
O O8 0.256618 0.868464 0.682689
O O9 0.519893 0.949222 0.871755
O O10 0.000000 0.500000 0.000000
O O11 0.500000 0.000000 0.000000
#
# Coordination Sequence:
#
# PCOD9252970 Si02
#       5
#     4   4   4   4   4
#     4  11  27  46  78 114 150 198 256 334 393 459
#     4  12  26  49  76 116 154 193 256 329 398 453
#     4  12  29  52  77 108 159 206 259 315 389 467
#     4  12  28  50  76 111 157 205 256 317 389 479
#     4  11  27  49  80 111 153 205 268 320 389 471
#
# _framework density 23.578837
#
# number of rings (size 3 to 8) (size 9 to 14) (size 15 to 20)
#    0.000    0.400    2.000    4.200   14.000    0.000 
#    0.000    0.000    0.000    0.000    0.000    0.000 
#    0.000    0.000    0.000    0.000    0.000    0.000 
#
# Total GULP energy -112128.736236 kJ/mol
# GULP energy per Si atom -5606.436812 kJ/mol
# Density = 2.352517 g / cm^3
# Si number density = 23.578837 Si / 1000 Ang^3
#
#
#
# Elastic Constant Matrix: (Units=GPa)
#
#
# Indices 1 2 3 4 5 6 
#
# 1 113.9825 52.6650 46.1489 0.0000 8.2418 0.0000
# 2 52.6650 136.1940 32.8423 0.0000 13.3584 0.0000
# 3 46.1489 32.8423 142.6202 0.0000 -10.1373 0.0000
# 4 0.0000 0.0000 0.0000 43.5903 0.0000 -6.7280
# 5 8.2418 13.3584 -10.1373 0.0000 28.1330 0.0000
# 6 0.0000 0.0000 0.0000 -6.7280 0.0000 68.0939
#
#
#
# Elastic Compliance Matrix: (Units=1/GPa)
#
#
# Indices 1 2 3 4 5 6 
#
# 1 0.011946 -0.003539 -0.003264 0.000000 -0.002995 0.000000
# 2 -0.003539 0.009406 -0.001298 0.000000 -0.003897 0.000000
# 3 -0.003264 -0.001298 0.008701 0.000000 0.004708 0.000000
# 4 0.000000 0.000000 0.000000 0.023296 0.000000 0.002302
# 5 -0.002995 -0.003897 0.004708 0.000000 0.039970 0.000000
# 6 0.000000 0.000000 0.000000 0.002302 0.000000 0.014913
#
#
# Mechanical properties :
#
#
# Convention : Reuss Voigt Hill
#
# Bulk Modulus (GPa) = 72.18659 72.90100 72.54379
# Shear Modulus (GPa) = 38.74439 45.37279 42.05859
#
# Velocity S-wave (km/s) = 4.05802 4.39145 4.22802
# Velocity P-wave (km/s) = 7.25522 7.52982 7.39379
#
# Compressibility (1/GPa) = 0.01385299
#
# Stress axis : x y z
#
# Youngs Moduli (GPa) = 83.70814 106.31377 114.92693
#
# Poissons Ratio (x) = 0.37621 0.37507
# Poissons Ratio (y) = 0.29622 0.14917
# Poissons Ratio (z) = 0.27319 0.13799
#
# Static dielectric constant tensor:
#      x y z
#    x 1.906860 0.000000 0.023250 
#    y 0.000000 1.982570 0.000000 
#    z 0.023250 0.000000 1.899940 
# 
# From -- ./inp_files/56655.got.cif
#   From: 2010.05.17/outbox.cif.g08.bks.cpg/sg14_29_cif.got.tgz:56655.got - 2010.06.03 17:49:19.
