data_PCOD9252839
_publ_section_title
;
Structure prediction by ZEFSAII (Michael W. Deem and Ramdas Pophale) SiO2 
 PCOD9252839
Probable space group: P 21/C
;
_chemical_formula_sum "Si O2"
_cell_formula_units_Z 20
_cell_length_a 7.866395
_cell_length_b 5.085207
_cell_length_c 20.182950
_cell_angle_alpha 90.000000
_cell_angle_beta 58.606807
_cell_angle_gamma 90.000000
_cell_volume 689.175600
_symmetry_space_group_name_H-M "P 21/C"
_symmetry_group_IT_number 14
_symmetry_cell_setting 'monoclinic'
loop_
_space_group_symop_operation_xyz
x,y,z
-x,1/2+y,1/2-z
-x,-y,-z
x,1/2-y,1/2+z
loop_
_atom_site_type_symbol
_atom_site_label
_atom_site_fract_x
_atom_site_fract_y
_atom_site_fract_z
Si Si1 0.334372 0.849516 0.574618
Si Si2 0.024229 0.244164 0.703355
Si Si3 0.319708 0.888548 0.305620
Si Si4 0.421144 0.996043 0.875667
Si Si5 0.027629 0.235903 0.440792
O O1 0.449511 0.634511 0.595090
O O2 0.176638 0.714664 0.556795
O O3 0.500000 0.000000 0.500000
O O4 0.208415 0.079934 0.637060
O O5 0.070551 0.518466 0.729539
O O6 0.849775 0.311189 0.686815
O O7 0.479291 0.910390 0.214968
O O8 0.418281 0.811029 0.355825
O O9 0.171687 0.121765 0.353228
O O10 0.186970 0.055392 0.936796
O O11 0.000000 0.000000 0.500000
#
# Coordination Sequence:
#
# PCOD9252839 Si02
#       5
#     4   4   4   4   4
#     4  11  25  49  74 115 159 210 266 332 410 485
#     4  11  26  48  80 117 156 210 275 334 401 485
#     4  11  26  43  78 111 153 204 269 330 399 482
#     4  12  24  46  74 109 150 204 262 326 401 472
#     4  11  25  48  72 106 156 201 264 331 404 479
#
# _framework density 29.020178000000001
#
# number of rings (size 3 to 8) (size 9 to 14) (size 15 to 20)
#    0.000    0.800    6.000    0.000    5.600    2.400 
#    0.000    2.000    0.000    0.000    0.000    0.000 
#    0.000    0.000    0.000    0.000    0.000    0.000 
#
# Total GULP energy -112026.626226 kJ/mol
# GULP energy per Si atom -5601.331311 kJ/mol
# Density = 2.895413 g / cm^3
# Si number density = 29.020178 Si / 1000 Ang^3
#
#
#
# Elastic Constant Matrix: (Units=GPa)
#
#
# Indices 1 2 3 4 5 6 
#
# 1 241.8842 56.7495 70.2348 0.0000 -3.9008 0.0000
# 2 56.7495 114.3996 16.3652 0.0000 18.6430 0.0000
# 3 70.2348 16.3652 103.3798 0.0000 -14.6218 0.0000
# 4 0.0000 0.0000 0.0000 49.7989 0.0000 11.9818
# 5 -3.9008 18.6430 -14.6218 0.0000 64.6389 0.0000
# 6 0.0000 0.0000 0.0000 11.9818 0.0000 59.6134
#
#
#
# Elastic Compliance Matrix: (Units=1/GPa)
#
#
# Indices 1 2 3 4 5 6 
#
# 1 0.005700 -0.002372 -0.003462 0.000000 0.000245 0.000000
# 2 -0.002372 0.010530 -0.000522 0.000000 -0.003298 0.000000
# 3 -0.003462 -0.000522 0.012500 0.000000 0.002769 0.000000
# 4 0.000000 0.000000 0.000000 0.021101 0.000000 -0.004241
# 5 0.000245 -0.003298 0.002769 0.000000 0.017063 0.000000
# 6 0.000000 0.000000 0.000000 -0.004241 0.000000 0.017627
#
#
# Mechanical properties :
#
#
# Convention : Reuss Voigt Hill
#
# Bulk Modulus (GPa) = 62.43329 82.92920 72.68124
# Shear Modulus (GPa) = 48.74572 55.89784 52.32178
#
# Velocity S-wave (km/s) = 4.10288 4.39358 4.25072
# Velocity P-wave (km/s) = 6.63365 7.37404 7.01362
#
# Compressibility (1/GPa) = 0.01601710
#
# Stress axis : x y z
#
# Youngs Moduli (GPa) = 175.43638 94.96491 80.00249
#
# Poissons Ratio (x) = 0.22528 0.27700
# Poissons Ratio (y) = 0.41617 0.04175
# Poissons Ratio (z) = 0.60743 0.04955
#
# Static dielectric constant tensor:
#      x y z
#    x 2.358010 0.000000 0.108150 
#    y 0.000000 2.507100 0.000000 
#    z 0.108150 0.000000 2.338120 
# 
# From -- ./inp_files/64111.got.cif
#   From: 2010.05.17/outbox.cif.g08.bks.cpg/sg14_33_cif.got.tgz:64111.got - 2010.06.03 17:49:19.
