data_PCOD9252398
_publ_section_title
;
Structure prediction by ZEFSAII (Michael W. Deem and Ramdas Pophale) SiO2 
 PCOD9252398
Probable space group: P 21/C
;
_chemical_formula_sum "Si O2"
_cell_formula_units_Z 28
_cell_length_a 9.188082
_cell_length_b 5.026292
_cell_length_c 29.014420
_cell_angle_alpha 90.000000
_cell_angle_beta 51.588243
_cell_angle_gamma 90.000000
_cell_volume 1049.934108
_symmetry_space_group_name_H-M "P 21/C"
_symmetry_group_IT_number 14
_symmetry_cell_setting 'monoclinic'
loop_
_space_group_symop_operation_xyz
x,y,z
-x,1/2+y,1/2-z
-x,-y,-z
x,1/2-y,1/2+z
loop_
_atom_site_type_symbol
_atom_site_label
_atom_site_fract_x
_atom_site_fract_y
_atom_site_fract_z
Si Si1 0.546125 0.930803 0.564665
Si Si2 0.075397 0.031199 0.870843
Si Si3 0.304739 0.089007 0.100825
Si Si4 0.623092 0.588314 0.153608
Si Si5 0.952336 0.745297 0.977937
Si Si6 0.023413 0.068459 0.716547
Si Si7 0.688390 0.185934 0.732523
O O1 0.413841 0.673989 0.594066
O O2 0.592398 0.018076 0.608472
O O3 0.738206 0.811119 0.507184
O O4 0.456891 0.185148 0.555983
O O5 0.200152 0.952164 0.802801
O O6 0.860460 0.036110 0.898283
O O7 0.070042 0.789911 0.908774
O O8 0.182782 0.260109 0.876746
O O9 0.191696 0.271241 0.160132
O O10 0.458638 0.798687 0.197910
O O11 0.594878 0.397636 0.203096
O O12 0.000000 0.500000 0.000000
O O13 0.000000 0.000000 0.000000
O O14 0.932953 0.291650 0.767730
O O15 0.863214 0.002859 0.711300
#
# Coordination Sequence:
#
# PCOD9252398 Si02
#       7
#     4   4   4   4   4   4   4
#     4  12  27  48  75 107 143 190 244 298 358 438
#     4  11  27  46  72 104 146 192 238 303 365 433
#     4  11  27  46  70 107 148 188 240 294 369 431
#     4  12  24  43  72 104 142 190 245 301 358 433
#     4  12  26  49  78 110 142 186 246 304 364 426
#     4  11  24  43  67 100 146 193 235 290 359 430
#     4  11  25  40  70 102 141 186 244 294 361 429
#
# _framework density 26.668339
#
# number of rings (size 3 to 8) (size 9 to 14) (size 15 to 20)
#    0.000    0.571    2.857    4.286   10.000    2.286 
#    0.000    0.000    0.000    0.000    0.000    0.000 
#    0.000    0.000    0.000    0.000    0.000    0.000 
#
# Total GULP energy -156660.920598 kJ/mol
# GULP energy per Si atom -5595.032879 kJ/mol
# Density = 2.660764 g / cm^3
# Si number density = 26.668339 Si / 1000 Ang^3
#
#
#
# Elastic Constant Matrix: (Units=GPa)
#
#
# Indices 1 2 3 4 5 6 
#
# 1 154.0286 54.7999 10.4071 0.0000 -11.8768 0.0000
# 2 54.7999 140.5628 -4.4177 0.0000 -11.6625 0.0000
# 3 10.4071 -4.4177 66.1321 0.0000 -13.0475 0.0000
# 4 0.0000 0.0000 0.0000 20.9780 0.0000 0.1618
# 5 -11.8768 -11.6625 -13.0475 0.0000 32.4315 0.0000
# 6 0.0000 0.0000 0.0000 0.1618 0.0000 45.2289
#
#
#
# Elastic Compliance Matrix: (Units=1/GPa)
#
#
# Indices 1 2 3 4 5 6 
#
# 1 0.007715 -0.002936 -0.001153 0.000000 0.001306 0.000000
# 2 -0.002936 0.008524 0.001547 0.000000 0.002613 0.000000
# 3 -0.001153 0.001547 0.016763 0.000000 0.006878 0.000000
# 4 0.000000 0.000000 0.000000 0.047670 0.000000 -0.000171
# 5 0.001306 0.002613 0.006878 0.000000 0.035019 0.000000
# 6 0.000000 0.000000 0.000000 -0.000171 0.000000 0.022110
#
#
# Mechanical properties :
#
#
# Convention : Reuss Voigt Hill
#
# Bulk Modulus (GPa) = 35.81729 53.58913 44.70321
# Shear Modulus (GPa) = 32.85329 39.72329 36.28829
#
# Velocity S-wave (km/s) = 3.51368 3.86363 3.69280
# Velocity P-wave (km/s) = 5.47002 6.32786 5.91451
#
# Compressibility (1/GPa) = 0.02791948
#
# Stress axis : x y z
#
# Youngs Moduli (GPa) = 129.61154 117.31337 59.65533
#
# Poissons Ratio (x) = 0.34441 0.06876
# Poissons Ratio (y) = 0.38051 -0.09228
# Poissons Ratio (z) = 0.14939 -0.18147
#
# Static dielectric constant tensor:
#      x y z
#    x 2.128120 0.000000 0.002070 
#    y 0.000000 2.095570 0.000000 
#    z 0.002070 0.000000 2.145490 
# 
# From -- ./inp_files/79072.got.cif
#   From: 2010.05.17/outbox.cif.g08.bks.cpg/sg14_40_cif.got.tgz:79072.got - 2010.06.03 17:49:19.
