data_PCOD9252428
_publ_section_title
;
Structure prediction by ZEFSAII (Michael W. Deem and Ramdas Pophale) SiO2 
 PCOD9252428
Probable space group: P 21/C
;
_chemical_formula_sum "Si O2"
_cell_formula_units_Z 32
_cell_length_a 17.678478
_cell_length_b 9.971735
_cell_length_c 12.304101
_cell_angle_alpha 90.000000
_cell_angle_beta 40.210831
_cell_angle_gamma 90.000000
_cell_volume 1400.330013
_symmetry_space_group_name_H-M "P 21/C"
_symmetry_group_IT_number 14
_symmetry_cell_setting 'monoclinic'
loop_
_space_group_symop_operation_xyz
x,y,z
-x,1/2+y,1/2-z
-x,-y,-z
x,1/2-y,1/2+z
loop_
_atom_site_type_symbol
_atom_site_label
_atom_site_fract_x
_atom_site_fract_y
_atom_site_fract_z
Si Si1 0.519444 0.179138 0.424008
Si Si2 0.384030 0.580002 0.410196
Si Si3 0.268492 0.214071 0.267059
Si Si4 0.328538 0.875103 0.541909
Si Si5 0.896488 0.095439 0.071621
Si Si6 0.820693 0.579138 0.457576
Si Si7 0.035002 0.137009 0.399742
Si Si8 0.390572 0.533567 0.737107
O O1 0.554145 0.106044 0.274199
O O2 0.381819 0.213114 0.589387
O O3 0.570393 0.111183 0.477094
O O4 0.589865 0.319964 0.333552
O O5 0.328864 0.718664 0.509479
O O6 0.284942 0.469590 0.502819
O O7 0.482275 0.533020 0.386147
O O8 0.226873 0.299463 0.417217
O O9 0.154524 0.198608 0.318239
O O10 0.309727 0.067315 0.259995
O O11 0.209737 0.917038 0.728832
O O12 0.345825 0.950034 0.409691
O O13 0.937778 0.248630 0.018827
O O14 0.852229 0.040950 0.004742
O O15 0.000000 0.000000 0.000000
O O16 0.932830 0.611017 0.261034
O O17 0.000000 0.000000 0.500000
#
# Coordination Sequence:
#
# PCOD9252428 Si02
#       8
#     4   4   4   4   4   4   4   4
#     4  11  24  44  72 107 148 190 238 302 378 448
#     4  11  24  43  72 113 147 189 240 301 375 458
#     4  12  27  46  74 111 149 195 243 307 373 450
#     4  11  25  46  72 104 144 196 241 301 374 439
#     4  12  28  52  76 107 148 200 253 315 371 439
#     4  12  28  46  78 109 145 194 256 308 375 449
#     4  12  31  51  80 107 151 200 259 313 373 446
#     4  11  26  41  74 108 152 190 237 301 374 459
#
# _framework density 22.851754
#
# number of rings (size 3 to 8) (size 9 to 14) (size 15 to 20)
#    0.000    0.500    3.750    2.625   12.250    2.000 
#    0.000    0.000    0.000    0.000    0.000    0.000 
#    0.000    0.000    0.000    0.000    0.000    0.000 
#
# Total GULP energy -179404.575488 kJ/mol
# GULP energy per Si atom -5606.392984 kJ/mol
# Density = 2.279974 g / cm^3
# Si number density = 22.851754 Si / 1000 Ang^3
#
#
#
# Elastic Constant Matrix: (Units=GPa)
#
#
# Indices 1 2 3 4 5 6 
#
# 1 56.8415 -6.5578 21.6174 0.0000 -2.3350 0.0000
# 2 -6.5578 75.5175 17.4777 0.0000 -4.5122 0.0000
# 3 21.6174 17.4777 122.2198 0.0000 1.7558 0.0000
# 4 0.0000 0.0000 0.0000 45.6103 0.0000 1.0782
# 5 -2.3350 -4.5122 1.7558 0.0000 35.8711 0.0000
# 6 0.0000 0.0000 0.0000 1.0782 0.0000 45.9812
#
#
#
# Elastic Compliance Matrix: (Units=1/GPa)
#
#
# Indices 1 2 3 4 5 6 
#
# 1 0.019440 0.002686 -0.003848 0.000000 0.001792 0.000000
# 2 0.002686 0.014186 -0.002534 0.000000 0.002083 0.000000
# 3 -0.003848 -0.002534 0.009240 0.000000 -0.001021 0.000000
# 4 0.000000 0.000000 0.000000 0.021937 0.000000 -0.000514
# 5 0.001792 0.002083 -0.001021 0.000000 0.028306 0.000000
# 6 0.000000 0.000000 0.000000 -0.000514 0.000000 0.021760
#
#
# Mechanical properties :
#
#
# Convention : Reuss Voigt Hill
#
# Bulk Modulus (GPa) = 28.19013 35.51703 31.85358
# Shear Modulus (GPa) = 37.28970 40.29528 38.79249
#
# Velocity S-wave (km/s) = 4.04395 4.20376 4.12463
# Velocity P-wave (km/s) = 5.84530 6.25606 6.05416
#
# Compressibility (1/GPa) = 0.03547341
#
# Stress axis : x y z
#
# Youngs Moduli (GPa) = 51.44098 70.49177 108.22965
#
# Poissons Ratio (x) = -0.18933 0.41649
# Poissons Ratio (y) = -0.13816 0.27421
# Poissons Ratio (z) = 0.19795 0.17860
#
# Static dielectric constant tensor:
#      x y z
#    x 1.857710 0.000000 -0.011080 
#    y 0.000000 1.844910 0.000000 
#    z -0.011080 0.000000 1.846920 
# 
# From -- ./inp_files/33934.got.cif
#   From: 2010.05.17/outbox.cif.g08.bks.cpg/sg14_17_cif.got.tgz:33934.got - 2010.06.03 17:49:19.
