data_PCOD9252903
_publ_section_title
;
Structure prediction by ZEFSAII (Michael W. Deem and Ramdas Pophale) SiO2 
 PCOD9252903
Probable space group: P 21/C
;
_chemical_formula_sum "Si O2"
_cell_formula_units_Z 32
_cell_length_a 8.892346
_cell_length_b 27.980291
_cell_length_c 12.659236
_cell_angle_alpha 90.000000
_cell_angle_beta 148.868217
_cell_angle_gamma 90.000000
_cell_volume 1628.446659
_symmetry_space_group_name_H-M "P 21/C"
_symmetry_group_IT_number 14
_symmetry_cell_setting 'monoclinic'
loop_
_space_group_symop_operation_xyz
x,y,z
-x,1/2+y,1/2-z
-x,-y,-z
x,1/2-y,1/2+z
loop_
_atom_site_type_symbol
_atom_site_label
_atom_site_fract_x
_atom_site_fract_y
_atom_site_fract_z
Si Si1 0.211711 0.121641 0.234234
Si Si2 0.185203 0.930706 0.365963
Si Si3 0.673571 0.702921 0.368319
Si Si4 0.729884 0.847519 0.125718
Si Si5 0.985244 0.701815 0.981764
Si Si6 0.191628 0.547785 0.622574
Si Si7 0.144385 0.022646 0.483796
Si Si8 0.940360 0.374502 0.792485
O O1 0.507279 0.090849 0.412065
O O2 0.254579 0.165861 0.181931
O O3 0.135014 0.136356 0.307153
O O4 0.953547 0.088030 0.036921
O O5 0.187519 0.935126 0.241305
O O6 0.934340 0.894133 0.249569
O O7 0.144743 0.982543 0.393089
O O8 0.764424 0.679218 0.534236
O O9 0.839367 0.751876 0.445218
O O10 0.326092 0.710576 0.163856
O O11 0.825507 0.813392 0.278391
O O12 0.394596 0.862756 0.933315
O O13 0.968010 0.658046 0.053701
O O14 0.000000 0.500000 0.500000
O O15 0.522787 0.536669 0.792198
O O16 0.981704 0.070225 0.347945
O O17 0.000000 0.000000 0.500000
#
# Coordination Sequence:
#
# PCOD9252903 Si02
#       8
#     4   4   4   4   4   4   4   4
#     4  12  25  46  71 103 140 181 237 286 351 417
#     4  12  24  47  70  99 143 187 236 284 348 415
#     4  11  27  46  74 105 134 186 229 290 351 423
#     4  11  26  47  72 102 144 186 224 294 351 411
#     4  11  27  48  72 102 143 176 235 287 353 421
#     4  12  25  43  69  99 139 187 231 282 345 411
#     4  12  27  43  69 103 142 186 239 289 341 411
#     4  11  28  46  68 108 143 182 236 287 349 419
#
# _framework density 19.650628000000001
#
# number of rings (size 3 to 8) (size 9 to 14) (size 15 to 20)
#    0.000    0.500    5.000    1.875   10.500    2.500 
#    0.000    0.000    0.000    0.000    0.000    0.000 
#    0.000    0.000    0.000    0.000    0.000    0.000 
#
# Total GULP energy -179170.826373 kJ/mol
# GULP energy per Si atom -5599.088324 kJ/mol
# Density = 1.960590 g / cm^3
# Si number density = 19.650628 Si / 1000 Ang^3
#
#
#
# Elastic Constant Matrix: (Units=GPa)
#
#
# Indices 1 2 3 4 5 6 
#
# 1 104.0818 48.8074 21.6810 0.0000 -5.8176 0.0000
# 2 48.8074 124.8172 46.9066 0.0000 8.6291 0.0000
# 3 21.6810 46.9066 85.0494 0.0000 -6.6035 0.0000
# 4 0.0000 0.0000 0.0000 22.1498 0.0000 -2.9576
# 5 -5.8176 8.6291 -6.6035 0.0000 24.3038 0.0000
# 6 0.0000 0.0000 0.0000 -2.9576 0.0000 38.3672
#
#
#
# Elastic Compliance Matrix: (Units=1/GPa)
#
#
# Indices 1 2 3 4 5 6 
#
# 1 0.012281 -0.005169 0.000093 0.000000 0.004800 0.000000
# 2 -0.005169 0.012973 -0.006426 0.000000 -0.007589 0.000000
# 3 0.000093 -0.006426 0.015790 0.000000 0.006594 0.000000
# 4 0.000000 0.000000 0.000000 0.045617 0.000000 0.003516
# 5 0.004800 -0.007589 0.006594 0.000000 0.046781 0.000000
# 6 0.000000 0.000000 0.000000 0.003516 0.000000 0.026335
#
#
# Mechanical properties :
#
#
# Convention : Reuss Voigt Hill
#
# Bulk Modulus (GPa) = 55.43529 60.97095 58.20312
# Shear Modulus (GPa) = 26.48390 30.06772 28.27581
#
# Velocity S-wave (km/s) = 3.67514 3.91591 3.79743
# Velocity P-wave (km/s) = 6.80298 7.17918 6.99361
#
# Compressibility (1/GPa) = 0.01803905
#
# Stress axis : x y z
#
# Youngs Moduli (GPa) = 81.42911 77.08579 63.32954
#
# Poissons Ratio (x) = 0.39844 -0.00588
# Poissons Ratio (y) = 0.42089 0.40697
# Poissons Ratio (z) = -0.00756 0.49537
#
# Static dielectric constant tensor:
#      x y z
#    x 1.676770 0.000000 -0.005200 
#    y 0.000000 1.651170 0.000000 
#    z -0.005200 0.000000 1.669360 
# 
# From -- ./inp_files/27184.got.cif
#   From: 2010.05.17/outbox.cif.g08.bks.cpg/sg14_14_cif.got.tgz:27184.got - 2010.06.03 17:49:19.
