data_PCOD9252163
_publ_section_title
;
Structure prediction by ZEFSAII (Michael W. Deem and Ramdas Pophale) SiO2 
 PCOD9252163
Probable space group: P 21/C
;
_chemical_formula_sum "Si O2"
_cell_formula_units_Z 28
_cell_length_a 21.518760
_cell_length_b 8.262964
_cell_length_c 9.587454
_cell_angle_alpha 90.000000
_cell_angle_beta 45.079116
_cell_angle_gamma 90.000000
_cell_volume 1207.091688
_symmetry_space_group_name_H-M "P 21/C"
_symmetry_group_IT_number 14
_symmetry_cell_setting 'monoclinic'
loop_
_space_group_symop_operation_xyz
x,y,z
-x,1/2+y,1/2-z
-x,-y,-z
x,1/2-y,1/2+z
loop_
_atom_site_type_symbol
_atom_site_label
_atom_site_fract_x
_atom_site_fract_y
_atom_site_fract_z
Si Si1 0.212984 0.716214 0.179413
Si Si2 0.889084 0.366373 0.387648
Si Si3 0.387137 0.664011 0.517044
Si Si4 0.313990 0.309004 0.671316
Si Si5 0.207780 0.348771 0.103977
Si Si6 0.498213 0.825310 0.571682
Si Si7 0.957701 0.639300 0.468824
O O1 0.186025 0.854506 0.111987
O O2 0.150036 0.722168 0.413472
O O3 0.199731 0.543428 0.125571
O O4 0.311618 0.718370 0.080056
O O5 0.917433 0.540600 0.401508
O O6 0.971550 0.268453 0.195187
O O7 0.337320 0.493964 0.602157
O O8 0.428832 0.716368 0.596825
O O9 0.465460 0.661041 0.281721
O O10 0.285493 0.210537 0.581283
O O11 0.404041 0.241401 0.590536
O O12 0.234993 0.300126 0.906733
O O13 0.118550 0.284308 0.314839
O O14 0.500000 0.000000 0.500000
O O15 0.000000 0.500000 0.500000
#
# Coordination Sequence:
#
# PCOD9252163 Si02
#       7
#     4   4   4   4   4   4   4
#     4  11  24  44  66  98 135 178 224 285 338 419
#     4  11  23  44  69  97 139 176 228 284 351 409
#     4  12  25  43  71  99 138 180 234 282 347 409
#     4  12  26  44  70 102 136 183 232 289 350 408
#     4  11  25  44  67  96 141 173 232 285 348 412
#     4  12  25  45  68  99 139 183 232 284 348 417
#     4  11  25  45  69 101 141 179 231 291 350 418
#
# _framework density 23.196252000000001
#
# number of rings (size 3 to 8) (size 9 to 14) (size 15 to 20)
#    0.000    0.571    2.857    6.429    2.000    4.000 
#    0.000    0.000    0.000    0.000    0.000    0.000 
#    0.000    0.000    0.000    0.000    0.000    0.000 
#
# Total GULP energy -156850.031997 kJ/mol
# GULP energy per Si atom -5601.786857 kJ/mol
# Density = 2.314346 g / cm^3
# Si number density = 23.196252 Si / 1000 Ang^3
#
#
#
# Elastic Constant Matrix: (Units=GPa)
#
#
# Indices 1 2 3 4 5 6 
#
# 1 74.4156 10.4103 5.4614 0.0000 5.5591 0.0000
# 2 10.4103 45.6195 19.0533 0.0000 3.0010 0.0000
# 3 5.4614 19.0533 139.7821 0.0000 -0.4293 0.0000
# 4 0.0000 0.0000 0.0000 36.5085 0.0000 -6.5834
# 5 5.5591 3.0010 -0.4293 0.0000 31.4958 0.0000
# 6 0.0000 0.0000 0.0000 -6.5834 0.0000 37.1136
#
#
#
# Elastic Compliance Matrix: (Units=1/GPa)
#
#
# Indices 1 2 3 4 5 6 
#
# 1 0.014032 -0.002997 -0.000147 0.000000 -0.002193 0.000000
# 2 -0.002997 0.024045 -0.003166 0.000000 -0.001805 0.000000
# 3 -0.000147 -0.003166 0.007593 0.000000 0.000431 0.000000
# 4 0.000000 0.000000 0.000000 0.028296 0.000000 0.005019
# 5 -0.002193 -0.001805 0.000431 0.000000 0.032315 0.000000
# 6 0.000000 0.000000 0.000000 0.005019 0.000000 0.027835
#
#
# Mechanical properties :
#
#
# Convention : Reuss Voigt Hill
#
# Bulk Modulus (GPa) = 30.25577 36.62969 33.44273
# Shear Modulus (GPa) = 31.69550 36.01639 33.85595
#
# Velocity S-wave (km/s) = 3.70050 3.94468 3.82454
# Velocity P-wave (km/s) = 5.59732 6.04755 5.82679
#
# Compressibility (1/GPa) = 0.03305155
#
# Stress axis : x y z
#
# Youngs Moduli (GPa) = 71.26654 41.58811 131.70741
#
# Poissons Ratio (x) = 0.12462 0.01930
# Poissons Ratio (y) = 0.21356 0.41699
# Poissons Ratio (z) = 0.01044 0.13167
#
# Static dielectric constant tensor:
#      x y z
#    x 2.191830 0.000000 -0.005380 
#    y 0.000000 1.788930 0.000000 
#    z -0.005380 0.000000 1.812290 
# 
# From -- ./inp_files/18728.got.cif
#   From: 2010.05.17/outbox.cif.g08.bks.cpg/sg14_10_cif.got.tgz:18728.got - 2010.06.03 17:49:19.
