data_PCOD9252624
_publ_section_title
;
Structure prediction by ZEFSAII (Michael W. Deem and Ramdas Pophale) SiO2 
 PCOD9252624
Probable space group: P 21/C
;
_chemical_formula_sum "Si O2"
_cell_formula_units_Z 28
_cell_length_a 7.974235
_cell_length_b 14.620428
_cell_length_c 13.962801
_cell_angle_alpha 90.000000
_cell_angle_beta 50.576716
_cell_angle_gamma 90.000000
_cell_volume 1257.495433
_symmetry_space_group_name_H-M "P 21/C"
_symmetry_group_IT_number 14
_symmetry_cell_setting 'monoclinic'
loop_
_space_group_symop_operation_xyz
x,y,z
-x,1/2+y,1/2-z
-x,-y,-z
x,1/2-y,1/2+z
loop_
_atom_site_type_symbol
_atom_site_label
_atom_site_fract_x
_atom_site_fract_y
_atom_site_fract_z
Si Si1 0.969449 0.741442 0.979160
Si Si2 0.998910 0.566712 0.090050
Si Si3 0.345245 0.826752 0.718670
Si Si4 0.225893 0.481417 0.186191
Si Si5 0.565077 0.860558 0.824035
Si Si6 0.390330 0.298643 0.045191
Si Si7 0.928889 0.080747 0.954964
O O1 0.784489 0.700839 0.977645
O O2 0.136737 0.780326 0.839701
O O3 0.051895 0.664533 0.022915
O O4 0.938441 0.830514 0.056629
O O5 0.763766 0.572983 0.227328
O O6 0.160313 0.528583 0.110850
O O7 0.000000 0.500000 0.000000
O O8 0.519915 0.810625 0.739097
O O9 0.392365 0.789293 0.596372
O O10 0.328844 0.936865 0.711719
O O11 0.370447 0.392991 0.110318
O O12 0.013285 0.446086 0.319707
O O13 0.637781 0.787374 0.876227
O O14 0.330162 0.901160 0.940934
O O15 0.000000 0.000000 0.000000
#
# Coordination Sequence:
#
# PCOD9252624 Si02
#       7
#     4   4   4   4   4   4   4
#     4  11  24  48  71 100 151 188 239 303 366 429
#     4  12  25  48  70 106 147 187 248 301 365 441
#     4  11  25  47  67 107 141 190 241 300 363 431
#     4  12  25  46  76 102 149 192 238 306 371 426
#     4  11  25  46  73 106 141 188 248 292 362 441
#     4  12  26  45  74 108 141 192 244 299 365 439
#     4  11  25  50  70 102 147 188 239 305 361 428
#
# _framework density 22.266482
#
# number of rings (size 3 to 8) (size 9 to 14) (size 15 to 20)
#    0.000    0.571    5.714    2.143    6.000    0.571 
#    2.571    0.000    0.000    0.000    0.000    0.000 
#    0.000    0.000    0.000    0.000    0.000    0.000 
#
# Total GULP energy -156428.599169 kJ/mol
# GULP energy per Si atom -5586.735685 kJ/mol
# Density = 2.221580 g / cm^3
# Si number density = 22.266482 Si / 1000 Ang^3
#
#
#
# Elastic Constant Matrix: (Units=GPa)
#
#
# Indices 1 2 3 4 5 6 
#
# 1 42.1301 15.1605 25.0789 0.0000 15.2552 0.0000
# 2 15.1605 116.1388 39.8676 0.0000 17.0614 0.0000
# 3 25.0789 39.8676 144.9045 0.0000 20.7572 0.0000
# 4 0.0000 0.0000 0.0000 45.2908 0.0000 11.1889
# 5 15.2552 17.0614 20.7572 0.0000 32.2494 0.0000
# 6 0.0000 0.0000 0.0000 11.1889 0.0000 38.0002
#
#
#
# Elastic Compliance Matrix: (Units=1/GPa)
#
#
# Indices 1 2 3 4 5 6 
#
# 1 0.030299 -0.001124 -0.003268 0.000000 -0.011634 0.000000
# 2 -0.001124 0.009965 -0.002058 0.000000 -0.003416 0.000000
# 3 -0.003268 -0.002058 0.008433 0.000000 -0.002793 0.000000
# 4 0.000000 0.000000 0.000000 0.023812 0.000000 -0.007011
# 5 -0.011634 -0.003416 -0.002793 0.000000 0.040117 0.000000
# 6 0.000000 0.000000 0.000000 -0.007011 0.000000 0.028380
#
#
# Mechanical properties :
#
#
# Convention : Reuss Voigt Hill
#
# Bulk Modulus (GPa) = 27.93537 51.48748 39.71143
# Shear Modulus (GPa) = 30.14996 37.97918 34.06457
#
# Velocity S-wave (km/s) = 3.68374 4.13445 3.91558
# Velocity P-wave (km/s) = 5.53772 6.77976 6.18997
#
# Compressibility (1/GPa) = 0.03579691
#
# Stress axis : x y z
#
# Youngs Moduli (GPa) = 33.00485 100.34761 118.58163
#
# Poissons Ratio (x) = 0.11281 0.38752
# Poissons Ratio (y) = 0.03710 0.24403
# Poissons Ratio (z) = 0.10786 0.20651
#
# Static dielectric constant tensor:
#      x y z
#    x 1.888760 0.000000 -0.107690 
#    y 0.000000 1.846000 0.000000 
#    z -0.107690 0.000000 1.955080 
# 
# From -- ./inp_files/41132.got.cif
#   From: 2010.05.17/outbox.cif.g08.bks.cpg/sg14_21_cif.got.tgz:41132.got - 2010.06.03 17:49:19.
