data_PCOD9252240
_publ_section_title
;
Structure prediction by ZEFSAII (Michael W. Deem and Ramdas Pophale) SiO2 
 PCOD9252240
Probable space group: P 21/C
;
_chemical_formula_sum "Si O2"
_cell_formula_units_Z 20
_cell_length_a 8.994899
_cell_length_b 6.313995
_cell_length_c 17.655811
_cell_angle_alpha 90.000000
_cell_angle_beta 64.505361
_cell_angle_gamma 90.000000
_cell_volume 905.098457
_symmetry_space_group_name_H-M "P 21/C"
_symmetry_group_IT_number 14
_symmetry_cell_setting 'monoclinic'
loop_
_space_group_symop_operation_xyz
x,y,z
-x,1/2+y,1/2-z
-x,-y,-z
x,1/2-y,1/2+z
loop_
_atom_site_type_symbol
_atom_site_label
_atom_site_fract_x
_atom_site_fract_y
_atom_site_fract_z
Si Si1 0.988020 0.805930 0.943079
Si Si2 0.242085 0.436741 0.896883
Si Si3 0.585339 0.059610 0.402270
Si Si4 0.194833 0.244438 0.750621
Si Si5 0.837973 0.410406 0.344403
O O1 0.154438 0.664008 0.895574
O O2 0.907479 0.913596 0.887111
O O3 0.858991 0.642761 0.007849
O O4 0.000000 0.000000 0.000000
O O5 0.431535 0.432097 0.878533
O O6 0.223135 0.263265 0.833966
O O7 0.695278 0.259428 0.403910
O O8 0.500000 0.000000 0.500000
O O9 0.712021 0.916592 0.325043
O O10 0.240584 0.474137 0.709760
O O11 0.999234 0.217503 0.785319
#
# Coordination Sequence:
#
# PCOD9252240 Si02
#       5
#     4   4   4   4   4
#     4  11  23  45  76 105 150 196 247 303 387 455
#     4  11  27  44  73 112 147 194 251 315 380 447
#     4  12  29  49  72 111 153 192 253 318 377 446
#     4  12  26  45  74 104 148 192 249 306 373 452
#     4  12  25  46  76 105 143 200 247 300 374 455
#
# _framework density 22.097045000000001
#
# number of rings (size 3 to 8) (size 9 to 14) (size 15 to 20)
#    0.000    0.400    4.000    3.600    5.600    4.800 
#    0.000    0.000    0.000    0.000    0.000    0.000 
#    0.000    0.000    0.000    0.000    0.000    0.000 
#
# Total GULP energy -111541.878383 kJ/mol
# GULP energy per Si atom -5577.093919 kJ/mol
# Density = 2.204675 g / cm^3
# Si number density = 22.097045 Si / 1000 Ang^3
#
#
#
# Elastic Constant Matrix: (Units=GPa)
#
#
# Indices 1 2 3 4 5 6 
#
# 1 115.1200 42.7167 36.6232 0.0000 -19.4135 0.0000
# 2 42.7167 82.3791 37.6463 0.0000 -10.1352 0.0000
# 3 36.6232 37.6463 110.6945 0.0000 -0.2019 0.0000
# 4 0.0000 0.0000 0.0000 47.5100 0.0000 -2.5176
# 5 -19.4135 -10.1352 -0.2019 0.0000 37.1508 0.0000
# 6 0.0000 0.0000 0.0000 -2.5176 0.0000 33.8631
#
#
#
# Elastic Compliance Matrix: (Units=1/GPa)
#
#
# Indices 1 2 3 4 5 6 
#
# 1 0.011967 -0.004479 -0.002427 0.000000 0.005018 0.000000
# 2 -0.004479 0.016636 -0.004172 0.000000 0.002175 0.000000
# 3 -0.002427 -0.004172 0.011251 0.000000 -0.002345 0.000000
# 4 0.000000 0.000000 0.000000 0.021131 0.000000 0.001571
# 5 0.005018 0.002175 -0.002345 0.000000 0.030120 0.000000
# 6 0.000000 0.000000 0.000000 0.001571 0.000000 0.029647
#
#
# Mechanical properties :
#
#
# Convention : Reuss Voigt Hill
#
# Bulk Modulus (GPa) = 56.50134 60.24068 58.37101
# Shear Modulus (GPa) = 33.60044 36.45194 35.02619
#
# Velocity S-wave (km/s) = 3.90370 4.06597 3.98566
# Velocity P-wave (km/s) = 6.77817 7.02594 6.90317
#
# Compressibility (1/GPa) = 0.01769870
#
# Stress axis : x y z
#
# Youngs Moduli (GPa) = 83.56425 60.11229 88.87843
#
# Poissons Ratio (x) = 0.26923 0.21569
# Poissons Ratio (y) = 0.37427 0.37079
# Poissons Ratio (z) = 0.20280 0.25078
#
# Static dielectric constant tensor:
#      x y z
#    x 1.808510 0.000000 -0.016050 
#    y 0.000000 1.711530 0.000000 
#    z -0.016050 0.000000 2.114810 
# 
# From -- ./inp_files/64106.got.cif
#   From: 2010.05.17/outbox.cif.g08.bks.cpg/sg14_33_cif.got.tgz:64106.got - 2010.06.03 17:49:19.
