data_PCOD9252764
_publ_section_title
;
Structure prediction by ZEFSAII (Michael W. Deem and Ramdas Pophale) SiO2 
 PCOD9252764
Probable space group: P 21/C
;
_chemical_formula_sum "Si O2"
_cell_formula_units_Z 16
_cell_length_a 9.935369
_cell_length_b 9.179187
_cell_length_c 10.647650
_cell_angle_alpha 90.000000
_cell_angle_beta 39.306354
_cell_angle_gamma 90.000000
_cell_volume 615.128383
_symmetry_space_group_name_H-M "P 21/C"
_symmetry_group_IT_number 14
_symmetry_cell_setting 'monoclinic'
loop_
_space_group_symop_operation_xyz
x,y,z
-x,1/2+y,1/2-z
-x,-y,-z
x,1/2-y,1/2+z
loop_
_atom_site_type_symbol
_atom_site_label
_atom_site_fract_x
_atom_site_fract_y
_atom_site_fract_z
Si Si1 0.951168 0.281332 0.860334
Si Si2 0.609104 0.663001 0.563565
Si Si3 0.132293 0.871769 0.333756
Si Si4 0.441911 0.498227 0.897205
O O1 0.185696 0.346768 0.670882
O O2 0.928495 0.165236 0.764425
O O3 0.922769 0.240205 0.027061
O O4 0.761044 0.396139 0.972202
O O5 0.387620 0.619007 0.657626
O O6 0.620193 0.565442 0.678999
O O7 0.595329 0.831927 0.614082
O O8 0.000000 0.000000 0.500000
O O9 0.500000 0.500000 0.000000
#
# Coordination Sequence:
#
# PCOD9252764 Si02
#       4
#     4   4   4   4
#     4  11  25  45  79 109 153 198 256 308 385 449
#     4  11  26  48  78 108 156 195 255 319 379 451
#     4  11  26  49  73 115 152 199 257 312 385 454
#     4  11  25  49  74 113 149 202 254 308 388 451
#
# _framework density 26.010829000000001
#
# number of rings (size 3 to 8) (size 9 to 14) (size 15 to 20)
#    0.000    1.000    2.500    3.000    3.500   10.000 
#    0.000    0.000    0.000    0.000    0.000    0.000 
#    0.000    0.000    0.000    0.000    0.000    0.000 
#
# Total GULP energy -89604.886937 kJ/mol
# GULP energy per Si atom -5600.305434 kJ/mol
# Density = 2.595163 g / cm^3
# Si number density = 26.010829 Si / 1000 Ang^3
#
#
#
# Elastic Constant Matrix: (Units=GPa)
#
#
# Indices 1 2 3 4 5 6 
#
# 1 52.1599 -27.4363 5.8434 0.0000 2.0945 0.0000
# 2 -27.4363 112.5556 5.7311 0.0000 5.6562 0.0000
# 3 5.8434 5.7311 165.9824 0.0000 -1.3633 0.0000
# 4 0.0000 0.0000 0.0000 48.6318 0.0000 0.1258
# 5 2.0945 5.6562 -1.3633 0.0000 63.2215 0.0000
# 6 0.0000 0.0000 0.0000 0.1258 0.0000 35.1634
#
#
#
# Elastic Compliance Matrix: (Units=1/GPa)
#
#
# Indices 1 2 3 4 5 6 
#
# 1 0.022244 0.005535 -0.000985 0.000000 -0.001253 0.000000
# 2 0.005535 0.010319 -0.000560 0.000000 -0.001119 0.000000
# 3 -0.000985 -0.000560 0.006081 0.000000 0.000214 0.000000
# 4 0.000000 0.000000 0.000000 0.020563 0.000000 -0.000074
# 5 -0.001253 -0.001119 0.000214 0.000000 0.015964 0.000000
# 6 0.000000 0.000000 0.000000 -0.000074 0.000000 0.028439
#
#
# Mechanical properties :
#
#
# Convention : Reuss Voigt Hill
#
# Bulk Modulus (GPa) = 21.44829 33.21937 27.33383
# Shear Modulus (GPa) = 44.97663 52.50733 48.74198
#
# Velocity S-wave (km/s) = 4.16282 4.49784 4.33357
# Velocity P-wave (km/s) = 5.60082 6.30660 5.96416
#
# Compressibility (1/GPa) = 0.04662377
#
# Stress axis : x y z
#
# Youngs Moduli (GPa) = 44.95599 96.91330 164.46014
#
# Poissons Ratio (x) = -0.53644 0.16191
# Poissons Ratio (y) = -0.24884 0.09215
# Poissons Ratio (z) = 0.04426 0.05430
#
# Static dielectric constant tensor:
#      x y z
#    x 2.115400 0.000000 0.027830 
#    y 0.000000 2.248390 0.000000 
#    z 0.027830 0.000000 2.015210 
# 
# From -- ./inp_files/27689.got.cif
#   From: 2010.05.17/outbox.cif.g08.bks.cpg/sg14_14_cif.got.tgz:27689.got - 2010.06.03 17:49:19.
