data_PCOD9252227
_publ_section_title
;
Structure prediction by ZEFSAII (Michael W. Deem and Ramdas Pophale) SiO2 
 PCOD9252227
Probable space group: P 21/C
;
_chemical_formula_sum "Si O2"
_cell_formula_units_Z 24
_cell_length_a 15.178628
_cell_length_b 8.145599
_cell_length_c 15.182885
_cell_angle_alpha 90.000000
_cell_angle_beta 146.258027
_cell_angle_gamma 90.000000
_cell_volume 1042.696083
_symmetry_space_group_name_H-M "P 21/C"
_symmetry_group_IT_number 14
_symmetry_cell_setting 'monoclinic'
loop_
_space_group_symop_operation_xyz
x,y,z
-x,1/2+y,1/2-z
-x,-y,-z
x,1/2-y,1/2+z
loop_
_atom_site_type_symbol
_atom_site_label
_atom_site_fract_x
_atom_site_fract_y
_atom_site_fract_z
Si Si1 0.802289 0.563467 0.600349
Si Si2 0.816621 0.558805 0.318833
Si Si3 0.108257 0.439381 0.807778
Si Si4 0.319716 0.058875 0.818155
Si Si5 0.297456 0.570844 0.103040
Si Si6 0.403217 0.565273 0.708409
O O1 0.852407 0.751355 0.643918
O O2 0.780948 0.499325 0.681414
O O3 0.640915 0.548807 0.411470
O O4 0.921153 0.459657 0.639360
O O5 0.807500 0.497771 0.210422
O O6 0.749697 0.751132 0.254631
O O7 0.692551 0.482113 0.284122
O O8 0.000000 0.500000 0.500000
O O9 0.133295 0.543571 0.917040
O O10 0.293205 0.979686 0.700934
O O11 0.500000 0.000000 0.000000
O O12 0.409185 0.458025 0.133693
O O13 0.357909 0.753057 0.144849
#
# Coordination Sequence:
#
# PCOD9252227 Si02
#       6
#     4   4   4   4   4   4
#     4  11  23  45  72 100 146 187 246 304 377 453
#     4  11  25  47  75 107 150 197 250 314 385 462
#     4  11  25  43  72 106 142 192 246 309 377 454
#     4  11  25  47  75 107 150 197 250 313 385 463
#     4  12  27  44  72 106 140 194 248 312 381 454
#     4  12  25  46  72 100 144 189 248 308 380 453
#
# _framework density 23.017254000000001
#
# number of rings (size 3 to 8) (size 9 to 14) (size 15 to 20)
#    0.000    0.667    3.333    4.000    4.667    4.000 
#    0.000    0.000    0.000    0.000    0.000    0.000 
#    0.000    0.000    0.000    0.000    0.000    0.000 
#
# Total GULP energy -133697.744797 kJ/mol
# GULP energy per Si atom -5570.739367 kJ/mol
# Density = 2.296487 g / cm^3
# Si number density = 23.017254 Si / 1000 Ang^3
#
#
#
# Elastic Constant Matrix: (Units=GPa)
#
#
# Indices 1 2 3 4 5 6 
#
# 1 144.6914 23.2570 22.2337 0.0000 -19.0744 0.0000
# 2 23.2570 94.0175 29.3495 0.0000 -0.2126 0.0000
# 3 22.2337 29.3495 85.6137 0.0000 -28.0745 0.0000
# 4 0.0000 0.0000 0.0000 46.2231 0.0000 3.9126
# 5 -19.0744 -0.2126 -28.0745 0.0000 38.8875 0.0000
# 6 0.0000 0.0000 0.0000 3.9126 0.0000 34.3953
#
#
#
# Elastic Compliance Matrix: (Units=1/GPa)
#
#
# Indices 1 2 3 4 5 6 
#
# 1 0.007716 -0.001846 -0.000175 0.000000 0.003648 0.000000
# 2 -0.001846 0.012792 -0.005476 0.000000 -0.004789 0.000000
# 3 -0.000175 -0.005476 0.017773 0.000000 0.012715 0.000000
# 4 0.000000 0.000000 0.000000 0.021845 0.000000 -0.002485
# 5 0.003648 -0.004789 0.012715 0.000000 0.036658 0.000000
# 6 0.000000 0.000000 0.000000 -0.002485 0.000000 0.029356
#
#
# Mechanical properties :
#
#
# Convention : Reuss Voigt Hill
#
# Bulk Modulus (GPa) = 42.94288 52.66698 47.80493
# Shear Modulus (GPa) = 33.58080 40.53335 37.05707
#
# Velocity S-wave (km/s) = 3.82375 4.20098 4.01680
# Velocity P-wave (km/s) = 6.17997 6.81631 6.50593
#
# Compressibility (1/GPa) = 0.02328675
#
# Stress axis : x y z
#
# Youngs Moduli (GPa) = 129.60499 78.17634 56.26640
#
# Poissons Ratio (x) = 0.14431 0.00982
# Poissons Ratio (y) = 0.23924 0.30812
# Poissons Ratio (z) = 0.02262 0.42811
#
# Static dielectric constant tensor:
#      x y z
#    x 1.798580 0.000000 0.023380 
#    y 0.000000 1.792160 0.000000 
#    z 0.023380 0.000000 1.852850 
# 
# From -- ./inp_files/46621.got.cif
#   From: 2010.05.17/outbox.cif.g08.bks.cpg/sg14_24_cif.got.tgz:46621.got - 2010.06.03 17:49:19.
