data_PCOD9252234
_publ_section_title
;
Structure prediction by ZEFSAII (Michael W. Deem and Ramdas Pophale) SiO2 
 PCOD9252234
Probable space group: P 21/C
;
_chemical_formula_sum "Si O2"
_cell_formula_units_Z 28
_cell_length_a 25.810447
_cell_length_b 8.494918
_cell_length_c 9.728356
_cell_angle_alpha 90.000000
_cell_angle_beta 32.592412
_cell_angle_gamma 90.000000
_cell_volume 1148.968868
_symmetry_space_group_name_H-M "P 21/C"
_symmetry_group_IT_number 14
_symmetry_cell_setting 'monoclinic'
loop_
_space_group_symop_operation_xyz
x,y,z
-x,1/2+y,1/2-z
-x,-y,-z
x,1/2-y,1/2+z
loop_
_atom_site_type_symbol
_atom_site_label
_atom_site_fract_x
_atom_site_fract_y
_atom_site_fract_z
Si Si1 0.589330 0.359974 0.177772
Si Si2 0.545871 0.371045 0.996276
Si Si3 0.119371 0.133541 0.041286
Si Si4 0.268469 0.061172 0.938345
Si Si5 0.050944 0.006467 0.738047
Si Si6 0.251054 0.599934 0.763757
Si Si7 0.708081 0.597223 0.058228
O O1 0.511886 0.361519 0.228340
O O2 0.676418 0.236958 0.945890
O O3 0.634527 0.526562 0.113525
O O4 0.545262 0.288881 0.414792
O O5 0.654791 0.431456 0.777343
O O6 0.500000 0.500000 0.000000
O O7 0.091872 0.316197 0.128642
O O8 0.175555 0.067318 0.048980
O O9 0.192221 0.117419 0.748902
O O10 0.025161 0.036758 0.209693
O O11 0.314863 0.233076 0.830155
O O12 0.252048 0.021447 0.134272
O O13 0.136900 0.876871 0.539755
O O14 0.000000 0.000000 0.000000
O O15 0.283354 0.523558 0.834855
#
# Coordination Sequence:
#
# PCOD9252234 Si02
#       7
#     4   4   4   4   4   4   4
#     4  11  25  47  74 104 143 188 228 282 355 425
#     4  11  26  48  74 111 141 176 234 285 355 420
#     4  12  25  44  67  96 140 188 231 296 347 409
#     4  11  23  45  73  98 138 185 232 288 354 421
#     4  12  26  43  66 101 141 178 245 294 346 404
#     4  11  24  43  69 101 136 186 234 282 348 418
#     4  12  21  45  72  98 136 187 238 275 348 422
#
# _framework density 24.369676999999999
#
# number of rings (size 3 to 8) (size 9 to 14) (size 15 to 20)
#    0.000    0.571    7.143    0.000    2.000    1.714 
#    2.571    1.429    0.000    0.000    0.000    0.000 
#    0.000    0.000    0.000    0.000    0.000    0.000 
#
# Total GULP energy -156744.479879 kJ/mol
# GULP energy per Si atom -5598.017139 kJ/mol
# Density = 2.431421 g / cm^3
# Si number density = 24.369677 Si / 1000 Ang^3
#
#
#
# Elastic Constant Matrix: (Units=GPa)
#
#
# Indices 1 2 3 4 5 6 
#
# 1 179.0554 42.4720 40.3113 0.0000 23.9482 0.0000
# 2 42.4720 56.5366 23.9639 0.0000 -5.2169 0.0000
# 3 40.3113 23.9639 86.0901 0.0000 -1.6858 0.0000
# 4 0.0000 0.0000 0.0000 38.5289 0.0000 0.3436
# 5 23.9482 -5.2169 -1.6858 0.0000 35.8078 0.0000
# 6 0.0000 0.0000 0.0000 0.3436 0.0000 51.0120
#
#
#
# Elastic Compliance Matrix: (Units=1/GPa)
#
#
# Indices 1 2 3 4 5 6 
#
# 1 0.008414 -0.005901 -0.002426 0.000000 -0.006601 0.000000
# 2 -0.005901 0.024450 -0.003899 0.000000 0.007325 0.000000
# 3 -0.002426 -0.003899 0.013871 0.000000 0.001708 0.000000
# 4 0.000000 0.000000 0.000000 0.025956 0.000000 -0.000175
# 5 -0.006601 0.007325 0.001708 0.000000 0.033489 0.000000
# 6 0.000000 0.000000 0.000000 -0.000175 0.000000 0.019604
#
#
# Mechanical properties :
#
#
# Convention : Reuss Voigt Hill
#
# Bulk Modulus (GPa) = 44.88213 59.46407 52.17310
# Shear Modulus (GPa) = 31.71301 39.39873 35.55587
#
# Velocity S-wave (km/s) = 3.61131 4.02520 3.82386
# Velocity P-wave (km/s) = 5.98715 6.78651 6.39932
#
# Compressibility (1/GPa) = 0.02228058
#
# Stress axis : x y z
#
# Youngs Moduli (GPa) = 118.85240 40.90057 72.09494
#
# Poissons Ratio (x) = 0.24137 0.17492
# Poissons Ratio (y) = 0.70139 0.28110
# Poissons Ratio (z) = 0.28837 0.15947
#
# Static dielectric constant tensor:
#      x y z
#    x 1.972010 0.000000 0.006070 
#    y 0.000000 1.917970 0.000000 
#    z 0.006070 0.000000 2.030990 
# 
# From -- ./inp_files/19702.got.cif
#   From: 2010.05.17/outbox.cif.g08.bks.cpg/sg14_10_cif.got.tgz:19702.got - 2010.06.03 17:49:19.
