data_PCOD9252954
_publ_section_title
;
Structure prediction by ZEFSAII (Michael W. Deem and Ramdas Pophale) SiO2 
 PCOD9252954
Probable space group: P 21/C
;
_chemical_formula_sum "Si O2"
_cell_formula_units_Z 20
_cell_length_a 7.622067
_cell_length_b 12.420002
_cell_length_c 8.967764
_cell_angle_alpha 90.000000
_cell_angle_beta 111.660593
_cell_angle_gamma 90.000000
_cell_volume 788.996418
_symmetry_space_group_name_H-M "P 21/C"
_symmetry_group_IT_number 14
_symmetry_cell_setting 'monoclinic'
loop_
_space_group_symop_operation_xyz
x,y,z
-x,1/2+y,1/2-z
-x,-y,-z
x,1/2-y,1/2+z
loop_
_atom_site_type_symbol
_atom_site_label
_atom_site_fract_x
_atom_site_fract_y
_atom_site_fract_z
Si Si1 0.435966 0.872085 0.904678
Si Si2 0.828676 0.504402 0.161302
Si Si3 0.749909 0.942520 0.308922
Si Si4 0.233903 0.806040 0.145609
Si Si5 0.812980 0.698660 0.389506
O O1 0.323561 0.799232 0.746423
O O2 0.653298 0.841752 0.951985
O O3 0.395457 0.993102 0.838074
O O4 0.340605 0.838246 0.028735
O O5 0.755206 0.403248 0.232552
O O6 0.825664 0.610074 0.263302
O O7 0.044434 0.479547 0.183634
O O8 0.722903 0.523107 0.972783
O O9 0.750084 0.814207 0.309801
O O10 0.015060 0.789633 0.032564
#
# Coordination Sequence:
#
# PCOD9252954 Si02
#       5
#     4   4   4   4   4
#     4  12  29  48  81 116 153 210 264 320 390 470
#     4  11  26  50  81 111 157 209 258 325 389 456
#     4  11  26  50  79 115 158 206 261 323 387 465
#     4  12  27  53  76 116 160 204 264 325 385 465
#     4  12  29  48  83 112 160 209 257 325 393 459
#
# _framework density 25.348658
#
# number of rings (size 3 to 8) (size 9 to 14) (size 15 to 20)
#    0.000    0.400    2.000    5.400    8.400    1.600 
#    0.000    0.000    0.000    0.000    0.000    0.000 
#    0.000    0.000    0.000    0.000    0.000    0.000 
#
# Total GULP energy -112496.281667 kJ/mol
# GULP energy per Si atom -5624.814083 kJ/mol
# Density = 2.529096 g / cm^3
# Si number density = 25.348658 Si / 1000 Ang^3
#
#
#
# Elastic Constant Matrix: (Units=GPa)
#
#
# Indices 1 2 3 4 5 6 
#
# 1 170.5300 42.2429 49.2648 0.0000 -13.7374 0.0000
# 2 42.2429 182.4389 48.4247 0.0000 -14.2202 0.0000
# 3 49.2648 48.4247 119.3619 0.0000 -13.3031 0.0000
# 4 0.0000 0.0000 0.0000 28.2587 0.0000 -5.4477
# 5 -13.7374 -14.2202 -13.3031 0.0000 41.9013 0.0000
# 6 0.0000 0.0000 0.0000 -5.4477 0.0000 38.3048
#
#
#
# Elastic Compliance Matrix: (Units=1/GPa)
#
#
# Indices 1 2 3 4 5 6 
#
# 1 0.006853 -0.000871 -0.002340 0.000000 0.001208 0.000000
# 2 -0.000871 0.006327 -0.002073 0.000000 0.001203 0.000000
# 3 -0.002340 -0.002073 0.010389 0.000000 0.001827 0.000000
# 4 0.000000 0.000000 0.000000 0.036385 0.000000 0.005175
# 5 0.001208 0.001203 0.001827 0.000000 0.025250 0.000000
# 6 0.000000 0.000000 0.000000 0.005175 0.000000 0.026842
#
#
# Mechanical properties :
#
#
# Convention : Reuss Voigt Hill
#
# Bulk Modulus (GPa) = 76.92848 83.57730 80.25289
# Shear Modulus (GPa) = 39.38569 43.85284 41.61926
#
# Velocity S-wave (km/s) = 3.94605 4.16382 4.05640
# Velocity P-wave (km/s) = 7.15373 7.49395 7.32581
#
# Compressibility (1/GPa) = 0.01299909
#
# Stress axis : x y z
#
# Youngs Moduli (GPa) = 145.91286 158.04951 96.25961
#
# Poissons Ratio (x) = 0.13774 0.22529
# Poissons Ratio (y) = 0.12716 0.19955
# Poissons Ratio (z) = 0.34150 0.32765
#
# Static dielectric constant tensor:
#      x y z
#    x 1.955870 0.000000 0.035400 
#    y 0.000000 1.949040 0.000000 
#    z 0.035400 0.000000 2.001870 
# 
# From -- ./inp_files/7708.got.cif
#   From: 2010.05.17/outbox.cif.g08.bks.cpg/sg14_4_cif.got.tgz:7708.got - 2010.06.03 17:49:19.
