data_PCOD9252280
_publ_section_title
;
Structure prediction by ZEFSAII (Michael W. Deem and Ramdas Pophale) SiO2 
 PCOD9252280
Probable space group: P 21/C
;
_chemical_formula_sum "Si O2"
_cell_formula_units_Z 20
_cell_length_a 8.086586
_cell_length_b 9.080525
_cell_length_c 11.628164
_cell_angle_alpha 90.000000
_cell_angle_beta 122.934603
_cell_angle_gamma 90.000000
_cell_volume 716.638652
_symmetry_space_group_name_H-M "P 21/C"
_symmetry_group_IT_number 14
_symmetry_cell_setting 'monoclinic'
loop_
_space_group_symop_operation_xyz
x,y,z
-x,1/2+y,1/2-z
-x,-y,-z
x,1/2-y,1/2+z
loop_
_atom_site_type_symbol
_atom_site_label
_atom_site_fract_x
_atom_site_fract_y
_atom_site_fract_z
Si Si1 0.888732 0.648772 0.246374
Si Si2 0.666998 0.190357 0.327587
Si Si3 0.558278 0.060458 0.644636
Si Si4 0.124913 0.227069 0.006049
Si Si5 0.694092 0.067607 0.019676
O O1 0.784396 0.493488 0.234398
O O2 0.836964 0.746455 0.340663
O O3 0.809520 0.703239 0.092953
O O4 0.124161 0.625172 0.333698
O O5 0.580812 0.030730 0.320486
O O6 0.559485 0.270250 0.180474
O O7 0.618345 0.295569 0.416788
O O8 0.900532 0.212096 0.415858
O O9 0.500000 0.000000 0.500000
O O10 0.192067 0.057980 0.011410
O O11 0.500000 0.000000 0.000000
#
# Coordination Sequence:
#
# PCOD9252280 Si02
#       5
#     4   4   4   4   4
#     4  11  25  46  75 111 164 198 273 338 401 491
#     4  11  26  48  75 112 161 208 268 333 404 488
#     4  12  28  48  78 118 163 211 276 334 409 498
#     4  11  24  47  75 114 154 211 268 335 407 483
#     4  11  23  46  76 106 153 217 265 327 411 482
#
# _framework density 27.908069000000001
#
# number of rings (size 3 to 8) (size 9 to 14) (size 15 to 20)
#    0.000    0.800    4.000    2.400   11.200    0.000 
#    0.000    2.000    0.000    0.000    0.000    0.000 
#    0.000    0.000    0.000    0.000    0.000    0.000 
#
# Total GULP energy -111827.149296 kJ/mol
# GULP energy per Si atom -5591.357465 kJ/mol
# Density = 2.784455 g / cm^3
# Si number density = 27.908069 Si / 1000 Ang^3
#
#
#
# Elastic Constant Matrix: (Units=GPa)
#
#
# Indices 1 2 3 4 5 6 
#
# 1 164.1534 44.7762 47.8483 0.0000 -0.3530 0.0000
# 2 44.7762 85.6988 -1.9154 0.0000 -7.8959 0.0000
# 3 47.8483 -1.9154 124.3446 0.0000 -10.0711 0.0000
# 4 0.0000 0.0000 0.0000 40.1875 0.0000 -1.6793
# 5 -0.3530 -7.8959 -10.0711 0.0000 53.9027 0.0000
# 6 0.0000 0.0000 0.0000 -1.6793 0.0000 30.0362
#
#
#
# Elastic Compliance Matrix: (Units=1/GPa)
#
#
# Indices 1 2 3 4 5 6 
#
# 1 0.008306 -0.004529 -0.003366 0.000000 -0.001238 0.000000
# 2 -0.004529 0.014311 0.002163 0.000000 0.002471 0.000000
# 3 -0.003366 0.002163 0.009539 0.000000 0.002077 0.000000
# 4 0.000000 0.000000 0.000000 0.024942 0.000000 0.001394
# 5 -0.001238 0.002471 0.002077 0.000000 0.019294 0.000000
# 6 0.000000 0.000000 0.000000 0.001394 0.000000 0.033371
#
#
# Mechanical properties :
#
#
# Convention : Reuss Voigt Hill
#
# Bulk Modulus (GPa) = 48.32687 61.73499 55.03093
# Shear Modulus (GPa) = 39.02492 43.72445 41.37469
#
# Velocity S-wave (km/s) = 3.74349 3.96249 3.85455
# Velocity P-wave (km/s) = 6.00325 6.56536 6.29059
#
# Compressibility (1/GPa) = 0.02069242
#
# Stress axis : x y z
#
# Youngs Moduli (GPa) = 120.39889 69.87602 104.83258
#
# Poissons Ratio (x) = 0.31646 0.35288
# Poissons Ratio (y) = 0.54527 -0.22679
# Poissons Ratio (z) = 0.40528 -0.15116
#
# Static dielectric constant tensor:
#      x y z
#    x 2.229390 0.000000 -0.064640 
#    y 0.000000 2.155130 0.000000 
#    z -0.064640 0.000000 2.243800 
# 
# From -- ./inp_files/23182.got.cif
#   From: 2010.05.17/outbox.cif.g08.bks.cpg/sg14_12_cif.got.tgz:23182.got - 2010.06.03 17:49:19.
