data_PCOD9252766
_publ_section_title
;
Structure prediction by ZEFSAII (Michael W. Deem and Ramdas Pophale) SiO2 
 PCOD9252766
Probable space group: P 21/C
;
_chemical_formula_sum "Si O2"
_cell_formula_units_Z 20
_cell_length_a 11.807050
_cell_length_b 10.229516
_cell_length_c 8.202975
_cell_angle_alpha 90.000000
_cell_angle_beta 50.400453
_cell_angle_gamma 90.000000
_cell_volume 763.397660
_symmetry_space_group_name_H-M "P 21/C"
_symmetry_group_IT_number 14
_symmetry_cell_setting 'monoclinic'
loop_
_space_group_symop_operation_xyz
x,y,z
-x,1/2+y,1/2-z
-x,-y,-z
x,1/2-y,1/2+z
loop_
_atom_site_type_symbol
_atom_site_label
_atom_site_fract_x
_atom_site_fract_y
_atom_site_fract_z
Si Si1 0.793361 0.369703 0.131501
Si Si2 0.522746 0.819322 0.910528
Si Si3 0.528836 0.537722 0.791532
Si Si4 0.057419 0.875713 0.840580
Si Si5 0.206736 0.101834 0.133572
O O1 0.628345 0.340760 0.351691
O O2 0.820057 0.399767 0.914864
O O3 0.884425 0.240623 0.099512
O O4 0.845805 0.494200 0.189416
O O5 0.502686 0.691650 0.823044
O O6 0.545917 0.941026 0.767785
O O7 0.670883 0.687098 0.383040
O O8 0.500000 0.500000 0.000000
O O9 0.301338 0.022349 0.913167
O O10 0.919153 0.830640 0.854678
O O11 0.000000 0.000000 0.000000
#
# Coordination Sequence:
#
# PCOD9252766 Si02
#       5
#     4   4   4   4   4
#     4  11  27  51  83 117 169 222 286 350 433 503
#     4  11  27  50  86 124 170 224 289 365 426 507
#     4  11  25  45  81 125 167 221 289 354 431 493
#     4  12  29  51  82 119 166 228 280 342 432 517
#     4  11  27  49  79 125 165 220 281 356 412 519
#
# _framework density 26.198665999999999
#
# number of rings (size 3 to 8) (size 9 to 14) (size 15 to 20)
#    0.000    0.800    0.000    5.400   16.800    0.000 
#    0.000    0.000    0.000    0.000    0.000    0.000 
#    0.000    0.000    0.000    0.000    0.000    0.000 
#
# Total GULP energy -111920.490128 kJ/mol
# GULP energy per Si atom -5596.024506 kJ/mol
# Density = 2.613904 g / cm^3
# Si number density = 26.198666 Si / 1000 Ang^3
#
#
#
# Elastic Constant Matrix: (Units=GPa)
#
#
# Indices 1 2 3 4 5 6 
#
# 1 156.5218 54.1467 44.2372 0.0000 8.5035 0.0000
# 2 54.1467 151.7866 63.9374 0.0000 23.1779 0.0000
# 3 44.2372 63.9374 221.1918 0.0000 27.0033 0.0000
# 4 0.0000 0.0000 0.0000 52.8009 0.0000 0.3058
# 5 8.5035 23.1779 27.0033 0.0000 31.4041 0.0000
# 6 0.0000 0.0000 0.0000 0.3058 0.0000 29.1158
#
#
#
# Elastic Compliance Matrix: (Units=1/GPa)
#
#
# Indices 1 2 3 4 5 6 
#
# 1 0.007422 -0.002357 -0.000860 0.000000 0.000470 0.000000
# 2 -0.002357 0.008755 -0.001507 0.000000 -0.004528 0.000000
# 3 -0.000860 -0.001507 0.005547 0.000000 -0.003424 0.000000
# 4 0.000000 0.000000 0.000000 0.018940 0.000000 -0.000199
# 5 0.000470 -0.004528 -0.003424 0.000000 0.038002 0.000000
# 6 0.000000 0.000000 0.000000 -0.000199 0.000000 0.034348
#
#
# Mechanical properties :
#
#
# Convention : Reuss Voigt Hill
#
# Bulk Modulus (GPa) = 81.46120 94.90475 88.18298
# Shear Modulus (GPa) = 39.50906 47.14275 43.32591
#
# Velocity S-wave (km/s) = 3.88758 4.24657 4.07104
# Velocity P-wave (km/s) = 7.16325 7.76841 7.47196
#
# Compressibility (1/GPa) = 0.01227578
#
# Stress axis : x y z
#
# Youngs Moduli (GPa) = 134.73681 114.22019 180.29140
#
# Poissons Ratio (x) = 0.26920 0.15512
# Poissons Ratio (y) = 0.31756 0.27162
# Poissons Ratio (z) = 0.11593 0.17208
#
# Static dielectric constant tensor:
#      x y z
#    x 2.185780 0.000000 -0.033160 
#    y 0.000000 2.022080 0.000000 
#    z -0.033160 0.000000 2.112450 
# 
# From -- ./inp_files/12045.got.cif
#   From: 2010.05.17/outbox.cif.g08.bks.cpg/sg14_7_cif.got.tgz:12045.got - 2010.06.03 17:49:19.
