data_PCOD9252814
_publ_section_title
;
Structure prediction by ZEFSAII (Michael W. Deem and Ramdas Pophale) SiO2 
 PCOD9252814
Probable space group: P 21/C
;
_chemical_formula_sum "Si O2"
_cell_formula_units_Z 22
_cell_length_a 7.061087
_cell_length_b 9.473801
_cell_length_c 13.410917
_cell_angle_alpha 90.000000
_cell_angle_beta 78.943109
_cell_angle_gamma 90.000000
_cell_volume 880.474591
_symmetry_space_group_name_H-M "P 21/C"
_symmetry_group_IT_number 14
_symmetry_cell_setting 'monoclinic'
loop_
_space_group_symop_operation_xyz
x,y,z
-x,1/2+y,1/2-z
-x,-y,-z
x,1/2-y,1/2+z
loop_
_atom_site_type_symbol
_atom_site_label
_atom_site_fract_x
_atom_site_fract_y
_atom_site_fract_z
Si Si1 0.903354 0.288278 0.645355
Si Si2 0.319351 0.375728 0.632946
Si Si3 0.243352 0.952736 0.665006
Si Si4 0.000000 0.500000 0.000000
Si Si5 0.348781 0.979843 0.335105
Si Si6 0.701637 0.177102 0.967133
O O1 0.833537 0.422482 0.715565
O O2 0.759967 0.161857 0.689384
O O3 0.874421 0.290856 0.528416
O O4 0.129886 0.279932 0.643508
O O5 0.358520 0.408561 0.744549
O O6 0.266676 0.527089 0.587488
O O7 0.509525 0.330678 0.553771
O O8 0.068180 0.990956 0.610395
O O9 0.311470 0.803763 0.609196
O O10 0.431669 0.048148 0.654997
O O11 0.774665 0.528752 0.057567
#
# Coordination Sequence:
#
# PCOD9252814 Si02
#       6
#     4   4   4   2   4   4
#     4  12  25  46  71 105 149 192 246 302 371 451
#     4  11  25  47  73 107 145 194 246 303 375 444
#     4  12  26  46  73 110 146 194 248 311 381 439
#     4  12  26  46  70 102 152 184 248 306 374 442
#     4  12  26  45  72 111 146 191 250 310 367 454
#     4  11  25  47  72 103 147 193 246 307 368 446
#
# _framework density 24.986523999999999
#
# number of rings (size 3 to 8) (size 9 to 14) (size 15 to 20)
#    0.000    0.364    7.273    1.091    2.545    0.000 
#    0.000    3.636    0.000    0.000    0.000    0.000 
#    0.000    0.000    0.000    0.000    0.000    0.000 
#
# Total GULP energy -122710.152556 kJ/mol
# GULP energy per Si atom -5577.734207 kJ/mol
# Density = 2.492965 g / cm^3
# Si number density = 24.986524 Si / 1000 Ang^3
#
#
#
# Elastic Constant Matrix: (Units=GPa)
#
#
# Indices 1 2 3 4 5 6 
#
# 1 167.5499 12.4333 0.5207 0.0000 3.2856 0.0000
# 2 12.4333 63.2274 0.2039 0.0000 5.0530 0.0000
# 3 0.5207 0.2039 100.6177 0.0000 -0.8187 0.0000
# 4 0.0000 0.0000 0.0000 44.8379 0.0000 -0.9209
# 5 3.2856 5.0530 -0.8187 0.0000 41.6733 0.0000
# 6 0.0000 0.0000 0.0000 -0.9209 0.0000 24.5312
#
#
#
# Elastic Compliance Matrix: (Units=1/GPa)
#
#
# Indices 1 2 3 4 5 6 
#
# 1 0.006062 -0.001165 -0.000032 0.000000 -0.000337 0.000000
# 2 -0.001165 0.016195 -0.000042 0.000000 -0.001873 0.000000
# 3 -0.000032 -0.000042 0.009941 0.000000 0.000203 0.000000
# 4 0.000000 0.000000 0.000000 0.022320 0.000000 0.000838
# 5 -0.000337 -0.001873 0.000203 0.000000 0.024254 0.000000
# 6 0.000000 0.000000 0.000000 0.000838 0.000000 0.040796
#
#
# Mechanical properties :
#
#
# Convention : Reuss Voigt Hill
#
# Bulk Modulus (GPa) = 33.64798 39.74564 36.69681
# Shear Modulus (GPa) = 37.89308 43.42428 40.65868
#
# Velocity S-wave (km/s) = 3.89850 4.17335 4.03826
# Velocity P-wave (km/s) = 5.81035 6.25810 6.03837
#
# Compressibility (1/GPa) = 0.02971947
#
# Stress axis : x y z
#
# Youngs Moduli (GPa) = 164.97491 61.74823 100.59848
#
# Poissons Ratio (x) = 0.07193 0.00319
# Poissons Ratio (y) = 0.19218 0.00423
# Poissons Ratio (z) = 0.00524 0.00259
#
# Static dielectric constant tensor:
#      x y z
#    x 2.098730 0.000000 -0.120160 
#    y 0.000000 -0.933120 0.000000 
#    z -0.120160 0.000000 2.012830 
# 
# From -- ./inp_files/36982.got.cif
#   From: 2010.05.17/outbox.cif.g08.bks.cpg/sg14_19_cif.got.tgz:36982.got - 2010.06.03 17:49:19.
