data_PCOD9252210
_publ_section_title
;
Structure prediction by ZEFSAII (Michael W. Deem and Ramdas Pophale) SiO2 
 PCOD9252210
Probable space group: P 21/C
;
_chemical_formula_sum "Si O2"
_cell_formula_units_Z 16
_cell_length_a 6.972474
_cell_length_b 7.916973
_cell_length_c 19.633123
_cell_angle_alpha 90.000000
_cell_angle_beta 138.442499
_cell_angle_gamma 90.000000
_cell_volume 718.939206
_symmetry_space_group_name_H-M "P 21/C"
_symmetry_group_IT_number 14
_symmetry_cell_setting 'monoclinic'
loop_
_space_group_symop_operation_xyz
x,y,z
-x,1/2+y,1/2-z
-x,-y,-z
x,1/2-y,1/2+z
loop_
_atom_site_type_symbol
_atom_site_label
_atom_site_fract_x
_atom_site_fract_y
_atom_site_fract_z
Si Si1 0.164540 0.317981 0.048677
Si Si2 0.423529 0.813226 0.117648
Si Si3 0.722043 0.842417 0.569958
Si Si4 0.405182 0.638435 0.252619
O O1 0.434489 0.298999 0.170047
O O2 0.273708 0.260757 0.003555
O O3 0.000000 0.500000 0.000000
O O4 0.898483 0.199525 0.998259
O O5 0.626395 0.770444 0.108053
O O6 0.460649 0.672148 0.187323
O O7 0.465012 0.984478 0.169991
O O8 0.060657 0.883288 0.670492
O O9 0.500000 0.000000 0.500000
#
# Coordination Sequence:
#
# PCOD9252210 Si02
#       4
#     4   4   4   4
#     4  11  23  45  69  99 139 179 230 292 350 414
#     4  11  25  42  69 100 139 182 232 290 347 419
#     4  11  25  41  70  99 141 184 227 287 349 412
#     4  11  26  43  71 103 139 187 234 283 355 418
#
# _framework density 22.255013999999999
#
# number of rings (size 3 to 8) (size 9 to 14) (size 15 to 20)
#    0.000    1.000    2.500    3.750    3.500    3.000 
#    0.000    0.000    0.000    0.000    0.000    0.000 
#    0.000    0.000    0.000    0.000    0.000    0.000 
#
# Total GULP energy -89198.734793 kJ/mol
# GULP energy per Si atom -5574.920925 kJ/mol
# Density = 2.220436 g / cm^3
# Si number density = 22.255014 Si / 1000 Ang^3
#
#
#
# Elastic Constant Matrix: (Units=GPa)
#
#
# Indices 1 2 3 4 5 6 
#
# 1 117.5523 -1.6161 19.1487 0.0000 -21.5533 0.0000
# 2 -1.6161 76.6377 21.2500 0.0000 -11.9767 0.0000
# 3 19.1487 21.2500 136.9682 0.0000 10.9098 0.0000
# 4 0.0000 0.0000 0.0000 46.1494 0.0000 -4.1724
# 5 -21.5533 -11.9767 10.9098 0.0000 35.5847 0.0000
# 6 0.0000 0.0000 0.0000 -4.1724 0.0000 13.0925
#
#
#
# Elastic Compliance Matrix: (Units=1/GPa)
#
#
# Indices 1 2 3 4 5 6 
#
# 1 0.010333 0.002079 -0.002379 0.000000 0.007688 0.000000
# 2 0.002079 0.015133 -0.003223 0.000000 0.007341 0.000000
# 3 -0.002379 -0.003223 0.008544 0.000000 -0.005145 0.000000
# 4 0.000000 0.000000 0.000000 0.022312 0.000000 0.007110
# 5 0.007688 0.007341 -0.005145 0.000000 0.036806 0.000000
# 6 0.000000 0.000000 0.000000 0.007110 0.000000 0.078645
#
#
# Mechanical properties :
#
#
# Convention : Reuss Voigt Hill
#
# Bulk Modulus (GPa) = 37.08913 45.41369 41.25141
# Shear Modulus (GPa) = 26.62303 38.45704 32.54004
#
# Velocity S-wave (km/s) = 3.46247 4.16145 3.82795
# Velocity P-wave (km/s) = 5.71722 6.59853 6.17362
#
# Compressibility (1/GPa) = 0.02696208
#
# Stress axis : x y z
#
# Youngs Moduli (GPa) = 96.78154 66.07997 117.04773
#
# Poissons Ratio (x) = -0.13738 0.27851
# Poissons Ratio (y) = -0.20121 0.37727
# Poissons Ratio (z) = 0.23028 0.21299
#
# Static dielectric constant tensor:
#      x y z
#    x 1.806920 0.000000 0.021820 
#    y 0.000000 1.962320 0.000000 
#    z 0.021820 0.000000 1.892290 
# 
# From -- ./inp_files/31266.got.cif
#   From: 2010.05.17/outbox.cif.g08.bks.cpg/sg14_16_cif.got.tgz:31266.got - 2010.06.03 17:49:19.
