data_PCOD9252180
_publ_section_title
;
Structure prediction by ZEFSAII (Michael W. Deem and Ramdas Pophale) SiO2 
 PCOD9252180
Probable space group: P 21/C
;
_chemical_formula_sum "Si O2"
_cell_formula_units_Z 24
_cell_length_a 18.746544
_cell_length_b 7.329954
_cell_length_c 9.163071
_cell_angle_alpha 90.000000
_cell_angle_beta 115.514204
_cell_angle_gamma 90.000000
_cell_volume 1136.319332
_symmetry_space_group_name_H-M "P 21/C"
_symmetry_group_IT_number 14
_symmetry_cell_setting 'monoclinic'
loop_
_space_group_symop_operation_xyz
x,y,z
-x,1/2+y,1/2-z
-x,-y,-z
x,1/2-y,1/2+z
loop_
_atom_site_type_symbol
_atom_site_label
_atom_site_fract_x
_atom_site_fract_y
_atom_site_fract_z
Si Si1 0.690630 0.706216 0.468585
Si Si2 0.828918 0.328897 0.041583
Si Si3 0.416396 0.582170 0.471858
Si Si4 0.201921 0.186644 0.679495
Si Si5 0.906739 0.472235 0.406344
Si Si6 0.651269 0.117430 0.410008
O O1 0.626236 0.561065 0.458449
O O2 0.768897 0.660820 0.630880
O O3 0.722044 0.720236 0.332005
O O4 0.659722 0.910442 0.471725
O O5 0.819418 0.501626 0.923217
O O6 0.871231 0.163855 0.996577
O O7 0.737746 0.290172 0.006474
O O8 0.878131 0.391165 0.225818
O O9 0.500000 0.500000 0.500000
O O10 0.368515 0.611115 0.279138
O O11 0.413851 0.770865 0.558204
O O12 0.132118 0.329767 0.612190
O O13 0.000000 0.500000 0.500000
#
# Coordination Sequence:
#
# PCOD9252180 Si02
#       6
#     4   4   4   4   4   4
#     4  11  23  44  71  97 131 177 227 267 325 400
#     4  11  25  46  70  97 131 181 224 267 330 401
#     4  12  28  43  67 102 137 172 217 283 334 387
#     4  11  23  44  71  97 131 177 227 267 325 400
#     4  12  28  43  67 102 137 172 217 283 334 387
#     4  11  25  46  70  97 131 181 224 267 330 401
#
# _framework density 21.120823999999999
#
# number of rings (size 3 to 8) (size 9 to 14) (size 15 to 20)
#    0.000    0.667    6.667    2.000    9.333    1.333 
#    0.000    0.000    0.000    0.000    0.000    0.000 
#    0.000    0.000    0.000    0.000    0.000    0.000 
#
# Total GULP energy -134243.135886 kJ/mol
# GULP energy per Si atom -5593.463995 kJ/mol
# Density = 2.107275 g / cm^3
# Si number density = 21.120824 Si / 1000 Ang^3
#
#
#
# Elastic Constant Matrix: (Units=GPa)
#
#
# Indices 1 2 3 4 5 6 
#
# 1 22.3087 14.2645 -6.1979 0.0000 13.5104 0.0000
# 2 14.2645 60.2902 -1.6109 0.0000 0.9531 0.0000
# 3 -6.1979 -1.6109 66.7183 0.0000 -8.5481 0.0000
# 4 0.0000 0.0000 0.0000 27.0030 0.0000 -10.9767
# 5 13.5104 0.9531 -8.5481 0.0000 24.1691 0.0000
# 6 0.0000 0.0000 0.0000 -10.9767 0.0000 28.1582
#
#
#
# Elastic Compliance Matrix: (Units=1/GPa)
#
#
# Indices 1 2 3 4 5 6 
#
# 1 0.086155 -0.019603 0.001528 0.000000 -0.046847 0.000000
# 2 -0.019603 0.021064 -0.000016 0.000000 0.010122 0.000000
# 3 0.001528 -0.000016 0.015734 0.000000 0.004711 0.000000
# 4 0.000000 0.000000 0.000000 0.044006 0.000000 0.017155
# 5 -0.046847 0.010122 0.004711 0.000000 0.068829 0.000000
# 6 0.000000 0.000000 0.000000 0.017155 0.000000 0.042201
#
#
# Mechanical properties :
#
#
# Convention : Reuss Voigt Hill
#
# Bulk Modulus (GPa) = 11.52438 18.02539 14.77489
# Shear Modulus (GPa) = 14.57326 25.39015 19.98170
#
# Velocity S-wave (km/s) = 2.62963 3.47095 3.07916
# Velocity P-wave (km/s) = 3.83251 4.96148 4.43308
#
# Compressibility (1/GPa) = 0.08677253
#
# Stress axis : x y z
#
# Youngs Moduli (GPa) = 11.60693 47.47452 63.55843
#
# Poissons Ratio (x) = 0.93063 -0.09712
# Poissons Ratio (y) = 0.22753 0.00099
# Poissons Ratio (z) = -0.01774 0.00074
#
# Static dielectric constant tensor:
#      x y z
#    x 1.745720 0.000000 -0.002870 
#    y 0.000000 1.769870 0.000000 
#    z -0.002870 0.000000 1.742640 
# 
# From -- ./inp_files/17477.got.cif
#   From: 2010.05.17/outbox.cif.g08.bks.cpg/sg14_9_cif.got.tgz:17477.got - 2010.06.03 17:49:19.
