data_PCOD9252179
_publ_section_title
;
Structure prediction by ZEFSAII (Michael W. Deem and Ramdas Pophale) SiO2 
 PCOD9252179
Probable space group: P 21/C
;
_chemical_formula_sum "Si O2"
_cell_formula_units_Z 20
_cell_length_a 11.655421
_cell_length_b 8.864486
_cell_length_c 9.372131
_cell_angle_alpha 90.000000
_cell_angle_beta 104.713981
_cell_angle_gamma 90.000000
_cell_volume 936.566819
_symmetry_space_group_name_H-M "P 21/C"
_symmetry_group_IT_number 14
_symmetry_cell_setting 'monoclinic'
loop_
_space_group_symop_operation_xyz
x,y,z
-x,1/2+y,1/2-z
-x,-y,-z
x,1/2-y,1/2+z
loop_
_atom_site_type_symbol
_atom_site_label
_atom_site_fract_x
_atom_site_fract_y
_atom_site_fract_z
Si Si1 0.571421 0.446168 0.383041
Si Si2 0.175052 0.618572 0.442632
Si Si3 0.189308 0.275055 0.441287
Si Si4 0.049213 0.858646 0.606661
Si Si5 0.644835 0.762044 0.273083
O O1 0.500000 0.500000 0.500000
O O2 0.686487 0.356051 0.475329
O O3 0.615808 0.590483 0.307738
O O4 0.477821 0.351206 0.262083
O O5 0.154761 0.443720 0.478335
O O6 0.098664 0.735771 0.510256
O O7 0.143839 0.621677 0.264245
O O8 0.293592 0.279771 0.359439
O O9 0.251081 0.184543 0.588458
O O10 0.069395 0.200250 0.351456
O O11 0.000000 0.000000 0.500000
#
# Coordination Sequence:
#
# PCOD9252179 Si02
#       5
#     4   4   4   4   4
#     4  11  25  45  69 102 143 178 238 289 344 412
#     4  11  25  44  68  97 142 178 229 283 343 413
#     4  11  24  45  66  97 137 181 227 283 348 410
#     4  12  26  43  71 102 138 179 232 283 347 413
#     4  11  23  44  71  96 139 181 231 291 344 411
#
# _framework density 21.354592
#
# number of rings (size 3 to 8) (size 9 to 14) (size 15 to 20)
#    0.000    0.800    4.000    4.200    2.800    5.600 
#    0.000    0.000    0.000    0.000    0.000    0.000 
#    0.000    0.000    0.000    0.000    0.000    0.000 
#
# Total GULP energy -111657.825285 kJ/mol
# GULP energy per Si atom -5582.891264 kJ/mol
# Density = 2.130599 g / cm^3
# Si number density = 21.354592 Si / 1000 Ang^3
#
#
#
# Elastic Constant Matrix: (Units=GPa)
#
#
# Indices 1 2 3 4 5 6 
#
# 1 99.9948 99.6077 61.1671 0.0000 -1.2340 0.0000
# 2 99.6077 -54.8028 -97.8723 0.0000 59.4451 0.0000
# 3 61.1671 -97.8723 -43.2331 0.0000 75.2697 0.0000
# 4 0.0000 0.0000 0.0000 27.6064 0.0000 5.4807
# 5 -1.2340 59.4451 75.2697 0.0000 18.9621 0.0000
# 6 0.0000 0.0000 0.0000 5.4807 0.0000 44.9217
#
#
#
# Elastic Compliance Matrix: (Units=1/GPa)
#
#
# Indices 1 2 3 4 5 6 
#
# 1 0.010557 -0.004860 0.006783 0.000000 -0.011002 0.000000
# 2 -0.004860 0.014044 -0.014647 0.000000 0.013797 0.000000
# 3 0.006783 -0.014647 0.012683 0.000000 -0.003987 0.000000
# 4 0.000000 0.000000 0.000000 0.037123 0.000000 -0.004529
# 5 -0.011002 0.013797 -0.003987 0.000000 0.024591 0.000000
# 6 0.000000 0.000000 0.000000 -0.004529 0.000000 0.022814
#
#
# Mechanical properties :
#
#
# Convention : Reuss Voigt Hill
#
# Bulk Modulus (GPa) = 84.48928 14.19597 49.34262
# Shear Modulus (GPa) = 33.06795 14.23514 23.65154
#
# Velocity S-wave (km/s) = 3.93939 2.58468 3.33162
# Velocity P-wave (km/s) = 7.76805 3.94583 6.16085
#
# Compressibility (1/GPa) = 0.01183582
#
# Stress axis : x y z
#
# Youngs Moduli (GPa) = 94.72718 71.20579 78.84595
#
# Poissons Ratio (x) = 0.34604 -0.53479
# Poissons Ratio (y) = 0.46034 1.15484
# Poissons Ratio (z) = -0.64250 1.04294
#
# Static dielectric constant tensor:
#      x y z
#    x 1.753630 0.000000 0.027130 
#    y 0.000000 1.791610 0.000000 
#    z 0.027130 0.000000 1.823720 
# 
# From -- ./inp_files/11775.got.cif
#   From: 2010.05.17/outbox.cif.g08.bks.cpg/sg14_6_cif.got.tgz:11775.got - 2010.06.03 17:49:19.
