data_PCOD9252980
_publ_section_title
;
Structure prediction by ZEFSAII (Michael W. Deem and Ramdas Pophale) SiO2 
 PCOD9252980
Probable space group: P 21/C
;
_chemical_formula_sum "Si O2"
_cell_formula_units_Z 12
_cell_length_a 4.830295
_cell_length_b 9.968050
_cell_length_c 13.675716
_cell_angle_alpha 90.000000
_cell_angle_beta 130.975641
_cell_angle_gamma 90.000000
_cell_volume 497.134878
_symmetry_space_group_name_H-M "P 21/C"
_symmetry_group_IT_number 14
_symmetry_cell_setting 'monoclinic'
loop_
_space_group_symop_operation_xyz
x,y,z
-x,1/2+y,1/2-z
-x,-y,-z
x,1/2-y,1/2+z
loop_
_atom_site_type_symbol
_atom_site_label
_atom_site_fract_x
_atom_site_fract_y
_atom_site_fract_z
Si Si1 0.931526 0.478125 0.122885
Si Si2 0.795999 0.602949 0.609892
Si Si3 0.207489 0.783071 0.561673
O O1 0.990730 0.462467 0.250820
O O2 0.177053 0.594909 0.131749
O O3 0.500000 0.500000 0.000000
O O4 0.019040 0.340931 0.083485
O O5 0.500000 0.500000 0.500000
O O6 0.590859 0.732501 0.608258
O O7 0.038755 0.656117 0.577512
#
# Coordination Sequence:
#
# PCOD9252980 Si02
#       3
#     4   4   4
#     4  11  27  50  78 106 150 198 237 309 374 422
#     4  12  29  46  79 109 146 190 251 300 361 443
#     4  11  27  48  73 107 150 189 243 295 373 431
#
# _framework density 24.138318000000002
#
# number of rings (size 3 to 8) (size 9 to 14) (size 15 to 20)
#    0.000    0.667    3.333    1.000   18.667    0.000 
#    0.000    0.000    0.000    0.000    0.000    0.000 
#    0.000    0.000    0.000    0.000    0.000    0.000 
#
# Total GULP energy -67196.418266 kJ/mol
# GULP energy per Si atom -5599.701522 kJ/mol
# Density = 2.408338 g / cm^3
# Si number density = 24.138318 Si / 1000 Ang^3
#
#
#
# Elastic Constant Matrix: (Units=GPa)
#
#
# Indices 1 2 3 4 5 6 
#
# 1 97.8097 7.7550 18.1100 0.0000 -14.6726 0.0000
# 2 7.7550 67.4654 50.3773 0.0000 -4.6555 0.0000
# 3 18.1100 50.3773 171.0807 0.0000 -20.7511 0.0000
# 4 0.0000 0.0000 0.0000 31.2717 0.0000 -13.6908
# 5 -14.6726 -4.6555 -20.7511 0.0000 29.0948 0.0000
# 6 0.0000 0.0000 0.0000 -13.6908 0.0000 59.1798
#
#
#
# Elastic Compliance Matrix: (Units=1/GPa)
#
#
# Indices 1 2 3 4 5 6 
#
# 1 0.011129 -0.000658 -0.000346 0.000000 0.005260 0.000000
# 2 -0.000658 0.019068 -0.005709 0.000000 -0.001353 0.000000
# 3 -0.000346 -0.005709 0.008135 0.000000 0.004714 0.000000
# 4 0.000000 0.000000 0.000000 0.035582 0.000000 0.008232
# 5 0.005260 -0.001353 0.004714 0.000000 0.040169 0.000000
# 6 0.000000 0.000000 0.000000 0.008232 0.000000 0.018802
#
#
# Mechanical properties :
#
#
# Convention : Reuss Voigt Hill
#
# Bulk Modulus (GPa) = 40.15205 54.31560 47.23383
# Shear Modulus (GPa) = 32.33894 41.25016 36.79455
#
# Velocity S-wave (km/s) = 3.66421 4.13838 3.90849
# Velocity P-wave (km/s) = 5.87981 6.73688 6.32288
#
# Compressibility (1/GPa) = 0.02490533
#
# Stress axis : x y z
#
# Youngs Moduli (GPa) = 89.85282 52.44435 122.92899
#
# Poissons Ratio (x) = 0.03449 0.04259
# Poissons Ratio (y) = 0.05909 0.70183
# Poissons Ratio (z) = 0.03113 0.29942
#
# Static dielectric constant tensor:
#      x y z
#    x 1.915690 0.000000 0.010350 
#    y 0.000000 1.860750 0.000000 
#    z 0.010350 0.000000 1.868930 
# 
# From -- ./inp_files/4835.got.cif
#   From: 2010.05.17/outbox.cif.g08.bks.cpg/sg14_3_cif.got.tgz:4835.got - 2010.06.03 17:49:19.
