data_PCOD9252973
_publ_section_title
;
Structure prediction by ZEFSAII (Michael W. Deem and Ramdas Pophale) SiO2 
 PCOD9252973
Probable space group: P 21/C
;
_chemical_formula_sum "Si O2"
_cell_formula_units_Z 20
_cell_length_a 11.748295
_cell_length_b 4.901669
_cell_length_c 21.178770
_cell_angle_alpha 90.000000
_cell_angle_beta 39.469434
_cell_angle_gamma 90.000000
_cell_volume 775.262670
_symmetry_space_group_name_H-M "P 21/C"
_symmetry_group_IT_number 14
_symmetry_cell_setting 'monoclinic'
loop_
_space_group_symop_operation_xyz
x,y,z
-x,1/2+y,1/2-z
-x,-y,-z
x,1/2-y,1/2+z
loop_
_atom_site_type_symbol
_atom_site_label
_atom_site_fract_x
_atom_site_fract_y
_atom_site_fract_z
Si Si1 0.010775 0.191424 0.365355
Si Si2 0.365772 0.482128 0.656517
Si Si3 0.529064 0.676514 0.193591
Si Si4 0.651746 0.302860 0.962163
Si Si5 0.926367 0.798535 0.977612
O O1 0.841868 0.072302 0.398916
O O2 0.948286 0.494308 0.409593
O O3 0.199006 0.195023 0.250194
O O4 0.029154 0.979902 0.416027
O O5 0.398806 0.717114 0.694165
O O6 0.318468 0.593917 0.607597
O O7 0.553677 0.327213 0.565092
O O8 0.490716 0.379856 0.238000
O O9 0.726523 0.710835 0.080818
O O10 0.500000 0.500000 0.000000
O O11 0.000000 0.000000 0.000000
#
# Coordination Sequence:
#
# PCOD9252973 Si02
#       5
#     4   4   4   4   4
#     4  12  27  46  76 107 148 189 247 301 366 435
#     4  11  27  47  72 109 142 196 244 298 376 427
#     4  12  25  45  74 104 145 190 239 300 366 434
#     4  11  27  47  75 103 151 190 248 307 356 448
#     4  12  25  47  71 109 149 188 245 300 360 439
#
# _framework density 25.797705000000001
#
# number of rings (size 3 to 8) (size 9 to 14) (size 15 to 20)
#    0.000    0.400    2.000    5.400   11.200    0.000 
#    0.000    0.000    0.000    0.000    0.000    0.000 
#    0.000    0.000    0.000    0.000    0.000    0.000 
#
# Total GULP energy -112168.577137 kJ/mol
# GULP energy per Si atom -5608.428857 kJ/mol
# Density = 2.573899 g / cm^3
# Si number density = 25.797705 Si / 1000 Ang^3
#
#
#
# Elastic Constant Matrix: (Units=GPa)
#
#
# Indices 1 2 3 4 5 6 
#
# 1 94.6559 3.7826 32.0980 0.0000 -8.2462 0.0000
# 2 3.7826 111.2054 35.4898 0.0000 3.2226 0.0000
# 3 32.0980 35.4898 191.0935 0.0000 -14.8531 0.0000
# 4 0.0000 0.0000 0.0000 23.7879 0.0000 1.8571
# 5 -8.2462 3.2226 -14.8531 0.0000 38.6110 0.0000
# 6 0.0000 0.0000 0.0000 1.8571 0.0000 39.4331
#
#
#
# Elastic Compliance Matrix: (Units=1/GPa)
#
#
# Indices 1 2 3 4 5 6 
#
# 1 0.011317 0.000138 -0.001793 0.000000 0.001716 0.000000
# 2 0.000138 0.009649 -0.001933 0.000000 -0.001520 0.000000
# 3 -0.001793 -0.001933 0.006057 0.000000 0.002108 0.000000
# 4 0.000000 0.000000 0.000000 0.042193 0.000000 -0.001987
# 5 0.001716 -0.001520 0.002108 0.000000 0.027204 0.000000
# 6 0.000000 0.000000 0.000000 -0.001987 0.000000 0.025453
#
#
# Mechanical properties :
#
#
# Convention : Reuss Voigt Hill
#
# Bulk Modulus (GPa) = 50.39024 59.96617 55.17820
# Shear Modulus (GPa) = 36.85559 42.07203 39.46381
#
# Velocity S-wave (km/s) = 3.78383 4.04275 3.91543
# Velocity P-wave (km/s) = 6.21813 6.71469 6.47117
#
# Compressibility (1/GPa) = 0.01984511
#
# Stress axis : x y z
#
# Youngs Moduli (GPa) = 88.36595 103.64119 165.09465
#
# Poissons Ratio (x) = -0.01426 0.29602
# Poissons Ratio (y) = -0.01216 0.31916
# Poissons Ratio (z) = 0.15844 0.20036
#
# Static dielectric constant tensor:
#      x y z
#    x 2.124060 0.000000 0.084290 
#    y 0.000000 2.061260 0.000000 
#    z 0.084290 0.000000 1.971500 
# 
# From -- ./inp_files/66208.got.cif
#   From: 2010.05.17/outbox.cif.g08.bks.cpg/sg14_34_cif.got.tgz:66208.got - 2010.06.03 17:49:19.
