data_PCOD9252148
_publ_section_title
;
Structure prediction by ZEFSAII (Michael W. Deem and Ramdas Pophale) SiO2 
 PCOD9252148
Probable space group: P 21/C
;
_chemical_formula_sum "Si O2"
_cell_formula_units_Z 20
_cell_length_a 11.006313
_cell_length_b 13.787698
_cell_length_c 7.850654
_cell_angle_alpha 90.000000
_cell_angle_beta 46.018841
_cell_angle_gamma 90.000000
_cell_volume 857.257741
_symmetry_space_group_name_H-M "P 21/C"
_symmetry_group_IT_number 14
_symmetry_cell_setting 'monoclinic'
loop_
_space_group_symop_operation_xyz
x,y,z
-x,1/2+y,1/2-z
-x,-y,-z
x,1/2-y,1/2+z
loop_
_atom_site_type_symbol
_atom_site_label
_atom_site_fract_x
_atom_site_fract_y
_atom_site_fract_z
Si Si1 0.937422 0.390042 0.073404
Si Si2 0.583160 0.079038 0.036820
Si Si3 0.020265 0.204318 0.850538
Si Si4 0.712992 0.421365 0.773862
Si Si5 0.363945 0.126919 0.530961
O O1 0.735700 0.376694 0.283303
O O2 0.011402 0.344220 0.174163
O O3 0.000000 0.500000 0.000000
O O4 0.989641 0.318585 0.872605
O O5 0.679069 0.038772 0.113309
O O6 0.439953 0.143442 0.267566
O O7 0.500000 0.000000 0.000000
O O8 0.208016 0.190124 0.736718
O O9 0.874351 0.147771 0.100345
O O10 0.711113 0.516344 0.891991
O O11 0.533583 0.368021 0.980094
#
# Coordination Sequence:
#
# PCOD9252148 Si02
#       5
#     4   4   4   4   4
#     4  11  26  45  64 103 136 173 229 275 338 400
#     4   9  18  37  61  91 129 164 208 275 328 382
#     4  11  23  44  66  93 137 177 218 279 333 401
#     4   8  19  37  65  99 124 168 229 260 334 399
#     4   9  18  39  64  95 129 172 220 274 324 395
#
# _framework density 23.330207000000001
#
# number of rings (size 3 to 8) (size 9 to 14) (size 15 to 20)
#    1.200    1.200    0.000    1.800    0.000    6.400 
#    7.200    0.000    0.000    0.000    0.000    0.000 
#    0.000    0.000    0.000    0.000    0.000    0.000 
#
# Total GULP energy -111445.343469 kJ/mol
# GULP energy per Si atom -5572.267173 kJ/mol
# Density = 2.327711 g / cm^3
# Si number density = 23.330207 Si / 1000 Ang^3
#
#
#
# Elastic Constant Matrix: (Units=GPa)
#
#
# Indices 1 2 3 4 5 6 
#
# 1 61.9711 28.5120 40.3626 0.0000 -15.2671 0.0000
# 2 28.5120 121.5576 67.1558 0.0000 -4.3772 0.0000
# 3 40.3626 67.1558 100.5916 0.0000 -35.3436 0.0000
# 4 0.0000 0.0000 0.0000 39.4097 0.0000 -4.4145
# 5 -15.2671 -4.3772 -35.3436 0.0000 35.4894 0.0000
# 6 0.0000 0.0000 0.0000 -4.4145 0.0000 18.9442
#
#
#
# Elastic Compliance Matrix: (Units=1/GPa)
#
#
# Indices 1 2 3 4 5 6 
#
# 1 0.021918 -0.000892 -0.007576 0.000000 0.001774 0.000000
# 2 -0.000892 0.016507 -0.015508 0.000000 -0.013792 0.000000
# 3 -0.007576 -0.015508 0.033099 0.000000 0.027792 0.000000
# 4 0.000000 0.000000 0.000000 0.026055 0.000000 0.006071
# 5 0.001774 -0.013792 0.027792 0.000000 0.054917 0.000000
# 6 0.000000 0.000000 0.000000 0.006071 0.000000 0.054201
#
#
# Mechanical properties :
#
#
# Convention : Reuss Voigt Hill
#
# Bulk Modulus (GPa) = 42.42300 61.79790 52.11045
# Shear Modulus (GPa) = 19.04710 28.64132 23.84421
#
# Velocity S-wave (km/s) = 2.86040 3.50758 3.20039
# Velocity P-wave (km/s) = 5.39744 6.55363 6.00343
#
# Compressibility (1/GPa) = 0.02357212
#
# Stress axis : x y z
#
# Youngs Moduli (GPa) = 45.62404 60.58108 30.21194
#
# Poissons Ratio (x) = 0.05401 0.22889
# Poissons Ratio (y) = 0.04068 0.46854
# Poissons Ratio (z) = 0.34566 0.93951
#
# Static dielectric constant tensor:
#      x y z
#    x 2.032220 0.000000 0.000610 
#    y 0.000000 1.890040 0.000000 
#    z 0.000610 0.000000 1.974680 
# 
# From -- ./inp_files/12720.got.cif
#   From: 2010.05.17/outbox.cif.g08.bks.cpg/sg14_7_cif.got.tgz:12720.got - 2010.06.03 17:49:19.
