data_PCOD9252362
_publ_section_title
;
Structure prediction by ZEFSAII (Michael W. Deem and Ramdas Pophale) SiO2 
 PCOD9252362
Probable space group: P 21/C
;
_chemical_formula_sum "Si O2"
_cell_formula_units_Z 16
_cell_length_a 8.390928
_cell_length_b 8.307045
_cell_length_c 17.654550
_cell_angle_alpha 90.000000
_cell_angle_beta 29.149612
_cell_angle_gamma 90.000000
_cell_volume 599.410050
_symmetry_space_group_name_H-M "P 21/C"
_symmetry_group_IT_number 14
_symmetry_cell_setting 'monoclinic'
loop_
_space_group_symop_operation_xyz
x,y,z
-x,1/2+y,1/2-z
-x,-y,-z
x,1/2-y,1/2+z
loop_
_atom_site_type_symbol
_atom_site_label
_atom_site_fract_x
_atom_site_fract_y
_atom_site_fract_z
Si Si1 0.472638 0.939366 0.840806
Si Si2 0.248279 0.322227 0.082042
Si Si3 0.390897 0.679644 0.205341
Si Si4 0.060567 0.701069 0.642080
O O1 0.419208 0.894648 0.775903
O O2 0.795878 0.840290 0.733799
O O3 0.521049 0.129957 0.828038
O O4 0.171312 0.880807 0.018010
O O5 0.982099 0.190409 0.168076
O O6 0.093139 0.395700 0.222531
O O7 0.353383 0.403591 0.959050
O O8 0.595126 0.257374 0.966294
#
# Coordination Sequence:
#
# PCOD9252362 Si02
#       4
#     4   4   4   4
#     4  11  24  42  65  95 131 170 212 261 318 381
#     4   9  21  41  64  94 126 162 210 267 321 372
#     4  11  24  42  65  95 131 170 212 261 318 381
#     4   9  21  41  64  94 126 162 210 267 321 372
#
# _framework density 26.692910999999999
#
# number of rings (size 3 to 8) (size 9 to 14) (size 15 to 20)
#    0.000    2.000    0.000    1.500    0.000   18.000 
#    0.000   15.000    0.000    0.000    0.000    0.000 
#    0.000    0.000    0.000    0.000    0.000    0.000 
#
# Total GULP energy -89558.690157 kJ/mol
# GULP energy per Si atom -5597.418135 kJ/mol
# Density = 2.663216 g / cm^3
# Si number density = 26.692911 Si / 1000 Ang^3
#
#
#
# Elastic Constant Matrix: (Units=GPa)
#
#
# Indices 1 2 3 4 5 6 
#
# 1 137.8702 41.0460 107.2573 0.0000 11.2841 0.0000
# 2 41.0460 122.8209 63.6242 0.0000 3.5242 0.0000
# 3 107.2573 63.6242 255.4272 0.0000 50.3390 0.0000
# 4 0.0000 0.0000 0.0000 28.7355 0.0000 -6.0643
# 5 11.2841 3.5242 50.3390 0.0000 72.8524 0.0000
# 6 0.0000 0.0000 0.0000 -6.0643 0.0000 34.2192
#
#
#
# Elastic Compliance Matrix: (Units=1/GPa)
#
#
# Indices 1 2 3 4 5 6 
#
# 1 0.011147 -0.001363 -0.004647 0.000000 0.001550 0.000000
# 2 -0.001363 0.009629 -0.002056 0.000000 0.001166 0.000000
# 3 -0.004647 -0.002056 0.007197 0.000000 -0.004154 0.000000
# 4 0.000000 0.000000 0.000000 0.036152 0.000000 0.006407
# 5 0.001550 0.001166 -0.004154 0.000000 0.016300 0.000000
# 6 0.000000 0.000000 0.000000 0.006407 0.000000 0.030359
#
#
# Mechanical properties :
#
#
# Convention : Reuss Voigt Hill
#
# Bulk Modulus (GPa) = 84.44549 104.44146 94.44348
# Shear Modulus (GPa) = 38.20800 47.44082 42.82441
#
# Velocity S-wave (km/s) = 3.78748 4.22036 4.00976
# Velocity P-wave (km/s) = 7.12960 7.93477 7.54294
#
# Compressibility (1/GPa) = 0.01184196
#
# Stress axis : x y z
#
# Youngs Moduli (GPa) = 89.70950 103.85357 138.94513
#
# Poissons Ratio (x) = 0.14151 0.64567
# Poissons Ratio (y) = 0.12223 0.28568
# Poissons Ratio (z) = 0.41687 0.21353
#
# Static dielectric constant tensor:
#      x y z
#    x 2.046120 0.000000 0.011320 
#    y 0.000000 2.085680 0.000000 
#    z 0.011320 0.000000 2.064180 
# 
# From -- ./inp_files/7217.got.cif
#   From: 2010.05.17/outbox.cif.g08.bks.cpg/sg14_4_cif.got.tgz:7217.got - 2010.06.03 17:49:19.
