data_PCOD9252191
_publ_section_title
;
Structure prediction by ZEFSAII (Michael W. Deem and Ramdas Pophale) SiO2 
 PCOD9252191
Probable space group: P 21/C
;
_chemical_formula_sum "Si O2"
_cell_formula_units_Z 24
_cell_length_a 4.991730
_cell_length_b 19.615120
_cell_length_c 10.565089
_cell_angle_alpha 90.000000
_cell_angle_beta 86.266405
_cell_angle_gamma 90.000000
_cell_volume 1032.268069
_symmetry_space_group_name_H-M "P 21/C"
_symmetry_group_IT_number 14
_symmetry_cell_setting 'monoclinic'
loop_
_space_group_symop_operation_xyz
x,y,z
-x,1/2+y,1/2-z
-x,-y,-z
x,1/2-y,1/2+z
loop_
_atom_site_type_symbol
_atom_site_label
_atom_site_fract_x
_atom_site_fract_y
_atom_site_fract_z
Si Si1 0.209043 0.289066 0.390927
Si Si2 0.569359 0.571763 0.057557
Si Si3 0.930090 0.333379 0.986964
Si Si4 0.903246 0.924571 0.968554
Si Si5 0.424348 0.600073 0.322424
Si Si6 0.477939 0.745215 0.857335
O O1 0.069993 0.360200 0.436272
O O2 0.383069 0.261116 0.508603
O O3 0.368946 0.297531 0.255247
O O4 0.009308 0.224937 0.384178
O O5 0.318637 0.621191 0.045663
O O6 0.571334 0.560010 0.207213
O O7 0.827332 0.613449 0.001430
O O8 0.500000 0.500000 0.000000
O O9 0.809056 0.289317 0.106748
O O10 0.590337 0.921592 0.941538
O O11 0.107846 0.908423 0.847821
O O12 0.000000 0.000000 0.000000
O O13 0.468332 0.679695 0.300443
#
# Coordination Sequence:
#
# PCOD9252191 Si02
#       6
#     4   4   4   4   4   4
#     4  11  25  44  75 108 144 189 247 302 361 437
#     4  12  27  47  71 109 146 190 244 303 374 434
#     4  12  23  46  72 106 141 188 243 299 357 439
#     4  11  25  46  69 106 143 192 239 297 366 437
#     4  11  23  44  74  96 145 194 234 303 372 426
#     4  11  23  45  73 109 140 188 246 302 359 427
#
# _framework density 23.249773999999999
#
# number of rings (size 3 to 8) (size 9 to 14) (size 15 to 20)
#    0.000    0.667    5.000    2.000    2.333    2.667 
#    3.000    0.000    0.000    0.000    0.000    0.000 
#    0.000    0.000    0.000    0.000    0.000    0.000 
#
# Total GULP energy -134021.717183 kJ/mol
# GULP energy per Si atom -5584.238216 kJ/mol
# Density = 2.319686 g / cm^3
# Si number density = 23.249774 Si / 1000 Ang^3
#
#
#
# Elastic Constant Matrix: (Units=GPa)
#
#
# Indices 1 2 3 4 5 6 
#
# 1 117.9826 25.9102 21.6394 0.0000 -18.9815 0.0000
# 2 25.9102 124.8478 12.8278 0.0000 -7.9497 0.0000
# 3 21.6394 12.8278 90.8675 0.0000 -25.9480 0.0000
# 4 0.0000 0.0000 0.0000 26.1138 0.0000 -0.8182
# 5 -18.9815 -7.9497 -25.9480 0.0000 37.6753 0.0000
# 6 0.0000 0.0000 0.0000 -0.8182 0.0000 47.8747
#
#
#
# Elastic Compliance Matrix: (Units=1/GPa)
#
#
# Indices 1 2 3 4 5 6 
#
# 1 0.009634 -0.001656 -0.000964 0.000000 0.003841 0.000000
# 2 -0.001656 0.008453 -0.000657 0.000000 0.000497 0.000000
# 3 -0.000964 -0.000657 0.013879 0.000000 0.008934 0.000000
# 4 0.000000 0.000000 0.000000 0.038315 0.000000 0.000655
# 5 0.003841 0.000497 0.008934 0.000000 0.034736 0.000000
# 6 0.000000 0.000000 0.000000 0.000655 0.000000 0.020899
#
#
# Mechanical properties :
#
#
# Convention : Reuss Voigt Hill
#
# Bulk Modulus (GPa) = 39.35174 50.49474 44.92324
# Shear Modulus (GPa) = 35.47644 40.55411 38.01527
#
# Velocity S-wave (km/s) = 3.91049 4.18099 4.04800
# Velocity P-wave (km/s) = 6.11160 6.71365 6.41969
#
# Compressibility (1/GPa) = 0.02541184
#
# Stress axis : x y z
#
# Youngs Moduli (GPa) = 103.79758 118.30761 72.05341
#
# Poissons Ratio (x) = 0.19590 0.06945
# Poissons Ratio (y) = 0.17187 0.04734
# Poissons Ratio (z) = 0.10004 0.07774
#
# Static dielectric constant tensor:
#      x y z
#    x 1.971600 0.000000 0.068930 
#    y 0.000000 1.854670 0.000000 
#    z 0.068930 0.000000 1.975650 
# 
# From -- ./inp_files/21174.got.cif
#   From: 2010.05.17/outbox.cif.g08.bks.cpg/sg14_11_cif.got.tgz:21174.got - 2010.06.03 17:49:19.
