data_PCOD9252955
_publ_section_title
;
Structure prediction by ZEFSAII (Michael W. Deem and Ramdas Pophale) SiO2 
 PCOD9252955
Probable space group: P 21/C
;
_chemical_formula_sum "Si O2"
_cell_formula_units_Z 20
_cell_length_a 5.047662
_cell_length_b 18.349037
_cell_length_c 8.448087
_cell_angle_alpha 90.000000
_cell_angle_beta 81.414373
_cell_angle_gamma 90.000000
_cell_volume 773.691244
_symmetry_space_group_name_H-M "P 21/C"
_symmetry_group_IT_number 14
_symmetry_cell_setting 'monoclinic'
loop_
_space_group_symop_operation_xyz
x,y,z
-x,1/2+y,1/2-z
-x,-y,-z
x,1/2-y,1/2+z
loop_
_atom_site_type_symbol
_atom_site_label
_atom_site_fract_x
_atom_site_fract_y
_atom_site_fract_z
Si Si1 0.799559 0.290381 0.902866
Si Si2 0.374317 0.419891 0.979897
Si Si3 0.345630 0.924569 0.014372
Si Si4 0.054541 0.850630 0.274145
Si Si5 0.869711 0.609864 0.319976
O O1 0.843520 0.203803 0.875695
O O2 0.013420 0.315333 0.754580
O O3 0.557927 0.350190 0.904610
O O4 0.869280 0.309219 0.074937
O O5 0.179539 0.430041 0.844659
O O6 0.500000 0.500000 0.000000
O O7 0.226389 0.387274 0.149639
O O8 0.236975 0.916474 0.200914
O O9 0.904604 0.076207 0.085180
O O10 0.593751 0.874740 0.935771
O O11 0.500000 0.000000 0.000000
#
# Coordination Sequence:
#
# PCOD9252955 Si02
#       5
#     4   4   4   4   4
#     4  11  26  50  80 113 163 214 271 340 413 494
#     4  11  28  51  84 119 169 216 282 341 421 495
#     4  12  28  49  81 120 169 208 277 338 409 489
#     4  11  29  48  82 121 161 219 274 343 415 502
#     4  11  26  51  80 113 167 213 275 334 410 489
#
# _framework density 25.850106
#
# number of rings (size 3 to 8) (size 9 to 14) (size 15 to 20)
#    0.000    0.800    2.000    1.800   11.200    3.200 
#    0.000    3.000    0.000    0.000    0.000    0.000 
#    0.000    0.000    0.000    0.000    0.000    0.000 
#
# Total GULP energy -111407.927986 kJ/mol
# GULP energy per Si atom -5570.396399 kJ/mol
# Density = 2.579127 g / cm^3
# Si number density = 25.850106 Si / 1000 Ang^3
#
#
#
# Elastic Constant Matrix: (Units=GPa)
#
#
# Indices 1 2 3 4 5 6 
#
# 1 155.2235 44.0106 61.7785 0.0000 -2.4988 0.0000
# 2 44.0106 106.5647 37.3971 0.0000 -8.3868 0.0000
# 3 61.7785 37.3971 152.3048 0.0000 -33.2402 0.0000
# 4 0.0000 0.0000 0.0000 61.5531 0.0000 -0.9876
# 5 -2.4988 -8.3868 -33.2402 0.0000 71.0322 0.0000
# 6 0.0000 0.0000 0.0000 -0.9876 0.0000 22.4637
#
#
#
# Elastic Compliance Matrix: (Units=1/GPa)
#
#
# Indices 1 2 3 4 5 6 
#
# 1 0.008354 -0.002477 -0.003096 0.000000 -0.001447 0.000000
# 2 -0.002477 0.011004 -0.001595 0.000000 0.000466 0.000000
# 3 -0.003096 -0.001595 0.009075 0.000000 0.003950 0.000000
# 4 0.000000 0.000000 0.000000 0.016258 0.000000 0.000715
# 5 -0.001447 0.000466 0.003950 0.000000 0.015930 0.000000
# 6 0.000000 0.000000 0.000000 0.000715 0.000000 0.044548
#
#
# Mechanical properties :
#
#
# Convention : Reuss Voigt Hill
#
# Bulk Modulus (GPa) = 70.94720 77.82949 74.38834
# Shear Modulus (GPa) = 40.25623 49.07025 44.66324
#
# Velocity S-wave (km/s) = 3.95054 4.36163 4.16116
# Velocity P-wave (km/s) = 6.95084 7.45241 7.20599
#
# Compressibility (1/GPa) = 0.01409499
#
# Stress axis : x y z
#
# Youngs Moduli (GPa) = 119.70786 90.87911 110.18878
#
# Poissons Ratio (x) = 0.22515 0.34115
# Poissons Ratio (y) = 0.29657 0.17579
# Poissons Ratio (z) = 0.37062 0.14498
#
# Static dielectric constant tensor:
#      x y z
#    x 2.027370 0.000000 0.148780 
#    y 0.000000 2.010420 0.000000 
#    z 0.148780 0.000000 1.801800 
# 
# From -- ./inp_files/5418.got.cif
#   From: 2010.05.17/outbox.cif.g08.bks.cpg/sg14_3_cif.got.tgz:5418.got - 2010.06.03 17:49:19.
