data_PCOD9252506
_publ_section_title
;
Structure prediction by ZEFSAII (Michael W. Deem and Ramdas Pophale) SiO2 
 PCOD9252506
Probable space group: P 21/C
;
_chemical_formula_sum "Si O2"
_cell_formula_units_Z 20
_cell_length_a 6.468905
_cell_length_b 8.191507
_cell_length_c 17.031819
_cell_angle_alpha 90.000000
_cell_angle_beta 69.546564
_cell_angle_gamma 90.000000
_cell_volume 845.619594
_symmetry_space_group_name_H-M "P 21/C"
_symmetry_group_IT_number 14
_symmetry_cell_setting 'monoclinic'
loop_
_space_group_symop_operation_xyz
x,y,z
-x,1/2+y,1/2-z
-x,-y,-z
x,1/2-y,1/2+z
loop_
_atom_site_type_symbol
_atom_site_label
_atom_site_fract_x
_atom_site_fract_y
_atom_site_fract_z
Si Si1 0.714604 0.116990 0.955630
Si Si2 0.703858 0.316631 0.815449
Si Si3 0.148581 0.166142 0.163208
Si Si4 0.494726 0.345973 0.205868
Si Si5 0.938668 0.163576 0.553640
O O1 0.662473 0.278990 0.911666
O O2 0.859376 0.011437 0.874971
O O3 0.857239 0.185628 0.009347
O O4 0.500000 0.000000 0.000000
O O5 0.647035 0.497353 0.794848
O O6 0.540239 0.197645 0.789322
O O7 0.952463 0.297021 0.750023
O O8 0.374311 0.195999 0.178938
O O9 0.126349 0.282100 0.089941
O O10 0.729668 0.374144 0.135509
O O11 0.000000 0.000000 0.500000
#
# Coordination Sequence:
#
# PCOD9252506 Si02
#       5
#     4   4   4   4   4
#     4  12  25  45  72 103 143 186 233 301 364 421
#     4  11  26  42  71  99 137 187 233 291 357 432
#     4  11  24  46  68  99 138 182 238 285 359 431
#     4  11  24  45  68  99 141 182 238 295 352 435
#     4  11  26  43  69 103 137 184 235 294 361 425
#
# _framework density 23.651297
#
# number of rings (size 3 to 8) (size 9 to 14) (size 15 to 20)
#    0.000    0.800    2.000    4.200    5.600    8.000 
#    0.000    0.000    0.000    0.000    0.000    0.000 
#    0.000    0.000    0.000    0.000    0.000    0.000 
#
# Total GULP energy -111847.352283 kJ/mol
# GULP energy per Si atom -5592.367614 kJ/mol
# Density = 2.359747 g / cm^3
# Si number density = 23.651297 Si / 1000 Ang^3
#
#
#
# Elastic Constant Matrix: (Units=GPa)
#
#
# Indices 1 2 3 4 5 6 
#
# 1 54.3225 -9.3982 13.5304 0.0000 10.6356 0.0000
# 2 -9.3982 67.1519 -4.6682 0.0000 -10.7969 0.0000
# 3 13.5304 -4.6682 58.5594 0.0000 3.8317 0.0000
# 4 0.0000 0.0000 0.0000 47.0338 0.0000 0.1122
# 5 10.6356 -10.7969 3.8317 0.0000 21.3768 0.0000
# 6 0.0000 0.0000 0.0000 0.1122 0.0000 39.4833
#
#
#
# Elastic Compliance Matrix: (Units=1/GPa)
#
#
# Indices 1 2 3 4 5 6 
#
# 1 0.021505 0.001215 -0.004262 0.000000 -0.009322 0.000000
# 2 0.001215 0.016310 0.000526 0.000000 0.007539 0.000000
# 3 -0.004262 0.000526 0.018160 0.000000 -0.000869 0.000000
# 4 0.000000 0.000000 0.000000 0.021261 0.000000 -0.000060
# 5 -0.009322 0.007539 -0.000869 0.000000 0.055382 0.000000
# 6 0.000000 0.000000 0.000000 -0.000060 0.000000 0.025327
#
#
# Mechanical properties :
#
#
# Convention : Reuss Voigt Hill
#
# Bulk Modulus (GPa) = 19.63339 19.88465 19.75902
# Shear Modulus (GPa) = 27.78291 33.61676 30.69984
#
# Velocity S-wave (km/s) = 3.43109 3.77417 3.60671
# Velocity P-wave (km/s) = 4.90058 5.23623 5.07119
#
# Compressibility (1/GPa) = 0.05093363
#
# Stress axis : x y z
#
# Youngs Moduli (GPa) = 46.49984 61.31057 55.06530
#
# Poissons Ratio (x) = -0.07447 0.23470
# Poissons Ratio (y) = -0.05648 -0.02898
# Poissons Ratio (z) = 0.19819 -0.03227
#
# Static dielectric constant tensor:
#      x y z
#    x 1.938520 0.000000 0.028650 
#    y 0.000000 1.996620 0.000000 
#    z 0.028650 0.000000 1.861570 
# 
# From -- ./inp_files/52656.got.cif
#   From: 2010.05.17/outbox.cif.g08.bks.cpg/sg14_27_cif.got.tgz:52656.got - 2010.06.03 17:49:19.
