data_PCOD9252483
_publ_section_title
;
Structure prediction by ZEFSAII (Michael W. Deem and Ramdas Pophale) SiO2 
 PCOD9252483
Probable space group: P 21/C
;
_chemical_formula_sum "Si O2"
_cell_formula_units_Z 20
_cell_length_a 13.343749
_cell_length_b 9.481358
_cell_length_c 8.987704
_cell_angle_alpha 90.000000
_cell_angle_beta 139.559171
_cell_angle_gamma 90.000000
_cell_volume 737.591496
_symmetry_space_group_name_H-M "P 21/C"
_symmetry_group_IT_number 14
_symmetry_cell_setting 'monoclinic'
loop_
_space_group_symop_operation_xyz
x,y,z
-x,1/2+y,1/2-z
-x,-y,-z
x,1/2-y,1/2+z
loop_
_atom_site_type_symbol
_atom_site_label
_atom_site_fract_x
_atom_site_fract_y
_atom_site_fract_z
Si Si1 0.097948 0.833525 0.010207
Si Si2 0.221682 0.056983 0.962646
Si Si3 0.708913 0.129820 0.478359
Si Si4 0.481980 0.375734 0.194791
Si Si5 0.222218 0.264712 0.210769
O O1 0.197927 0.887273 0.263227
O O2 0.088441 0.955895 0.874662
O O3 0.184122 0.704071 0.024768
O O4 0.935907 0.794099 0.897285
O O5 0.214313 0.209142 0.033736
O O6 0.375494 0.976092 0.188286
O O7 0.225380 0.081326 0.790859
O O8 0.573644 0.242976 0.364702
O O9 0.628539 0.983445 0.341290
O O10 0.375919 0.310019 0.947532
#
# Coordination Sequence:
#
# PCOD9252483 Si02
#       5
#     4   4   4   4   4
#     4  11  26  46  70 102 144 183 228 288 351 414
#     4  11  25  45  70 102 139 182 237 284 348 413
#     4  11  25  46  72 101 142 183 234 284 349 413
#     4  11  24  44  73 102 134 184 233 284 343 410
#     4  12  24  44  74  98 138 186 232 284 349 407
#
# _framework density 27.115281
#
# number of rings (size 3 to 8) (size 9 to 14) (size 15 to 20)
#    0.000    0.800    4.000    2.400    5.600    0.800 
#    7.200    5.000    0.000    0.000    0.000    0.000 
#    0.000    0.000    0.000    0.000    0.000    0.000 
#
# Total GULP energy -111967.360536 kJ/mol
# GULP energy per Si atom -5598.368027 kJ/mol
# Density = 2.705357 g / cm^3
# Si number density = 27.115281 Si / 1000 Ang^3
#
#
#
# Elastic Constant Matrix: (Units=GPa)
#
#
# Indices 1 2 3 4 5 6 
#
# 1 111.0098 8.8601 16.2521 0.0000 -6.7934 0.0000
# 2 8.8601 98.7132 5.8054 0.0000 0.5676 0.0000
# 3 16.2521 5.8054 77.5368 0.0000 9.9872 0.0000
# 4 0.0000 0.0000 0.0000 23.4624 0.0000 6.0970
# 5 -6.7934 0.5676 9.9872 0.0000 32.0950 0.0000
# 6 0.0000 0.0000 0.0000 6.0970 0.0000 53.5708
#
#
#
# Elastic Compliance Matrix: (Units=1/GPa)
#
#
# Indices 1 2 3 4 5 6 
#
# 1 0.009574 -0.000739 -0.002306 0.000000 0.002757 0.000000
# 2 -0.000739 0.010232 -0.000591 0.000000 -0.000153 0.000000
# 3 -0.002306 -0.000591 0.014049 0.000000 -0.004850 0.000000
# 4 0.000000 0.000000 0.000000 0.043920 0.000000 -0.004999
# 5 0.002757 -0.000153 -0.004850 0.000000 0.033253 0.000000
# 6 0.000000 0.000000 0.000000 -0.004999 0.000000 0.019236
#
#
# Mechanical properties :
#
#
# Convention : Reuss Voigt Hill
#
# Bulk Modulus (GPa) = 37.62104 38.78835 38.20469
# Shear Modulus (GPa) = 34.15315 38.91514 36.53415
#
# Velocity S-wave (km/s) = 3.55287 3.79248 3.67463
# Velocity P-wave (km/s) = 5.54393 5.78906 5.66782
#
# Compressibility (1/GPa) = 0.02658087
#
# Stress axis : x y z
#
# Youngs Moduli (GPa) = 104.45348 97.72890 71.17696
#
# Poissons Ratio (x) = 0.07227 0.16417
# Poissons Ratio (y) = 0.07724 0.04209
# Poissons Ratio (z) = 0.24092 0.05779
#
# Static dielectric constant tensor:
#      x y z
#    x 2.141210 0.000000 0.022990 
#    y 0.000000 2.160180 0.000000 
#    z 0.022990 0.000000 2.056460 
# 
# From -- ./inp_files/12538.got.cif
#   From: 2010.05.17/outbox.cif.g08.bks.cpg/sg14_7_cif.got.tgz:12538.got - 2010.06.03 17:49:19.
