data_PCOD9252201
_publ_section_title
;
Structure prediction by ZEFSAII (Michael W. Deem and Ramdas Pophale) SiO2 
 PCOD9252201
Probable space group: P 21/C
;
_chemical_formula_sum "Si O2"
_cell_formula_units_Z 32
_cell_length_a 7.517909
_cell_length_b 10.987687
_cell_length_c 16.378048
_cell_angle_alpha 90.000000
_cell_angle_beta 115.084750
_cell_angle_gamma 90.000000
_cell_volume 1225.296134
_symmetry_space_group_name_H-M "P 21/C"
_symmetry_group_IT_number 14
_symmetry_cell_setting 'monoclinic'
loop_
_space_group_symop_operation_xyz
x,y,z
-x,1/2+y,1/2-z
-x,-y,-z
x,1/2-y,1/2+z
loop_
_atom_site_type_symbol
_atom_site_label
_atom_site_fract_x
_atom_site_fract_y
_atom_site_fract_z
Si Si1 0.233815 0.260277 0.418974
Si Si2 0.960375 0.244643 0.512812
Si Si3 0.533157 0.157103 0.612054
Si Si4 0.171568 0.468768 0.127202
Si Si5 0.619631 0.196372 0.275831
Si Si6 0.771244 0.568930 0.346942
Si Si7 0.875671 0.983010 0.696284
Si Si8 0.583083 0.375673 0.411124
O O1 0.051289 0.288008 0.443189
O O2 0.396693 0.200541 0.511632
O O3 0.366130 0.367912 0.405912
O O4 0.160766 0.157240 0.340134
O O5 0.012074 0.104624 0.541341
O O6 0.093584 0.319959 0.601912
O O7 0.740724 0.289303 0.486773
O O8 0.371187 0.097269 0.640808
O O9 0.647408 0.260113 0.687728
O O10 0.693473 0.056652 0.622385
O O11 0.229821 0.611975 0.144080
O O12 0.073138 0.461119 0.197139
O O13 0.425061 0.117100 0.232917
O O14 0.576795 0.313462 0.321374
O O15 0.874607 0.498832 0.293099
O O16 0.695755 0.500385 0.413522
#
# Coordination Sequence:
#
# PCOD9252201 Si02
#       8
#     4   4   4   4   4   4   4   4
#     4  11  24  42  74 104 140 188 242 290 369 434
#     4  11  27  50  69 109 149 189 240 309 361 437
#     4  11  23  45  66 103 148 185 232 304 356 436
#     4  11  24  42  72 102 143 182 241 299 358 431
#     4  12  22  47  72 102 144 191 237 301 369 419
#     4  12  25  49  71 101 153 188 244 305 362 436
#     4  12  24  41  71 110 137 194 242 296 367 434
#     4  12  25  47  73 100 148 191 236 303 365 438
#
# _framework density 26.116133999999999
#
# number of rings (size 3 to 8) (size 9 to 14) (size 15 to 20)
#    0.000    0.500    6.250    2.250    0.000    8.000 
#    6.750    0.000    0.000    0.000    0.000    0.000 
#    0.000    0.000    0.000    0.000    0.000    0.000 
#
# Total GULP energy -178813.423548 kJ/mol
# GULP energy per Si atom -5587.919486 kJ/mol
# Density = 2.605669 g / cm^3
# Si number density = 26.116134 Si / 1000 Ang^3
#
#
#
# Elastic Constant Matrix: (Units=GPa)
#
#
# Indices 1 2 3 4 5 6 
#
# 1 136.2193 13.2593 2.7106 0.0000 -19.9626 0.0000
# 2 13.2593 44.9729 16.3996 0.0000 -0.7424 0.0000
# 3 2.7106 16.3996 68.9519 0.0000 0.1247 0.0000
# 4 0.0000 0.0000 0.0000 42.1654 0.0000 3.9012
# 5 -19.9626 -0.7424 0.1247 0.0000 36.6189 0.0000
# 6 0.0000 0.0000 0.0000 3.9012 0.0000 30.3125
#
#
#
# Elastic Compliance Matrix: (Units=1/GPa)
#
#
# Indices 1 2 3 4 5 6 
#
# 1 0.008223 -0.002442 0.000250 0.000000 0.004433 0.000000
# 2 -0.002442 0.025082 -0.005868 0.000000 -0.000803 0.000000
# 3 0.000250 -0.005868 0.015889 0.000000 -0.000037 0.000000
# 4 0.000000 0.000000 0.000000 0.024002 0.000000 -0.003089
# 5 0.004433 -0.000803 -0.000037 0.000000 0.029709 0.000000
# 6 0.000000 0.000000 0.000000 -0.003089 0.000000 0.033387
#
#
# Mechanical properties :
#
#
# Convention : Reuss Voigt Hill
#
# Bulk Modulus (GPa) = 30.23638 34.98702 32.61170
# Shear Modulus (GPa) = 30.59258 36.33767 33.46513
#
# Velocity S-wave (km/s) = 3.42629 3.73418 3.58354
# Velocity P-wave (km/s) = 5.22067 5.65844 5.44396
#
# Compressibility (1/GPa) = 0.03307274
#
# Stress axis : x y z
#
# Youngs Moduli (GPa) = 121.60331 39.86881 62.93736
#
# Poissons Ratio (x) = 0.09737 -0.01571
# Poissons Ratio (y) = 0.29700 0.36933
# Poissons Ratio (z) = -0.03035 0.23396
#
# Static dielectric constant tensor:
#      x y z
#    x 1.995990 0.000000 -0.039590 
#    y 0.000000 2.104500 0.000000 
#    z -0.039590 0.000000 2.089820 
# 
# From -- ./inp_files/55477.got.cif
#   From: 2010.05.17/outbox.cif.g08.bks.cpg/sg14_28_cif.got.tgz:55477.got - 2010.06.03 17:49:19.
