data_PCOD9252961
_publ_section_title
;
Structure prediction by ZEFSAII (Michael W. Deem and Ramdas Pophale) SiO2 
 PCOD9252961
Probable space group: P 21/C
;
_chemical_formula_sum "Si O2"
_cell_formula_units_Z 20
_cell_length_a 7.627133
_cell_length_b 11.345067
_cell_length_c 9.323749
_cell_angle_alpha 90.000000
_cell_angle_beta 66.830657
_cell_angle_gamma 90.000000
_cell_volume 741.716509
_symmetry_space_group_name_H-M "P 21/C"
_symmetry_group_IT_number 14
_symmetry_cell_setting 'monoclinic'
loop_
_space_group_symop_operation_xyz
x,y,z
-x,1/2+y,1/2-z
-x,-y,-z
x,1/2-y,1/2+z
loop_
_atom_site_type_symbol
_atom_site_label
_atom_site_fract_x
_atom_site_fract_y
_atom_site_fract_z
Si Si1 0.069862 0.157882 0.359280
Si Si2 0.352578 0.160436 0.680853
Si Si3 0.589103 0.373008 0.513698
Si Si4 0.756407 0.097457 0.679287
Si Si5 0.862512 0.055649 0.166983
O O1 0.983514 0.140419 0.228967
O O2 0.208323 0.267280 0.326238
O O3 0.903851 0.160625 0.528312
O O4 0.191725 0.039628 0.343190
O O5 0.439365 0.265031 0.552704
O O6 0.543329 0.115621 0.693548
O O7 0.228567 0.042412 0.693230
O O8 0.500000 0.500000 0.500000
O O9 0.754965 0.358234 0.342831
O O10 0.685910 0.386163 0.638158
O O11 0.000000 0.000000 0.000000
#
# Coordination Sequence:
#
# PCOD9252961 Si02
#       5
#     4   4   4   4   4
#     4  11  27  52  77 119 166 209 282 339 405 502
#     4  12  27  47  84 112 161 226 259 339 427 473
#     4  12  24  53  77 116 166 207 276 343 403 496
#     4  11  26  51  76 115 161 213 271 340 401 502
#     4  12  26  50  80 120 163 213 275 346 402 501
#
# _framework density 26.964479999999998
#
# number of rings (size 3 to 8) (size 9 to 14) (size 15 to 20)
#    0.000    0.400    6.000    0.000    2.800    7.200 
#    0.000    0.000    0.000    0.000    0.000    0.000 
#    0.000    0.000    0.000    0.000    0.000    0.000 
#
# Total GULP energy -112186.588639 kJ/mol
# GULP energy per Si atom -5609.329432 kJ/mol
# Density = 2.690311 g / cm^3
# Si number density = 26.964480 Si / 1000 Ang^3
#
#
#
# Elastic Constant Matrix: (Units=GPa)
#
#
# Indices 1 2 3 4 5 6 
#
# 1 150.7670 56.0436 45.9565 0.0000 -6.3537 0.0000
# 2 56.0436 122.3509 30.2604 0.0000 -7.7582 0.0000
# 3 45.9565 30.2604 144.6368 0.0000 -13.5234 0.0000
# 4 0.0000 0.0000 0.0000 47.9924 0.0000 -23.6961
# 5 -6.3537 -7.7582 -13.5234 0.0000 46.4668 0.0000
# 6 0.0000 0.0000 0.0000 -23.6961 0.0000 57.1824
#
#
#
# Elastic Compliance Matrix: (Units=1/GPa)
#
#
# Indices 1 2 3 4 5 6 
#
# 1 0.008504 -0.003403 -0.001989 0.000000 0.000016 0.000000
# 2 -0.003403 0.010021 -0.000928 0.000000 0.000938 0.000000
# 3 -0.001989 -0.000928 0.007915 0.000000 0.001877 0.000000
# 4 0.000000 0.000000 0.000000 0.026197 0.000000 0.010856
# 5 0.000016 0.000938 0.001877 0.000000 0.022226 0.000000
# 6 0.000000 0.000000 0.000000 0.010856 0.000000 0.021986
#
#
# Mechanical properties :
#
#
# Convention : Reuss Voigt Hill
#
# Bulk Modulus (GPa) = 72.45161 75.80841 74.13001
# Shear Modulus (GPa) = 43.82565 49.36125 46.59345
#
# Velocity S-wave (km/s) = 4.03589 4.28320 4.16138
# Velocity P-wave (km/s) = 6.97463 7.25508 7.11624
#
# Compressibility (1/GPa) = 0.01380232
#
# Stress axis : x y z
#
# Youngs Moduli (GPa) = 117.58496 99.79322 126.33672
#
# Poissons Ratio (x) = 0.33956 0.25126
# Poissons Ratio (y) = 0.40010 0.11720
# Poissons Ratio (z) = 0.23385 0.09258
#
# Static dielectric constant tensor:
#      x y z
#    x 2.059180 0.000000 0.012860 
#    y 0.000000 2.167180 0.000000 
#    z 0.012860 0.000000 2.110450 
# 
# From -- ./inp_files/23428.got.cif
#   From: 2010.05.17/outbox.cif.g08.bks.cpg/sg14_12_cif.got.tgz:23428.got - 2010.06.03 17:49:19.
