data_PCOD9252167
_publ_section_title
;
Structure prediction by ZEFSAII (Michael W. Deem and Ramdas Pophale) SiO2 
 PCOD9252167
Probable space group: P 21/C
;
_chemical_formula_sum "Si O2"
_cell_formula_units_Z 28
_cell_length_a 8.426513
_cell_length_b 12.560192
_cell_length_c 12.031032
_cell_angle_alpha 90.000000
_cell_angle_beta 126.451363
_cell_angle_gamma 90.000000
_cell_volume 1024.231979
_symmetry_space_group_name_H-M "P 21/C"
_symmetry_group_IT_number 14
_symmetry_cell_setting 'monoclinic'
loop_
_space_group_symop_operation_xyz
x,y,z
-x,1/2+y,1/2-z
-x,-y,-z
x,1/2-y,1/2+z
loop_
_atom_site_type_symbol
_atom_site_label
_atom_site_fract_x
_atom_site_fract_y
_atom_site_fract_z
Si Si1 0.381447 0.365441 0.385725
Si Si2 0.744287 0.422651 0.199299
Si Si3 0.139775 0.147516 0.247900
Si Si4 0.151142 0.365059 0.493676
Si Si5 0.379951 0.011277 0.673601
Si Si6 0.953678 0.643467 0.061893
Si Si7 0.689620 0.300533 0.949127
O O1 0.236268 0.264349 0.294956
O O2 0.325019 0.407319 0.485292
O O3 0.340906 0.459334 0.283499
O O4 0.589302 0.310935 0.438257
O O5 0.735861 0.546077 0.157680
O O6 0.556233 0.415831 0.200841
O O7 0.948821 0.394780 0.345383
O O8 0.727477 0.351617 0.084359
O O9 0.977645 0.143636 0.280309
O O10 0.111739 0.114678 0.107559
O O11 0.201756 0.239931 0.508282
O O12 0.171994 0.042437 0.529560
O O13 0.435472 0.888478 0.672819
O O14 0.115704 0.691013 0.045223
#
# Coordination Sequence:
#
# PCOD9252167 Si02
#       7
#     4   4   4   4   4   4   4
#     4  11  25  46  72 104 141 192 237 304 365 424
#     4  12  24  42  72 107 137 193 240 301 362 424
#     4  11  23  44  69  99 147 186 241 296 360 421
#     4  11  25  45  69 101 147 192 238 298 365 432
#     4  12  23  45  73 102 144 185 246 301 361 428
#     4  11  24  43  71 104 139 191 239 295 358 430
#     4  12  25  44  74 108 142 187 253 298 354 444
#
# _framework density 27.337558000000001
#
# number of rings (size 3 to 8) (size 9 to 14) (size 15 to 20)
#    0.000    0.571    4.286    4.714    4.000    0.000 
#    0.000    0.714    0.000    0.000    0.000    0.000 
#    0.000    0.000    0.000    0.000    0.000    0.000 
#
# Total GULP energy -156329.246219 kJ/mol
# GULP energy per Si atom -5583.187365 kJ/mol
# Density = 2.727534 g / cm^3
# Si number density = 27.337558 Si / 1000 Ang^3
#
#
#
# Elastic Constant Matrix: (Units=GPa)
#
#
# Indices 1 2 3 4 5 6 
#
# 1 166.6485 -1.6035 52.4990 0.0000 -29.0732 0.0000
# 2 -1.6035 75.1025 16.6160 0.0000 6.6977 0.0000
# 3 52.4990 16.6160 113.4904 0.0000 -36.5632 0.0000
# 4 0.0000 0.0000 0.0000 38.2377 0.0000 10.7275
# 5 -29.0732 6.6977 -36.5632 0.0000 49.9413 0.0000
# 6 0.0000 0.0000 0.0000 10.7275 0.0000 36.0868
#
#
#
# Elastic Compliance Matrix: (Units=1/GPa)
#
#
# Indices 1 2 3 4 5 6 
#
# 1 0.007243 0.000573 -0.002749 0.000000 0.002127 0.000000
# 2 0.000573 0.014567 -0.003821 0.000000 -0.004417 0.000000
# 3 -0.002749 -0.003821 0.013469 0.000000 0.008773 0.000000
# 4 0.000000 0.000000 0.000000 0.028532 0.000000 -0.008482
# 5 0.002127 -0.004417 0.008773 0.000000 0.028277 0.000000
# 6 0.000000 0.000000 0.000000 -0.008482 0.000000 0.030232
#
#
# Mechanical properties :
#
#
# Convention : Reuss Voigt Hill
#
# Bulk Modulus (GPa) = 42.94656 54.47382 48.71019
# Shear Modulus (GPa) = 35.19254 44.03514 39.61384
#
# Velocity S-wave (km/s) = 3.59183 4.01782 3.81079
# Velocity P-wave (km/s) = 5.73982 6.44154 6.10078
#
# Compressibility (1/GPa) = 0.02328475
#
# Stress axis : x y z
#
# Youngs Moduli (GPa) = 138.05745 68.64984 74.24525
#
# Poissons Ratio (x) = -0.03935 0.20413
# Poissons Ratio (y) = -0.07914 0.28369
# Poissons Ratio (z) = 0.37957 0.26231
#
# Static dielectric constant tensor:
#      x y z
#    x 2.256810 0.000000 0.028060 
#    y 0.000000 2.193620 0.000000 
#    z 0.028060 0.000000 2.171930 
# 
# From -- ./inp_files/25348.got.cif
#   From: 2010.05.17/outbox.cif.g08.bks.cpg/sg14_13_cif.got.tgz:25348.got - 2010.06.03 17:49:19.
