data_PCOD9252373
_publ_section_title
;
Structure prediction by ZEFSAII (Michael W. Deem and Ramdas Pophale) SiO2 
 PCOD9252373
Probable space group: P 21/C
;
_chemical_formula_sum "Si O2"
_cell_formula_units_Z 20
_cell_length_a 17.824927
_cell_length_b 6.392378
_cell_length_c 17.261273
_cell_angle_alpha 90.000000
_cell_angle_beta 148.442194
_cell_angle_gamma 90.000000
_cell_volume 1029.348267
_symmetry_space_group_name_H-M "P 21/C"
_symmetry_group_IT_number 14
_symmetry_cell_setting 'monoclinic'
loop_
_space_group_symop_operation_xyz
x,y,z
-x,1/2+y,1/2-z
-x,-y,-z
x,1/2-y,1/2+z
loop_
_atom_site_type_symbol
_atom_site_label
_atom_site_fract_x
_atom_site_fract_y
_atom_site_fract_z
Si Si1 0.409324 0.703909 0.946111
Si Si2 0.942733 0.685377 0.393668
Si Si3 0.317160 0.438332 0.256926
Si Si4 0.111275 0.011222 0.452779
Si Si5 0.124045 0.633316 0.791012
O O1 0.279063 0.673922 0.890724
O O2 0.337079 0.829266 0.810608
O O3 0.500000 0.500000 0.000000
O O4 0.526955 0.844370 0.091969
O O5 0.798809 0.795841 0.298196
O O6 0.918934 0.580480 0.289393
O O7 0.000000 0.500000 0.500000
O O8 0.055349 0.866194 0.473923
O O9 0.263295 0.419452 0.121377
O O10 0.993393 0.192527 0.336335
O O11 0.127715 0.895123 0.385992
#
# Coordination Sequence:
#
# PCOD9252373 Si02
#       5
#     4   4   4   4   4
#     4  11  24  44  66  94 132 177 224 274 330 407
#     4  12  22  39  72  97 125 172 228 278 329 394
#     4  11  24  42  67  96 130 174 227 270 330 408
#     4  12  25  43  65  99 135 170 221 282 335 398
#     4  12  24  43  66  97 133 172 219 279 341 395
#
# _framework density 19.429770999999999
#
# number of rings (size 3 to 8) (size 9 to 14) (size 15 to 20)
#    0.000    0.400    8.000    1.800    0.000    0.000 
#    3.600    0.000    0.000    0.000    0.000    0.000 
#    0.000    0.000    0.000    0.000    0.000    0.000 
#
# Total GULP energy -111585.237384 kJ/mol
# GULP energy per Si atom -5579.261869 kJ/mol
# Density = 1.938555 g / cm^3
# Si number density = 19.429771 Si / 1000 Ang^3
#
#
#
# Elastic Constant Matrix: (Units=GPa)
#
#
# Indices 1 2 3 4 5 6 
#
# 1 88.6977 42.8304 56.6687 0.0000 -8.4213 0.0000
# 2 42.8304 87.6564 45.2994 0.0000 -1.8716 0.0000
# 3 56.6687 45.2994 144.7875 0.0000 -7.8718 0.0000
# 4 0.0000 0.0000 0.0000 41.1171 0.0000 -2.4954
# 5 -8.4213 -1.8716 -7.8718 0.0000 34.5980 0.0000
# 6 0.0000 0.0000 0.0000 -2.4954 0.0000 38.7943
#
#
#
# Elastic Compliance Matrix: (Units=1/GPa)
#
#
# Indices 1 2 3 4 5 6 
#
# 1 0.017530 -0.006011 -0.004826 0.000000 0.002844 0.000000
# 2 -0.006011 0.015671 -0.002616 0.000000 -0.001211 0.000000
# 3 -0.004826 -0.002616 0.009662 0.000000 0.000882 0.000000
# 4 0.000000 0.000000 0.000000 0.024416 0.000000 0.001571
# 5 0.002844 -0.001211 0.000882 0.000000 0.029731 0.000000
# 6 0.000000 0.000000 0.000000 0.001571 0.000000 0.025878
#
#
# Mechanical properties :
#
#
# Convention : Reuss Voigt Hill
#
# Bulk Modulus (GPa) = 62.66698 67.85984 65.26341
# Shear Modulus (GPa) = 32.23446 34.65808 33.44627
#
# Velocity S-wave (km/s) = 4.07753 4.22804 4.15347
# Velocity P-wave (km/s) = 7.38183 7.67050 7.52755
#
# Compressibility (1/GPa) = 0.01595737
#
# Stress axis : x y z
#
# Youngs Moduli (GPa) = 57.04504 63.81058 103.49801
#
# Poissons Ratio (x) = 0.38355 0.49947
# Poissons Ratio (y) = 0.34289 0.27078
# Poissons Ratio (z) = 0.27529 0.16695
#
# Static dielectric constant tensor:
#      x y z
#    x 1.661040 0.000000 0.005400 
#    y 0.000000 1.768610 0.000000 
#    z 0.005400 0.000000 1.698610 
# 
# From -- ./inp_files/54009.got.cif
#   From: 2010.05.17/outbox.cif.g08.bks.cpg/sg14_28_cif.got.tgz:54009.got - 2010.06.03 17:49:19.
