data_PCOD9252432
_publ_section_title
;
Structure prediction by ZEFSAII (Michael W. Deem and Ramdas Pophale) SiO2 
 PCOD9252432
Probable space group: P 21/C
;
_chemical_formula_sum "Si O2"
_cell_formula_units_Z 24
_cell_length_a 13.061082
_cell_length_b 9.787110
_cell_length_c 13.880636
_cell_angle_alpha 90.000000
_cell_angle_beta 31.347360
_cell_angle_gamma 90.000000
_cell_volume 923.069483
_symmetry_space_group_name_H-M "P 21/C"
_symmetry_group_IT_number 14
_symmetry_cell_setting 'monoclinic'
loop_
_space_group_symop_operation_xyz
x,y,z
-x,1/2+y,1/2-z
-x,-y,-z
x,1/2-y,1/2+z
loop_
_atom_site_type_symbol
_atom_site_label
_atom_site_fract_x
_atom_site_fract_y
_atom_site_fract_z
Si Si1 0.207589 0.505231 0.883910
Si Si2 0.795134 0.261178 0.954220
Si Si3 0.346382 0.213020 0.809940
Si Si4 0.678362 0.894595 0.364922
Si Si5 0.381649 0.099064 0.998176
Si Si6 0.038780 0.017486 0.183994
O O1 0.249788 0.359982 0.898982
O O2 0.406831 0.529365 0.661341
O O3 0.204021 0.629692 0.960705
O O4 0.000000 0.500000 0.000000
O O5 0.959921 0.322464 0.748944
O O6 0.572319 0.263663 0.095640
O O7 0.842104 0.112294 0.958588
O O8 0.241658 0.128979 0.808481
O O9 0.353141 0.132483 0.905010
O O10 0.622923 0.742978 0.444854
O O11 0.500000 0.000000 0.500000
O O12 0.826746 0.955524 0.323835
O O13 0.174691 0.018479 0.172456
#
# Coordination Sequence:
#
# PCOD9252432 Si02
#       6
#     4   4   4   4   4   4
#     4  11  25  44  69 102 147 187 255 301 372 440
#     4  11  24  43  73 104 148 198 239 313 372 443
#     4  11  25  46  70 108 146 196 245 308 371 447
#     4  12  26  44  76 111 146 194 256 307 372 457
#     4  11  27  45  74 103 151 195 243 311 377 437
#     4  12  23  45  73 106 149 195 248 301 386 436
#
# _framework density 26.000209999999999
#
# number of rings (size 3 to 8) (size 9 to 14) (size 15 to 20)
#    0.000    0.667    5.000    2.000    2.333    4.000 
#    0.000    0.000    0.000    0.000    0.000    0.000 
#    0.000    0.000    0.000    0.000    0.000    0.000 
#
# Total GULP energy -133794.238023 kJ/mol
# GULP energy per Si atom -5574.759918 kJ/mol
# Density = 2.594103 g / cm^3
# Si number density = 26.000210 Si / 1000 Ang^3
#
#
#
# Elastic Constant Matrix: (Units=GPa)
#
#
# Indices 1 2 3 4 5 6 
#
# 1 143.2748 47.8168 48.7631 0.0000 -30.7130 0.0000
# 2 47.8168 145.0124 33.3604 0.0000 -15.1246 0.0000
# 3 48.7631 33.3604 77.6411 0.0000 -22.9671 0.0000
# 4 0.0000 0.0000 0.0000 57.2732 0.0000 -9.3894
# 5 -30.7130 -15.1246 -22.9671 0.0000 67.1641 0.0000
# 6 0.0000 0.0000 0.0000 -9.3894 0.0000 44.1379
#
#
#
# Elastic Compliance Matrix: (Units=1/GPa)
#
#
# Indices 1 2 3 4 5 6 
#
# 1 0.009682 -0.001892 -0.004544 0.000000 0.002448 0.000000
# 2 -0.001892 0.008049 -0.002214 0.000000 0.000190 0.000000
# 3 -0.004544 -0.002214 0.017715 0.000000 0.003481 0.000000
# 4 0.000000 0.000000 0.000000 0.018091 0.000000 0.003849
# 5 0.002448 0.000190 0.003481 0.000000 0.017241 0.000000
# 6 0.000000 0.000000 0.000000 0.003849 0.000000 0.023475
#
#
# Mechanical properties :
#
#
# Convention : Reuss Voigt Hill
#
# Bulk Modulus (GPa) = 55.10806 69.53431 62.32119
# Shear Modulus (GPa) = 42.51629 49.44758 45.98193
#
# Velocity S-wave (km/s) = 4.04818 4.36571 4.20994
# Velocity P-wave (km/s) = 6.56442 7.22595 6.90312
#
# Compressibility (1/GPa) = 0.01814617
#
# Stress axis : x y z
#
# Youngs Moduli (GPa) = 103.28162 124.23912 56.45022
#
# Poissons Ratio (x) = 0.23506 0.25651
# Poissons Ratio (y) = 0.19541 0.12497
# Poissons Ratio (z) = 0.46932 0.27505
#
# Static dielectric constant tensor:
#      x y z
#    x 2.205220 0.000000 0.248190 
#    y 0.000000 2.155750 0.000000 
#    z 0.248190 0.000000 3.088520 
# 
# From -- ./inp_files/58972.got.cif
#   From: 2010.05.17/outbox.cif.g08.bks.cpg/sg14_30_cif.got.tgz:58972.got - 2010.06.03 17:49:19.
