data_PCOD9252739
_publ_section_title
;
Structure prediction by ZEFSAII (Michael W. Deem and Ramdas Pophale) SiO2 
 PCOD9252739
Probable space group: P 21/C
;
_chemical_formula_sum "Si O2"
_cell_formula_units_Z 16
_cell_length_a 9.803695
_cell_length_b 8.417900
_cell_length_c 19.321512
_cell_angle_alpha 90.000000
_cell_angle_beta 30.044808
_cell_angle_gamma 90.000000
_cell_volume 798.348306
_symmetry_space_group_name_H-M "P 21/C"
_symmetry_group_IT_number 14
_symmetry_cell_setting 'monoclinic'
loop_
_space_group_symop_operation_xyz
x,y,z
-x,1/2+y,1/2-z
-x,-y,-z
x,1/2-y,1/2+z
loop_
_atom_site_type_symbol
_atom_site_label
_atom_site_fract_x
_atom_site_fract_y
_atom_site_fract_z
Si Si1 0.625995 0.104608 0.629065
Si Si2 0.234096 0.564975 0.655461
Si Si3 0.324648 0.563743 0.141803
Si Si4 0.213447 0.103480 0.312419
O O1 0.421667 0.251197 0.722463
O O2 0.912736 0.154257 0.469005
O O3 0.492203 0.973309 0.637423
O O4 0.686873 0.028861 0.676686
O O5 0.500000 0.500000 0.500000
O O6 0.267216 0.750911 0.656154
O O7 0.200553 0.471087 0.742084
O O8 0.961485 0.529627 0.731835
O O9 0.500000 0.500000 0.000000
#
# Coordination Sequence:
#
# PCOD9252739 Si02
#       4
#     4   4   4   4
#     4  11  25  45  70  97 139 176 227 278 335 406
#     4  12  26  43  71 100 137 181 222 277 337 396
#     4  12  24  45  67 101 137 176 228 275 334 402
#     4  11  25  46  68 100 135 180 224 278 339 400
#
# _framework density 20.04138
#
# number of rings (size 3 to 8) (size 9 to 14) (size 15 to 20)
#    0.000    0.500    2.500    6.000    3.500    1.000 
#    0.000    0.000    0.000    0.000    0.000    0.000 
#    0.000    0.000    0.000    0.000    0.000    0.000 
#
# Total GULP energy -89617.673566 kJ/mol
# GULP energy per Si atom -5601.104598 kJ/mol
# Density = 1.999576 g / cm^3
# Si number density = 20.041380 Si / 1000 Ang^3
#
#
#
# Elastic Constant Matrix: (Units=GPa)
#
#
# Indices 1 2 3 4 5 6 
#
# 1 81.0965 -7.3915 32.9286 0.0000 -7.4860 0.0000
# 2 -7.3915 114.2687 53.1841 0.0000 -18.1411 0.0000
# 3 32.9286 53.1841 125.9835 0.0000 -21.8015 0.0000
# 4 0.0000 0.0000 0.0000 32.1104 0.0000 -12.3628
# 5 -7.4860 -18.1411 -21.8015 0.0000 39.2308 0.0000
# 6 0.0000 0.0000 0.0000 -12.3628 0.0000 28.6280
#
#
#
# Elastic Compliance Matrix: (Units=1/GPa)
#
#
# Indices 1 2 3 4 5 6 
#
# 1 0.014898 0.003617 -0.005133 0.000000 0.001663 0.000000
# 2 0.003617 0.012043 -0.005473 0.000000 0.003218 0.000000
# 3 -0.005133 -0.005473 0.012150 0.000000 0.003242 0.000000
# 4 0.000000 0.000000 0.000000 0.037353 0.000000 0.016131
# 5 0.001663 0.003218 0.003242 0.000000 0.029097 0.000000
# 6 0.000000 0.000000 0.000000 0.016131 0.000000 0.041897
#
#
# Mechanical properties :
#
#
# Convention : Reuss Voigt Hill
#
# Bulk Modulus (GPa) = 39.81775 53.19899 46.50837
# Shear Modulus (GPa) = 29.44846 36.16902 32.80874
#
# Velocity S-wave (km/s) = 3.83741 4.25280 4.05044
# Velocity P-wave (km/s) = 6.28850 7.12161 6.71798
#
# Compressibility (1/GPa) = 0.02511443
#
# Stress axis : x y z
#
# Youngs Moduli (GPa) = 67.12138 83.03442 82.30119
#
# Poissons Ratio (x) = -0.30032 0.42246
# Poissons Ratio (y) = -0.24276 0.45039
# Poissons Ratio (z) = 0.34454 0.45441
#
# Static dielectric constant tensor:
#      x y z
#    x 1.695600 0.000000 -0.007370 
#    y 0.000000 1.668630 0.000000 
#    z -0.007370 0.000000 1.675770 
# 
# From -- ./inp_files/7191.got.cif
#   From: 2010.05.17/outbox.cif.g08.bks.cpg/sg14_4_cif.got.tgz:7191.got - 2010.06.03 17:49:19.
