data_PCOD9252086
_publ_section_title
;
Structure prediction by ZEFSAII (Michael W. Deem and Ramdas Pophale) SiO2 
 PCOD9252086
Probable space group: P 21/C
;
_chemical_formula_sum "Si O2"
_cell_formula_units_Z 28
_cell_length_a 5.474702
_cell_length_b 11.087318
_cell_length_c 19.449920
_cell_angle_alpha 90.000000
_cell_angle_beta 84.501222
_cell_angle_gamma 90.000000
_cell_volume 1175.172655
_symmetry_space_group_name_H-M "P 21/C"
_symmetry_group_IT_number 14
_symmetry_cell_setting 'monoclinic'
loop_
_space_group_symop_operation_xyz
x,y,z
-x,1/2+y,1/2-z
-x,-y,-z
x,1/2-y,1/2+z
loop_
_atom_site_type_symbol
_atom_site_label
_atom_site_fract_x
_atom_site_fract_y
_atom_site_fract_z
Si Si1 0.882386 0.996527 0.811007
Si Si2 0.676345 0.710004 0.119695
Si Si3 0.935810 0.109162 0.953216
Si Si4 0.413110 0.384908 0.259458
Si Si5 0.198878 0.267424 0.136099
Si Si6 0.444972 0.707953 0.986432
Si Si7 0.869715 0.030900 0.576685
O O1 0.814893 0.058600 0.886431
O O2 0.654163 0.034673 0.768153
O O3 0.151524 0.047113 0.781702
O O4 0.899076 0.853270 0.824476
O O5 0.570715 0.768395 0.190642
O O6 0.838423 0.590168 0.121437
O O7 0.835629 0.815395 0.080818
O O8 0.489344 0.676354 0.064448
O O9 0.773331 0.198048 0.002951
O O10 0.000000 0.000000 0.000000
O O11 0.383176 0.330904 0.184700
O O12 0.334957 0.232533 0.061727
O O13 0.004944 0.367510 0.117349
O O14 0.377459 0.590970 0.944941
O O15 0.000000 0.000000 0.500000
#
# Coordination Sequence:
#
# PCOD9252086 Si02
#       7
#     4   4   4   4   4   4   4
#     4  11  27  52  74 109 152 198 264 311 386 464
#     4  11  24  45  69 105 146 198 251 309 382 460
#     4  11  23  42  74 106 145 196 248 318 380 455
#     4  11  29  51  76 108 153 209 255 317 389 463
#     4  12  30  46  76 113 149 203 255 323 385 464
#     4  12  23  43  74 106 150 188 259 316 383 453
#     4  12  25  45  69 113 147 194 251 315 389 457
#
# _framework density 23.826287000000001
#
# number of rings (size 3 to 8) (size 9 to 14) (size 15 to 20)
#    0.000    0.571    4.286    2.143   10.000    1.143 
#    2.571    0.000    0.000    0.000    0.000    0.000 
#    0.000    0.000    0.000    0.000    0.000    0.000 
#
# Total GULP energy -156662.200595 kJ/mol
# GULP energy per Si atom -5595.078593 kJ/mol
# Density = 2.377206 g / cm^3
# Si number density = 23.826287 Si / 1000 Ang^3
#
#
#
# Elastic Constant Matrix: (Units=GPa)
#
#
# Indices 1 2 3 4 5 6 
#
# 1 63.7098 12.4373 34.3214 0.0000 13.7081 0.0000
# 2 12.4373 109.2905 48.4845 0.0000 10.1786 0.0000
# 3 34.3214 48.4845 122.8271 0.0000 18.7879 0.0000
# 4 0.0000 0.0000 0.0000 36.3945 0.0000 11.8180
# 5 13.7081 10.1786 18.7879 0.0000 42.3544 0.0000
# 6 0.0000 0.0000 0.0000 11.8180 0.0000 26.5499
#
#
#
# Elastic Compliance Matrix: (Units=1/GPa)
#
#
# Indices 1 2 3 4 5 6 
#
# 1 0.019130 0.000362 -0.004858 0.000000 -0.004124 0.000000
# 2 0.000362 0.011123 -0.004361 0.000000 -0.000856 0.000000
# 3 -0.004858 -0.004361 0.011607 0.000000 -0.002529 0.000000
# 4 0.000000 0.000000 0.000000 0.032119 0.000000 -0.014297
# 5 -0.004124 -0.000856 -0.002529 0.000000 0.026272 0.000000
# 6 0.000000 0.000000 0.000000 -0.014297 0.000000 0.044029
#
#
# Mechanical properties :
#
#
# Convention : Reuss Voigt Hill
#
# Bulk Modulus (GPa) = 41.41327 54.03488 47.72408
# Shear Modulus (GPa) = 29.40454 34.43204 31.91829
#
# Velocity S-wave (km/s) = 3.51682 3.80561 3.66406
# Velocity P-wave (km/s) = 5.82321 6.48368 6.16230
#
# Compressibility (1/GPa) = 0.02414685
#
# Stress axis : x y z
#
# Youngs Moduli (GPa) = 52.27511 89.90316 86.15442
#
# Poissons Ratio (x) = -0.03255 0.41850
# Poissons Ratio (y) = -0.01893 0.37572
# Poissons Ratio (z) = 0.25393 0.39206
#
# Static dielectric constant tensor:
#      x y z
#    x 1.982430 0.000000 0.027050 
#    y 0.000000 1.990370 0.000000 
#    z 0.027050 0.000000 1.890990 
# 
# From -- ./inp_files/63316.got.cif
#   From: 2010.05.17/outbox.cif.g08.bks.cpg/sg14_32_cif.got.tgz:63316.got - 2010.06.03 17:49:19.
