data_PCOD9252731
_publ_section_title
;
Structure prediction by ZEFSAII (Michael W. Deem and Ramdas Pophale) SiO2 
 PCOD9252731
Probable space group: P 21/C
;
_chemical_formula_sum "Si O2"
_cell_formula_units_Z 24
_cell_length_a 25.112715
_cell_length_b 5.116885
_cell_length_c 25.632916
_cell_angle_alpha 90.000000
_cell_angle_beta 16.622324
_cell_angle_gamma 90.000000
_cell_volume 942.230387
_symmetry_space_group_name_H-M "P 21/C"
_symmetry_group_IT_number 14
_symmetry_cell_setting 'monoclinic'
loop_
_space_group_symop_operation_xyz
x,y,z
-x,1/2+y,1/2-z
-x,-y,-z
x,1/2-y,1/2+z
loop_
_atom_site_type_symbol
_atom_site_label
_atom_site_fract_x
_atom_site_fract_y
_atom_site_fract_z
Si Si1 0.071786 0.355646 0.058376
Si Si2 0.876006 0.648055 0.159485
Si Si3 0.320816 0.835265 0.684443
Si Si4 0.211531 0.548580 0.114863
Si Si5 0.157008 0.728962 0.056924
Si Si6 0.361490 0.951367 0.763124
O O1 0.147173 0.434392 0.044344
O O2 0.988509 0.606226 0.107165
O O3 0.891680 0.184280 0.239983
O O4 0.239427 0.216750 0.870830
O O5 0.833756 0.945963 0.186210
O O6 0.703645 0.443614 0.320760
O O7 0.000000 0.500000 0.000000
O O8 0.326305 0.800925 0.741919
O O9 0.500000 0.000000 0.500000
O O10 0.234738 0.733409 0.042133
O O11 0.053472 0.340075 0.246023
O O12 0.416564 0.465531 0.939072
O O13 0.281649 0.856088 0.894093
#
# Coordination Sequence:
#
# PCOD9252731 Si02
#       6
#     4   4   4   4   4   4
#     4  11  25  45  71 100 140 187 236 292 362 431
#     4  12  25  46  75 100 151 190 240 301 366 432
#     4  12  27  48  72 111 145 194 247 301 363 437
#     4  11  25  46  68 101 138 184 236 296 360 433
#     4  11  25  45  69  99 140 182 235 294 364 431
#     4  11  27  43  71 104 140 185 241 294 361 431
#
# _framework density 25.471477
#
# number of rings (size 3 to 8) (size 9 to 14) (size 15 to 20)
#    0.000    0.667    3.333    3.000    9.333    1.333 
#    0.000    0.000    0.000    0.000    0.000    0.000 
#    0.000    0.000    0.000    0.000    0.000    0.000 
#
# Total GULP energy -134163.792157 kJ/mol
# GULP energy per Si atom -5590.158007 kJ/mol
# Density = 2.541350 g / cm^3
# Si number density = 25.471477 Si / 1000 Ang^3
#
#
#
# Elastic Constant Matrix: (Units=GPa)
#
#
# Indices 1 2 3 4 5 6 
#
# 1 127.8174 19.8042 6.6009 0.0000 -5.0933 0.0000
# 2 19.8042 66.7006 22.8313 0.0000 -2.6520 0.0000
# 3 6.6009 22.8313 109.3614 0.0000 -14.5990 0.0000
# 4 0.0000 0.0000 0.0000 31.3515 0.0000 4.3410
# 5 -5.0933 -2.6520 -14.5990 0.0000 35.9241 0.0000
# 6 0.0000 0.0000 0.0000 4.3410 0.0000 42.9681
#
#
#
# Elastic Compliance Matrix: (Units=1/GPa)
#
#
# Indices 1 2 3 4 5 6 
#
# 1 0.008238 -0.002458 0.000156 0.000000 0.001050 0.000000
# 2 -0.002458 0.016881 -0.003443 0.000000 -0.000501 0.000000
# 3 0.000156 -0.003443 0.010386 0.000000 0.003989 0.000000
# 4 0.000000 0.000000 0.000000 0.032349 0.000000 -0.003268
# 5 0.001050 -0.000501 0.003989 0.000000 0.029569 0.000000
# 6 0.000000 0.000000 0.000000 -0.003268 0.000000 0.023603
#
#
# Mechanical properties :
#
#
# Convention : Reuss Voigt Hill
#
# Bulk Modulus (GPa) = 41.63933 44.70581 43.17257
# Shear Modulus (GPa) = 35.58212 39.02496 37.30354
#
# Velocity S-wave (km/s) = 3.74162 3.91846 3.83106
# Velocity P-wave (km/s) = 5.92024 6.16943 6.04612
#
# Compressibility (1/GPa) = 0.02401576
#
# Stress axis : x y z
#
# Youngs Moduli (GPa) = 121.38516 59.23973 96.28567
#
# Poissons Ratio (x) = 0.14559 -0.01502
# Poissons Ratio (y) = 0.29833 0.33149
# Poissons Ratio (z) = -0.01894 0.20395
#
# Static dielectric constant tensor:
#      x y z
#    x 1.985100 0.000000 -0.001260 
#    y 0.000000 2.123700 0.000000 
#    z -0.001260 0.000000 2.113350 
# 
# From -- ./inp_files/74785.got.cif
#   From: 2010.05.17/outbox.cif.g08.bks.cpg/sg14_38_cif.got.tgz:74785.got - 2010.06.03 17:49:19.
