data_PCOD9252473
_publ_section_title
;
Structure prediction by ZEFSAII (Michael W. Deem and Ramdas Pophale) SiO2 
 PCOD9252473
Probable space group: P 21/C
;
_chemical_formula_sum "Si O2"
_cell_formula_units_Z 18
_cell_length_a 13.558186
_cell_length_b 7.435394
_cell_length_c 7.366258
_cell_angle_alpha 90.000000
_cell_angle_beta 62.440681
_cell_angle_gamma 90.000000
_cell_volume 658.335183
_symmetry_space_group_name_H-M "P 21/C"
_symmetry_group_IT_number 14
_symmetry_cell_setting 'monoclinic'
loop_
_space_group_symop_operation_xyz
x,y,z
-x,1/2+y,1/2-z
-x,-y,-z
x,1/2-y,1/2+z
loop_
_atom_site_type_symbol
_atom_site_label
_atom_site_fract_x
_atom_site_fract_y
_atom_site_fract_z
Si Si1 0.500000 0.000000 0.000000
Si Si2 0.125940 0.983672 0.614451
Si Si3 0.651550 0.993715 0.112264
Si Si4 0.632600 0.118914 0.524842
Si Si5 0.881850 0.615096 0.291391
O O1 0.593501 0.858324 0.025424
O O2 0.418842 0.975995 0.259001
O O3 0.122472 0.026060 0.402724
O O4 0.140711 0.173800 0.699929
O O5 0.234048 0.866860 0.560751
O O6 0.005852 0.904133 0.766076
O O7 0.616645 0.027648 0.345186
O O8 0.596556 0.168260 0.046471
O O9 0.782555 0.972527 0.989223
#
# Coordination Sequence:
#
# PCOD9252473 Si02
#       5
#     2   4   4   4   4
#     4  12  26  48  70 108 136 192 236 300 338 422
#     4  11  24  44  71 107 144 183 231 290 356 424
#     4  12  25  48  74 103 142 188 236 293 353 414
#     4  12  25  48  74 103 142 188 236 293 353 414
#     4  11  24  44  71 107 144 183 231 290 356 424
#
# _framework density 27.341694
#
# number of rings (size 3 to 8) (size 9 to 14) (size 15 to 20)
#    0.000    0.444    4.444    3.333    0.000    8.889 
#    8.000    0.000    0.000    0.000    0.000    0.000 
#    0.000    0.000    0.000    0.000    0.000    0.000 
#
# Total GULP energy -100603.053764 kJ/mol
# GULP energy per Si atom -5589.058542 kJ/mol
# Density = 2.727946 g / cm^3
# Si number density = 27.341694 Si / 1000 Ang^3
#
#
#
# Elastic Constant Matrix: (Units=GPa)
#
#
# Indices 1 2 3 4 5 6 
#
# 1 197.1970 32.7647 112.9186 0.0000 -13.4675 0.0000
# 2 32.7647 123.8429 44.7994 0.0000 -5.7425 0.0000
# 3 112.9186 44.7994 227.8307 0.0000 -1.5568 0.0000
# 4 0.0000 0.0000 0.0000 0.1905 0.0000 -22.4466
# 5 -13.4675 -5.7425 -1.5568 0.0000 76.8124 0.0000
# 6 0.0000 0.0000 0.0000 -22.4466 0.0000 26.2517
#
#
#
# Elastic Compliance Matrix: (Units=1/GPa)
#
#
# Indices 1 2 3 4 5 6 
#
# 1 0.007230 -0.000609 -0.003456 0.000000 0.001152 0.000000
# 2 -0.000609 0.008774 -0.001420 0.000000 0.000520 0.000000
# 3 -0.003456 -0.001420 0.006377 0.000000 -0.000583 0.000000
# 4 0.000000 0.000000 0.000000 -0.052625 0.000000 -0.044997
# 5 0.001152 0.000520 -0.000583 0.000000 0.013248 0.000000
# 6 0.000000 0.000000 0.000000 -0.044997 0.000000 -0.000382
#
#
# Mechanical properties :
#
#
# Convention : Reuss Voigt Hill
#
# Bulk Modulus (GPa) = 87.63188 103.31513 95.47351
# Shear Modulus (GPa) = -1918.89965 44.54345 -937.17810
#
# Velocity S-wave (km/s) = -26.52066 4.04064 -18.53400
# Velocity P-wave (km/s) = 30.09441 7.72255 20.56740
#
# Compressibility (1/GPa) = 0.01141137
#
# Stress axis : x y z
#
# Youngs Moduli (GPa) = 138.31863 113.97797 156.81246
#
# Poissons Ratio (x) = 0.06945 0.54187
# Poissons Ratio (y) = 0.08428 0.22262
# Poissons Ratio (z) = 0.47796 0.16181
#
# Static dielectric constant tensor:
#      x y z
#    x 2.365870 0.000000 -0.051350 
#    y 0.000000 2.599410 0.000000 
#    z -0.051350 0.000000 2.077080 
# 
# From -- ./inp_files/14919.got.cif
#   From: 2010.05.17/outbox.cif.g08.bks.cpg/sg14_8_cif.got.tgz:14919.got - 2010.06.03 17:49:19.
