data_PCOD9252885
_publ_section_title
;
Structure prediction by ZEFSAII (Michael W. Deem and Ramdas Pophale) SiO2 
 PCOD9252885
Probable space group: P 21/C
;
_chemical_formula_sum "Si O2"
_cell_formula_units_Z 26
_cell_length_a 10.270260
_cell_length_b 9.125658
_cell_length_c 11.198529
_cell_angle_alpha 90.000000
_cell_angle_beta 89.996724
_cell_angle_gamma 90.000000
_cell_volume 1049.558392
_symmetry_space_group_name_H-M "P 21/C"
_symmetry_group_IT_number 14
_symmetry_cell_setting 'monoclinic'
loop_
_space_group_symop_operation_xyz
x,y,z
-x,1/2+y,1/2-z
-x,-y,-z
x,1/2-y,1/2+z
loop_
_atom_site_type_symbol
_atom_site_label
_atom_site_fract_x
_atom_site_fract_y
_atom_site_fract_z
Si Si1 0.717654 0.519198 0.212016
Si Si2 0.635914 0.161710 0.056644
Si Si3 0.282345 0.519214 0.212037
Si Si4 0.500000 0.000000 0.500000
Si Si5 0.851826 0.778363 0.118684
Si Si6 0.364078 0.161682 0.056648
Si Si7 0.851833 0.278357 0.381289
O O1 0.617169 0.486668 0.106827
O O2 0.838588 0.614103 0.165771
O O3 0.644220 0.628324 0.304658
O O4 0.775719 0.386413 0.290139
O O5 0.644225 0.128355 0.195337
O O6 0.499991 0.243026 0.018567
O O7 0.768170 0.221949 0.002984
O O8 0.627311 0.000010 0.000003
O O9 0.382823 0.486694 0.106829
O O10 0.224303 0.386412 0.290162
O O11 0.161393 0.614103 0.165817
O O12 1.000000 0.824777 0.102327
O O13 0.768184 0.778078 0.996985
#
# Coordination Sequence:
#
# PCOD9252885 Si02
#       7
#     4   4   4   2   4   4   4
#     4  11  26  45  76 105 151 192 250 308 369 439
#     4   9  20  41  69 100 135 186 244 301 364 429
#     4  11  26  45  76 105 151 192 250 308 369 439
#     4  12  28  48  72 118 142 190 250 320 368 424
#     4  11  26  46  73 109 152 200 247 302 372 447
#     4   9  20  41  69 100 135 186 244 301 364 429
#     4  11  26  46  73 109 152 200 247 302 372 447
#
# _framework density 24.772324999999999
#
# number of rings (size 3 to 8) (size 9 to 14) (size 15 to 20)
#    0.000    1.538    1.538    0.923    8.615    6.769 
#    0.000    1.538    0.000    0.000    0.000    0.000 
#    0.000    0.000    0.000    0.000    0.000    0.000 
#
# Total GULP energy -144970.533038 kJ/mol
# GULP energy per Si atom -5575.789732 kJ/mol
# Density = 2.471594 g / cm^3
# Si number density = 24.772325 Si / 1000 Ang^3
#
#
#
# Elastic Constant Matrix: (Units=GPa)
#
#
# Indices 1 2 3 4 5 6 
#
# 1 227.1653 48.4263 87.8012 0.0000 0.0337 0.0000
# 2 48.4263 53.2882 27.7519 0.0000 0.0125 0.0000
# 3 87.8012 27.7519 160.7354 0.0000 0.0305 0.0000
# 4 0.0000 0.0000 0.0000 29.3067 0.0000 0.0033
# 5 0.0337 0.0125 0.0305 0.0000 11.7207 0.0000
# 6 0.0000 0.0000 0.0000 0.0033 0.0000 20.8009
#
#
#
# Elastic Compliance Matrix: (Units=1/GPa)
#
#
# Indices 1 2 3 4 5 6 
#
# 1 0.006395 -0.004386 -0.002736 0.000000 -0.000007 0.000000
# 2 -0.004386 0.023629 -0.001684 0.000000 -0.000008 0.000000
# 3 -0.002736 -0.001684 0.008006 0.000000 -0.000011 0.000000
# 4 0.000000 0.000000 0.000000 0.034122 0.000000 -0.000005
# 5 -0.000007 -0.000008 -0.000011 0.000000 0.085319 0.000000
# 6 0.000000 0.000000 0.000000 -0.000005 0.000000 0.048075
#
#
# Mechanical properties :
#
#
# Convention : Reuss Voigt Hill
#
# Bulk Modulus (GPa) = 48.97511 85.46086 67.21798
# Shear Modulus (GPa) = 21.74257 30.84628 26.29443
#
# Velocity S-wave (km/s) = 2.96581 3.53255 3.26151
# Velocity P-wave (km/s) = 5.61614 7.15626 6.43246
#
# Compressibility (1/GPa) = 0.02041854
#
# Stress axis : x y z
#
# Youngs Moduli (GPa) = 156.38425 42.32106 124.89967
#
# Poissons Ratio (x) = 0.18564 0.34168
# Poissons Ratio (y) = 0.68596 0.21028
# Poissons Ratio (z) = 0.42781 0.07125
#
# Static dielectric constant tensor:
#      x y z
#    x 1.888190 0.000000 0.000010 
#    y 0.000000 2.033970 0.000000 
#    z 0.000010 0.000000 1.945350 
# 
# From -- ./inp_files/24208.got.cif
#   From: 2010.05.17/outbox.cif.g08.bks.cpg/sg14_13_cif.got.tgz:24208.got - 2010.06.03 17:49:19.
