data_PCOD9252538
_publ_section_title
;
Structure prediction by ZEFSAII (Michael W. Deem and Ramdas Pophale) SiO2 
 PCOD9252538
Probable space group: P 21/C
;
_chemical_formula_sum "Si O2"
_cell_formula_units_Z 28
_cell_length_a 5.058151
_cell_length_b 20.930097
_cell_length_c 10.803927
_cell_angle_alpha 90.000000
_cell_angle_beta 118.484931
_cell_angle_gamma 90.000000
_cell_volume 1005.321973
_symmetry_space_group_name_H-M "P 21/C"
_symmetry_group_IT_number 14
_symmetry_cell_setting 'monoclinic'
loop_
_space_group_symop_operation_xyz
x,y,z
-x,1/2+y,1/2-z
-x,-y,-z
x,1/2-y,1/2+z
loop_
_atom_site_type_symbol
_atom_site_label
_atom_site_fract_x
_atom_site_fract_y
_atom_site_fract_z
Si Si1 0.616471 0.961505 0.147812
Si Si2 0.874501 0.364416 0.491479
Si Si3 0.183582 0.268813 0.030261
Si Si4 0.370081 0.075407 0.229456
Si Si5 0.929547 0.384802 0.119459
Si Si6 0.301583 0.436616 0.977874
Si Si7 0.745391 0.190552 0.231615
O O1 0.933461 0.924950 0.234547
O O2 0.565689 0.013752 0.243577
O O3 0.401239 0.901127 0.127139
O O4 0.500000 0.000000 0.000000
O O5 0.778740 0.343115 0.607590
O O6 0.015897 0.299554 0.474952
O O7 0.137977 0.415549 0.566517
O O8 0.047268 0.314192 0.108542
O O9 0.518400 0.249328 0.149866
O O10 0.061069 0.298082 0.872692
O O11 0.179500 0.069757 0.311698
O O12 0.560702 0.140434 0.274865
O O13 0.059029 0.425700 0.030215
O O14 0.571821 0.385410 0.055559
O O15 0.500000 0.500000 0.000000
#
# Coordination Sequence:
#
# PCOD9252538 Si02
#       7
#     4   4   4   4   4   4   4
#     4  12  26  46  75 111 156 200 262 321 402 467
#     4  11  26  46  72 103 150 202 256 320 389 465
#     4  11  26  47  74 108 150 200 266 314 397 468
#     4  11  24  45  74 106 148 200 251 324 394 468
#     4  12  28  47  77 115 151 205 258 326 390 475
#     4  12  26  46  78 110 152 196 257 319 398 461
#     4  11  24  47  73 105 149 201 257 327 390 471
#
# _framework density 27.851770999999999
#
# number of rings (size 3 to 8) (size 9 to 14) (size 15 to 20)
#    0.000    0.571    4.286    2.571    4.000    4.571 
#    0.000    0.000    0.000    0.000    0.000    0.000 
#    0.000    0.000    0.000    0.000    0.000    0.000 
#
# Total GULP energy -156672.660102 kJ/mol
# GULP energy per Si atom -5595.452147 kJ/mol
# Density = 2.778838 g / cm^3
# Si number density = 27.851771 Si / 1000 Ang^3
#
#
#
# Elastic Constant Matrix: (Units=GPa)
#
#
# Indices 1 2 3 4 5 6 
#
# 1 90.2212 3.5447 45.4642 0.0000 5.7254 0.0000
# 2 3.5447 116.9752 28.8541 0.0000 16.7375 0.0000
# 3 45.4642 28.8541 133.4825 0.0000 12.1265 0.0000
# 4 0.0000 0.0000 0.0000 46.2085 0.0000 11.2423
# 5 5.7254 16.7375 12.1265 0.0000 56.5054 0.0000
# 6 0.0000 0.0000 0.0000 11.2423 0.0000 46.2271
#
#
#
# Elastic Compliance Matrix: (Units=1/GPa)
#
#
# Indices 1 2 3 4 5 6 
#
# 1 0.013464 0.000841 -0.004713 0.000000 -0.000602 0.000000
# 2 0.000841 0.009386 -0.002096 0.000000 -0.002416 0.000000
# 3 -0.004713 -0.002096 0.009638 0.000000 -0.000970 0.000000
# 4 0.000000 0.000000 0.000000 0.023002 0.000000 -0.005594
# 5 -0.000602 -0.002416 -0.000970 0.000000 0.018682 0.000000
# 6 0.000000 0.000000 0.000000 -0.005594 0.000000 0.022993
#
#
# Mechanical properties :
#
#
# Convention : Reuss Voigt Hill
#
# Bulk Modulus (GPa) = 48.65740 55.15610 51.90675
# Shear Modulus (GPa) = 43.12147 47.30924 45.21536
#
# Velocity S-wave (km/s) = 3.93905 4.12589 4.03355
# Velocity P-wave (km/s) = 6.18031 6.52255 6.35373
#
# Compressibility (1/GPa) = 0.02055186
#
# Stress axis : x y z
#
# Youngs Moduli (GPa) = 74.27242 106.54225 103.75613
#
# Poissons Ratio (x) = -0.08956 0.48899
# Poissons Ratio (y) = -0.06244 0.21745
# Poissons Ratio (z) = 0.35004 0.22329
#
# Static dielectric constant tensor:
#      x y z
#    x 2.161820 0.000000 -0.005120 
#    y 0.000000 2.272270 0.000000 
#    z -0.005120 0.000000 2.228370 
# 
# From -- ./inp_files/21884.got.cif
#   From: 2010.05.17/outbox.cif.g08.bks.cpg/sg14_11_cif.got.tgz:21884.got - 2010.06.03 17:49:19.
