data_PCOD9252042
_publ_section_title
;
Structure prediction by ZEFSAII (Michael W. Deem and Ramdas Pophale) SiO2 
 PCOD9252042
Probable space group: P 21/C
;
_chemical_formula_sum "Si O2"
_cell_formula_units_Z 28
_cell_length_a 7.930346
_cell_length_b 15.388293
_cell_length_c 15.946819
_cell_angle_alpha 90.000000
_cell_angle_beta 36.034508
_cell_angle_gamma 90.000000
_cell_volume 1144.814496
_symmetry_space_group_name_H-M "P 21/C"
_symmetry_group_IT_number 14
_symmetry_cell_setting 'monoclinic'
loop_
_space_group_symop_operation_xyz
x,y,z
-x,1/2+y,1/2-z
-x,-y,-z
x,1/2-y,1/2+z
loop_
_atom_site_type_symbol
_atom_site_label
_atom_site_fract_x
_atom_site_fract_y
_atom_site_fract_z
Si Si1 0.580894 0.176457 0.719939
Si Si2 0.447089 0.265267 0.519312
Si Si3 0.074955 0.281645 0.319041
Si Si4 0.857371 0.550708 0.403098
Si Si5 0.587516 0.349898 0.799707
Si Si6 0.955743 0.604487 0.081045
Si Si7 0.700688 0.035747 0.795586
O O1 0.247775 0.175178 0.826745
O O2 0.670367 0.276461 0.697163
O O3 0.675373 0.131296 0.767948
O O4 0.743537 0.126811 0.580894
O O5 0.252659 0.209414 0.661681
O O6 0.271355 0.352204 0.564992
O O7 0.542898 0.202047 0.404791
O O8 0.740004 0.298745 0.444775
O O9 0.096411 0.178883 0.329394
O O10 0.638112 0.511201 0.559639
O O11 0.828516 0.488040 0.334381
O O12 0.183372 0.573137 0.291505
O O13 0.280250 0.383890 0.895557
O O14 0.890691 0.516145 0.153346
#
# Coordination Sequence:
#
# PCOD9252042 Si02
#       7
#     4   4   4   4   4   4   4
#     4  11  24  42  65 100 130 175 221 279 324 391
#     4  12  20  43  67 100 127 172 219 282 317 388
#     4  11  24  39  72  95 131 173 231 268 329 387
#     4  11  24  43  67  98 131 176 220 270 332 399
#     4  11  24  40  70  97 127 172 228 275 320 390
#     4  11  23  42  63  95 133 175 215 273 333 395
#     4  11  24  45  65  90 141 176 212 273 340 389
#
# _framework density 24.458110999999999
#
# number of rings (size 3 to 8) (size 9 to 14) (size 15 to 20)
#    0.000    0.857    5.714    1.286    2.000    0.571 
#    5.143    0.714    0.000    0.000    0.000    0.000 
#    0.000    0.000    0.000    0.000    0.000    0.000 
#
# Total GULP energy -156559.920266 kJ/mol
# GULP energy per Si atom -5591.425724 kJ/mol
# Density = 2.440244 g / cm^3
# Si number density = 24.458111 Si / 1000 Ang^3
#
#
#
# Elastic Constant Matrix: (Units=GPa)
#
#
# Indices 1 2 3 4 5 6 
#
# 1 46.9008 -12.6089 7.8411 0.0000 -15.3204 0.0000
# 2 -12.6089 31.6575 2.1391 0.0000 7.3238 0.0000
# 3 7.8411 2.1391 80.3266 0.0000 3.6931 0.0000
# 4 0.0000 0.0000 0.0000 35.3781 0.0000 -0.5363
# 5 -15.3204 7.3238 3.6931 0.0000 44.2416 0.0000
# 6 0.0000 0.0000 0.0000 -0.5363 0.0000 19.4434
#
#
#
# Elastic Compliance Matrix: (Units=1/GPa)
#
#
# Indices 1 2 3 4 5 6 
#
# 1 0.026951 0.009080 -0.003245 0.000000 0.008101 0.000000
# 2 0.009080 0.035936 -0.001721 0.000000 -0.002661 0.000000
# 3 -0.003245 -0.001721 0.012900 0.000000 -0.001916 0.000000
# 4 0.000000 0.000000 0.000000 0.028278 0.000000 0.000780
# 5 0.008101 -0.002661 -0.001916 0.000000 0.026009 0.000000
# 6 0.000000 0.000000 0.000000 0.000780 0.000000 0.051453
#
#
# Mechanical properties :
#
#
# Convention : Reuss Voigt Hill
#
# Bulk Modulus (GPa) = 11.90266 17.06971 14.48618
# Shear Modulus (GPa) = 24.83796 30.58021 27.70909
#
# Velocity S-wave (km/s) = 3.19020 3.53981 3.36954
# Velocity P-wave (km/s) = 4.29499 4.86840 4.59065
#
# Compressibility (1/GPa) = 0.08401486
#
# Stress axis : x y z
#
# Youngs Moduli (GPa) = 37.10395 27.82693 77.52023
#
# Poissons Ratio (x) = -0.25266 0.25156
# Poissons Ratio (y) = -0.33689 0.13341
# Poissons Ratio (z) = 0.12041 0.04789
#
# Static dielectric constant tensor:
#      x y z
#    x 1.952680 0.000000 0.056890 
#    y 0.000000 1.950910 0.000000 
#    z 0.056890 0.000000 1.951040 
# 
# From -- ./inp_files/56138.got.cif
#   From: 2010.05.17/outbox.cif.g08.bks.cpg/sg14_29_cif.got.tgz:56138.got - 2010.06.03 17:49:19.
