data_PCOD9252806
_publ_section_title
;
Structure prediction by ZEFSAII (Michael W. Deem and Ramdas Pophale) SiO2 
 PCOD9252806
Probable space group: P 21/C
;
_chemical_formula_sum "Si O2"
_cell_formula_units_Z 26
_cell_length_a 9.819554
_cell_length_b 19.193576
_cell_length_c 9.631887
_cell_angle_alpha 90.000000
_cell_angle_beta 139.322706
_cell_angle_gamma 90.000000
_cell_volume 1183.237706
_symmetry_space_group_name_H-M "P 21/C"
_symmetry_group_IT_number 14
_symmetry_cell_setting 'monoclinic'
loop_
_space_group_symop_operation_xyz
x,y,z
-x,1/2+y,1/2-z
-x,-y,-z
x,1/2-y,1/2+z
loop_
_atom_site_type_symbol
_atom_site_label
_atom_site_fract_x
_atom_site_fract_y
_atom_site_fract_z
Si Si1 0.550857 0.153805 0.670119
Si Si2 0.022022 0.695875 0.630110
Si Si3 0.161524 0.458964 0.526503
Si Si4 0.790277 0.757641 0.198154
Si Si5 0.791869 0.009033 0.252166
Si Si6 0.500000 0.500000 0.000000
Si Si7 0.492973 0.619590 0.549841
O O1 0.339916 0.193780 0.465884
O O2 0.542456 0.075219 0.608039
O O3 0.576757 0.149996 0.856396
O O4 0.744734 0.192383 0.747209
O O5 0.931363 0.617800 0.560792
O O6 0.873623 0.739637 0.413878
O O7 0.989511 0.726122 0.757131
O O8 0.171042 0.493497 0.382167
O O9 0.000000 0.500000 0.500000
O O10 0.379974 0.460315 0.775534
O O11 0.635389 0.823799 0.083703
O O12 0.633779 0.949635 0.183977
O O13 0.695542 0.086561 0.184835
O O14 0.000000 0.000000 0.500000
#
# Coordination Sequence:
#
# PCOD9252806 Si02
#       7
#     4   4   4   4   4   2   4
#     4  12  27  46  77 108 146 199 244 315 374 448
#     4  12  27  47  73 106 144 195 248 301 380 451
#     4  12  24  45  72 108 142 191 253 303 375 440
#     4  12  27  48  71 104 151 191 247 309 372 456
#     4  11  26  44  74 108 148 197 246 309 371 445
#     4  12  24  44  78 104 150 188 250 312 362 436
#     4  11  25  47  69 110 147 189 252 307 376 442
#
# _framework density 21.973607999999999
#
# number of rings (size 3 to 8) (size 9 to 14) (size 15 to 20)
#    0.000    0.308    7.692    0.000    4.308    2.462 
#    2.769    0.000    0.000    0.000    0.000    0.000 
#    0.000    0.000    0.000    0.000    0.000    0.000 
#
# Total GULP energy -145006.433441 kJ/mol
# GULP energy per Si atom -5577.170517 kJ/mol
# Density = 2.192359 g / cm^3
# Si number density = 21.973608 Si / 1000 Ang^3
#
#
#
# Elastic Constant Matrix: (Units=GPa)
#
#
# Indices 1 2 3 4 5 6 
#
# 1 117.1701 17.5695 5.8973 0.0000 -4.9724 0.0000
# 2 17.5695 46.7884 -22.4832 0.0000 1.8325 0.0000
# 3 5.8973 -22.4832 53.8056 0.0000 -3.1234 0.0000
# 4 0.0000 0.0000 0.0000 21.0754 0.0000 11.8470
# 5 -4.9724 1.8325 -3.1234 0.0000 18.6178 0.0000
# 6 0.0000 0.0000 0.0000 11.8470 0.0000 18.9442
#
#
#
# Elastic Compliance Matrix: (Units=1/GPa)
#
#
# Indices 1 2 3 4 5 6 
#
# 1 0.009571 -0.005164 -0.003059 0.000000 0.002551 0.000000
# 2 -0.005164 0.029539 0.012785 0.000000 -0.002142 0.000000
# 3 -0.003059 0.012785 0.024380 0.000000 0.002015 0.000000
# 4 0.000000 0.000000 0.000000 0.073170 0.000000 -0.045758
# 5 0.002551 -0.002142 0.002015 0.000000 0.054942 0.000000
# 6 0.000000 0.000000 0.000000 -0.045758 0.000000 0.081402
#
#
# Mechanical properties :
#
#
# Convention : Reuss Voigt Hill
#
# Bulk Modulus (GPa) = 13.77118 24.41459 19.09289
# Shear Modulus (GPa) = 17.35599 26.17952 21.76776
#
# Velocity S-wave (km/s) = 2.81349 3.45542 3.15085
# Velocity P-wave (km/s) = 4.10305 5.20143 4.68455
#
# Compressibility (1/GPa) = 0.07261542
#
# Stress axis : x y z
#
# Youngs Moduli (GPa) = 104.48102 33.85320 41.01732
#
# Poissons Ratio (x) = 0.17481 0.12546
# Poissons Ratio (y) = 0.53951 -0.52440
# Poissons Ratio (z) = 0.31957 -0.43281
#
# Static dielectric constant tensor:
#      x y z
#    x 1.831910 0.000000 0.038000 
#    y 0.000000 1.775300 0.000000 
#    z 0.038000 0.000000 1.766200 
# 
# From -- ./inp_files/10423.got.cif
#   From: 2010.05.17/outbox.cif.g08.bks.cpg/sg14_6_cif.got.tgz:10423.got - 2010.06.03 17:49:19.
