data_PCOD9252087
_publ_section_title
;
Structure prediction by ZEFSAII (Michael W. Deem and Ramdas Pophale) SiO2 
 PCOD9252087
Probable space group: P 21/C
;
_chemical_formula_sum "Si O2"
_cell_formula_units_Z 24
_cell_length_a 9.781990
_cell_length_b 5.412762
_cell_length_c 21.855853
_cell_angle_alpha 90.000000
_cell_angle_beta 110.733054
_cell_angle_gamma 90.000000
_cell_volume 1082.273337
_symmetry_space_group_name_H-M "P 21/C"
_symmetry_group_IT_number 14
_symmetry_cell_setting 'monoclinic'
loop_
_space_group_symop_operation_xyz
x,y,z
-x,1/2+y,1/2-z
-x,-y,-z
x,1/2-y,1/2+z
loop_
_atom_site_type_symbol
_atom_site_label
_atom_site_fract_x
_atom_site_fract_y
_atom_site_fract_z
Si Si1 0.339648 0.395024 0.984031
Si Si2 0.064178 0.975715 0.080069
Si Si3 0.237070 0.602098 0.410493
Si Si4 0.422853 0.423022 0.331171
Si Si5 0.329259 0.227496 0.197558
Si Si6 0.686747 0.393892 0.895941
O O1 0.323927 0.113764 0.960711
O O2 0.245847 0.615631 0.936597
O O3 0.500000 0.500000 0.000000
O O4 0.305498 0.402175 0.050414
O O5 0.156387 0.728459 0.084361
O O6 0.926270 0.003225 0.103192
O O7 0.187841 0.131275 0.137706
O O8 0.000000 0.000000 0.000000
O O9 0.311508 0.576518 0.355670
O O10 0.333143 0.241789 0.271417
O O11 0.530432 0.588196 0.307116
O O12 0.545934 0.274287 0.389386
O O13 0.344402 0.505022 0.175716
#
# Coordination Sequence:
#
# PCOD9252087 Si02
#       6
#     4   4   4   4   4   4
#     4  12  24  42  71 107 141 181 242 299 358 411
#     4  11  25  46  69 105 144 187 234 290 368 433
#     4  12  27  44  71 108 145 184 237 300 359 430
#     4  11  24  45  70 103 136 186 244 293 352 424
#     4  11  24  45  71 100 140 189 243 294 360 430
#     4  11  23  42  74  97 140 186 236 294 354 427
#
# _framework density 22.175545
#
# number of rings (size 3 to 8) (size 9 to 14) (size 15 to 20)
#    0.000    0.667    5.000    2.500    4.667    1.333 
#    3.000    0.000    0.000    0.000    0.000    0.000 
#    0.000    0.000    0.000    0.000    0.000    0.000 
#
# Total GULP energy -133652.222477 kJ/mol
# GULP energy per Si atom -5568.842603 kJ/mol
# Density = 2.212507 g / cm^3
# Si number density = 22.175545 Si / 1000 Ang^3
#
#
#
# Elastic Constant Matrix: (Units=GPa)
#
#
# Indices 1 2 3 4 5 6 
#
# 1 119.2141 -12.4805 36.9481 0.0000 10.1167 0.0000
# 2 -12.4805 32.1936 24.0207 0.0000 8.9460 0.0000
# 3 36.9481 24.0207 101.2196 0.0000 5.3962 0.0000
# 4 0.0000 0.0000 0.0000 27.0172 0.0000 -7.6485
# 5 10.1167 8.9460 5.3962 0.0000 27.2607 0.0000
# 6 0.0000 0.0000 0.0000 -7.6485 0.0000 10.6497
#
#
#
# Elastic Compliance Matrix: (Units=1/GPa)
#
#
# Indices 1 2 3 4 5 6 
#
# 1 0.012433 0.012049 -0.007015 0.000000 -0.007180 0.000000
# 2 0.012049 0.052804 -0.015935 0.000000 -0.018646 0.000000
# 3 -0.007015 -0.015935 0.015973 0.000000 0.004671 0.000000
# 4 0.000000 0.000000 0.000000 0.046460 0.000000 0.033367
# 5 -0.007180 -0.018646 0.004671 0.000000 0.044541 0.000000
# 6 0.000000 0.000000 0.000000 0.033367 0.000000 0.117864
#
#
# Mechanical properties :
#
#
# Convention : Reuss Voigt Hill
#
# Bulk Modulus (GPa) = 16.83283 38.84488 27.83885
# Shear Modulus (GPa) = 15.07476 26.59479 20.83478
#
# Velocity S-wave (km/s) = 2.61011 3.46683 3.06851
# Velocity P-wave (km/s) = 4.08543 5.79484 5.01353
#
# Compressibility (1/GPa) = 0.05940772
#
# Stress axis : x y z
#
# Youngs Moduli (GPa) = 80.43000 18.93785 62.60613
#
# Poissons Ratio (x) = -0.22819 0.43919
# Poissons Ratio (y) = -0.96912 0.99765
# Poissons Ratio (z) = 0.56423 0.30178
#
# Static dielectric constant tensor:
#      x y z
#    x 1.879230 0.000000 0.076140 
#    y 0.000000 1.966510 0.000000 
#    z 0.076140 0.000000 1.922850 
# 
# From -- ./inp_files/71674.got.cif
#   From: 2010.05.17/outbox.cif.g08.bks.cpg/sg14_36_cif.got.tgz:71674.got - 2010.06.03 17:49:19.
