data_PCOD9252135
_publ_section_title
;
Structure prediction by ZEFSAII (Michael W. Deem and Ramdas Pophale) SiO2 
 PCOD9252135
Probable space group: P 21/C
;
_chemical_formula_sum "Si O2"
_cell_formula_units_Z 28
_cell_length_a 8.770500
_cell_length_b 11.467446
_cell_length_c 20.393961
_cell_angle_alpha 90.000000
_cell_angle_beta 141.706146
_cell_angle_gamma 90.000000
_cell_volume 1271.073094
_symmetry_space_group_name_H-M "P 21/C"
_symmetry_group_IT_number 14
_symmetry_cell_setting 'monoclinic'
loop_
_space_group_symop_operation_xyz
x,y,z
-x,1/2+y,1/2-z
-x,-y,-z
x,1/2-y,1/2+z
loop_
_atom_site_type_symbol
_atom_site_label
_atom_site_fract_x
_atom_site_fract_y
_atom_site_fract_z
Si Si1 0.963388 0.065314 0.380481
Si Si2 0.080189 0.313809 0.654728
Si Si3 0.177320 0.559362 0.739709
Si Si4 0.885195 0.773059 0.678607
Si Si5 0.454333 0.370022 0.238948
Si Si6 0.785863 0.269188 0.932998
Si Si7 0.530446 0.076977 0.436012
O O1 0.956139 0.158736 0.438942
O O2 0.948006 0.140084 0.308779
O O3 0.738753 0.973675 0.312738
O O4 0.218230 0.991168 0.464743
O O5 0.095221 0.452406 0.666133
O O6 0.063739 0.275138 0.725757
O O7 0.308871 0.250468 0.697089
O O8 0.876757 0.266518 0.535942
O O9 0.408346 0.619899 0.782956
O O10 0.301500 0.510401 0.847859
O O11 0.954423 0.645198 0.677963
O O12 0.605783 0.818233 0.571282
O O13 0.675102 0.347487 0.364550
O O14 0.582568 0.365803 0.882984
#
# Coordination Sequence:
#
# PCOD9252135 Si02
#       7
#     4   4   4   4   4   4   4
#     4  12  24  45  76 105 135 195 249 289 343 428
#     4  11  26  43  71 101 147 184 229 299 360 416
#     4  11  24  46  68 104 144 188 236 296 356 417
#     4  11  26  44  68 106 147 182 237 294 362 422
#     4  12  22  44  75  98 143 185 243 294 345 417
#     4  12  23  44  71 108 137 188 241 287 354 427
#     4  11  23  43  74 104 142 186 240 293 348 424
#
# _framework density 22.028631000000001
#
# number of rings (size 3 to 8) (size 9 to 14) (size 15 to 20)
#    0.000    0.571    7.143    1.714    4.000    1.714 
#    0.000    2.857    0.000    0.000    0.000    0.000 
#    0.000    0.000    0.000    0.000    0.000    0.000 
#
# Total GULP energy -155974.972149 kJ/mol
# GULP energy per Si atom -5570.534720 kJ/mol
# Density = 2.197849 g / cm^3
# Si number density = 22.028631 Si / 1000 Ang^3
#
#
#
# Elastic Constant Matrix: (Units=GPa)
#
#
# Indices 1 2 3 4 5 6 
#
# 1 126.6965 70.7105 34.1398 0.0000 -1.9822 0.0000
# 2 70.7105 137.2364 54.5056 0.0000 5.6552 0.0000
# 3 34.1398 54.5056 73.8466 0.0000 2.7519 0.0000
# 4 0.0000 0.0000 0.0000 23.1093 0.0000 -18.3273
# 5 -1.9822 5.6552 2.7519 0.0000 24.8200 0.0000
# 6 0.0000 0.0000 0.0000 -18.3273 0.0000 14.8064
#
#
#
# Elastic Compliance Matrix: (Units=1/GPa)
#
#
# Indices 1 2 3 4 5 6 
#
# 1 0.011292 -0.005383 -0.001332 0.000000 0.002276 0.000000
# 2 -0.005383 0.012931 -0.006959 0.000000 -0.002605 0.000000
# 3 -0.001332 -0.006959 0.019318 0.000000 -0.000663 0.000000
# 4 0.000000 0.000000 0.000000 2.359026 0.000000 2.919982
# 5 0.002276 -0.002605 -0.000663 0.000000 0.041139 0.000000
# 6 0.000000 0.000000 0.000000 2.919982 0.000000 3.681868
#
#
# Mechanical properties :
#
#
# Convention : Reuss Voigt Hill
#
# Bulk Modulus (GPa) = 61.75169 72.94346 67.34758
# Shear Modulus (GPa) = 0.81191 24.44206 12.62698
#
# Velocity S-wave (km/s) = 0.60776 3.33462 2.39677
# Velocity P-wave (km/s) = 5.34657 6.92901 6.18858
#
# Compressibility (1/GPa) = 0.01619389
#
# Stress axis : x y z
#
# Youngs Moduli (GPa) = 88.56196 77.33186 51.76394
#
# Poissons Ratio (x) = 0.41625 0.06895
# Poissons Ratio (y) = 0.47670 0.36022
# Poissons Ratio (z) = 0.11797 0.53815
#
# Static dielectric constant tensor:
#      x y z
#    x 1.846880 0.000000 0.028470 
#    y 0.000000 1.904230 0.000000 
#    z 0.028470 0.000000 1.933090 
# 
# From -- ./inp_files/65654.got.cif
#   From: 2010.05.17/outbox.cif.g08.bks.cpg/sg14_33_cif.got.tgz:65654.got - 2010.06.03 17:49:19.
