data_PCOD9252625
_publ_section_title
;
Structure prediction by ZEFSAII (Michael W. Deem and Ramdas Pophale) SiO2 
 PCOD9252625
Probable space group: P 21/C
;
_chemical_formula_sum "Si O2"
_cell_formula_units_Z 20
_cell_length_a 9.548870
_cell_length_b 9.989786
_cell_length_c 17.484599
_cell_angle_alpha 90.000000
_cell_angle_beta 29.917768
_cell_angle_gamma 90.000000
_cell_volume 831.864237
_symmetry_space_group_name_H-M "P 21/C"
_symmetry_group_IT_number 14
_symmetry_cell_setting 'monoclinic'
loop_
_space_group_symop_operation_xyz
x,y,z
-x,1/2+y,1/2-z
-x,-y,-z
x,1/2-y,1/2+z
loop_
_atom_site_type_symbol
_atom_site_label
_atom_site_fract_x
_atom_site_fract_y
_atom_site_fract_z
Si Si1 0.517956 0.818595 0.228557
Si Si2 0.836603 0.784043 0.814059
Si Si3 0.919398 0.576954 0.649934
Si Si4 0.598436 0.348611 0.866836
Si Si5 0.480564 0.433000 0.662696
O O1 0.821604 0.866774 0.114818
O O2 0.490942 0.736680 0.163829
O O3 0.452396 0.708418 0.326218
O O4 0.358798 0.958031 0.280687
O O5 0.970741 0.695388 0.684129
O O6 0.693724 0.903405 0.832035
O O7 0.090604 0.820274 0.748846
O O8 0.615384 0.693314 0.965520
O O9 0.648803 0.497112 0.810003
O O10 0.218777 0.506493 0.503586
#
# Coordination Sequence:
#
# PCOD9252625 Si02
#       5
#     4   4   4   4   4
#     4  11  25  43  73 106 139 191 235 293 353 425
#     4  11  26  45  72 108 143 186 240 295 359 424
#     4  11  24  48  71 101 148 189 240 292 357 425
#     4  12  25  45  73 105 141 191 237 297 356 423
#     4  11  24  49  73 105 145 193 237 295 355 427
#
# _framework density 24.042384999999999
#
# number of rings (size 3 to 8) (size 9 to 14) (size 15 to 20)
#    0.000    0.800    4.000    2.400    5.600    1.600 
#    0.000    5.000    0.000    0.000    0.000    0.000 
#    0.000    0.000    0.000    0.000    0.000    0.000 
#
# Total GULP energy -111523.394357 kJ/mol
# GULP energy per Si atom -5576.169718 kJ/mol
# Density = 2.398766 g / cm^3
# Si number density = 24.042385 Si / 1000 Ang^3
#
#
#
# Elastic Constant Matrix: (Units=GPa)
#
#
# Indices 1 2 3 4 5 6 
#
# 1 139.6317 16.5584 21.9116 0.0000 -1.7342 0.0000
# 2 16.5584 55.4508 -11.2532 0.0000 9.4304 0.0000
# 3 21.9116 -11.2532 48.5559 0.0000 7.8985 0.0000
# 4 0.0000 0.0000 0.0000 30.7144 0.0000 15.4422
# 5 -1.7342 9.4304 7.8985 0.0000 14.9392 0.0000
# 6 0.0000 0.0000 0.0000 15.4422 0.0000 42.1202
#
#
#
# Elastic Compliance Matrix: (Units=1/GPa)
#
#
# Indices 1 2 3 4 5 6 
#
# 1 0.008916 -0.005323 -0.006534 0.000000 0.007850 0.000000
# 2 -0.005323 0.026138 0.012302 0.000000 -0.023622 0.000000
# 3 -0.006534 0.012302 0.030395 0.000000 -0.024595 0.000000
# 4 0.000000 0.000000 0.000000 0.039915 0.000000 -0.014634
# 5 0.007850 -0.023622 -0.024595 0.000000 0.095764 0.000000
# 6 0.000000 0.000000 0.000000 -0.014634 0.000000 0.029107
#
#
# Mechanical properties :
#
#
# Convention : Reuss Voigt Hill
#
# Bulk Modulus (GPa) = 15.07420 33.11909 24.09665
# Shear Modulus (GPa) = 19.88402 31.98287 25.93344
#
# Velocity S-wave (km/s) = 2.87895 3.65124 3.28785
# Velocity P-wave (km/s) = 4.16348 5.61967 4.94546
#
# Compressibility (1/GPa) = 0.06633850
#
# Stress axis : x y z
#
# Youngs Moduli (GPa) = 112.15985 38.25901 32.89971
#
# Poissons Ratio (x) = 0.20367 0.21497
# Poissons Ratio (y) = 0.59708 -0.40475
# Poissons Ratio (z) = 0.73287 -0.47068
#
# Static dielectric constant tensor:
#      x y z
#    x 1.895790 0.000000 0.027290 
#    y 0.000000 2.003990 0.000000 
#    z 0.027290 0.000000 1.896690 
# 
# From -- ./inp_files/7874.got.cif
#   From: 2010.05.17/outbox.cif.g08.bks.cpg/sg14_4_cif.got.tgz:7874.got - 2010.06.03 17:49:19.
