data_PCOD9252015
_publ_section_title
;
Structure prediction by ZEFSAII (Michael W. Deem and Ramdas Pophale) SiO2 
 PCOD9252015
Probable space group: P 21/C
;
_chemical_formula_sum "Si O2"
_cell_formula_units_Z 32
_cell_length_a 8.971758
_cell_length_b 9.794368
_cell_length_c 15.108800
_cell_angle_alpha 90.000000
_cell_angle_beta 86.297587
_cell_angle_gamma 90.000000
_cell_volume 1324.880101
_symmetry_space_group_name_H-M "P 21/C"
_symmetry_group_IT_number 14
_symmetry_cell_setting 'monoclinic'
loop_
_space_group_symop_operation_xyz
x,y,z
-x,1/2+y,1/2-z
-x,-y,-z
x,1/2-y,1/2+z
loop_
_atom_site_type_symbol
_atom_site_label
_atom_site_fract_x
_atom_site_fract_y
_atom_site_fract_z
Si Si1 0.959056 0.285807 0.712644
Si Si2 0.854186 0.103490 0.564481
Si Si3 0.358674 0.792987 0.196060
Si Si4 0.411610 0.860558 0.997602
Si Si5 0.492763 0.890709 0.422696
Si Si6 0.063225 0.304699 0.904158
Si Si7 0.457056 0.523554 0.254735
Si Si8 0.819230 0.991417 0.105494
O O1 0.962477 0.167104 0.636918
O O2 0.801242 0.255577 0.766568
O O3 0.942928 0.426306 0.657805
O O4 0.060061 0.297257 0.796352
O O5 0.683014 0.142246 0.588853
O O6 0.914539 0.156144 0.467220
O O7 0.845477 0.939354 0.571773
O O8 0.383977 0.787293 0.091421
O O9 0.467062 0.685141 0.241054
O O10 0.394156 0.948097 0.220155
O O11 0.533607 0.762298 0.945439
O O12 0.500000 0.000000 0.000000
O O13 0.250561 0.908445 0.965369
O O14 0.500000 0.000000 0.500000
O O15 0.576798 0.957888 0.338684
O O16 0.123422 0.155150 0.928361
O O17 0.325425 0.479907 0.325271
#
# Coordination Sequence:
#
# PCOD9252015 Si02
#       8
#     4   4   4   4   4   4   4   4
#     4  11  23  47  70  96 136 184 235 289 343 414
#     4  11  25  48  71 101 139 182 239 290 344 428
#     4  11  23  41  67  98 140 179 226 293 352 420
#     4  12  24  43  64 105 144 178 227 290 354 430
#     4  12  24  44  72 101 140 186 228 287 369 415
#     4  11  27  47  70  99 139 187 239 287 346 420
#     4  11  23  41  69 100 138 177 229 291 353 421
#     4  11  25  45  69 103 144 177 234 299 345 422
#
# _framework density 24.153130000000001
#
# number of rings (size 3 to 8) (size 9 to 14) (size 15 to 20)
#    0.000    0.750    5.000    2.250    5.250    0.500 
#    2.250    0.000    0.000    0.000    0.000    0.000 
#    0.000    0.000    0.000    0.000    0.000    0.000 
#
# Total GULP energy -178634.247020 kJ/mol
# GULP energy per Si atom -5582.320219 kJ/mol
# Density = 2.409816 g / cm^3
# Si number density = 24.153130 Si / 1000 Ang^3
#
#
#
# Elastic Constant Matrix: (Units=GPa)
#
#
# Indices 1 2 3 4 5 6 
#
# 1 12.4866 12.8521 -6.2807 0.0000 4.0866 0.0000
# 2 12.8521 158.4692 18.9505 0.0000 2.2488 0.0000
# 3 -6.2807 18.9505 101.1877 0.0000 -1.6311 0.0000
# 4 0.0000 0.0000 0.0000 37.6419 0.0000 -4.4165
# 5 4.0866 2.2488 -1.6311 0.0000 25.6160 0.0000
# 6 0.0000 0.0000 0.0000 -4.4165 0.0000 26.6569
#
#
#
# Elastic Compliance Matrix: (Units=1/GPa)
#
#
# Indices 1 2 3 4 5 6 
#
# 1 0.097326 -0.008577 0.007417 0.000000 -0.014302 0.000000
# 2 -0.008577 0.007221 -0.001875 0.000000 0.000615 0.000000
# 3 0.007417 -0.001875 0.010689 0.000000 -0.000338 0.000000
# 4 0.000000 0.000000 0.000000 0.027093 0.000000 0.004489
# 5 -0.014302 0.000615 -0.000338 0.000000 0.041244 0.000000
# 6 0.000000 0.000000 0.000000 0.004489 0.000000 0.038257
#
#
# Mechanical properties :
#
#
# Convention : Reuss Voigt Hill
#
# Bulk Modulus (GPa) = 9.16041 35.90968 22.53505
# Shear Modulus (GPa) = 18.91863 34.42439 26.67151
#
# Velocity S-wave (km/s) = 2.80175 3.77935 3.32666
# Velocity P-wave (km/s) = 3.77720 5.82619 4.90977
#
# Compressibility (1/GPa) = 0.10916538
#
# Stress axis : x y z
#
# Youngs Moduli (GPa) = 10.27476 138.47556 93.55694
#
# Poissons Ratio (x) = 1.18774 -0.69390
# Poissons Ratio (y) = 0.08813 0.17541
# Poissons Ratio (z) = -0.07621 0.25963
#
# Static dielectric constant tensor:
#      x y z
#    x 1.976260 0.000000 0.082220 
#    y 0.000000 1.986920 0.000000 
#    z 0.082220 0.000000 2.057640 
# 
# From -- ./inp_files/43751.got.cif
#   From: 2010.05.17/outbox.cif.g08.bks.cpg/sg14_22_cif.got.tgz:43751.got - 2010.06.03 17:49:19.
