data_PCOD9252595
_publ_section_title
;
Structure prediction by ZEFSAII (Michael W. Deem and Ramdas Pophale) SiO2 
 PCOD9252595
Probable space group: P 21/C
;
_chemical_formula_sum "Si O2"
_cell_formula_units_Z 30
_cell_length_a 9.950365
_cell_length_b 9.545475
_cell_length_c 14.013116
_cell_angle_alpha 90.000000
_cell_angle_beta 65.081733
_cell_angle_gamma 90.000000
_cell_volume 1207.078006
_symmetry_space_group_name_H-M "P 21/C"
_symmetry_group_IT_number 14
_symmetry_cell_setting 'monoclinic'
loop_
_space_group_symop_operation_xyz
x,y,z
-x,1/2+y,1/2-z
-x,-y,-z
x,1/2-y,1/2+z
loop_
_atom_site_type_symbol
_atom_site_label
_atom_site_fract_x
_atom_site_fract_y
_atom_site_fract_z
Si Si1 0.181353 0.989237 0.579594
Si Si2 0.288779 0.769481 0.168967
Si Si3 0.000000 0.000000 0.000000
Si Si4 0.263802 0.301046 0.563828
Si Si5 0.592519 0.627241 0.654585
Si Si6 0.051128 0.991599 0.193330
Si Si7 0.805141 0.223739 0.582360
Si Si8 0.513865 0.828312 0.838527
O O1 0.262459 0.877400 0.624734
O O2 0.153442 0.917421 0.486059
O O3 0.032515 0.021424 0.682814
O O4 0.265982 0.136170 0.545701
O O5 0.461697 0.804182 0.129680
O O6 0.227653 0.778507 0.295396
O O7 0.191681 0.887866 0.145940
O O8 0.920695 0.154811 0.027803
O O9 0.045876 0.028572 0.871513
O O10 0.267995 0.379566 0.459422
O O11 0.116678 0.352054 0.661151
O O12 0.392887 0.351550 0.594852
O O13 0.605599 0.726792 0.741262
O O14 0.531544 0.474127 0.697674
O O15 0.641729 0.258739 0.589794
#
# Coordination Sequence:
#
# PCOD9252595 Si02
#       8
#     4   4   2   4   4   4   4   4
#     4  12  27  45  71 111 144 195 247 309 365 446
#     4  11  24  47  71  99 148 191 238 304 373 434
#     4  12  24  44  74 102 142 200 246 286 374 448
#     4  12  28  45  78 110 146 190 253 305 376 449
#     4  11  26  46  74 108 146 190 244 306 373 448
#     4  12  26  49  71 104 146 200 245 303 371 448
#     4  11  26  45  76 105 150 191 248 306 378 443
#     4  11  26  49  77 110 145 194 244 311 377 450
#
# _framework density 24.853407000000001
#
# number of rings (size 3 to 8) (size 9 to 14) (size 15 to 20)
#    0.000    0.533    4.000    2.800    7.467    2.667 
#    0.000    0.000    0.000    0.000    0.000    0.000 
#    0.000    0.000    0.000    0.000    0.000    0.000 
#
# Total GULP energy -167563.392013 kJ/mol
# GULP energy per Si atom -5585.446400 kJ/mol
# Density = 2.479684 g / cm^3
# Si number density = 24.853407 Si / 1000 Ang^3
#
#
#
# Elastic Constant Matrix: (Units=GPa)
#
#
# Indices 1 2 3 4 5 6 
#
# 1 49.4838 -12.3010 -7.6922 0.0000 14.4481 0.0000
# 2 -12.3010 111.9054 20.1401 0.0000 10.0911 0.0000
# 3 -7.6922 20.1401 120.9651 0.0000 16.3827 0.0000
# 4 0.0000 0.0000 0.0000 44.5335 0.0000 1.1557
# 5 14.4481 10.0911 16.3827 0.0000 33.5629 0.0000
# 6 0.0000 0.0000 0.0000 1.1557 0.0000 41.1723
#
#
#
# Elastic Compliance Matrix: (Units=1/GPa)
#
#
# Indices 1 2 3 4 5 6 
#
# 1 0.025427 0.003489 0.002849 0.000000 -0.013386 0.000000
# 2 0.003489 0.009840 -0.000870 0.000000 -0.004036 0.000000
# 3 0.002849 -0.000870 0.009341 0.000000 -0.005524 0.000000
# 4 0.000000 0.000000 0.000000 0.022471 0.000000 -0.000631
# 5 -0.013386 -0.004036 -0.005524 0.000000 0.039467 0.000000
# 6 0.000000 0.000000 0.000000 -0.000631 0.000000 0.024306
#
#
# Mechanical properties :
#
#
# Convention : Reuss Voigt Hill
#
# Bulk Modulus (GPa) = 18.00342 31.40535 24.70438
# Shear Modulus (GPa) = 36.11910 42.66758 39.39334
#
# Velocity S-wave (km/s) = 3.81633 4.14789 3.98556
# Velocity P-wave (km/s) = 5.16515 5.96688 5.58043
#
# Compressibility (1/GPa) = 0.05554500
#
# Stress axis : x y z
#
# Youngs Moduli (GPa) = 39.32806 101.62412 107.05489
#
# Poissons Ratio (x) = -0.35460 -0.30498
# Poissons Ratio (y) = -0.13723 0.09312
# Poissons Ratio (z) = -0.11204 0.08840
#
# Static dielectric constant tensor:
#      x y z
#    x 1.934720 0.000000 -0.003640 
#    y 0.000000 1.920350 0.000000 
#    z -0.003640 0.000000 1.971950 
# 
# From -- ./inp_files/43523.got.cif
#   From: 2010.05.17/outbox.cif.g08.bks.cpg/sg14_22_cif.got.tgz:43523.got - 2010.06.03 17:49:19.
