data_PCOD9252149
_publ_section_title
;
Structure prediction by ZEFSAII (Michael W. Deem and Ramdas Pophale) SiO2 
 PCOD9252149
Probable space group: P 21/C
;
_chemical_formula_sum "Si O2"
_cell_formula_units_Z 28
_cell_length_a 6.894013
_cell_length_b 13.221169
_cell_length_c 22.152146
_cell_angle_alpha 90.000000
_cell_angle_beta 134.661575
_cell_angle_gamma 90.000000
_cell_volume 1436.127130
_symmetry_space_group_name_H-M "P 21/C"
_symmetry_group_IT_number 14
_symmetry_cell_setting 'monoclinic'
loop_
_space_group_symop_operation_xyz
x,y,z
-x,1/2+y,1/2-z
-x,-y,-z
x,1/2-y,1/2+z
loop_
_atom_site_type_symbol
_atom_site_label
_atom_site_fract_x
_atom_site_fract_y
_atom_site_fract_z
Si Si1 0.209204 0.906747 0.045832
Si Si2 0.244033 0.565480 0.196859
Si Si3 0.701524 0.445409 0.654851
Si Si4 0.947478 0.285521 0.368721
Si Si5 0.299613 0.565624 0.914129
Si Si6 0.280305 0.950701 0.269163
Si Si7 0.593543 0.207448 0.023213
O O1 0.140841 0.842521 0.089719
O O2 0.506529 0.957392 0.111768
O O3 0.215778 0.839058 0.987285
O O4 0.000000 0.000000 0.000000
O O5 0.318200 0.594909 0.281654
O O6 0.491068 0.510836 0.217583
O O7 0.146261 0.669839 0.146265
O O8 0.996290 0.485820 0.145244
O O9 0.610213 0.366389 0.584456
O O10 0.008003 0.481092 0.709499
O O11 0.275746 0.288424 0.433804
O O12 0.803485 0.346643 0.282627
O O13 0.370306 0.563716 0.858276
O O14 0.310545 0.680689 0.938608
O O15 0.500000 0.500000 0.000000
#
# Coordination Sequence:
#
# PCOD9252149 Si02
#       7
#     4   4   4   4   4   4   4
#     4  12  24  41  70 104 133 179 235 283 337 413
#     4  11  26  44  71  98 140 179 233 281 339 419
#     4  11  23  44  67 100 135 176 225 287 342 394
#     4  12  24  43  70 102 134 188 227 279 351 401
#     4  11  26  47  68  99 136 184 230 277 341 412
#     4  11  25  45  70  98 141 175 229 287 337 410
#     4  12  25  43  72  99 144 180 225 284 344 407
#
# _framework density 19.496881999999999
#
# number of rings (size 3 to 8) (size 9 to 14) (size 15 to 20)
#    0.000    0.571    5.714    2.143    2.000    2.857 
#    0.000    0.000    0.000    0.000    0.000    0.000 
#    0.000    0.000    0.000    0.000    0.000    0.000 
#
# Total GULP energy -156561.420038 kJ/mol
# GULP energy per Si atom -5591.479287 kJ/mol
# Density = 1.945251 g / cm^3
# Si number density = 19.496882 Si / 1000 Ang^3
#
#
#
# Elastic Constant Matrix: (Units=GPa)
#
#
# Indices 1 2 3 4 5 6 
#
# 1 122.2712 50.1433 43.7533 0.0000 -9.1639 0.0000
# 2 50.1433 124.2947 33.5599 0.0000 -14.1383 0.0000
# 3 43.7533 33.5599 85.2675 0.0000 -11.9902 0.0000
# 4 0.0000 0.0000 0.0000 36.3664 0.0000 8.9700
# 5 -9.1639 -14.1383 -11.9902 0.0000 25.8265 0.0000
# 6 0.0000 0.0000 0.0000 8.9700 0.0000 15.4301
#
#
#
# Elastic Compliance Matrix: (Units=1/GPa)
#
#
# Indices 1 2 3 4 5 6 
#
# 1 0.011104 -0.003282 -0.004391 0.000000 0.000105 0.000000
# 2 -0.003282 0.010280 -0.001856 0.000000 0.003602 0.000000
# 3 -0.004391 -0.001856 0.015352 0.000000 0.004553 0.000000
# 4 0.000000 0.000000 0.000000 0.032101 0.000000 -0.018661
# 5 0.000105 0.003602 0.004553 0.000000 0.042843 0.000000
# 6 0.000000 0.000000 0.000000 -0.018661 0.000000 0.075657
#
#
# Mechanical properties :
#
#
# Convention : Reuss Voigt Hill
#
# Bulk Modulus (GPa) = 56.56745 65.19404 60.88075
# Shear Modulus (GPa) = 23.55317 29.14973 26.35145
#
# Velocity S-wave (km/s) = 3.47947 3.87084 3.68036
# Velocity P-wave (km/s) = 6.72450 7.31360 7.02522
#
# Compressibility (1/GPa) = 0.01767801
#
# Stress axis : x y z
#
# Youngs Moduli (GPa) = 90.06067 97.27542 65.13963
#
# Poissons Ratio (x) = 0.31925 0.28604
# Poissons Ratio (y) = 0.29557 0.12087
# Poissons Ratio (z) = 0.39547 0.18050
#
# Static dielectric constant tensor:
#      x y z
#    x 1.659260 0.000000 -0.001710 
#    y 0.000000 1.652260 0.000000 
#    z -0.001710 0.000000 1.713650 
# 
# From -- ./inp_files/63587.got.cif
#   From: 2010.05.17/outbox.cif.g08.bks.cpg/sg14_32_cif.got.tgz:63587.got - 2010.06.03 17:49:19.
