data_PCOD9252693
_publ_section_title
;
Structure prediction by ZEFSAII (Michael W. Deem and Ramdas Pophale) SiO2 
 PCOD9252693
Probable space group: P 21/C
;
_chemical_formula_sum "Si O2"
_cell_formula_units_Z 16
_cell_length_a 17.323838
_cell_length_b 5.292663
_cell_length_c 9.127947
_cell_angle_alpha 90.000000
_cell_angle_beta 44.629292
_cell_angle_gamma 90.000000
_cell_volume 587.960690
_symmetry_space_group_name_H-M "P 21/C"
_symmetry_group_IT_number 14
_symmetry_cell_setting 'monoclinic'
loop_
_space_group_symop_operation_xyz
x,y,z
-x,1/2+y,1/2-z
-x,-y,-z
x,1/2-y,1/2+z
loop_
_atom_site_type_symbol
_atom_site_label
_atom_site_fract_x
_atom_site_fract_y
_atom_site_fract_z
Si Si1 0.902188 0.935410 0.948076
Si Si2 0.570512 0.562741 0.649296
Si Si3 0.858300 0.225172 0.278170
Si Si4 0.709922 0.904095 0.675251
O O1 0.879625 0.996568 0.809550
O O2 0.860422 0.165383 0.105316
O O3 0.029392 0.902990 0.810833
O O4 0.820846 0.711142 0.093915
O O5 0.509134 0.304125 0.775319
O O6 0.646239 0.679543 0.675485
O O7 0.636420 0.506513 0.410070
O O8 0.751442 0.103378 0.497534
#
# Coordination Sequence:
#
# PCOD9252693 Si02
#       4
#     4   4   4   4
#     4  11  25  43  69 109 151 192 241 295 372 466
#     4  12  30  52  74 106 146 198 266 324 370 434
#     4  11  25  43  69 109 151 192 241 295 372 466
#     4  12  26  46  74 106 144 198 244 310 386 438
#
# _framework density 27.212702
#
# number of rings (size 3 to 8) (size 9 to 14) (size 15 to 20)
#    0.000    0.500    5.000    1.500   10.500    1.000 
#    0.000    0.000    0.000    0.000    0.000    0.000 
#    0.000    0.000    0.000    0.000    0.000    0.000 
#
# Total GULP energy -89716.285997 kJ/mol
# GULP energy per Si atom -5607.267875 kJ/mol
# Density = 2.715076 g / cm^3
# Si number density = 27.212702 Si / 1000 Ang^3
#
#
#
# Elastic Constant Matrix: (Units=GPa)
#
#
# Indices 1 2 3 4 5 6 
#
# 1 101.0557 29.7486 45.5265 0.0000 4.9643 0.0000
# 2 29.7486 79.6120 26.2925 0.0000 -23.6649 0.0000
# 3 45.5265 26.2925 164.9992 0.0000 -10.8388 0.0000
# 4 0.0000 0.0000 0.0000 33.5175 0.0000 -2.0845
# 5 4.9643 -23.6649 -10.8388 0.0000 48.3013 0.0000
# 6 0.0000 0.0000 0.0000 -2.0845 0.0000 56.1787
#
#
#
# Elastic Compliance Matrix: (Units=1/GPa)
#
#
# Indices 1 2 3 4 5 6 
#
# 1 0.013040 -0.005224 -0.003067 0.000000 -0.004588 0.000000
# 2 -0.005224 0.017404 -0.000748 0.000000 0.008896 0.000000
# 3 -0.003067 -0.000748 0.007128 0.000000 0.001548 0.000000
# 4 0.000000 0.000000 0.000000 0.029904 0.000000 0.001110
# 5 -0.004588 0.008896 0.001548 0.000000 0.025881 0.000000
# 6 0.000000 0.000000 0.000000 0.001110 0.000000 0.017842
#
#
# Mechanical properties :
#
#
# Convention : Reuss Voigt Hill
#
# Bulk Modulus (GPa) = 51.29365 60.97801 56.13583
# Shear Modulus (GPa) = 36.82588 43.87278 40.34933
#
# Velocity S-wave (km/s) = 3.68266 4.01960 3.85481
# Velocity P-wave (km/s) = 6.08052 6.63321 6.36287
#
# Compressibility (1/GPa) = 0.01949559
#
# Stress axis : x y z
#
# Youngs Moduli (GPa) = 76.68501 57.45758 140.29668
#
# Poissons Ratio (x) = 0.30014 0.43030
# Poissons Ratio (y) = 0.40057 0.10489
# Poissons Ratio (z) = 0.23520 0.04296
#
# Static dielectric constant tensor:
#      x y z
#    x 2.095910 0.000000 -0.055840 
#    y 0.000000 2.138490 0.000000 
#    z -0.055840 0.000000 2.041820 
# 
# From -- ./inp_files/11427.got.cif
#   From: 2010.05.17/outbox.cif.g08.bks.cpg/sg14_6_cif.got.tgz:11427.got - 2010.06.03 17:49:19.
