data_PCOD9252887
_publ_section_title
;
Structure prediction by ZEFSAII (Michael W. Deem and Ramdas Pophale) SiO2 
 PCOD9252887
Probable space group: P 21/C
;
_chemical_formula_sum "Si O2"
_cell_formula_units_Z 20
_cell_length_a 5.124868
_cell_length_b 11.002243
_cell_length_c 14.099462
_cell_angle_alpha 90.000000
_cell_angle_beta 90.000148
_cell_angle_gamma 90.000000
_cell_volume 794.998772
_symmetry_space_group_name_H-M "P 21/C"
_symmetry_group_IT_number 14
_symmetry_cell_setting 'monoclinic'
loop_
_space_group_symop_operation_xyz
x,y,z
-x,1/2+y,1/2-z
-x,-y,-z
x,1/2-y,1/2+z
loop_
_atom_site_type_symbol
_atom_site_label
_atom_site_fract_x
_atom_site_fract_y
_atom_site_fract_z
Si Si1 0.803583 0.290852 0.500000
Si Si2 0.695311 0.633548 0.999999
Si Si3 0.999995 0.500000 0.157941
Si Si4 0.649897 0.127693 0.206809
Si Si5 0.649891 0.127702 0.793188
O O1 0.599370 0.178383 0.500003
O O2 0.737011 0.357103 0.598109
O O3 0.737012 0.357094 0.401887
O O4 0.102228 0.246894 0.500001
O O5 0.778738 0.555799 0.090827
O O6 0.778744 0.555795 0.909173
O O7 0.106449 0.606517 0.223778
O O8 0.893541 0.393479 0.223774
O O9 0.518209 0.249995 0.249998
O O10 0.500006 0.999995 0.213306
#
# Coordination Sequence:
#
# PCOD9252887 Si02
#       5
#     4   4   4   4   4
#     4  12  27  50  77 117 162 205 262 339 404 464
#     4  11  26  50  79 115 158 214 271 322 391 486
#     4  11  26  45  82 108 162 213 272 317 396 482
#     4  12  27  48  78 116 158 212 262 333 396 477
#     4  12  27  48  78 116 158 212 262 333 396 477
#
# _framework density 25.157273
#
# number of rings (size 3 to 8) (size 9 to 14) (size 15 to 20)
#    0.000    0.400    4.000    3.000    5.600    4.000 
#    0.000    0.000    0.000    0.000    0.000    0.000 
#    0.000    0.000    0.000    0.000    0.000    0.000 
#
# Total GULP energy -112144.372224 kJ/mol
# GULP energy per Si atom -5607.218611 kJ/mol
# Density = 2.510001 g / cm^3
# Si number density = 25.157273 Si / 1000 Ang^3
#
#
#
# Elastic Constant Matrix: (Units=GPa)
#
#
# Indices 1 2 3 4 5 6 
#
# 1 47.8000 26.8806 8.8249 0.0000 -0.0020 0.0000
# 2 26.8806 152.1826 67.0826 0.0000 0.0027 0.0000
# 3 8.8249 67.0826 217.7875 0.0000 0.0034 0.0000
# 4 0.0000 0.0000 0.0000 -80.9869 0.0000 -0.0111
# 5 -0.0020 0.0027 0.0034 0.0000 24.5119 0.0000
# 6 0.0000 0.0000 0.0000 -0.0111 0.0000 40.5023
#
#
#
# Elastic Compliance Matrix: (Units=1/GPa)
#
#
# Indices 1 2 3 4 5 6 
#
# 1 0.023254 -0.004272 0.000374 0.000000 0.000002 0.000000
# 2 -0.004272 0.008388 -0.002411 0.000000 -0.000001 0.000000
# 3 0.000374 -0.002411 0.005319 0.000000 0.000000 0.000000
# 4 0.000000 0.000000 0.000000 -0.012348 0.000000 -0.000003
# 5 0.000002 -0.000001 0.000000 0.000000 0.040796 0.000000
# 6 0.000000 0.000000 0.000000 -0.000003 0.000000 0.024690
#
#
# Mechanical properties :
#
#
# Convention : Reuss Voigt Hill
#
# Bulk Modulus (GPa) = 41.07958 69.26070 55.17014
# Shear Modulus (GPa) = 45.11306 17.80426 31.45866
#
# Velocity S-wave (km/s) = 4.23926 2.66318 3.54005
# Velocity P-wave (km/s) = 6.35030 6.08667 6.21988
#
# Compressibility (1/GPa) = 0.02434299
#
# Stress axis : x y z
#
# Youngs Moduli (GPa) = 43.00334 119.21396 188.00480
#
# Poissons Ratio (x) = 0.50930 -0.07024
# Poissons Ratio (y) = 0.18372 0.45321
# Poissons Ratio (z) = -0.01607 0.28738
#
# Static dielectric constant tensor:
#      x y z
#    x 2.003890 0.000000 0.000000 
#    y 0.000000 2.035810 0.000000 
#    z 0.000000 0.000000 1.932050 
# 
# From -- ./inp_files/37023.got.cif
#   From: 2010.05.17/outbox.cif.g08.bks.cpg/sg14_19_cif.got.tgz:37023.got - 2010.06.03 17:49:19.
