data_PCOD9252933
_publ_section_title
;
Structure prediction by ZEFSAII (Michael W. Deem and Ramdas Pophale) SiO2 
 PCOD9252933
Probable space group: P 21/C
;
_chemical_formula_sum "Si O2"
_cell_formula_units_Z 20
_cell_length_a 17.129933
_cell_length_b 8.424850
_cell_length_c 11.419358
_cell_angle_alpha 90.000000
_cell_angle_beta 150.426863
_cell_angle_gamma 90.000000
_cell_volume 813.348631
_symmetry_space_group_name_H-M "P 21/C"
_symmetry_group_IT_number 14
_symmetry_cell_setting 'monoclinic'
loop_
_space_group_symop_operation_xyz
x,y,z
-x,1/2+y,1/2-z
-x,-y,-z
x,1/2-y,1/2+z
loop_
_atom_site_type_symbol
_atom_site_label
_atom_site_fract_x
_atom_site_fract_y
_atom_site_fract_z
Si Si1 0.965535 0.913693 0.074583
Si Si2 0.379618 0.141383 0.348656
Si Si3 0.477892 0.215787 0.226606
Si Si4 0.270194 0.935629 0.902484
Si Si5 0.938762 0.534618 0.069258
O O1 0.957707 0.721791 0.066782
O O2 0.786057 0.947632 0.873946
O O3 0.076124 0.989916 0.316288
O O4 0.000000 0.000000 0.000000
O O5 0.408413 0.247894 0.268568
O O6 0.400299 0.217935 0.504481
O O7 0.500000 0.000000 0.500000
O O8 0.664270 0.261768 0.477918
O O9 0.427210 0.033198 0.140209
O O10 0.115845 0.017891 0.760463
O O11 0.205410 0.951177 0.686319
#
# Coordination Sequence:
#
# PCOD9252933 Si02
#       5
#     4   4   4   4   4
#     4  12  29  48  84 112 158 213 266 331 408 480
#     4  12  27  50  76 115 160 201 270 329 399 484
#     4  12  25  50  78 112 160 207 261 330 408 467
#     4  11  26  48  80 111 158 207 263 336 393 488
#     4  11  27  51  76 118 159 202 276 324 405 477
#
# _framework density 24.589699
#
# number of rings (size 3 to 8) (size 9 to 14) (size 15 to 20)
#    0.000    0.400    6.000    0.000   11.200    2.400 
#    0.000    0.000    0.000    0.000    0.000    0.000 
#    0.000    0.000    0.000    0.000    0.000    0.000 
#
# Total GULP energy -111497.379589 kJ/mol
# GULP energy per Si atom -5574.868979 kJ/mol
# Density = 2.453373 g / cm^3
# Si number density = 24.589699 Si / 1000 Ang^3
#
#
#
# Elastic Constant Matrix: (Units=GPa)
#
#
# Indices 1 2 3 4 5 6 
#
# 1 114.2880 22.3610 70.7883 0.0000 -54.3444 0.0000
# 2 22.3610 66.3070 33.4098 0.0000 -14.1193 0.0000
# 3 70.7883 33.4098 163.5913 0.0000 -39.3977 0.0000
# 4 0.0000 0.0000 0.0000 41.9028 0.0000 -8.8459
# 5 -54.3444 -14.1193 -39.3977 0.0000 63.4914 0.0000
# 6 0.0000 0.0000 0.0000 -8.8459 0.0000 38.3670
#
#
#
# Elastic Compliance Matrix: (Units=1/GPa)
#
#
# Indices 1 2 3 4 5 6 
#
# 1 0.017342 -0.001094 -0.004426 0.000000 0.011854 0.000000
# 2 -0.001094 0.017076 -0.002733 0.000000 0.001165 0.000000
# 3 -0.004426 -0.002733 0.008850 0.000000 0.001096 0.000000
# 4 0.000000 0.000000 0.000000 0.025086 0.000000 0.005784
# 5 0.011854 0.001165 0.001096 0.000000 0.026835 0.000000
# 6 0.000000 0.000000 0.000000 0.005784 0.000000 0.027398
#
#
# Mechanical properties :
#
#
# Convention : Reuss Voigt Hill
#
# Bulk Modulus (GPa) = 37.36832 66.36717 51.86774
# Shear Modulus (GPa) = 33.78102 43.26073 38.52088
#
# Velocity S-wave (km/s) = 3.71048 4.19896 3.96225
# Velocity P-wave (km/s) = 5.79540 7.11032 6.48627
#
# Compressibility (1/GPa) = 0.02676064
#
# Stress axis : x y z
#
# Youngs Moduli (GPa) = 57.66473 58.56316 112.99469
#
# Poissons Ratio (x) = 0.06407 0.50009
# Poissons Ratio (y) = 0.06309 0.30886
# Poissons Ratio (z) = 0.25521 0.16008
#
# Static dielectric constant tensor:
#      x y z
#    x 2.169980 0.000000 -0.143020 
#    y 0.000000 2.046740 0.000000 
#    z -0.143020 0.000000 1.751900 
# 
# From -- ./inp_files/33693.got.cif
#   From: 2010.05.17/outbox.cif.g08.bks.cpg/sg14_17_cif.got.tgz:33693.got - 2010.06.03 17:49:19.
