data_PCOD9252001
_publ_section_title
;
Structure prediction by ZEFSAII (Michael W. Deem and Ramdas Pophale) SiO2 
 PCOD9252001
Probable space group: P 21/C
;
_chemical_formula_sum "Si O2"
_cell_formula_units_Z 24
_cell_length_a 8.446179
_cell_length_b 23.183159
_cell_length_c 9.697015
_cell_angle_alpha 90.000000
_cell_angle_beta 148.224519
_cell_angle_gamma 90.000000
_cell_volume 999.873959
_symmetry_space_group_name_H-M "P 21/C"
_symmetry_group_IT_number 14
_symmetry_cell_setting 'monoclinic'
loop_
_space_group_symop_operation_xyz
x,y,z
-x,1/2+y,1/2-z
-x,-y,-z
x,1/2-y,1/2+z
loop_
_atom_site_type_symbol
_atom_site_label
_atom_site_fract_x
_atom_site_fract_y
_atom_site_fract_z
Si Si1 0.196823 0.235738 0.178805
Si Si2 0.161828 0.463599 0.922165
Si Si3 0.743011 0.625108 0.476548
Si Si4 0.457281 0.704163 0.786279
Si Si5 0.943607 0.410872 0.033066
Si Si6 0.196077 0.575296 0.610395
O O1 0.341803 0.219404 0.432260
O O2 0.364245 0.286323 0.222400
O O3 0.244753 0.182100 0.108179
O O4 0.841336 0.243691 0.932396
O O5 0.109545 0.419893 0.011396
O O6 0.965020 0.441618 0.649775
O O7 0.055859 0.525766 0.896131
O O8 0.514752 0.463940 0.148146
O O9 0.401833 0.606055 0.243743
O O10 0.941900 0.578617 0.539049
O O11 0.900398 0.631055 0.741114
O O12 0.333629 0.639571 0.706532
#
# Coordination Sequence:
#
# PCOD9252001 Si02
#       6
#     4   4   4   4   4   4
#     4  11  24  43  65  93 126 160 204 254 305 365
#     4  11  24  41  62  91 125 162 207 254 302 362
#     4  11  23  41  63  91 125 161 203 254 306 362
#     4  11  24  43  65  93 126 160 204 254 305 365
#     4  11  24  41  62  91 125 162 207 254 302 362
#     4  11  23  41  63  91 125 161 203 254 306 362
#
# _framework density 24.003025000000001
#
# number of rings (size 3 to 8) (size 9 to 14) (size 15 to 20)
#    0.000    1.000    0.000    8.000    0.000   10.667 
#    0.000    0.000    0.000    0.000    0.000    0.000 
#    0.000    0.000    0.000    0.000    0.000    0.000 
#
# Total GULP energy -134594.432270 kJ/mol
# GULP energy per Si atom -5608.101345 kJ/mol
# Density = 2.394839 g / cm^3
# Si number density = 24.003025 Si / 1000 Ang^3
#
#
#
# Elastic Constant Matrix: (Units=GPa)
#
#
# Indices 1 2 3 4 5 6 
#
# 1 -482.3296 228.9413 -105.0353 0.0000 373.6418 0.0000
# 2 228.9413 -29.3850 66.1377 0.0000 -133.7046 0.0000
# 3 -105.0353 66.1377 133.0670 0.0000 95.6862 0.0000
# 4 0.0000 0.0000 0.0000 17.5365 0.0000 -2.0924
# 5 373.6418 -133.7046 95.6862 0.0000 -189.2399 0.0000
# 6 0.0000 0.0000 0.0000 -2.0924 0.0000 138.5065
#
#
#
# Elastic Compliance Matrix: (Units=1/GPa)
#
#
# Indices 1 2 3 4 5 6 
#
# 1 0.005039 0.002662 -0.002308 0.000000 0.006901 0.000000
# 2 0.002662 0.016774 -0.001095 0.000000 -0.007150 0.000000
# 3 -0.002308 -0.001095 0.006569 0.000000 -0.000462 0.000000
# 4 0.000000 0.000000 0.000000 0.057127 0.000000 0.000863
# 5 0.006901 -0.007150 -0.000462 0.000000 0.013160 0.000000
# 6 0.000000 0.000000 0.000000 0.000863 0.000000 0.007233
#
#
# Mechanical properties :
#
#
# Convention : Reuss Voigt Hill
#
# Bulk Modulus (GPa) = 37.17552 0.15998 18.66775
# Shear Modulus (GPa) = 42.97346 -44.55212 -0.78933
#
# Velocity S-wave (km/s) = 4.23583 -4.31293 -0.57407
# Velocity P-wave (km/s) = 6.28048 4.97343 2.71196
#
# Compressibility (1/GPa) = 0.02689942
#
# Stress axis : x y z
#
# Youngs Moduli (GPa) = 198.46035 59.61638 152.21995
#
# Poissons Ratio (x) = -0.15867 0.35134
# Poissons Ratio (y) = -0.52822 0.16666
# Poissons Ratio (z) = 0.45806 0.06527
#
# Static dielectric constant tensor:
#      x y z
#    x 1.888540 0.000000 0.012950 
#    y 0.000000 2.002360 0.000000 
#    z 0.012950 0.000000 1.834760 
# 
# From -- ./inp_files/11307.got.cif
#   From: 2010.05.17/outbox.cif.g08.bks.cpg/sg14_6_cif.got.tgz:11307.got - 2010.06.03 17:49:19.
