data_PCOD9252367
_publ_section_title
;
Structure prediction by ZEFSAII (Michael W. Deem and Ramdas Pophale) SiO2 
 PCOD9252367
Probable space group: P 21/C
;
_chemical_formula_sum "Si O2"
_cell_formula_units_Z 24
_cell_length_a 20.133301
_cell_length_b 8.284023
_cell_length_c 8.828462
_cell_angle_alpha 90.000000
_cell_angle_beta 140.262991
_cell_angle_gamma 90.000000
_cell_volume 941.286938
_symmetry_space_group_name_H-M "P 21/C"
_symmetry_group_IT_number 14
_symmetry_cell_setting 'monoclinic'
loop_
_space_group_symop_operation_xyz
x,y,z
-x,1/2+y,1/2-z
-x,-y,-z
x,1/2-y,1/2+z
loop_
_atom_site_type_symbol
_atom_site_label
_atom_site_fract_x
_atom_site_fract_y
_atom_site_fract_z
Si Si1 0.125782 0.133583 0.823957
Si Si2 0.237207 0.635926 0.971889
Si Si3 0.562562 0.587405 0.394456
Si Si4 0.744321 0.667147 0.156919
Si Si5 0.435071 0.748787 0.437235
Si Si6 0.108976 0.853940 0.546660
O O1 0.156797 0.279097 0.768426
O O2 0.013003 0.162499 0.698899
O O3 0.119682 0.979850 0.703331
O O4 0.214116 0.122616 0.105408
O O5 0.299820 0.483741 0.014430
O O6 0.160701 0.693662 0.705724
O O7 0.171563 0.597195 0.006757
O O8 0.322611 0.769838 0.165121
O O9 0.665723 0.683842 0.528186
O O10 0.514996 0.686463 0.451765
O O11 0.579403 0.404346 0.474459
O O12 0.481852 0.605868 0.115039
#
# Coordination Sequence:
#
# PCOD9252367 Si02
#       6
#     4   4   4   4   4   4
#     4  11  24  42  66  99 137 177 223 278 334 397
#     4  12  25  44  69  98 134 177 226 278 336 404
#     4  11  24  43  67  98 132 172 222 275 332 397
#     4  12  24  42  69  97 134 177 221 279 339 398
#     4  11  24  43  67  97 134 173 222 275 331 403
#     4  11  25  43  66  99 135 176 228 276 332 400
#
# _framework density 25.497007
#
# number of rings (size 3 to 8) (size 9 to 14) (size 15 to 20)
#    0.000    0.667    0.000    9.000    0.000    7.333 
#    0.000    0.000    0.000    0.000    0.000    0.000 
#    0.000    0.000    0.000    0.000    0.000    0.000 
#
# Total GULP energy -134686.995865 kJ/mol
# GULP energy per Si atom -5611.958161 kJ/mol
# Density = 2.543897 g / cm^3
# Si number density = 25.497007 Si / 1000 Ang^3
#
#
#
# Elastic Constant Matrix: (Units=GPa)
#
#
# Indices 1 2 3 4 5 6 
#
# 1 132.5436 13.7448 36.2896 0.0000 -6.9051 0.0000
# 2 13.7448 47.7937 20.1357 0.0000 -11.3614 0.0000
# 3 36.2896 20.1357 95.9770 0.0000 4.9430 0.0000
# 4 0.0000 0.0000 0.0000 35.6058 0.0000 -13.3030
# 5 -6.9051 -11.3614 4.9430 0.0000 39.6450 0.0000
# 6 0.0000 0.0000 0.0000 -13.3030 0.0000 40.2897
#
#
#
# Elastic Compliance Matrix: (Units=1/GPa)
#
#
# Indices 1 2 3 4 5 6 
#
# 1 0.008578 -0.000729 -0.003177 0.000000 0.001681 0.000000
# 2 -0.000729 0.025272 -0.005428 0.000000 0.007792 0.000000
# 3 -0.003177 -0.005428 0.012951 0.000000 -0.003724 0.000000
# 4 0.000000 0.000000 0.000000 0.032038 0.000000 0.010578
# 5 0.001681 0.007792 -0.003724 0.000000 0.028214 0.000000
# 6 0.000000 0.000000 0.000000 0.010578 0.000000 0.028313
#
#
# Mechanical properties :
#
#
# Convention : Reuss Voigt Hill
#
# Bulk Modulus (GPa) = 35.54469 46.29497 40.91983
# Shear Modulus (GPa) = 30.59790 36.85104 33.72447
#
# Velocity S-wave (km/s) = 3.46794 3.80585 3.64082
# Velocity P-wave (km/s) = 5.47782 6.12446 5.81014
#
# Compressibility (1/GPa) = 0.02813360
#
# Stress axis : x y z
#
# Youngs Moduli (GPa) = 116.58162 39.56964 77.21456
#
# Poissons Ratio (x) = 0.02883 0.24531
# Poissons Ratio (y) = 0.08495 0.41910
# Poissons Ratio (z) = 0.37038 0.21478
#
# Static dielectric constant tensor:
#      x y z
#    x 1.951910 0.000000 0.006080 
#    y 0.000000 2.070750 0.000000 
#    z 0.006080 0.000000 1.966660 
# 
# From -- ./inp_files/18677.got.cif
#   From: 2010.05.17/outbox.cif.g08.bks.cpg/sg14_10_cif.got.tgz:18677.got - 2010.06.03 17:49:19.
