data_PCOD9252078
_publ_section_title
;
Structure prediction by ZEFSAII (Michael W. Deem and Ramdas Pophale) SiO2 
 PCOD9252078
Probable space group: P 21/C
;
_chemical_formula_sum "Si O2"
_cell_formula_units_Z 28
_cell_length_a 14.710870
_cell_length_b 21.148823
_cell_length_c 9.059427
_cell_angle_alpha 90.000000
_cell_angle_beta 153.372871
_cell_angle_gamma 90.000000
_cell_volume 1263.223216
_symmetry_space_group_name_H-M "P 21/C"
_symmetry_group_IT_number 14
_symmetry_cell_setting 'monoclinic'
loop_
_space_group_symop_operation_xyz
x,y,z
-x,1/2+y,1/2-z
-x,-y,-z
x,1/2-y,1/2+z
loop_
_atom_site_type_symbol
_atom_site_label
_atom_site_fract_x
_atom_site_fract_y
_atom_site_fract_z
Si Si1 0.979055 0.182533 0.464053
Si Si2 0.357860 0.819495 0.242974
Si Si3 0.579584 0.438232 0.695716
Si Si4 0.369987 0.309381 0.335037
Si Si5 0.969534 0.817555 0.897776
Si Si6 0.572348 0.561199 0.190826
Si Si7 0.980969 0.896707 0.195211
O O1 0.198108 0.169431 0.706801
O O2 0.971578 0.256904 0.422593
O O3 0.987283 0.161895 0.645653
O O4 0.765256 0.161015 0.083582
O O5 0.488747 0.753217 0.429650
O O6 0.506120 0.874460 0.512199
O O7 0.166955 0.822668 0.080206
O O8 0.500000 0.500000 0.500000
O O9 0.505509 0.371750 0.520035
O O10 0.513253 0.438567 0.769452
O O11 0.819055 0.437014 0.030911
O O12 0.230790 0.301314 0.987437
O O13 0.930312 0.872913 0.956775
O O14 0.813120 0.561965 0.531700
O O15 0.500000 0.500000 0.000000
#
# Coordination Sequence:
#
# PCOD9252078 Si02
#       7
#     4   4   4   4   4   4   4
#     4  11  23  42  71 111 148 194 240 302 372 439
#     4  11  25  46  75 108 150 190 246 306 369 439
#     4  12  29  51  74 108 148 196 248 306 374 439
#     4  11  25  46  75 108 150 190 246 306 369 439
#     4  11  23  42  71 111 148 194 240 302 372 439
#     4  12  29  51  74 108 148 196 248 306 374 439
#     4  12  26  46  76 106 148 190 254 302 366 448
#
# _framework density 22.165520000000001
#
# number of rings (size 3 to 8) (size 9 to 14) (size 15 to 20)
#    0.000    0.571    2.857    5.143    4.000    5.714 
#    0.000    1.429    0.000    0.000    0.000    0.000 
#    0.000    0.000    0.000    0.000    0.000    0.000 
#
# Total GULP energy -156375.352109 kJ/mol
# GULP energy per Si atom -5584.834004 kJ/mol
# Density = 2.211507 g / cm^3
# Si number density = 22.165520 Si / 1000 Ang^3
#
#
#
# Elastic Constant Matrix: (Units=GPa)
#
#
# Indices 1 2 3 4 5 6 
#
# 1 153.2165 24.0080 67.5893 0.0000 20.1594 0.0000
# 2 24.0080 117.5655 37.2188 0.0000 2.2536 0.0000
# 3 67.5893 37.2188 113.5568 0.0000 15.6356 0.0000
# 4 0.0000 0.0000 0.0000 35.6703 0.0000 -11.8748
# 5 20.1594 2.2536 15.6356 0.0000 41.9417 0.0000
# 6 0.0000 0.0000 0.0000 -11.8748 0.0000 0.0672
#
#
#
# Elastic Compliance Matrix: (Units=1/GPa)
#
#
# Indices 1 2 3 4 5 6 
#
# 1 0.009094 -0.000228 -0.004994 0.000000 -0.002497 0.000000
# 2 -0.000228 0.009515 -0.003086 0.000000 0.000749 0.000000
# 3 -0.004994 -0.003086 0.013110 0.000000 -0.002321 0.000000
# 4 0.000000 0.000000 0.000000 -0.000484 0.000000 -0.085667
# 5 -0.002497 0.000749 -0.002321 0.000000 0.025868 0.000000
# 6 0.000000 0.000000 0.000000 -0.085667 0.000000 -0.257335
#
#
# Mechanical properties :
#
#
# Convention : Reuss Voigt Hill
#
# Bulk Modulus (GPa) = 66.21508 71.33011 68.77260
# Shear Modulus (GPa) = -27.99844 32.57068 2.28612
#
# Velocity S-wave (km/s) = -3.55794 3.83747 1.01667
# Velocity P-wave (km/s) = 3.61376 7.20316 5.69845
#
# Compressibility (1/GPa) = 0.01510230
#
# Stress axis : x y z
#
# Youngs Moduli (GPa) = 109.96062 105.09642 76.27901
#
# Poissons Ratio (x) = 0.02398 0.38096
# Poissons Ratio (y) = 0.02509 0.23539
# Poissons Ratio (z) = 0.54917 0.32432
#
# Static dielectric constant tensor:
#      x y z
#    x 1.904370 0.000000 0.064180 
#    y 0.000000 1.765230 0.000000 
#    z 0.064180 0.000000 1.931720 
# 
# From -- ./inp_files/16934.got.cif
#   From: 2010.05.17/outbox.cif.g08.bks.cpg/sg14_9_cif.got.tgz:16934.got - 2010.06.03 17:49:19.
