data_PCOD9252496
_publ_section_title
;
Structure prediction by ZEFSAII (Michael W. Deem and Ramdas Pophale) SiO2 
 PCOD9252496
Probable space group: P 21/C
;
_chemical_formula_sum "Si O2"
_cell_formula_units_Z 32
_cell_length_a 19.680284
_cell_length_b 5.874384
_cell_length_c 11.667360
_cell_angle_alpha 90.000000
_cell_angle_beta 77.010559
_cell_angle_gamma 90.000000
_cell_volume 1314.342934
_symmetry_space_group_name_H-M "P 21/C"
_symmetry_group_IT_number 14
_symmetry_cell_setting 'monoclinic'
loop_
_space_group_symop_operation_xyz
x,y,z
-x,1/2+y,1/2-z
-x,-y,-z
x,1/2-y,1/2+z
loop_
_atom_site_type_symbol
_atom_site_label
_atom_site_fract_x
_atom_site_fract_y
_atom_site_fract_z
Si Si1 0.693559 0.786265 0.735980
Si Si2 0.176128 0.544081 0.340071
Si Si3 0.061065 0.991875 0.069787
Si Si4 0.579003 0.968252 0.169431
Si Si5 0.091639 0.017550 0.644316
Si Si6 0.771610 0.070000 0.539180
Si Si7 0.673729 0.366120 0.442656
Si Si8 0.528483 0.190041 0.403100
O O1 0.757183 0.609368 0.713473
O O2 0.615480 0.697556 0.747068
O O3 0.709793 0.917264 0.611127
O O4 0.694368 0.928416 0.852419
O O5 0.134723 0.498170 0.474073
O O6 0.205723 0.793457 0.355123
O O7 0.120534 0.512556 0.261110
O O8 0.055552 0.231754 0.143166
O O9 0.058941 0.733551 0.124787
O O10 0.000000 0.000000 0.000000
O O11 0.531922 0.877296 0.084197
O O12 0.645262 0.073752 0.079743
O O13 0.533816 0.129786 0.266071
O O14 0.158547 0.037162 0.535603
O O15 0.740289 0.214431 0.446417
O O16 0.607260 0.248066 0.408574
O O17 0.500000 0.000000 0.500000
#
# Coordination Sequence:
#
# PCOD9252496 Si02
#       8
#     4   4   4   4   4   4   4   4
#     4  12  25  42  69  99 142 181 241 299 378 442
#     4  11  26  44  69 108 145 191 240 295 368 434
#     4  11  26  50  75 112 151 195 246 297 356 438
#     4  12  25  44  65  95 133 178 241 303 371 445
#     4  11  26  43  78 104 152 195 240 300 363 434
#     4  11  24  45  65 105 144 184 239 303 362 438
#     4  12  25  41  69  99 135 189 239 305 376 444
#     4  12  25  45  66  94 134 183 244 305 376 448
#
# _framework density 24.346764
#
# number of rings (size 3 to 8) (size 9 to 14) (size 15 to 20)
#    0.000    0.500    2.500    5.250    8.750    1.000 
#    0.000    0.000    0.000    0.000    0.000    0.000 
#    0.000    0.000    0.000    0.000    0.000    0.000 
#
# Total GULP energy -178774.482218 kJ/mol
# GULP energy per Si atom -5586.702569 kJ/mol
# Density = 2.429135 g / cm^3
# Si number density = 24.346764 Si / 1000 Ang^3
#
#
#
# Elastic Constant Matrix: (Units=GPa)
#
#
# Indices 1 2 3 4 5 6 
#
# 1 93.8177 28.8135 10.2840 0.0000 12.5130 0.0000
# 2 28.8135 88.4212 27.6321 0.0000 15.2974 0.0000
# 3 10.2840 27.6321 85.1732 0.0000 -2.4574 0.0000
# 4 0.0000 0.0000 0.0000 22.9439 0.0000 24.3237
# 5 12.5130 15.2974 -2.4574 0.0000 61.8192 0.0000
# 6 0.0000 0.0000 0.0000 24.3237 0.0000 11.8207
#
#
#
# Elastic Compliance Matrix: (Units=1/GPa)
#
#
# Indices 1 2 3 4 5 6 
#
# 1 0.011989 -0.003527 -0.000349 0.000000 -0.001568 0.000000
# 2 -0.003527 0.014324 -0.004308 0.000000 -0.003002 0.000000
# 3 -0.000349 -0.004308 0.013228 0.000000 0.001662 0.000000
# 4 0.000000 0.000000 0.000000 -0.036890 0.000000 0.075910
# 5 -0.001568 -0.003002 0.001662 0.000000 0.017303 0.000000
# 6 0.000000 0.000000 0.000000 0.075910 0.000000 -0.071603
#
#
# Mechanical properties :
#
#
# Convention : Reuss Voigt Hill
#
# Bulk Modulus (GPa) = 43.14899 44.54125 43.84512
# Shear Modulus (GPa) = -181.44265 32.69560 -74.37352
#
# Velocity S-wave (km/s) = -8.64211 3.66855 -5.53298
# Velocity P-wave (km/s) = 9.04546 6.02317 4.77188
#
# Compressibility (1/GPa) = 0.02317551
#
# Stress axis : x y z
#
# Youngs Moduli (GPa) = 83.40656 69.81116 75.59471
#
# Poissons Ratio (x) = 0.24620 0.02636
# Poissons Ratio (y) = 0.29415 0.32566
# Poissons Ratio (z) = 0.02909 0.30074
#
# Static dielectric constant tensor:
#      x y z
#    x 1.896620 0.000000 -0.016010 
#    y 0.000000 2.069800 0.000000 
#    z -0.016010 0.000000 1.909820 
# 
# From -- ./inp_files/34729.got.cif
#   From: 2010.05.17/outbox.cif.g08.bks.cpg/sg14_18_cif.got.tgz:34729.got - 2010.06.03 17:49:19.
