data_PCOD9252350
_publ_section_title
;
Structure prediction by ZEFSAII (Michael W. Deem and Ramdas Pophale) SiO2 
 PCOD9252350
Probable space group: P 21/C
;
_chemical_formula_sum "Si O2"
_cell_formula_units_Z 24
_cell_length_a 11.217044
_cell_length_b 11.602301
_cell_length_c 11.382312
_cell_angle_alpha 90.000000
_cell_angle_beta 120.488510
_cell_angle_gamma 90.000000
_cell_volume 1276.511453
_symmetry_space_group_name_H-M "P 21/C"
_symmetry_group_IT_number 14
_symmetry_cell_setting 'monoclinic'
loop_
_space_group_symop_operation_xyz
x,y,z
-x,1/2+y,1/2-z
-x,-y,-z
x,1/2-y,1/2+z
loop_
_atom_site_type_symbol
_atom_site_label
_atom_site_fract_x
_atom_site_fract_y
_atom_site_fract_z
Si Si1 0.853079 0.528031 0.367638
Si Si2 0.852862 0.690685 0.145863
Si Si3 0.660367 0.602092 0.485429
Si Si4 0.853078 0.471972 0.985440
Si Si5 0.660368 0.397907 0.674938
Si Si6 0.147138 0.690682 0.793001
O O1 0.865978 0.630870 0.279548
O O2 0.743534 0.562847 0.411599
O O3 0.816697 0.412015 0.278584
O O4 0.000000 0.500000 0.500000
O O5 0.816699 0.587988 0.038115
O O6 0.999999 0.750003 0.189498
O O7 0.736949 0.787823 0.078555
O O8 0.668055 0.499998 0.584025
O O9 0.499999 0.625863 0.378842
O O10 0.865975 0.369132 0.086428
O O11 0.743533 0.437158 0.831934
O O12 0.000000 0.500000 0.000000
O O13 0.736951 0.287822 0.658398
#
# Coordination Sequence:
#
# PCOD9252350 Si02
#       6
#     4   4   4   4   4   4
#     4  11  24  42  67  99 131 168 221 270 325 388
#     4  11  24  41  68  98 130 169 218 271 327 386
#     4  11  26  44  66  97 133 173 217 269 330 390
#     4  11  24  42  67  99 131 168 221 270 325 388
#     4  11  26  44  66  97 133 173 217 269 330 390
#     4  11  24  41  68  98 130 169 218 271 327 386
#
# _framework density 18.801241999999998
#
# number of rings (size 3 to 8) (size 9 to 14) (size 15 to 20)
#    0.000    1.000    3.333    2.000    9.333    2.667 
#    0.000    3.333    0.000    0.000    0.000    0.000 
#    0.000    0.000    0.000    0.000    0.000    0.000 
#
# Total GULP energy -134202.530871 kJ/mol
# GULP energy per Si atom -5591.772120 kJ/mol
# Density = 1.875845 g / cm^3
# Si number density = 18.801242 Si / 1000 Ang^3
#
#
#
# Elastic Constant Matrix: (Units=GPa)
#
#
# Indices 1 2 3 4 5 6 
#
# 1 137.2458 75.0501 68.3887 0.0000 15.8208 0.0000
# 2 75.0501 136.3567 65.8545 0.0000 12.5610 0.0000
# 3 68.3887 65.8545 118.0156 0.0000 10.4524 0.0000
# 4 0.0000 0.0000 0.0000 25.7538 0.0000 2.6353
# 5 15.8208 12.5610 10.4524 0.0000 35.9741 0.0000
# 6 0.0000 0.0000 0.0000 2.6353 0.0000 27.6819
#
#
#
# Elastic Compliance Matrix: (Units=1/GPa)
#
#
# Indices 1 2 3 4 5 6 
#
# 1 0.012132 -0.004321 -0.004394 0.000000 -0.002550 0.000000
# 2 -0.004321 0.011710 -0.003938 0.000000 -0.001044 0.000000
# 3 -0.004394 -0.003938 0.013265 0.000000 -0.000547 0.000000
# 4 0.000000 0.000000 0.000000 0.039211 0.000000 -0.003733
# 5 -0.002550 -0.001044 -0.000547 0.000000 0.029443 0.000000
# 6 0.000000 0.000000 0.000000 -0.003733 0.000000 0.036480
#
#
# Mechanical properties :
#
#
# Convention : Reuss Voigt Hill
#
# Bulk Modulus (GPa) = 84.72469 90.02276 87.37372
# Shear Modulus (GPa) = 29.15785 30.03694 29.59740
#
# Velocity S-wave (km/s) = 3.94235 4.00134 3.97196
# Velocity P-wave (km/s) = 8.11690 8.32664 8.22244
#
# Compressibility (1/GPa) = 0.01180294
#
# Stress axis : x y z
#
# Youngs Moduli (GPa) = 82.42585 85.39804 75.38395
#
# Poissons Ratio (x) = 0.36897 0.33120
# Poissons Ratio (y) = 0.35613 0.29687
# Poissons Ratio (z) = 0.36214 0.33630
#
# Static dielectric constant tensor:
#      x y z
#    x 1.625340 0.000000 -0.015490 
#    y 0.000000 1.638880 0.000000 
#    z -0.015490 0.000000 1.636690 
# 
# From -- ./inp_files/29204.got.cif
#   From: 2010.05.17/outbox.cif.g08.bks.cpg/sg14_15_cif.got.tgz:29204.got - 2010.06.03 17:49:19.
