data_PCOD9252315
_publ_section_title
;
Structure prediction by ZEFSAII (Michael W. Deem and Ramdas Pophale) SiO2 
 PCOD9252315
Probable space group: P 21/C
;
_chemical_formula_sum "Si O2"
_cell_formula_units_Z 28
_cell_length_a 17.439807
_cell_length_b 7.950371
_cell_length_c 9.343402
_cell_angle_alpha 90.000000
_cell_angle_beta 126.327009
_cell_angle_gamma 90.000000
_cell_volume 1043.710474
_symmetry_space_group_name_H-M "P 21/C"
_symmetry_group_IT_number 14
_symmetry_cell_setting 'monoclinic'
loop_
_space_group_symop_operation_xyz
x,y,z
-x,1/2+y,1/2-z
-x,-y,-z
x,1/2-y,1/2+z
loop_
_atom_site_type_symbol
_atom_site_label
_atom_site_fract_x
_atom_site_fract_y
_atom_site_fract_z
Si Si1 0.545397 0.622507 0.165629
Si Si2 0.254879 0.950667 0.135754
Si Si3 0.968381 0.848522 0.856466
Si Si4 0.911537 0.495592 0.757320
Si Si5 0.746049 0.892974 0.578428
Si Si6 0.590397 0.886293 0.002930
Si Si7 0.254199 0.584864 0.203786
O O1 0.650339 0.544255 0.305547
O O2 0.547138 0.806173 0.098939
O O3 0.510905 0.617826 0.290453
O O4 0.500000 0.500000 0.000000
O O5 0.249257 0.752896 0.104806
O O6 0.262787 0.956658 0.317090
O O7 0.165348 0.037387 0.958441
O O8 0.976585 0.647895 0.890901
O O9 0.855203 0.849971 0.724348
O O10 0.018114 0.878480 0.757924
O O11 0.000000 0.000000 0.000000
O O12 0.837130 0.430006 0.794115
O O13 0.669525 0.756895 0.546467
O O14 0.739738 0.937102 0.406238
O O15 0.650310 0.054201 0.099665
#
# Coordination Sequence:
#
# PCOD9252315 Si02
#       7
#     4   4   4   4   4   4   4
#     4  11  25  48  77 112 154 187 248 306 379 452
#     4  11  25  48  73 106 147 196 245 302 376 453
#     4  12  28  45  71 105 146 190 253 317 368 434
#     4  12  28  48  72 103 150 198 251 312 375 445
#     4  11  24  44  72 101 144 190 244 299 371 444
#     4  11  23  48  76 107 145 206 239 298 380 457
#     4  12  25  44  77 105 142 199 252 301 377 452
#
# _framework density 26.827363999999999
#
# number of rings (size 3 to 8) (size 9 to 14) (size 15 to 20)
#    0.000    0.571    5.714    0.857    8.000    1.714 
#    2.571    1.429    0.000    0.000    0.000    0.000 
#    0.000    0.000    0.000    0.000    0.000    0.000 
#
# Total GULP energy -156566.430905 kJ/mol
# GULP energy per Si atom -5591.658247 kJ/mol
# Density = 2.676630 g / cm^3
# Si number density = 26.827364 Si / 1000 Ang^3
#
#
#
# Elastic Constant Matrix: (Units=GPa)
#
#
# Indices 1 2 3 4 5 6 
#
# 1 91.7276 26.5127 19.2814 0.0000 -11.7964 0.0000
# 2 26.5127 118.7248 32.0269 0.0000 -4.9378 0.0000
# 3 19.2814 32.0269 139.2918 0.0000 -15.4278 0.0000
# 4 0.0000 0.0000 0.0000 51.7863 0.0000 -10.3200
# 5 -11.7964 -4.9378 -15.4278 0.0000 44.8660 0.0000
# 6 0.0000 0.0000 0.0000 -10.3200 0.0000 33.5020
#
#
#
# Elastic Compliance Matrix: (Units=1/GPa)
#
#
# Indices 1 2 3 4 5 6 
#
# 1 0.012101 -0.002366 -0.000839 0.000000 0.002633 0.000000
# 2 -0.002366 0.009446 -0.001869 0.000000 -0.000225 0.000000
# 3 -0.000839 -0.001869 0.007982 0.000000 0.002318 0.000000
# 4 0.000000 0.000000 0.000000 0.020573 0.000000 0.006337
# 5 0.002633 -0.000225 0.002318 0.000000 0.023753 0.000000
# 6 0.000000 0.000000 0.000000 0.006337 0.000000 0.031801
#
#
# Mechanical properties :
#
#
# Convention : Reuss Voigt Hill
#
# Bulk Modulus (GPa) = 51.60275 56.15401 53.87838
# Shear Modulus (GPa) = 40.89448 44.15907 42.52677
#
# Velocity S-wave (km/s) = 3.90854 4.06155 3.98578
# Velocity P-wave (km/s) = 6.29649 6.55530 6.42720
#
# Compressibility (1/GPa) = 0.01937881
#
# Stress axis : x y z
#
# Youngs Moduli (GPa) = 82.63913 105.86306 125.28280
#
# Poissons Ratio (x) = 0.25051 0.10516
# Poissons Ratio (y) = 0.19555 0.23419
# Poissons Ratio (z) = 0.06937 0.19789
#
# Static dielectric constant tensor:
#      x y z
#    x 2.166520 0.000000 -0.060690 
#    y 0.000000 2.251170 0.000000 
#    z -0.060690 0.000000 2.191960 
# 
# From -- ./inp_files/18759.got.cif
#   From: 2010.05.17/outbox.cif.g08.bks.cpg/sg14_10_cif.got.tgz:18759.got - 2010.06.03 17:49:19.
