data_PCOD9252253
_publ_section_title
;
Structure prediction by ZEFSAII (Michael W. Deem and Ramdas Pophale) SiO2 
 PCOD9252253
Probable space group: P 21/C
;
_chemical_formula_sum "Si O2"
_cell_formula_units_Z 32
_cell_length_a 7.926311
_cell_length_b 30.458793
_cell_length_c 11.678424
_cell_angle_alpha 90.000000
_cell_angle_beta 145.860229
_cell_angle_gamma 90.000000
_cell_volume 1582.327072
_symmetry_space_group_name_H-M "P 21/C"
_symmetry_group_IT_number 14
_symmetry_cell_setting 'monoclinic'
loop_
_space_group_symop_operation_xyz
x,y,z
-x,1/2+y,1/2-z
-x,-y,-z
x,1/2-y,1/2+z
loop_
_atom_site_type_symbol
_atom_site_label
_atom_site_fract_x
_atom_site_fract_y
_atom_site_fract_z
Si Si1 0.186298 0.544785 0.608502
Si Si2 0.848729 0.418959 0.165698
Si Si3 0.840691 0.955152 0.375169
Si Si4 0.695127 0.656484 0.557323
Si Si5 0.772759 0.883698 0.754446
Si Si6 0.378240 0.206138 0.209265
Si Si7 0.910767 0.700208 0.905627
Si Si8 0.029025 0.624757 0.144962
O O1 0.251972 0.554744 0.778786
O O2 0.000000 0.500000 0.500000
O O3 0.991370 0.584652 0.447756
O O4 0.488807 0.541174 0.704773
O O5 0.026812 0.375876 0.306615
O O6 0.560692 0.404199 0.931066
O O7 0.073135 0.444609 0.207291
O O8 0.961174 0.915167 0.521298
O O9 0.000000 0.000000 0.500000
O O10 0.687129 0.695095 0.460067
O O11 0.384345 0.630613 0.365038
O O12 0.734927 0.675133 0.706469
O O13 0.758019 0.834750 0.796932
O O14 0.874030 0.882181 0.679625
O O15 0.737854 0.205718 0.429626
O O16 0.235652 0.252561 0.158989
O O17 0.910649 0.669042 0.017030
#
# Coordination Sequence:
#
# PCOD9252253 Si02
#       8
#     4   4   4   4   4   4   4   4
#     4  12  29  46  72 109 139 188 236 286 355 418
#     4  12  24  48  75  95 145 185 232 290 344 416
#     4  12  27  47  73 106 143 184 235 292 348 419
#     4  11  23  46  69  95 139 183 225 288 347 408
#     4  12  25  46  71 102 140 181 233 292 347 417
#     4  11  26  42  67 101 133 181 231 285 347 416
#     4  11  26  44  67 100 137 180 232 283 353 414
#     4  11  26  45  69 105 137 183 233 284 351 417
#
# _framework density 20.223379000000001
#
# number of rings (size 3 to 8) (size 9 to 14) (size 15 to 20)
#    0.000    0.500    5.000    2.250    7.000    3.500 
#    0.000    0.000    0.000    0.000    0.000    0.000 
#    0.000    0.000    0.000    0.000    0.000    0.000 
#
# Total GULP energy -179090.261997 kJ/mol
# GULP energy per Si atom -5596.570687 kJ/mol
# Density = 2.017735 g / cm^3
# Si number density = 20.223379 Si / 1000 Ang^3
#
#
#
# Elastic Constant Matrix: (Units=GPa)
#
#
# Indices 1 2 3 4 5 6 
#
# 1 84.6350 16.2502 9.9046 0.0000 0.6174 0.0000
# 2 16.2502 115.7597 23.8411 0.0000 9.8982 0.0000
# 3 9.9046 23.8411 83.7790 0.0000 10.5545 0.0000
# 4 0.0000 0.0000 0.0000 28.0037 0.0000 10.4246
# 5 0.6174 9.8982 10.5545 0.0000 35.2812 0.0000
# 6 0.0000 0.0000 0.0000 10.4246 0.0000 27.4343
#
#
#
# Elastic Compliance Matrix: (Units=1/GPa)
#
#
# Indices 1 2 3 4 5 6 
#
# 1 0.012233 -0.001542 -0.001076 0.000000 0.000540 0.000000
# 2 -0.001542 0.009490 -0.002272 0.000000 -0.001956 0.000000
# 3 -0.001076 -0.002272 0.013122 0.000000 -0.003269 0.000000
# 4 0.000000 0.000000 0.000000 0.041593 0.000000 -0.015805
# 5 0.000540 -0.001956 -0.003269 0.000000 0.029861 0.000000
# 6 0.000000 0.000000 0.000000 -0.015805 0.000000 0.042456
#
#
# Mechanical properties :
#
#
# Convention : Reuss Voigt Hill
#
# Bulk Modulus (GPa) = 39.89404 42.68504 41.28954
# Shear Modulus (GPa) = 29.95988 33.75570 31.85779
#
# Velocity S-wave (km/s) = 3.85313 4.08995 3.97330
# Velocity P-wave (km/s) = 6.29007 6.59213 6.44287
#
# Compressibility (1/GPa) = 0.02506640
#
# Stress axis : x y z
#
# Youngs Moduli (GPa) = 81.74317 105.37186 76.20970
#
# Poissons Ratio (x) = 0.16248 0.08197
# Poissons Ratio (y) = 0.12605 0.17314
# Poissons Ratio (z) = 0.08792 0.23940
#
# Static dielectric constant tensor:
#      x y z
#    x 1.718340 0.000000 0.001390 
#    y 0.000000 1.689520 0.000000 
#    z 0.001390 0.000000 1.702160 
# 
# From -- ./inp_files/27182.got.cif
#   From: 2010.05.17/outbox.cif.g08.bks.cpg/sg14_14_cif.got.tgz:27182.got - 2010.06.03 17:49:19.
