data_PCOD9252773
_publ_section_title
;
Structure prediction by ZEFSAII (Michael W. Deem and Ramdas Pophale) SiO2 
 PCOD9252773
Probable space group: P 21/C
;
_chemical_formula_sum "Si O2"
_cell_formula_units_Z 32
_cell_length_a 20.298515
_cell_length_b 5.569011
_cell_length_c 14.433194
_cell_angle_alpha 90.000000
_cell_angle_beta 117.599193
_cell_angle_gamma 90.000000
_cell_volume 1445.910759
_symmetry_space_group_name_H-M "P 21/C"
_symmetry_group_IT_number 14
_symmetry_cell_setting 'monoclinic'
loop_
_space_group_symop_operation_xyz
x,y,z
-x,1/2+y,1/2-z
-x,-y,-z
x,1/2-y,1/2+z
loop_
_atom_site_type_symbol
_atom_site_label
_atom_site_fract_x
_atom_site_fract_y
_atom_site_fract_z
Si Si1 0.259895 0.951761 0.654414
Si Si2 0.462010 0.186928 0.408130
Si Si3 0.348587 0.052959 0.185240
Si Si4 0.767373 0.067664 0.148350
Si Si5 0.034938 0.478378 0.422172
Si Si6 0.168162 0.201841 0.444688
Si Si7 0.389464 0.527555 0.507523
Si Si8 0.079390 0.668092 0.797443
O O1 0.305883 0.201008 0.680985
O O2 0.228728 0.954824 0.738426
O O3 0.202862 0.996610 0.532465
O O4 0.303256 0.698489 0.667182
O O5 0.406282 0.350042 0.432923
O O6 0.532816 0.340099 0.422952
O O7 0.500000 0.000000 0.500000
O O8 0.418740 0.053143 0.299014
O O9 0.372082 0.085395 0.094810
O O10 0.773649 0.834504 0.084839
O O11 0.842583 0.202654 0.171141
O O12 0.685341 0.173428 0.070639
O O13 0.118853 0.373187 0.478478
O O14 0.043539 0.719113 0.366309
O O15 0.000000 0.500000 0.500000
O O16 0.976525 0.321813 0.324209
O O17 0.106748 0.098962 0.335092
#
# Coordination Sequence:
#
# PCOD9252773 Si02
#       8
#     4   4   4   4   4   4   4   4
#     4  12  28  48  77 113 149 199 257 312 384 449
#     4  11  27  45  76 106 149 201 249 304 387 448
#     4  12  28  49  77 110 152 198 256 312 377 455
#     4  11  25  46  75 104 147 194 249 316 376 451
#     4  11  26  45  71 104 150 195 255 312 389 461
#     4  11  26  45  72 108 147 196 253 312 385 450
#     4  11  25  48  72 109 151 194 248 315 375 452
#     4  11  25  46  70 104 143 198 249 315 378 456
#
# _framework density 22.13138
#
# number of rings (size 3 to 8) (size 9 to 14) (size 15 to 20)
#    0.000    0.750    3.750    1.500   12.250    1.500 
#    0.000    0.000    0.000    0.000    0.000    0.000 
#    0.000    0.000    0.000    0.000    0.000    0.000 
#
# Total GULP energy -178587.509626 kJ/mol
# GULP energy per Si atom -5580.859676 kJ/mol
# Density = 2.208101 g / cm^3
# Si number density = 22.131380 Si / 1000 Ang^3
#
#
#
# Elastic Constant Matrix: (Units=GPa)
#
#
# Indices 1 2 3 4 5 6 
#
# 1 128.1492 41.3873 57.9140 0.0000 -18.0064 0.0000
# 2 41.3873 71.4671 16.0403 0.0000 4.4739 0.0000
# 3 57.9140 16.0403 124.0044 0.0000 13.4112 0.0000
# 4 0.0000 0.0000 0.0000 36.2744 0.0000 6.8221
# 5 -18.0064 4.4739 13.4112 0.0000 41.1554 0.0000
# 6 0.0000 0.0000 0.0000 6.8221 0.0000 -17.6254
#
#
#
# Elastic Compliance Matrix: (Units=1/GPa)
#
#
# Indices 1 2 3 4 5 6 
#
# 1 0.014709 -0.007561 -0.006921 0.000000 0.009513 0.000000
# 2 -0.007561 0.018336 0.001796 0.000000 -0.005886 0.000000
# 3 -0.006921 0.001796 0.011830 0.000000 -0.007078 0.000000
# 4 0.000000 0.000000 0.000000 0.025697 0.000000 0.009946
# 5 0.009513 -0.005886 -0.007078 0.000000 0.031407 0.000000
# 6 0.000000 0.000000 0.000000 0.009946 0.000000 -0.052886
#
#
# Mechanical properties :
#
#
# Convention : Reuss Voigt Hill
#
# Bulk Modulus (GPa) = 51.27016 61.58932 56.42974
# Shear Modulus (GPa) = 61.75512 25.84614 43.80063
#
# Velocity S-wave (km/s) = 5.28814 3.42109 4.45355
# Velocity P-wave (km/s) = 7.77833 6.59504 7.21100
#
# Compressibility (1/GPa) = 0.01950452
#
# Stress axis : x y z
#
# Youngs Moduli (GPa) = 67.98350 54.53667 84.53379
#
# Poissons Ratio (x) = 0.41233 0.58503
# Poissons Ratio (y) = 0.51400 -0.15181
# Poissons Ratio (z) = 0.47049 -0.09794
#
# Static dielectric constant tensor:
#      x y z
#    x 1.749480 0.000000 0.044530 
#    y 0.000000 1.923850 0.000000 
#    z 0.044530 0.000000 1.807260 
# 
# From -- ./inp_files/48195.got.cif
#   From: 2010.05.17/outbox.cif.g08.bks.cpg/sg14_25_cif.got.tgz:48195.got - 2010.06.03 17:49:19.
