data_PCOD9252999
_publ_section_title
;
Structure prediction by ZEFSAII (Michael W. Deem and Ramdas Pophale) SiO2 
 PCOD9252999
Probable space group: P 21/C
;
_chemical_formula_sum "Si O2"
_cell_formula_units_Z 32
_cell_length_a 21.873746
_cell_length_b 11.488804
_cell_length_c 21.817926
_cell_angle_alpha 90.000000
_cell_angle_beta 12.849921
_cell_angle_gamma 90.000000
_cell_volume 1219.389410
_symmetry_space_group_name_H-M "P 21/C"
_symmetry_group_IT_number 14
_symmetry_cell_setting 'monoclinic'
loop_
_space_group_symop_operation_xyz
x,y,z
-x,1/2+y,1/2-z
-x,-y,-z
x,1/2-y,1/2+z
loop_
_atom_site_type_symbol
_atom_site_label
_atom_site_fract_x
_atom_site_fract_y
_atom_site_fract_z
Si Si1 0.260618 0.070342 0.311128
Si Si2 0.731889 0.059301 0.233251
Si Si3 0.770087 0.780135 0.896465
Si Si4 0.261667 0.833364 0.961263
Si Si5 0.508113 0.091102 0.637511
Si Si6 0.757136 0.177403 0.878048
Si Si7 0.566514 0.324357 0.394699
Si Si8 0.078738 0.420454 0.642794
O O1 0.992233 0.125501 0.604588
O O2 0.759735 0.064604 0.689451
O O3 0.505435 0.086207 0.121260
O O4 0.387455 0.139532 0.128957
O O5 0.718478 0.199515 0.249289
O O6 0.500000 0.000000 0.500000
O O7 0.640884 0.008834 0.255926
O O8 0.000000 0.000000 0.000000
O O9 0.524403 0.732777 0.179286
O O10 0.645238 0.812296 0.954444
O O11 0.924871 0.879095 0.784043
O O12 0.012608 0.687426 0.657476
O O13 0.178254 0.800267 0.112785
O O14 0.283614 0.970185 0.943682
O O15 0.642239 0.197573 0.467608
O O16 0.778398 0.052292 0.411049
O O17 0.261119 0.153670 0.916611
#
# Coordination Sequence:
#
# PCOD9252999 Si02
#       8
#     4   4   4   4   4   4   4   4
#     4  11  28  48  80 112 161 218 265 337 393 488
#     4  12  28  50  79 113 153 211 268 338 406 479
#     4  12  25  46  72 111 156 203 255 332 397 476
#     4  12  25  43  73 111 153 201 263 322 398 479
#     4  12  25  47  75 110 157 202 267 329 397 490
#     4  12  24  49  75 113 155 211 269 322 400 489
#     4  11  28  52  77 120 163 209 282 330 415 480
#     4  12  23  44  71 110 150 205 252 320 408 458
#
# _framework density 26.242642
#
# number of rings (size 3 to 8) (size 9 to 14) (size 15 to 20)
#    0.000    0.250    2.500    6.000    0.000   11.000 
#    0.000    0.000    0.000    0.000    0.000    0.000 
#    0.000    0.000    0.000    0.000    0.000    0.000 
#
# Total GULP energy -179176.469026 kJ/mol
# GULP energy per Si atom -5599.264657 kJ/mol
# Density = 2.618291 g / cm^3
# Si number density = 26.242642 Si / 1000 Ang^3
#
#
#
# Elastic Constant Matrix: (Units=GPa)
#
#
# Indices 1 2 3 4 5 6 
#
# 1 135.4298 40.8567 40.5358 0.0000 -21.6986 0.0000
# 2 40.8567 153.8971 52.8776 0.0000 -13.3222 0.0000
# 3 40.5358 52.8776 194.3564 0.0000 -10.7970 0.0000
# 4 0.0000 0.0000 0.0000 38.0163 0.0000 2.2116
# 5 -21.6986 -13.3222 -10.7970 0.0000 39.6715 0.0000
# 6 0.0000 0.0000 0.0000 2.2116 0.0000 26.6721
#
#
#
# Elastic Compliance Matrix: (Units=1/GPa)
#
#
# Indices 1 2 3 4 5 6 
#
# 1 0.008861 -0.001598 -0.001192 0.000000 0.003986 0.000000
# 2 -0.001598 0.007601 -0.001667 0.000000 0.001225 0.000000
# 3 -0.001192 -0.001667 0.005869 0.000000 0.000386 0.000000
# 4 0.000000 0.000000 0.000000 0.026432 0.000000 -0.002192
# 5 0.003986 0.001225 0.000386 0.000000 0.027903 0.000000
# 6 0.000000 0.000000 0.000000 -0.002192 0.000000 0.037674
#
#
# Mechanical properties :
#
#
# Convention : Reuss Voigt Hill
#
# Bulk Modulus (GPa) = 74.52849 83.58038 79.05443
# Shear Modulus (GPa) = 39.14640 44.16619 41.65630
#
# Velocity S-wave (km/s) = 3.86646 4.10688 3.98848
# Velocity P-wave (km/s) = 6.95658 7.37610 7.16941
#
# Compressibility (1/GPa) = 0.01341769
#
# Stress axis : x y z
#
# Youngs Moduli (GPa) = 112.84977 131.56656 170.39748
#
# Poissons Ratio (x) = 0.21023 0.20311
# Poissons Ratio (y) = 0.18033 0.28398
# Poissons Ratio (z) = 0.13452 0.21927
#
# Static dielectric constant tensor:
#      x y z
#    x 2.307760 0.000000 0.199250 
#    y 0.000000 2.280740 0.000000 
#    z 0.199250 0.000000 2.185710 
# 
# From -- ./inp_files/75016.got.cif
#   From: 2010.05.17/outbox.cif.g08.bks.cpg/sg14_38_cif.got.tgz:75016.got - 2010.06.03 17:49:19.
