data_PCOD9252021
_publ_section_title
;
Structure prediction by ZEFSAII (Michael W. Deem and Ramdas Pophale) SiO2 
 PCOD9252021
Probable space group: P 21/C
;
_chemical_formula_sum "Si O2"
_cell_formula_units_Z 28
_cell_length_a 18.954983
_cell_length_b 8.859455
_cell_length_c 13.906658
_cell_angle_alpha 90.000000
_cell_angle_beta 147.915945
_cell_angle_gamma 90.000000
_cell_volume 1240.454505
_symmetry_space_group_name_H-M "P 21/C"
_symmetry_group_IT_number 14
_symmetry_cell_setting 'monoclinic'
loop_
_space_group_symop_operation_xyz
x,y,z
-x,1/2+y,1/2-z
-x,-y,-z
x,1/2-y,1/2+z
loop_
_atom_site_type_symbol
_atom_site_label
_atom_site_fract_x
_atom_site_fract_y
_atom_site_fract_z
Si Si1 0.473527 0.333024 0.011048
Si Si2 0.048863 0.056405 0.450952
Si Si3 0.609025 0.777369 0.886342
Si Si4 0.850221 0.401982 0.549988
Si Si5 0.651861 0.135577 0.979727
Si Si6 0.767857 0.779580 0.893460
Si Si7 0.755058 0.319131 0.807411
O O1 0.361399 0.250833 0.819278
O O2 0.500000 0.500000 0.000000
O O3 0.412807 0.329498 0.047541
O O4 0.610184 0.239142 0.169914
O O5 0.096068 0.228422 0.499222
O O6 0.956027 0.036947 0.250222
O O7 0.192347 0.979785 0.596992
O O8 0.000000 0.000000 0.500000
O O9 0.477650 0.740449 0.672156
O O10 0.734813 0.734500 0.965594
O O11 0.619312 0.954708 0.930261
O O12 0.743642 0.322077 0.496068
O O13 0.779724 0.541229 0.418304
O O14 0.871048 0.287098 0.486169
O O15 0.738603 0.166130 0.174192
#
# Coordination Sequence:
#
# PCOD9252021 Si02
#       7
#     4   4   4   4   4   4   4
#     4  12  23  44  71 109 149 178 234 310 372 444
#     4  12  27  48  71  99 145 190 251 301 347 433
#     4  11  24  40  71 105 155 185 236 304 375 445
#     4  11  24  49  67  98 146 195 239 300 354 433
#     4  11  23  41  68 107 145 192 238 300 371 431
#     4  11  25  44  71 103 140 192 238 298 374 423
#     4  12  24  44  75 103 141 193 241 299 373 428
#
# _framework density 22.572369999999999
#
# number of rings (size 3 to 8) (size 9 to 14) (size 15 to 20)
#    0.000    0.571    5.714    2.571    4.000    1.143 
#    0.000    0.714    0.000    0.000    0.000    0.000 
#    0.000    0.000    0.000    0.000    0.000    0.000 
#
# Total GULP energy -156037.207173 kJ/mol
# GULP energy per Si atom -5572.757399 kJ/mol
# Density = 2.252099 g / cm^3
# Si number density = 22.572370 Si / 1000 Ang^3
#
#
#
# Elastic Constant Matrix: (Units=GPa)
#
#
# Indices 1 2 3 4 5 6 
#
# 1 73.7983 35.0771 27.8076 0.0000 -14.7728 0.0000
# 2 35.0771 27.7219 26.3254 0.0000 -6.5780 0.0000
# 3 27.8076 26.3254 146.9887 0.0000 -24.7553 0.0000
# 4 0.0000 0.0000 0.0000 44.0538 0.0000 -2.8877
# 5 -14.7728 -6.5780 -24.7553 0.0000 34.4746 0.0000
# 6 0.0000 0.0000 0.0000 -2.8877 0.0000 32.3529
#
#
#
# Elastic Compliance Matrix: (Units=1/GPa)
#
#
# Indices 1 2 3 4 5 6 
#
# 1 0.036491 -0.046913 0.002986 0.000000 0.008830 0.000000
# 2 -0.046913 0.104065 -0.011153 0.000000 -0.008255 0.000000
# 3 0.002986 -0.011153 0.009206 0.000000 0.005762 0.000000
# 4 0.000000 0.000000 0.000000 0.022833 0.000000 0.002038
# 5 0.008830 -0.008255 0.005762 0.000000 0.035353 0.000000
# 6 0.000000 0.000000 0.000000 0.002038 0.000000 0.031091
#
#
# Mechanical properties :
#
#
# Convention : Reuss Voigt Hill
#
# Bulk Modulus (GPa) = 25.25165 47.43657 36.34411
# Shear Modulus (GPa) = 13.79682 32.79620 23.29651
#
# Velocity S-wave (km/s) = 2.47498 3.81587 3.21609
# Velocity P-wave (km/s) = 4.40212 6.36203 5.47056
#
# Compressibility (1/GPa) = 0.03960137
#
# Stress axis : x y z
#
# Youngs Moduli (GPa) = 27.40372 9.60934 108.62059
#
# Poissons Ratio (x) = 0.45081 -0.32430
# Poissons Ratio (y) = 1.28560 1.21146
# Poissons Ratio (z) = -0.08182 0.10717
#
# Static dielectric constant tensor:
#      x y z
#    x 1.879560 0.000000 -0.008860 
#    y 0.000000 1.912210 0.000000 
#    z -0.008860 0.000000 1.917610 
# 
# From -- ./inp_files/50283.got.cif
#   From: 2010.05.17/outbox.cif.g08.bks.cpg/sg14_26_cif.got.tgz:50283.got - 2010.06.03 17:49:19.
