data_PCOD9252748
_publ_section_title
;
Structure prediction by ZEFSAII (Michael W. Deem and Ramdas Pophale) SiO2 
 PCOD9252748
Probable space group: P 21/C
;
_chemical_formula_sum "Si O2"
_cell_formula_units_Z 20
_cell_length_a 11.036534
_cell_length_b 8.008156
_cell_length_c 13.681945
_cell_angle_alpha 90.000000
_cell_angle_beta 44.918219
_cell_angle_gamma 90.000000
_cell_volume 853.841576
_symmetry_space_group_name_H-M "P 21/C"
_symmetry_group_IT_number 14
_symmetry_cell_setting 'monoclinic'
loop_
_space_group_symop_operation_xyz
x,y,z
-x,1/2+y,1/2-z
-x,-y,-z
x,1/2-y,1/2+z
loop_
_atom_site_type_symbol
_atom_site_label
_atom_site_fract_x
_atom_site_fract_y
_atom_site_fract_z
Si Si1 0.046010 0.029529 0.860941
Si Si2 0.385312 0.350352 0.598472
Si Si3 0.995082 0.598154 0.178319
Si Si4 0.401942 0.095758 0.734999
Si Si5 0.296884 0.346867 0.953895
O O1 0.971452 0.212109 0.874727
O O2 0.253036 0.023890 0.750484
O O3 0.998815 0.915469 0.794806
O O4 0.000000 0.000000 0.000000
O O5 0.500000 0.500000 0.500000
O O6 0.203255 0.422912 0.740404
O O7 0.304277 0.314545 0.379855
O O8 0.343605 0.226984 0.532844
O O9 0.874111 0.539411 0.939424
O O10 0.481144 0.244938 0.625975
O O11 0.549273 0.965242 0.671570
#
# Coordination Sequence:
#
# PCOD9252748 Si02
#       5
#     4   4   4   4   4
#     4  11  26  46  73 107 145 199 244 306 383 431
#     4  11  25  45  72 104 141 190 244 306 380 432
#     4  11  25  47  73 107 151 189 255 307 361 466
#     4  11  26  44  67 106 141 192 243 300 368 440
#     4  12  25  47  70 108 147 194 250 302 376 443
#
# _framework density 23.423549000000001
#
# number of rings (size 3 to 8) (size 9 to 14) (size 15 to 20)
#    0.000    0.800    4.000    3.000    5.600    3.200 
#    0.000    0.000    0.000    0.000    0.000    0.000 
#    0.000    0.000    0.000    0.000    0.000    0.000 
#
# Total GULP energy -111763.582108 kJ/mol
# GULP energy per Si atom -5588.179105 kJ/mol
# Density = 2.337024 g / cm^3
# Si number density = 23.423549 Si / 1000 Ang^3
#
#
#
# Elastic Constant Matrix: (Units=GPa)
#
#
# Indices 1 2 3 4 5 6 
#
# 1 67.4483 49.2197 22.4329 0.0000 -5.3947 0.0000
# 2 49.2197 102.2649 50.8225 0.0000 -12.8475 0.0000
# 3 22.4329 50.8225 86.5417 0.0000 9.8679 0.0000
# 4 0.0000 0.0000 0.0000 47.9821 0.0000 4.8169
# 5 -5.3947 -12.8475 9.8679 0.0000 20.7742 0.0000
# 6 0.0000 0.0000 0.0000 4.8169 0.0000 52.9108
#
#
#
# Elastic Compliance Matrix: (Units=1/GPa)
#
#
# Indices 1 2 3 4 5 6 
#
# 1 0.022950 -0.011951 0.001303 0.000000 -0.002050 0.000000
# 2 -0.011951 0.024494 -0.013385 0.000000 0.018403 0.000000
# 3 0.001303 -0.013385 0.021127 0.000000 -0.017975 0.000000
# 4 0.000000 0.000000 0.000000 0.021033 0.000000 -0.001915
# 5 -0.002050 0.018403 -0.017975 0.000000 0.067524 0.000000
# 6 0.000000 0.000000 0.000000 -0.001915 0.000000 0.019074
#
#
# Mechanical properties :
#
#
# Convention : Reuss Voigt Hill
#
# Bulk Modulus (GPa) = 48.76634 55.68946 52.22790
# Shear Modulus (GPa) = 21.63536 33.25206 27.44371
#
# Velocity S-wave (km/s) = 3.04247 3.77184 3.42662
# Velocity P-wave (km/s) = 5.76253 6.54184 6.16451
#
# Compressibility (1/GPa) = 0.02050595
#
# Stress axis : x y z
#
# Youngs Moduli (GPa) = 43.57347 40.82600 47.33176
#
# Poissons Ratio (x) = 0.48790 -0.06167
# Poissons Ratio (y) = 0.52073 0.63354
# Poissons Ratio (z) = -0.05678 0.54646
#
# Static dielectric constant tensor:
#      x y z
#    x 1.853750 0.000000 -0.008090 
#    y 0.000000 1.797750 0.000000 
#    z -0.008090 0.000000 1.970320 
# 
# From -- ./inp_files/23819.got.cif
#   From: 2010.05.17/outbox.cif.g08.bks.cpg/sg14_12_cif.got.tgz:23819.got - 2010.06.03 17:49:19.
