data_PCOD9252947
_publ_section_title
;
Structure prediction by ZEFSAII (Michael W. Deem and Ramdas Pophale) SiO2 
 PCOD9252947
Probable space group: P 21/C
;
_chemical_formula_sum "Si O2"
_cell_formula_units_Z 24
_cell_length_a 13.386319
_cell_length_b 7.953439
_cell_length_c 8.867988
_cell_angle_alpha 90.000000
_cell_angle_beta 91.335731
_cell_angle_gamma 90.000000
_cell_volume 943.893930
_symmetry_space_group_name_H-M "P 21/C"
_symmetry_group_IT_number 14
_symmetry_cell_setting 'monoclinic'
loop_
_space_group_symop_operation_xyz
x,y,z
-x,1/2+y,1/2-z
-x,-y,-z
x,1/2-y,1/2+z
loop_
_atom_site_type_symbol
_atom_site_label
_atom_site_fract_x
_atom_site_fract_y
_atom_site_fract_z
Si Si1 0.194715 0.424026 0.632103
Si Si2 0.650426 0.355866 0.759971
Si Si3 0.984640 0.025963 0.676601
Si Si4 0.478982 0.698733 0.986757
Si Si5 0.687552 0.722184 0.638941
Si Si6 0.856472 0.147024 0.141319
O O1 0.096903 0.413093 0.735048
O O2 0.282838 0.380741 0.755986
O O3 0.230543 0.305996 0.491326
O O4 0.166261 0.586937 0.528799
O O5 0.552916 0.294811 0.664618
O O6 0.622446 0.286642 0.920819
O O7 0.673394 0.554645 0.742154
O O8 0.753288 0.284332 0.703482
O O9 0.934129 0.206684 0.670830
O O10 0.000000 0.000000 0.500000
O O11 0.090492 0.004609 0.764917
O O12 0.580651 0.772023 0.054604
O O13 0.500000 0.500000 0.000000
#
# Coordination Sequence:
#
# PCOD9252947 Si02
#       6
#     4   4   4   4   4   4
#     4  11  27  49  80 114 161 206 272 325 402 484
#     4  11  27  47  76 111 158 202 264 319 400 476
#     4  12  29  49  82 112 161 208 277 337 408 479
#     4  12  26  46  77 115 154 203 259 327 395 473
#     4  11  26  49  79 113 159 212 260 325 402 481
#     4  11  29  52  77 119 157 214 266 334 401 480
#
# _framework density 25.426584999999999
#
# number of rings (size 3 to 8) (size 9 to 14) (size 15 to 20)
#    0.000    0.667    0.000    5.000   16.333    1.333 
#    0.000    0.000    0.000    0.000    0.000    0.000 
#    0.000    0.000    0.000    0.000    0.000    0.000 
#
# Total GULP energy -133912.882252 kJ/mol
# GULP energy per Si atom -5579.703427 kJ/mol
# Density = 2.536871 g / cm^3
# Si number density = 25.426585 Si / 1000 Ang^3
#
#
#
# Elastic Constant Matrix: (Units=GPa)
#
#
# Indices 1 2 3 4 5 6 
#
# 1 151.7188 32.6038 69.0971 0.0000 12.1404 0.0000
# 2 32.6038 84.3106 20.2715 0.0000 17.6244 0.0000
# 3 69.0971 20.2715 134.8798 0.0000 -9.4820 0.0000
# 4 0.0000 0.0000 0.0000 33.7117 0.0000 17.6256
# 5 12.1404 17.6244 -9.4820 0.0000 61.6599 0.0000
# 6 0.0000 0.0000 0.0000 17.6256 0.0000 33.3142
#
#
#
# Elastic Compliance Matrix: (Units=1/GPa)
#
#
# Indices 1 2 3 4 5 6 
#
# 1 0.009278 -0.002083 -0.004576 0.000000 -0.001935 0.000000
# 2 -0.002083 0.013745 -0.001260 0.000000 -0.003712 0.000000
# 3 -0.004576 -0.001260 0.010146 0.000000 0.002821 0.000000
# 4 0.000000 0.000000 0.000000 0.041006 0.000000 -0.021695
# 5 -0.001935 -0.003712 0.002821 0.000000 0.018094 0.000000
# 6 0.000000 0.000000 0.000000 -0.021695 0.000000 0.041496
#
#
# Mechanical properties :
#
#
# Convention : Reuss Voigt Hill
#
# Bulk Modulus (GPa) = 57.69771 68.31711 63.00741
# Shear Modulus (GPa) = 32.17950 42.33296 37.25623
#
# Velocity S-wave (km/s) = 3.56137 4.08476 3.83201
# Velocity P-wave (km/s) = 6.29700 7.01240 6.66431
#
# Compressibility (1/GPa) = 0.01733171
#
# Stress axis : x y z
#
# Youngs Moduli (GPa) = 107.78750 72.75172 98.56364
#
# Poissons Ratio (x) = 0.15155 0.45100
# Poissons Ratio (y) = 0.22453 0.12416
# Poissons Ratio (z) = 0.49320 0.09165
#
# Static dielectric constant tensor:
#      x y z
#    x 2.339870 0.000000 -0.229700 
#    y 0.000000 3.756250 0.000000 
#    z -0.229700 0.000000 2.157490 
# 
# From -- ./inp_files/15096.got.cif
#   From: 2010.05.17/outbox.cif.g08.bks.cpg/sg14_8_cif.got.tgz:15096.got - 2010.06.03 17:49:19.
