data_PCOD9252499
_publ_section_title
;
Structure prediction by ZEFSAII (Michael W. Deem and Ramdas Pophale) SiO2 
 PCOD9252499
Probable space group: P 21/C
;
_chemical_formula_sum "Si O2"
_cell_formula_units_Z 16
_cell_length_a 6.761301
_cell_length_b 6.859096
_cell_length_c 15.390808
_cell_angle_alpha 90.000000
_cell_angle_beta 103.859191
_cell_angle_gamma 90.000000
_cell_volume 692.990705
_symmetry_space_group_name_H-M "P 21/C"
_symmetry_group_IT_number 14
_symmetry_cell_setting 'monoclinic'
loop_
_space_group_symop_operation_xyz
x,y,z
-x,1/2+y,1/2-z
-x,-y,-z
x,1/2-y,1/2+z
loop_
_atom_site_type_symbol
_atom_site_label
_atom_site_fract_x
_atom_site_fract_y
_atom_site_fract_z
Si Si1 0.443519 0.053031 0.593353
Si Si2 0.672475 0.418136 0.581293
Si Si3 0.777376 0.805776 0.690824
Si Si4 0.019263 0.146964 0.616771
O O1 0.554445 0.257459 0.626333
O O2 0.203657 0.076992 0.576836
O O3 0.500000 0.000000 0.500000
O O4 0.548337 0.892755 0.665442
O O5 0.500000 0.500000 0.500000
O O6 0.765023 0.598314 0.642316
O O7 0.854164 0.292506 0.557449
O O8 0.876054 0.769526 0.794201
O O9 0.907515 0.962646 0.649452
#
# Coordination Sequence:
#
# PCOD9252499 Si02
#       4
#     4   4   4   4
#     4  11  26  46  68 106 145 186 236 292 356 429
#     4  11  24  47  68 105 141 183 239 287 362 428
#     4  11  24  45  67 105 137 182 245 289 360 421
#     4  11  26  44  75 100 145 187 236 302 354 422
#
# _framework density 23.088335000000001
#
# number of rings (size 3 to 8) (size 9 to 14) (size 15 to 20)
#    0.000    1.000    5.000    0.000    3.500    7.000 
#    0.000    0.000    0.000    0.000    0.000    0.000 
#    0.000    0.000    0.000    0.000    0.000    0.000 
#
# Total GULP energy -89538.954383 kJ/mol
# GULP energy per Si atom -5596.184649 kJ/mol
# Density = 2.303579 g / cm^3
# Si number density = 23.088335 Si / 1000 Ang^3
#
#
#
# Elastic Constant Matrix: (Units=GPa)
#
#
# Indices 1 2 3 4 5 6 
#
# 1 182.6064 54.3235 40.5773 0.0000 10.8739 0.0000
# 2 54.3235 140.3952 32.8972 0.0000 9.7191 0.0000
# 3 40.5773 32.8972 88.2737 0.0000 15.5597 0.0000
# 4 0.0000 0.0000 0.0000 40.6967 0.0000 29.1331
# 5 10.8739 9.7191 15.5597 0.0000 31.7786 0.0000
# 6 0.0000 0.0000 0.0000 29.1331 0.0000 45.1142
#
#
#
# Elastic Compliance Matrix: (Units=1/GPa)
#
#
# Indices 1 2 3 4 5 6 
#
# 1 0.006590 -0.001999 -0.002183 0.000000 -0.000575 0.000000
# 2 -0.001999 0.008443 -0.002072 0.000000 -0.000884 0.000000
# 3 -0.002183 -0.002072 0.014076 0.000000 -0.005511 0.000000
# 4 0.000000 0.000000 0.000000 0.045697 0.000000 -0.029509
# 5 -0.000575 -0.000884 -0.005511 0.000000 0.034633 0.000000
# 6 0.000000 0.000000 0.000000 -0.029509 0.000000 0.041222
#
#
# Mechanical properties :
#
#
# Convention : Reuss Voigt Hill
#
# Bulk Modulus (GPa) = 60.23712 74.09682 67.16697
# Shear Modulus (GPa) = 29.63821 42.41637 36.02729
#
# Velocity S-wave (km/s) = 3.58675 4.29083 3.95449
# Velocity P-wave (km/s) = 6.58023 7.53065 7.07143
#
# Compressibility (1/GPa) = 0.01660106
#
# Stress axis : x y z
#
# Youngs Moduli (GPa) = 151.74079 118.44501 71.04521
#
# Poissons Ratio (x) = 0.23672 0.15511
# Poissons Ratio (y) = 0.30327 0.14720
# Poissons Ratio (z) = 0.33128 0.24540
#
# Static dielectric constant tensor:
#      x y z
#    x 1.910730 0.000000 0.027920 
#    y 0.000000 1.865610 0.000000 
#    z 0.027920 0.000000 1.874760 
# 
# From -- ./inp_files/62833.got.cif
#   From: 2010.05.17/outbox.cif.g08.bks.cpg/sg14_32_cif.got.tgz:62833.got - 2010.06.03 17:49:19.
