data_PCOD9252877
_publ_section_title
;
Structure prediction by ZEFSAII (Michael W. Deem and Ramdas Pophale) SiO2 
 PCOD9252877
Probable space group: P 21/C
;
_chemical_formula_sum "Si O2"
_cell_formula_units_Z 32
_cell_length_a 11.091521
_cell_length_b 11.815461
_cell_length_c 21.875253
_cell_angle_alpha 90.000000
_cell_angle_beta 31.459082
_cell_angle_gamma 90.000000
_cell_volume 1496.144132
_symmetry_space_group_name_H-M "P 21/C"
_symmetry_group_IT_number 14
_symmetry_cell_setting 'monoclinic'
loop_
_space_group_symop_operation_xyz
x,y,z
-x,1/2+y,1/2-z
-x,-y,-z
x,1/2-y,1/2+z
loop_
_atom_site_type_symbol
_atom_site_label
_atom_site_fract_x
_atom_site_fract_y
_atom_site_fract_z
Si Si1 0.645269 0.580403 0.484194
Si Si2 0.962412 0.966659 0.375944
Si Si3 0.647781 0.908141 0.715183
Si Si4 0.157869 0.545936 0.488048
Si Si5 0.045742 0.166256 0.253543
Si Si6 0.793535 0.812127 0.202668
Si Si7 0.263276 0.734454 0.704276
Si Si8 0.493497 0.539272 0.148879
O O1 0.500000 0.500000 0.500000
O O2 0.815120 0.520680 0.459374
O O3 0.790977 0.656896 0.375425
O O4 0.475847 0.651625 0.600269
O O5 0.127569 0.033394 0.352257
O O6 0.992844 0.040796 0.301212
O O7 0.068878 0.842052 0.321031
O O8 0.696236 0.967383 0.510998
O O9 0.658089 0.772476 0.716803
O O10 0.622884 0.945025 0.656852
O O11 0.416299 0.943047 0.851218
O O12 0.000000 0.500000 0.500000
O O13 0.031332 0.659280 0.565231
O O14 0.160253 0.239445 0.256906
O O15 0.820506 0.228643 0.326724
O O16 0.660000 0.926449 0.278010
O O17 0.337959 0.849372 0.705285
#
# Coordination Sequence:
#
# PCOD9252877 Si02
#       8
#     4   4   4   4   4   4   4   4
#     4  12  23  47  75 103 146 193 251 301 359 448
#     4  11  26  50  70 106 148 190 246 304 380 437
#     4  11  26  48  74 105 144 198 239 306 372 450
#     4  12  25  47  78 108 149 193 251 307 362 456
#     4  11  26  44  74 106 142 195 239 310 370 444
#     4  11  27  46  73 109 146 193 248 298 381 444
#     4  12  26  44  72 104 144 192 246 300 367 438
#     4  12  28  44  74 108 150 190 243 315 369 451
#
# _framework density 21.388314000000001
#
# number of rings (size 3 to 8) (size 9 to 14) (size 15 to 20)
#    0.000    0.500    3.750    3.375   10.500    1.500 
#    0.000    0.000    0.000    0.000    0.000    0.000 
#    0.000    0.000    0.000    0.000    0.000    0.000 
#
# Total GULP energy -178862.569062 kJ/mol
# GULP energy per Si atom -5589.455283 kJ/mol
# Density = 2.133963 g / cm^3
# Si number density = 21.388314 Si / 1000 Ang^3
#
#
#
# Elastic Constant Matrix: (Units=GPa)
#
#
# Indices 1 2 3 4 5 6 
#
# 1 75.4849 26.4927 -11.3959 0.0000 3.1558 0.0000
# 2 26.4927 109.6525 6.3316 0.0000 -10.5688 0.0000
# 3 -11.3959 6.3316 58.7431 0.0000 -3.5679 0.0000
# 4 0.0000 0.0000 0.0000 17.8688 0.0000 -10.4795
# 5 3.1558 -10.5688 -3.5679 0.0000 31.5703 0.0000
# 6 0.0000 0.0000 0.0000 -10.4795 0.0000 25.1164
#
#
#
# Elastic Compliance Matrix: (Units=1/GPa)
#
#
# Indices 1 2 3 4 5 6 
#
# 1 0.015295 -0.004129 0.003258 0.000000 -0.002543 0.000000
# 2 -0.004129 0.010579 -0.001713 0.000000 0.003761 0.000000
# 3 0.003258 -0.001713 0.017908 0.000000 0.001125 0.000000
# 4 0.000000 0.000000 0.000000 0.074094 0.000000 0.030915
# 5 -0.002543 0.003761 0.001125 0.000000 0.033316 0.000000
# 6 0.000000 0.000000 0.000000 0.030915 0.000000 0.052713
#
#
# Mechanical properties :
#
#
# Convention : Reuss Voigt Hill
#
# Bulk Modulus (GPa) = 25.89712 31.85973 28.87843
# Shear Modulus (GPa) = 22.52834 29.74124 26.13479
#
# Velocity S-wave (km/s) = 3.24898 3.73304 3.49939
# Velocity P-wave (km/s) = 5.11946 5.78869 5.46433
#
# Compressibility (1/GPa) = 0.03861433
#
# Stress axis : x y z
#
# Youngs Moduli (GPa) = 65.38186 94.53098 55.84047
#
# Poissons Ratio (x) = 0.39027 -0.18191
# Poissons Ratio (y) = 0.26993 0.09564
# Poissons Ratio (z) = -0.21299 0.16190
#
# Static dielectric constant tensor:
#      x y z
#    x 1.855900 0.000000 -0.081760 
#    y 0.000000 1.821820 0.000000 
#    z -0.081760 0.000000 1.827310 
# 
# From -- ./inp_files/67406.got.cif
#   From: 2010.05.17/outbox.cif.g08.bks.cpg/sg14_34_cif.got.tgz:67406.got - 2010.06.03 17:49:19.
