data_PCOD9252231
_publ_section_title
;
Structure prediction by ZEFSAII (Michael W. Deem and Ramdas Pophale) SiO2 
 PCOD9252231
Probable space group: P 21/C
;
_chemical_formula_sum "Si O2"
_cell_formula_units_Z 30
_cell_length_a 6.785109
_cell_length_b 17.947979
_cell_length_c 11.892294
_cell_angle_alpha 90.000000
_cell_angle_beta 118.149183
_cell_angle_gamma 90.000000
_cell_volume 1276.937982
_symmetry_space_group_name_H-M "P 21/C"
_symmetry_group_IT_number 14
_symmetry_cell_setting 'monoclinic'
loop_
_space_group_symop_operation_xyz
x,y,z
-x,1/2+y,1/2-z
-x,-y,-z
x,1/2-y,1/2+z
loop_
_atom_site_type_symbol
_atom_site_label
_atom_site_fract_x
_atom_site_fract_y
_atom_site_fract_z
Si Si1 0.459518 0.530060 0.238789
Si Si2 0.743575 0.388998 0.374711
Si Si3 0.000000 0.500000 0.000000
Si Si4 0.647066 0.702523 0.789224
Si Si5 0.251483 0.636400 0.366241
Si Si6 0.235744 0.345512 0.765401
Si Si7 0.459192 0.797796 0.456664
Si Si8 0.025495 0.894784 0.290804
O O1 0.555624 0.451101 0.301636
O O2 0.260304 0.524319 0.095299
O O3 0.377872 0.576681 0.324962
O O4 0.666324 0.575745 0.241987
O O5 0.612542 0.311013 0.315345
O O6 0.804400 0.390117 0.521793
O O7 0.931559 0.404464 0.331192
O O8 0.990927 0.464480 0.129262
O O9 0.755154 0.784241 0.830467
O O10 0.636942 0.671521 0.913162
O O11 0.808348 0.656006 0.752758
O O12 0.388637 0.713193 0.411510
O O13 0.008179 0.651178 0.247651
O O14 0.415829 0.306852 0.894071
O O15 0.238039 0.846806 0.389140
#
# Coordination Sequence:
#
# PCOD9252231 Si02
#       8
#     4   4   2   4   4   4   4   4
#     4  12  28  47  72 112 151 199 249 306 377 442
#     4  11  27  47  73 104 154 197 244 300 378 453
#     4  12  26  48  76 106 150 190 254 316 362 448
#     4  11  23  45  72 108 142 194 236 318 369 439
#     4  12  27  47  74 108 149 197 247 305 376 457
#     4  12  26  43  74 109 145 192 247 309 367 440
#     4  11  24  44  72 109 146 181 252 309 373 438
#     4  11  25  45  76 108 142 195 250 308 381 429
#
# _framework density 23.493704000000001
#
# number of rings (size 3 to 8) (size 9 to 14) (size 15 to 20)
#    0.000    0.533    6.667    0.400    3.733    3.200 
#    0.000    0.000    0.000    0.000    0.000    0.000 
#    0.000    0.000    0.000    0.000    0.000    0.000 
#
# Total GULP energy -167170.772043 kJ/mol
# GULP energy per Si atom -5572.359068 kJ/mol
# Density = 2.344023 g / cm^3
# Si number density = 23.493704 Si / 1000 Ang^3
#
#
#
# Elastic Constant Matrix: (Units=GPa)
#
#
# Indices 1 2 3 4 5 6 
#
# 1 102.4153 16.1645 -1.0321 0.0000 -14.4878 0.0000
# 2 16.1645 73.2981 -0.4193 0.0000 -3.2232 0.0000
# 3 -1.0321 -0.4193 36.2640 0.0000 0.4431 0.0000
# 4 0.0000 0.0000 0.0000 24.4399 0.0000 -3.4573
# 5 -14.4878 -3.2232 0.4431 0.0000 27.9106 0.0000
# 6 0.0000 0.0000 0.0000 -3.4573 0.0000 41.6087
#
#
#
# Elastic Compliance Matrix: (Units=1/GPa)
#
#
# Indices 1 2 3 4 5 6 
#
# 1 0.010869 -0.002159 0.000219 0.000000 0.005389 0.000000
# 2 -0.002159 0.014142 0.000096 0.000000 0.000511 0.000000
# 3 0.000219 0.000096 0.027587 0.000000 -0.000313 0.000000
# 4 0.000000 0.000000 0.000000 0.041403 0.000000 0.003440
# 5 0.005389 0.000511 -0.000313 0.000000 0.038690 0.000000
# 6 0.000000 0.000000 0.000000 0.003440 0.000000 0.024319
#
#
# Mechanical properties :
#
#
# Convention : Reuss Voigt Hill
#
# Bulk Modulus (GPa) = 20.44602 26.82263 23.63433
# Shear Modulus (GPa) = 28.24810 31.94279 30.09545
#
# Velocity S-wave (km/s) = 3.47128 3.69132 3.58299
# Velocity P-wave (km/s) = 4.97876 5.44146 5.21524
#
# Compressibility (1/GPa) = 0.04890927
#
# Stress axis : x y z
#
# Youngs Moduli (GPa) = 92.00066 70.71118 36.24936
#
# Poissons Ratio (x) = 0.15265 -0.00792
# Poissons Ratio (y) = 0.19861 -0.00347
# Poissons Ratio (z) = -0.02011 -0.00678
#
# Static dielectric constant tensor:
#      x y z
#    x 1.865320 0.000000 0.001450 
#    y 0.000000 2.085510 0.000000 
#    z 0.001450 0.000000 1.930960 
# 
# From -- ./inp_files/21780.got.cif
#   From: 2010.05.17/outbox.cif.g08.bks.cpg/sg14_11_cif.got.tgz:21780.got - 2010.06.03 17:49:19.
