data_PCOD9252424
_publ_section_title
;
Structure prediction by ZEFSAII (Michael W. Deem and Ramdas Pophale) SiO2 
 PCOD9252424
Probable space group: P 21/C
;
_chemical_formula_sum "Si O2"
_cell_formula_units_Z 28
_cell_length_a 11.564848
_cell_length_b 5.939631
_cell_length_c 20.219726
_cell_angle_alpha 90.000000
_cell_angle_beta 114.475548
_cell_angle_gamma 90.000000
_cell_volume 1264.101617
_symmetry_space_group_name_H-M "P 21/C"
_symmetry_group_IT_number 14
_symmetry_cell_setting 'monoclinic'
loop_
_space_group_symop_operation_xyz
x,y,z
-x,1/2+y,1/2-z
-x,-y,-z
x,1/2-y,1/2+z
loop_
_atom_site_type_symbol
_atom_site_label
_atom_site_fract_x
_atom_site_fract_y
_atom_site_fract_z
Si Si1 0.117350 0.053989 0.434778
Si Si2 0.525622 0.678471 0.678336
Si Si3 0.943242 0.797899 0.945415
Si Si4 0.621835 0.957857 0.573396
Si Si5 0.300409 0.473122 0.689143
Si Si6 0.295757 0.801483 0.806121
Si Si7 0.033414 0.577216 0.230271
O O1 0.106913 0.138892 0.507418
O O2 0.256426 0.118460 0.440370
O O3 0.019065 0.138633 0.355111
O O4 0.060160 0.802428 0.430758
O O5 0.570261 0.808754 0.622731
O O6 0.377043 0.644883 0.659028
O O7 0.599863 0.793447 0.756949
O O8 0.577163 0.427706 0.682570
O O9 0.822671 0.864434 0.872643
O O10 0.000000 0.000000 0.000000
O O11 0.500000 0.000000 0.500000
O O12 0.678308 0.184899 0.618650
O O13 0.261802 0.615305 0.744006
O O14 0.181913 0.975758 0.774613
O O15 0.977246 0.325946 0.235390
#
# Coordination Sequence:
#
# PCOD9252424 Si02
#       7
#     4   4   4   4   4   4   4
#     4  11  26  48  67 106 144 190 248 308 379 455
#     4  11  24  44  69 103 140 187 238 306 373 448
#     4  11  27  44  73 103 143 193 241 315 380 447
#     4  11  27  45  69 103 144 190 243 297 378 452
#     4  11  24  44  70 107 140 183 247 301 374 457
#     4  11  24  43  72 101 137 190 239 305 367 440
#     4  12  26  46  77 107 147 194 249 316 371 452
#
# _framework density 22.150117000000002
#
# number of rings (size 3 to 8) (size 9 to 14) (size 15 to 20)
#    0.000    0.857    2.857    2.571   10.000    2.857 
#    0.000    0.000    0.000    0.000    0.000    0.000 
#    0.000    0.000    0.000    0.000    0.000    0.000 
#
# Total GULP energy -156033.349371 kJ/mol
# GULP energy per Si atom -5572.619620 kJ/mol
# Density = 2.209970 g / cm^3
# Si number density = 22.150117 Si / 1000 Ang^3
#
#
#
# Elastic Constant Matrix: (Units=GPa)
#
#
# Indices 1 2 3 4 5 6 
#
# 1 69.8783 2.2472 31.1173 0.0000 1.0874 0.0000
# 2 2.2472 46.2365 20.8973 0.0000 1.4629 0.0000
# 3 31.1173 20.8973 134.9785 0.0000 16.7045 0.0000
# 4 0.0000 0.0000 0.0000 29.6821 0.0000 4.9364
# 5 1.0874 1.4629 16.7045 0.0000 32.1038 0.0000
# 6 0.0000 0.0000 0.0000 4.9364 0.0000 27.7107
#
#
#
# Elastic Compliance Matrix: (Units=1/GPa)
#
#
# Indices 1 2 3 4 5 6 
#
# 1 0.016055 0.000999 -0.004044 0.000000 0.001515 0.000000
# 2 0.000999 0.023340 -0.003963 0.000000 0.000965 0.000000
# 3 -0.004044 -0.003963 0.009529 0.000000 -0.004640 0.000000
# 4 0.000000 0.000000 0.000000 0.034719 0.000000 -0.006185
# 5 0.001515 0.000965 -0.004640 0.000000 0.033468 0.000000
# 6 0.000000 0.000000 0.000000 -0.006185 0.000000 0.037189
#
#
# Mechanical properties :
#
#
# Convention : Reuss Voigt Hill
#
# Bulk Modulus (GPa) = 28.64576 39.95746 34.30161
# Shear Modulus (GPa) = 27.78523 31.02142 29.40333
#
# Velocity S-wave (km/s) = 3.54560 3.74640 3.64738
# Velocity P-wave (km/s) = 5.45182 6.06568 5.76693
#
# Compressibility (1/GPa) = 0.03490918
#
# Stress axis : x y z
#
# Youngs Moduli (GPa) = 62.28401 42.84474 104.94677
#
# Poissons Ratio (x) = -0.04281 0.42435
# Poissons Ratio (y) = -0.06224 0.41593
# Poissons Ratio (z) = 0.25185 0.16981
#
# Static dielectric constant tensor:
#      x y z
#    x 1.870620 0.000000 -0.029350 
#    y 0.000000 1.531230 0.000000 
#    z -0.029350 0.000000 1.790280 
# 
# From -- ./inp_files/66515.got.cif
#   From: 2010.05.17/outbox.cif.g08.bks.cpg/sg14_34_cif.got.tgz:66515.got - 2010.06.03 17:49:19.
