data_PCOD9252589
_publ_section_title
;
Structure prediction by ZEFSAII (Michael W. Deem and Ramdas Pophale) SiO2 
 PCOD9252589
Probable space group: P 21/C
;
_chemical_formula_sum "Si O2"
_cell_formula_units_Z 24
_cell_length_a 13.691677
_cell_length_b 14.355325
_cell_length_c 11.225098
_cell_angle_alpha 90.000000
_cell_angle_beta 150.932946
_cell_angle_gamma 90.000000
_cell_volume 1071.881332
_symmetry_space_group_name_H-M "P 21/C"
_symmetry_group_IT_number 14
_symmetry_cell_setting 'monoclinic'
loop_
_space_group_symop_operation_xyz
x,y,z
-x,1/2+y,1/2-z
-x,-y,-z
x,1/2-y,1/2+z
loop_
_atom_site_type_symbol
_atom_site_label
_atom_site_fract_x
_atom_site_fract_y
_atom_site_fract_z
Si Si1 0.659658 0.060138 0.599726
Si Si2 0.681879 0.855808 0.922906
Si Si3 0.039104 0.292494 0.839270
Si Si4 0.063540 0.992637 0.308188
Si Si5 0.161751 0.757250 0.125771
Si Si6 0.421850 0.591386 0.351859
O O1 0.763032 0.137127 0.790433
O O2 0.500000 0.000000 0.500000
O O3 0.826109 0.004178 0.702565
O O4 0.519323 0.116723 0.359649
O O5 0.743280 0.751910 0.953099
O O6 0.613660 0.868842 0.985303
O O7 0.864019 0.928268 0.089847
O O8 0.923201 0.249344 0.599840
O O9 0.974612 0.257062 0.901529
O O10 0.023433 0.403539 0.813009
O O11 0.230909 0.945710 0.571632
O O12 0.331436 0.678980 0.324865
O O13 0.500000 0.500000 0.500000
#
# Coordination Sequence:
#
# PCOD9252589 Si02
#       6
#     4   4   4   4   4   4
#     4  11  26  44  72 104 146 192 247 298 360 444
#     4  11  24  47  68 106 144 188 243 300 366 429
#     4  12  27  44  81 101 149 195 234 309 367 423
#     4  11  25  49  69 107 147 191 249 299 367 434
#     4  12  26  50  72 114 148 186 250 304 356 442
#     4  11  26  44  72 104 146 192 247 298 360 444
#
# _framework density 22.390537999999999
#
# number of rings (size 3 to 8) (size 9 to 14) (size 15 to 20)
#    0.000    0.667    3.333    3.000    9.333    4.000 
#    0.000    0.000    0.000    0.000    0.000    0.000 
#    0.000    0.000    0.000    0.000    0.000    0.000 
#
# Total GULP energy -134048.173218 kJ/mol
# GULP energy per Si atom -5585.340551 kJ/mol
# Density = 2.233958 g / cm^3
# Si number density = 22.390538 Si / 1000 Ang^3
#
#
#
# Elastic Constant Matrix: (Units=GPa)
#
#
# Indices 1 2 3 4 5 6 
#
# 1 98.2782 6.8947 0.5901 0.0000 11.3287 0.0000
# 2 6.8947 86.5179 -8.5130 0.0000 -1.3148 0.0000
# 3 0.5901 -8.5130 58.3816 0.0000 2.2212 0.0000
# 4 0.0000 0.0000 0.0000 43.2062 0.0000 10.5877
# 5 11.3287 -1.3148 2.2212 0.0000 23.9616 0.0000
# 6 0.0000 0.0000 0.0000 10.5877 0.0000 42.3222
#
#
#
# Elastic Compliance Matrix: (Units=1/GPa)
#
#
# Indices 1 2 3 4 5 6 
#
# 1 0.010838 -0.000947 -0.000051 0.000000 -0.005171 0.000000
# 2 -0.000947 0.011815 0.001697 0.000000 0.000939 0.000000
# 3 -0.000051 0.001697 0.017434 0.000000 -0.001499 0.000000
# 4 0.000000 0.000000 0.000000 0.024656 0.000000 -0.006168
# 5 -0.005171 0.000939 -0.001499 0.000000 0.044369 0.000000
# 6 0.000000 0.000000 0.000000 -0.006168 0.000000 0.025171
#
#
# Mechanical properties :
#
#
# Convention : Reuss Voigt Hill
#
# Bulk Modulus (GPa) = 24.10591 26.79126 25.44859
# Shear Modulus (GPa) = 34.07986 38.17840 36.12913
#
# Velocity S-wave (km/s) = 3.90560 4.13378 4.02131
# Velocity P-wave (km/s) = 5.57922 5.89708 5.74036
#
# Compressibility (1/GPa) = 0.04148360
#
# Stress axis : x y z
#
# Youngs Moduli (GPa) = 92.26744 84.63810 57.36045
#
# Poissons Ratio (x) = 0.08018 0.00292
# Poissons Ratio (y) = 0.08740 -0.09732
# Poissons Ratio (z) = 0.00470 -0.14360
#
# Static dielectric constant tensor:
#      x y z
#    x 1.886570 0.000000 -0.081630 
#    y 0.000000 -1.112510 0.000000 
#    z -0.081630 0.000000 1.899200 
# 
# From -- ./inp_files/32663.got.cif
#   From: 2010.05.17/outbox.cif.g08.bks.cpg/sg14_17_cif.got.tgz:32663.got - 2010.06.03 17:49:19.
