data_PCOD9252503
_publ_section_title
;
Structure prediction by ZEFSAII (Michael W. Deem and Ramdas Pophale) SiO2 
 PCOD9252503
Probable space group: P 21/C
;
_chemical_formula_sum "Si O2"
_cell_formula_units_Z 24
_cell_length_a 13.975046
_cell_length_b 7.522171
_cell_length_c 17.769215
_cell_angle_alpha 90.000000
_cell_angle_beta 41.230869
_cell_angle_gamma 90.000000
_cell_volume 1231.154440
_symmetry_space_group_name_H-M "P 21/C"
_symmetry_group_IT_number 14
_symmetry_cell_setting 'monoclinic'
loop_
_space_group_symop_operation_xyz
x,y,z
-x,1/2+y,1/2-z
-x,-y,-z
x,1/2-y,1/2+z
loop_
_atom_site_type_symbol
_atom_site_label
_atom_site_fract_x
_atom_site_fract_y
_atom_site_fract_z
Si Si1 0.663448 0.038176 0.878158
Si Si2 0.834035 0.741107 0.373070
Si Si3 0.334035 0.258893 0.373070
Si Si4 0.836552 0.038176 0.121842
Si Si5 0.336643 0.882429 0.298453
Si Si6 0.163357 0.882429 0.701547
O O1 0.671475 0.054925 0.783481
O O2 0.720702 0.225290 0.877452
O O3 0.765829 0.883337 0.849234
O O4 0.500000 0.000000 0.000000
O O5 0.750000 0.700338 0.500000
O O6 0.003628 0.697680 0.281947
O O7 0.813321 0.946623 0.363928
O O8 0.265829 0.383337 0.349234
O O9 0.503628 0.302320 0.281947
O O10 0.313321 0.053377 0.363928
O O11 0.779298 0.225290 0.122548
O O12 0.828525 0.054925 0.216519
O O13 0.000000 0.000000 0.000000
#
# Coordination Sequence:
#
# PCOD9252503 Si02
#       6
#     4   4   4   4   4   4
#     4  11  24  45  68  96 134 171 217 272 323 383
#     4  12  24  42  68  98 132 173 219 264 325 389
#     4  12  24  42  68  98 132 173 219 264 325 389
#     4  11  24  45  68  96 134 171 217 272 323 383
#     4  11  25  43  67  98 132 172 217 269 326 382
#     4  11  25  43  67  98 132 172 217 269 326 382
#
# _framework density 19.493898999999999
#
# number of rings (size 3 to 8) (size 9 to 14) (size 15 to 20)
#    0.000    0.667    6.667    1.000    0.000    5.333 
#    0.000    0.000    0.000    0.000    0.000    0.000 
#    0.000    0.000    0.000    0.000    0.000    0.000 
#
# Total GULP energy -134275.492865 kJ/mol
# GULP energy per Si atom -5594.812203 kJ/mol
# Density = 1.944953 g / cm^3
# Si number density = 19.493899 Si / 1000 Ang^3
#
#
#
# Elastic Constant Matrix: (Units=GPa)
#
#
# Indices 1 2 3 4 5 6 
#
# 1 111.7820 52.7092 38.8484 0.0000 -33.5176 0.0000
# 2 52.7092 123.8025 42.9380 0.0000 -21.2127 0.0000
# 3 38.8484 42.9380 75.8589 0.0000 -27.9800 0.0000
# 4 0.0000 0.0000 0.0000 28.4265 0.0000 -0.3296
# 5 -33.5176 -21.2127 -27.9800 0.0000 21.7119 0.0000
# 6 0.0000 0.0000 0.0000 -0.3296 0.0000 46.6382
#
#
#
# Elastic Compliance Matrix: (Units=1/GPa)
#
#
# Indices 1 2 3 4 5 6 
#
# 1 0.018274 -0.004083 0.003596 0.000000 0.028854 0.000000
# 2 -0.004083 0.011226 -0.004846 0.000000 -0.001581 0.000000
# 3 0.003596 -0.004846 0.027417 0.000000 0.036148 0.000000
# 4 0.000000 0.000000 0.000000 0.035181 0.000000 0.000249
# 5 0.028854 -0.001581 0.036148 0.000000 0.135641 0.000000
# 6 0.000000 0.000000 0.000000 0.000249 0.000000 0.021443
#
#
# Mechanical properties :
#
#
# Convention : Reuss Voigt Hill
#
# Bulk Modulus (GPa) = 21.62196 64.49273 43.05734
# Shear Modulus (GPa) = 18.16430 31.15184 24.65807
#
# Velocity S-wave (km/s) = 3.05584 4.00187 3.56042
# Velocity P-wave (km/s) = 4.85455 7.38300 6.24801
#
# Compressibility (1/GPa) = 0.04624928
#
# Stress axis : x y z
#
# Youngs Moduli (GPa) = 54.72385 89.08165 36.47372
#
# Poissons Ratio (x) = 0.36373 -0.13115
# Poissons Ratio (y) = 0.22344 0.17675
# Poissons Ratio (z) = -0.19677 0.43169
#
# Static dielectric constant tensor:
#      x y z
#    x 1.669830 0.000000 0.004350 
#    y 0.000000 1.660480 0.000000 
#    z 0.004350 0.000000 1.634060 
# 
# From -- ./inp_files/67803.got.cif
#   From: 2010.05.17/outbox.cif.g08.bks.cpg/sg14_34_cif.got.tgz:67803.got - 2010.06.03 17:49:19.
