data_PCOD9252609
_publ_section_title
;
Structure prediction by ZEFSAII (Michael W. Deem and Ramdas Pophale) SiO2 
 PCOD9252609
Probable space group: P 21/C
;
_chemical_formula_sum "Si O2"
_cell_formula_units_Z 16
_cell_length_a 14.285576
_cell_length_b 6.009306
_cell_length_c 23.415701
_cell_angle_alpha 90.000000
_cell_angle_beta 161.030500
_cell_angle_gamma 90.000000
_cell_volume 653.430140
_symmetry_space_group_name_H-M "P 21/C"
_symmetry_group_IT_number 14
_symmetry_cell_setting 'monoclinic'
loop_
_space_group_symop_operation_xyz
x,y,z
-x,1/2+y,1/2-z
-x,-y,-z
x,1/2-y,1/2+z
loop_
_atom_site_type_symbol
_atom_site_label
_atom_site_fract_x
_atom_site_fract_y
_atom_site_fract_z
Si Si1 0.666234 0.006056 0.655073
Si Si2 0.735120 0.712387 0.503169
Si Si3 0.283068 0.097986 0.743383
Si Si4 0.847095 0.711942 0.442879
O O1 0.815451 0.784771 0.768025
O O2 0.500000 0.000000 0.500000
O O3 0.426416 0.077995 0.563418
O O4 0.925918 0.181280 0.795463
O O5 0.561829 0.511591 0.432381
O O6 0.672608 0.677681 0.400026
O O7 0.353653 0.216195 0.724516
O O8 0.062877 0.906412 0.592485
O O9 0.000000 0.500000 0.500000
#
# Coordination Sequence:
#
# PCOD9252609 Si02
#       4
#     4   4   4   4
#     4  12  31  51  77 113 161 222 279 336 410 497
#     4  12  27  48  75 114 158 202 269 340 410 484
#     4  11  26  43  78 110 159 203 264 325 422 485
#     4  11  24  47  74 119 156 203 259 339 413 499
#
# _framework density 24.486169
#
# number of rings (size 3 to 8) (size 9 to 14) (size 15 to 20)
#    0.000    0.500    5.000    0.000   14.000    1.000 
#    0.000    0.000    0.000    0.000    0.000    0.000 
#    0.000    0.000    0.000    0.000    0.000    0.000 
#
# Total GULP energy -89123.935787 kJ/mol
# GULP energy per Si atom -5570.245987 kJ/mol
# Density = 2.443044 g / cm^3
# Si number density = 24.486169 Si / 1000 Ang^3
#
#
#
# Elastic Constant Matrix: (Units=GPa)
#
#
# Indices 1 2 3 4 5 6 
#
# 1 100.6218 63.7050 45.7107 0.0000 -3.5781 0.0000
# 2 63.7050 98.0491 45.0991 0.0000 -3.4223 0.0000
# 3 45.7107 45.0991 114.7298 0.0000 -9.8888 0.0000
# 4 0.0000 0.0000 0.0000 33.3198 0.0000 10.9204
# 5 -3.5781 -3.4223 -9.8888 0.0000 45.4576 0.0000
# 6 0.0000 0.0000 0.0000 10.9204 0.0000 33.5077
#
#
#
# Elastic Compliance Matrix: (Units=1/GPa)
#
#
# Indices 1 2 3 4 5 6 
#
# 1 0.017741 -0.010102 -0.003101 0.000000 -0.000039 0.000000
# 2 -0.010102 0.018203 -0.003140 0.000000 -0.000108 0.000000
# 3 -0.003101 -0.003140 0.011357 0.000000 0.001990 0.000000
# 4 0.000000 0.000000 0.000000 0.033601 0.000000 -0.010951
# 5 -0.000039 -0.000108 0.001990 0.000000 0.022420 0.000000
# 6 0.000000 0.000000 0.000000 -0.010951 0.000000 0.033413
#
#
# Mechanical properties :
#
#
# Convention : Reuss Voigt Hill
#
# Bulk Modulus (GPa) = 68.41718 69.15892 68.78805
# Shear Modulus (GPa) = 28.68732 33.04943 30.86837
#
# Velocity S-wave (km/s) = 3.42654 3.67784 3.55441
# Velocity P-wave (km/s) = 6.60732 6.80740 6.70811
#
# Compressibility (1/GPa) = 0.01461621
#
# Stress axis : x y z
#
# Youngs Moduli (GPa) = 56.36613 54.93625 88.04891
#
# Poissons Ratio (x) = 0.55496 0.27302
# Poissons Ratio (y) = 0.56941 0.27646
# Poissons Ratio (z) = 0.17478 0.17249
#
# Static dielectric constant tensor:
#      x y z
#    x 1.967310 0.000000 0.045320 
#    y 0.000000 2.260440 0.000000 
#    z 0.045320 0.000000 1.928590 
# 
# From -- ./inp_files/36002.got.cif
#   From: 2010.05.17/outbox.cif.g08.bks.cpg/sg14_19_cif.got.tgz:36002.got - 2010.06.03 17:49:19.
