data_PCOD9252394
_publ_section_title
;
Structure prediction by ZEFSAII (Michael W. Deem and Ramdas Pophale) SiO2 
 PCOD9252394
Probable space group: P 21/C
;
_chemical_formula_sum "Si O2"
_cell_formula_units_Z 28
_cell_length_a 24.239629
_cell_length_b 6.562859
_cell_length_c 16.085632
_cell_angle_alpha 90.000000
_cell_angle_beta 32.629798
_cell_angle_gamma 90.000000
_cell_volume 1379.793777
_symmetry_space_group_name_H-M "P 21/C"
_symmetry_group_IT_number 14
_symmetry_cell_setting 'monoclinic'
loop_
_space_group_symop_operation_xyz
x,y,z
-x,1/2+y,1/2-z
-x,-y,-z
x,1/2-y,1/2+z
loop_
_atom_site_type_symbol
_atom_site_label
_atom_site_fract_x
_atom_site_fract_y
_atom_site_fract_z
Si Si1 0.744239 0.647567 0.269568
Si Si2 0.886687 0.972692 0.178948
Si Si3 0.297298 0.735105 0.585172
Si Si4 0.893526 0.677101 0.323499
Si Si5 0.379694 0.510148 0.138621
Si Si6 0.736121 0.174954 0.050411
Si Si7 0.878927 0.486694 0.963395
O O1 0.823138 0.811676 0.205171
O O2 0.693435 0.501656 0.402009
O O3 0.664673 0.782201 0.318615
O O4 0.810464 0.490670 0.131731
O O5 0.890081 0.861948 0.263206
O O6 0.819626 0.177883 0.265908
O O7 0.000000 0.000000 0.000000
O O8 0.326553 0.756976 0.450275
O O9 0.353656 0.864601 0.586365
O O10 0.803183 0.515114 0.431595
O O11 0.004908 0.579991 0.172530
O O12 0.882356 0.782110 0.426934
O O13 0.327499 0.608026 0.287229
O O14 0.500000 0.500000 0.000000
O O15 0.818938 0.338598 0.977219
#
# Coordination Sequence:
#
# PCOD9252394 Si02
#       7
#     4   4   4   4   4   4   4
#     4  11  24  43  66  92 137 178 222 281 344 402
#     4  11  25  37  61  99 140 183 228 273 325 405
#     4  11  24  45  68  98 133 180 230 281 342 414
#     4  12  24  37  61  98 141 184 228 268 332 407
#     4  11  27  51  71  99 134 172 234 299 358 408
#     4  12  24  45  68  98 139 179 229 289 339 411
#     4  12  24  38  62  97 138 188 222 269 334 402
#
# _framework density 20.292887
#
# number of rings (size 3 to 8) (size 9 to 14) (size 15 to 20)
#    0.000    0.571    7.143    0.857    6.000    1.714 
#    2.571    0.000    0.000    0.000    0.000    0.000 
#    0.000    0.000    0.000    0.000    0.000    0.000 
#
# Total GULP energy -156315.989621 kJ/mol
# GULP energy per Si atom -5582.713915 kJ/mol
# Density = 2.024670 g / cm^3
# Si number density = 20.292887 Si / 1000 Ang^3
#
#
#
# Elastic Constant Matrix: (Units=GPa)
#
#
# Indices 1 2 3 4 5 6 
#
# 1 102.1359 18.0505 43.3947 0.0000 13.3521 0.0000
# 2 18.0505 69.8281 17.4848 0.0000 4.0126 0.0000
# 3 43.3947 17.4848 68.3510 0.0000 -1.2171 0.0000
# 4 0.0000 0.0000 0.0000 25.4064 0.0000 14.4327
# 5 13.3521 4.0126 -1.2171 0.0000 30.5281 0.0000
# 6 0.0000 0.0000 0.0000 14.4327 0.0000 33.7645
#
#
#
# Elastic Compliance Matrix: (Units=1/GPa)
#
#
# Indices 1 2 3 4 5 6 
#
# 1 0.014778 -0.001129 -0.009212 0.000000 -0.006682 0.000000
# 2 -0.001129 0.015532 -0.003286 0.000000 -0.001679 0.000000
# 3 -0.009212 -0.003286 0.021414 0.000000 0.005315 0.000000
# 4 0.000000 0.000000 0.000000 0.051983 0.000000 -0.022220
# 5 -0.006682 -0.001679 0.005315 0.000000 0.036112 0.000000
# 6 0.000000 0.000000 0.000000 -0.022220 0.000000 0.039115
#
#
# Mechanical properties :
#
#
# Convention : Reuss Voigt Hill
#
# Bulk Modulus (GPa) = 40.86836 44.24166 42.55501
# Shear Modulus (GPa) = 23.32674 28.69881 26.01277
#
# Velocity S-wave (km/s) = 3.39411 3.76470 3.58420
# Velocity P-wave (km/s) = 5.96179 6.38328 6.17613
#
# Compressibility (1/GPa) = 0.02446881
#
# Stress axis : x y z
#
# Youngs Moduli (GPa) = 67.66744 64.38276 46.69749
#
# Poissons Ratio (x) = 0.07271 0.43020
# Poissons Ratio (y) = 0.07642 0.15345
# Poissons Ratio (z) = 0.62338 0.21157
#
# Static dielectric constant tensor:
#      x y z
#    x 1.796480 0.000000 0.058200 
#    y 0.000000 1.750670 0.000000 
#    z 0.058200 0.000000 1.705110 
# 
# From -- ./inp_files/62138.got.cif
#   From: 2010.05.17/outbox.cif.g08.bks.cpg/sg14_32_cif.got.tgz:62138.got - 2010.06.03 17:49:19.
