data_PCOD9252024
_publ_section_title
;
Structure prediction by ZEFSAII (Michael W. Deem and Ramdas Pophale) SiO2 
 PCOD9252024
Probable space group: P 21/C
;
_chemical_formula_sum "Si O2"
_cell_formula_units_Z 32
_cell_length_a 13.061934
_cell_length_b 16.642877
_cell_length_c 11.434198
_cell_angle_alpha 90.000000
_cell_angle_beta 144.341831
_cell_angle_gamma 90.000000
_cell_volume 1449.010508
_symmetry_space_group_name_H-M "P 21/C"
_symmetry_group_IT_number 14
_symmetry_cell_setting 'monoclinic'
loop_
_space_group_symop_operation_xyz
x,y,z
-x,1/2+y,1/2-z
-x,-y,-z
x,1/2-y,1/2+z
loop_
_atom_site_type_symbol
_atom_site_label
_atom_site_fract_x
_atom_site_fract_y
_atom_site_fract_z
Si Si1 0.030429 0.932789 0.194211
Si Si2 0.281861 0.684213 0.530665
Si Si3 0.346458 0.864410 0.609986
Si Si4 0.217377 0.410300 0.171291
Si Si5 0.204232 0.905630 0.723376
Si Si6 0.974941 0.886493 0.882776
Si Si7 0.281474 0.345435 0.471685
Si Si8 0.653884 0.840146 0.450706
O O1 0.223698 0.925784 0.427472
O O2 0.016226 0.887871 0.057481
O O3 0.895037 0.890430 0.155590
O O4 0.981996 0.025077 0.127687
O O5 0.317012 0.776298 0.528634
O O6 0.277570 0.629240 0.411705
O O7 0.443892 0.658851 0.764264
O O8 0.098261 0.674681 0.427375
O O9 0.276464 0.858872 0.678052
O O10 0.550595 0.885176 0.809624
O O11 0.252277 0.501437 0.244677
O O12 0.294663 0.353544 0.344054
O O13 0.294228 0.389439 0.116747
O O14 0.007011 0.400027 0.968571
O O15 0.771022 0.870704 0.666585
O O16 0.288262 0.252508 0.513095
#
# Coordination Sequence:
#
# PCOD9252024 Si02
#       8
#     4   4   4   4   4   4   4   4
#     4  11  25  43  65  93 127 171 215 259 317 383
#     4  11  25  42  66  97 130 169 214 265 323 383
#     4  11  25  42  66  97 130 169 214 265 323 383
#     4  11  23  41  69 100 129 168 216 268 326 383
#     4  11  23  41  69 100 129 168 216 268 326 383
#     4  11  25  43  65  93 127 171 215 259 317 383
#     4  11  25  42  66  97 130 169 214 265 323 383
#     4  11  25  42  66  97 130 169 214 265 323 383
#
# _framework density 22.084036000000001
#
# number of rings (size 3 to 8) (size 9 to 14) (size 15 to 20)
#    0.000    1.000    2.500    3.000    3.500    6.000 
#    0.000    2.500    0.000    0.000    0.000    0.000 
#    0.000    0.000    0.000    0.000    0.000    0.000 
#
# Total GULP energy -179128.262807 kJ/mol
# GULP energy per Si atom -5597.758213 kJ/mol
# Density = 2.203377 g / cm^3
# Si number density = 22.084036 Si / 1000 Ang^3
#
#
#
# Elastic Constant Matrix: (Units=GPa)
#
#
# Indices 1 2 3 4 5 6 
#
# 1 19.3377 2.2244 14.1651 0.0000 -6.0464 0.0000
# 2 2.2244 38.5051 12.8697 0.0000 4.1175 0.0000
# 3 14.1651 12.8697 109.8640 0.0000 2.1490 0.0000
# 4 0.0000 0.0000 0.0000 62.6431 0.0000 19.1483
# 5 -6.0464 4.1175 2.1490 0.0000 26.7673 0.0000
# 6 0.0000 0.0000 0.0000 19.1483 0.0000 43.6327
#
#
#
# Elastic Compliance Matrix: (Units=1/GPa)
#
#
# Indices 1 2 3 4 5 6 
#
# 1 0.062676 -0.002545 -0.008080 0.000000 0.015198 0.000000
# 2 -0.002545 0.027547 -0.002809 0.000000 -0.004587 0.000000
# 3 -0.008080 -0.002809 0.010517 0.000000 -0.002237 0.000000
# 4 0.000000 0.000000 0.000000 0.018437 0.000000 -0.008091
# 5 0.015198 -0.004587 -0.002237 0.000000 0.041677 0.000000
# 6 0.000000 0.000000 0.000000 -0.008091 0.000000 0.026469
#
#
# Mechanical properties :
#
#
# Convention : Reuss Voigt Hill
#
# Bulk Modulus (GPa) = 13.53713 25.13612 19.33662
# Shear Modulus (GPa) = 20.93666 35.83845 28.38756
#
# Velocity S-wave (km/s) = 3.08237 4.03280 3.58918
# Velocity P-wave (km/s) = 4.33719 5.75251 5.09424
#
# Compressibility (1/GPa) = 0.07387092
#
# Stress axis : x y z
#
# Youngs Moduli (GPa) = 15.95507 36.30160 95.08622
#
# Poissons Ratio (x) = 0.09240 0.76831
# Poissons Ratio (y) = 0.04061 0.26710
# Poissons Ratio (z) = 0.12892 0.10197
#
# Static dielectric constant tensor:
#      x y z
#    x 1.779880 0.000000 0.005540 
#    y 0.000000 1.821350 0.000000 
#    z 0.005540 0.000000 1.803660 
# 
# From -- ./inp_files/33050.got.cif
#   From: 2010.05.17/outbox.cif.g08.bks.cpg/sg14_17_cif.got.tgz:33050.got - 2010.06.03 17:49:19.
