data_PCOD9252369
_publ_section_title
;
Structure prediction by ZEFSAII (Michael W. Deem and Ramdas Pophale) SiO2 
 PCOD9252369
Probable space group: P 21/C
;
_chemical_formula_sum "Si O2"
_cell_formula_units_Z 16
_cell_length_a 10.143866
_cell_length_b 4.894211
_cell_length_c 23.425739
_cell_angle_alpha 90.000000
_cell_angle_beta 145.299105
_cell_angle_gamma 90.000000
_cell_volume 662.086683
_symmetry_space_group_name_H-M "P 21/C"
_symmetry_group_IT_number 14
_symmetry_cell_setting 'monoclinic'
loop_
_space_group_symop_operation_xyz
x,y,z
-x,1/2+y,1/2-z
-x,-y,-z
x,1/2-y,1/2+z
loop_
_atom_site_type_symbol
_atom_site_label
_atom_site_fract_x
_atom_site_fract_y
_atom_site_fract_z
Si Si1 0.438333 0.537456 0.763274
Si Si2 0.595900 0.554789 0.947834
Si Si3 0.993899 0.732794 0.844244
Si Si4 0.700112 0.555771 0.636631
O O1 0.439680 0.841275 0.739308
O O2 0.569450 0.520890 0.870441
O O3 0.184020 0.414635 0.683025
O O4 0.522460 0.861683 0.935895
O O5 0.395308 0.361437 0.903892
O O6 0.837227 0.449015 0.057463
O O7 0.141112 0.934220 0.855942
O O8 0.844656 0.551159 0.746791
#
# Coordination Sequence:
#
# PCOD9252369 Si02
#       4
#     4   4   4   4
#     4  11  25  43  62  93 132 172 224 264 303 379
#     4  11  25  43  69  98 128 169 215 264 325 390
#     4  11  24  44  70  94 134 173 205 269 331 371
#     4  11  24  42  67 104 130 158 215 267 325 395
#
# _framework density 24.166018999999999
#
# number of rings (size 3 to 8) (size 9 to 14) (size 15 to 20)
#    0.000    1.000    0.000    7.500    0.000   12.000 
#    0.000    0.000    0.000    0.000    0.000    0.000 
#    0.000    0.000    0.000    0.000    0.000    0.000 
#
# Total GULP energy -89839.441165 kJ/mol
# GULP energy per Si atom -5614.965073 kJ/mol
# Density = 2.411102 g / cm^3
# Si number density = 24.166019 Si / 1000 Ang^3
#
#
#
# Elastic Constant Matrix: (Units=GPa)
#
#
# Indices 1 2 3 4 5 6 
#
# 1 92.6625 5.9268 25.8062 0.0000 -9.8321 0.0000
# 2 5.9268 90.0387 14.9124 0.0000 -10.2927 0.0000
# 3 25.8062 14.9124 99.7986 0.0000 7.7295 0.0000
# 4 0.0000 0.0000 0.0000 34.9558 0.0000 -8.3887
# 5 -9.8321 -10.2927 7.7295 0.0000 21.4474 0.0000
# 6 0.0000 0.0000 0.0000 -8.3887 0.0000 22.0398
#
#
#
# Elastic Compliance Matrix: (Units=1/GPa)
#
#
# Indices 1 2 3 4 5 6 
#
# 1 0.012653 0.000687 -0.003960 0.000000 0.007557 0.000000
# 2 0.000687 0.012304 -0.002569 0.000000 0.007145 0.000000
# 3 -0.003960 -0.002569 0.011999 0.000000 -0.007373 0.000000
# 4 0.000000 0.000000 0.000000 0.031483 0.000000 0.011983
# 5 0.007557 0.007145 -0.007373 0.000000 0.056176 0.000000
# 6 0.000000 0.000000 0.000000 0.011983 0.000000 0.049933
#
#
# Mechanical properties :
#
#
# Convention : Reuss Voigt Hill
#
# Bulk Modulus (GPa) = 39.57185 41.75451 40.66318
# Shear Modulus (GPa) = 25.68633 31.41222 28.54928
#
# Velocity S-wave (km/s) = 3.26377 3.60926 3.44085
# Velocity P-wave (km/s) = 5.53294 5.88937 5.71394
#
# Compressibility (1/GPa) = 0.02527049
#
# Stress axis : x y z
#
# Youngs Moduli (GPa) = 79.03563 81.27761 83.33995
#
# Poissons Ratio (x) = -0.05582 0.33000
# Poissons Ratio (y) = -0.05428 0.21414
# Poissons Ratio (z) = 0.31295 0.20884
#
# Static dielectric constant tensor:
#      x y z
#    x 1.904470 0.000000 -0.008370 
#    y 0.000000 1.887460 0.000000 
#    z -0.008370 0.000000 1.921940 
# 
# From -- ./inp_files/27282.got.cif
#   From: 2010.05.17/outbox.cif.g08.bks.cpg/sg14_14_cif.got.tgz:27282.got - 2010.06.03 17:49:19.
