data_PCOD9252090
_publ_section_title
;
Structure prediction by ZEFSAII (Michael W. Deem and Ramdas Pophale) SiO2 
 PCOD9252090
Probable space group: P 21/C
;
_chemical_formula_sum "Si O2"
_cell_formula_units_Z 32
_cell_length_a 12.019203
_cell_length_b 19.707449
_cell_length_c 5.681219
_cell_angle_alpha 90.000000
_cell_angle_beta 96.298028
_cell_angle_gamma 90.000000
_cell_volume 1337.576369
_symmetry_space_group_name_H-M "P 21/C"
_symmetry_group_IT_number 14
_symmetry_cell_setting 'monoclinic'
loop_
_space_group_symop_operation_xyz
x,y,z
-x,1/2+y,1/2-z
-x,-y,-z
x,1/2-y,1/2+z
loop_
_atom_site_type_symbol
_atom_site_label
_atom_site_fract_x
_atom_site_fract_y
_atom_site_fract_z
Si Si1 0.760946 0.133148 0.194537
Si Si2 0.534986 0.115481 0.970466
Si Si3 0.209880 0.991138 0.508775
Si Si4 0.033184 0.787828 0.616368
Si Si5 0.359448 0.289522 0.228896
Si Si6 0.869342 0.628252 0.823033
Si Si7 0.947137 0.069104 0.894681
Si Si8 0.584471 0.522271 0.223813
O O1 0.644620 0.158750 0.061064
O O2 0.838469 0.186094 0.349477
O O3 0.725910 0.070026 0.350930
O O4 0.847306 0.100891 0.024936
O O5 0.455801 0.091382 0.165663
O O6 0.455673 0.153263 0.768913
O O7 0.581710 0.043215 0.891882
O O8 0.172527 0.051121 0.667452
O O9 0.106442 0.953877 0.364562
O O10 0.290178 0.026831 0.340493
O O11 0.016620 0.748525 0.363873
O O12 0.943909 0.848839 0.563983
O O13 0.370802 0.247198 0.477539
O O14 0.236851 0.323508 0.217668
O O15 0.956690 0.623933 0.629348
O O16 0.000000 0.000000 0.000000
O O17 0.500000 0.500000 0.000000
#
# Coordination Sequence:
#
# PCOD9252090 Si02
#       8
#     4   4   4   4   4   4   4   4
#     4  12  25  47  73 115 153 197 259 322 404 467
#     4  11  27  47  75 112 152 204 257 325 390 467
#     4  12  24  42  73 120 150 192 246 324 402 471
#     4  12  28  50  75 106 147 211 266 316 380 459
#     4  12  32  55  80 112 157 218 272 319 381 458
#     4  12  26  49  78 113 157 202 262 323 388 469
#     4  12  24  41  71 114 162 195 240 317 404 474
#     4  11  23  42  76 111 151 190 247 320 398 460
#
# _framework density 23.923866
#
# number of rings (size 3 to 8) (size 9 to 14) (size 15 to 20)
#    0.000    0.250    5.000    3.375    7.000    2.000 
#    0.000    0.000    0.000    0.000    0.000    0.000 
#    0.000    0.000    0.000    0.000    0.000    0.000 
#
# Total GULP energy -179026.018751 kJ/mol
# GULP energy per Si atom -5594.563086 kJ/mol
# Density = 2.386941 g / cm^3
# Si number density = 23.923866 Si / 1000 Ang^3
#
#
#
# Elastic Constant Matrix: (Units=GPa)
#
#
# Indices 1 2 3 4 5 6 
#
# 1 116.3679 6.2382 8.4223 0.0000 3.1625 0.0000
# 2 6.2382 37.5175 20.2398 0.0000 -1.8200 0.0000
# 3 8.4223 20.2398 83.7645 0.0000 3.3773 0.0000
# 4 0.0000 0.0000 0.0000 45.5673 0.0000 12.5814
# 5 3.1625 -1.8200 3.3773 0.0000 48.6470 0.0000
# 6 0.0000 0.0000 0.0000 12.5814 0.0000 34.5155
#
#
#
# Elastic Compliance Matrix: (Units=1/GPa)
#
#
# Indices 1 2 3 4 5 6 
#
# 1 0.008713 -0.001169 -0.000571 0.000000 -0.000571 0.000000
# 2 -0.001169 0.030941 -0.007429 0.000000 0.001749 0.000000
# 3 -0.000571 -0.007429 0.013839 0.000000 -0.001202 0.000000
# 4 0.000000 0.000000 0.000000 0.024401 0.000000 -0.008895
# 5 -0.000571 0.001749 -0.001202 0.000000 0.020742 0.000000
# 6 0.000000 0.000000 0.000000 -0.008895 0.000000 0.032215
#
#
# Mechanical properties :
#
#
# Convention : Reuss Voigt Hill
#
# Bulk Modulus (GPa) = 28.44439 34.16116 31.30278
# Shear Modulus (GPa) = 31.07371 39.26260 35.16816
#
# Velocity S-wave (km/s) = 3.60788 4.05550 3.83822
# Velocity P-wave (km/s) = 5.41027 6.01993 5.72323
#
# Compressibility (1/GPa) = 0.03515632
#
# Stress axis : x y z
#
# Youngs Moduli (GPa) = 114.77251 32.31919 72.25851
#
# Poissons Ratio (x) = 0.03777 0.04124
# Poissons Ratio (y) = 0.13411 0.53683
# Poissons Ratio (z) = 0.06550 0.24011
#
# Static dielectric constant tensor:
#      x y z
#    x 1.907500 0.000000 0.006610 
#    y 0.000000 1.947440 0.000000 
#    z 0.006610 0.000000 2.009260 
# 
# From -- ./inp_files/2963.got.cif
#   From: 2010.05.17/outbox.cif.g08.bks.cpg/sg14_2_cif.got.tgz:2963.got - 2010.06.03 17:49:19.
