data_PCOD9252504
_publ_section_title
;
Structure prediction by ZEFSAII (Michael W. Deem and Ramdas Pophale) SiO2 
 PCOD9252504
Probable space group: P 21/C
;
_chemical_formula_sum "Si O2"
_cell_formula_units_Z 24
_cell_length_a 11.131028
_cell_length_b 11.362111
_cell_length_c 8.964444
_cell_angle_alpha 90.000000
_cell_angle_beta 66.723517
_cell_angle_gamma 90.000000
_cell_volume 1041.473430
_symmetry_space_group_name_H-M "P 21/C"
_symmetry_group_IT_number 14
_symmetry_cell_setting 'monoclinic'
loop_
_space_group_symop_operation_xyz
x,y,z
-x,1/2+y,1/2-z
-x,-y,-z
x,1/2-y,1/2+z
loop_
_atom_site_type_symbol
_atom_site_label
_atom_site_fract_x
_atom_site_fract_y
_atom_site_fract_z
Si Si1 0.895598 0.212735 0.630977
Si Si2 0.290903 0.969455 0.402495
Si Si3 0.932364 0.652938 0.682603
Si Si4 0.312582 0.196978 0.209340
Si Si5 0.562461 0.602280 0.649392
Si Si6 0.738374 0.443418 0.748968
O O1 0.835123 0.112274 0.556528
O O2 0.783527 0.309124 0.718985
O O3 0.955139 0.153124 0.748618
O O4 0.006941 0.285701 0.491663
O O5 0.410274 0.918469 0.248135
O O6 0.326515 0.969443 0.558923
O O7 0.266891 0.097644 0.347580
O O8 0.813663 0.736568 0.793367
O O9 0.866553 0.527563 0.682012
O O10 0.393066 0.293885 0.261115
O O11 0.395220 0.139389 0.036131
O O12 0.642196 0.487017 0.666057
#
# Coordination Sequence:
#
# PCOD9252504 Si02
#       6
#     4   4   4   4   4   4
#     4  12  26  41  70 103 136 178 231 285 342 408
#     4  12  27  43  72 103 139 181 230 287 338 410
#     4  11  24  45  68  97 138 177 228 284 339 418
#     4  11  25  46  71 102 134 188 227 278 351 397
#     4  11  26  45  74  98 141 178 233 284 340 417
#     4  11  25  46  68 100 137 184 224 285 351 397
#
# _framework density 23.044274999999999
#
# number of rings (size 3 to 8) (size 9 to 14) (size 15 to 20)
#    0.000    0.667    1.667    6.500    9.333    1.333 
#    0.000    0.000    0.000    0.000    0.000    0.000 
#    0.000    0.000    0.000    0.000    0.000    0.000 
#
# Total GULP energy -134481.768879 kJ/mol
# GULP energy per Si atom -5603.407037 kJ/mol
# Density = 2.299182 g / cm^3
# Si number density = 23.044275 Si / 1000 Ang^3
#
#
#
# Elastic Constant Matrix: (Units=GPa)
#
#
# Indices 1 2 3 4 5 6 
#
# 1 33.7405 29.1061 -5.9856 0.0000 -0.2623 0.0000
# 2 29.1061 62.6900 -15.6831 0.0000 -3.9830 0.0000
# 3 -5.9856 -15.6831 74.9139 0.0000 -0.3134 0.0000
# 4 0.0000 0.0000 0.0000 12.5510 0.0000 2.6601
# 5 -0.2623 -3.9830 -0.3134 0.0000 29.3737 0.0000
# 6 0.0000 0.0000 0.0000 2.6601 0.0000 20.9712
#
#
#
# Elastic Compliance Matrix: (Units=1/GPa)
#
#
# Indices 1 2 3 4 5 6 
#
# 1 0.049716 -0.023497 -0.000958 0.000000 -0.002752 0.000000
# 2 -0.023497 0.028098 0.004020 0.000000 0.003643 0.000000
# 3 -0.000958 0.004020 0.014117 0.000000 0.000687 0.000000
# 4 0.000000 0.000000 0.000000 0.081876 0.000000 -0.010386
# 5 -0.002752 0.003643 0.000687 0.000000 0.034521 0.000000
# 6 0.000000 0.000000 0.000000 -0.010386 0.000000 0.049002
#
#
# Mechanical properties :
#
#
# Convention : Reuss Voigt Hill
#
# Bulk Modulus (GPa) = 19.58472 20.69102 20.13787
# Shear Modulus (GPa) = 15.86191 23.50632 19.68412
#
# Velocity S-wave (km/s) = 2.62644 3.19729 2.92582
# Velocity P-wave (km/s) = 4.20889 4.75694 4.49128
#
# Compressibility (1/GPa) = 0.05106022
#
# Stress axis : x y z
#
# Youngs Moduli (GPa) = 20.11409 35.58952 70.83869
#
# Poissons Ratio (x) = 0.83626 0.06789
# Poissons Ratio (y) = 0.47263 -0.28478
# Poissons Ratio (z) = 0.01928 -0.14307
#
# Static dielectric constant tensor:
#      x y z
#    x 1.828010 0.000000 -0.006390 
#    y 0.000000 1.841080 0.000000 
#    z -0.006390 0.000000 1.845830 
# 
# From -- ./inp_files/12342.got.cif
#   From: 2010.05.17/outbox.cif.g08.bks.cpg/sg14_7_cif.got.tgz:12342.got - 2010.06.03 17:49:19.
