data_PCOD9252932
_publ_section_title
;
Structure prediction by ZEFSAII (Michael W. Deem and Ramdas Pophale) SiO2 
 PCOD9252932
Probable space group: P 21/C
;
_chemical_formula_sum "Si O2"
_cell_formula_units_Z 28
_cell_length_a 20.585857
_cell_length_b 9.207695
_cell_length_c 9.224784
_cell_angle_alpha 90.000000
_cell_angle_beta 132.639524
_cell_angle_gamma 90.000000
_cell_volume 1286.279970
_symmetry_space_group_name_H-M "P 21/C"
_symmetry_group_IT_number 14
_symmetry_cell_setting 'monoclinic'
loop_
_space_group_symop_operation_xyz
x,y,z
-x,1/2+y,1/2-z
-x,-y,-z
x,1/2-y,1/2+z
loop_
_atom_site_type_symbol
_atom_site_label
_atom_site_fract_x
_atom_site_fract_y
_atom_site_fract_z
Si Si1 0.073593 0.464453 0.493398
Si Si2 0.902126 0.435747 0.884738
Si Si3 0.271941 0.407694 0.476259
Si Si4 0.272135 0.102006 0.324813
Si Si5 0.064806 0.761374 0.303662
Si Si6 0.585576 0.105927 0.963144
Si Si7 0.587147 0.095681 0.303150
O O1 0.169960 0.435057 0.698341
O O2 0.073530 0.604803 0.391293
O O3 0.000000 0.500000 0.500000
O O4 0.035846 0.317659 0.361451
O O5 0.827294 0.542524 0.714655
O O6 0.896471 0.280258 0.793459
O O7 0.891618 0.389235 0.036414
O O8 0.000000 0.500000 0.000000
O O9 0.292120 0.256719 0.427351
O O10 0.282538 0.395266 0.665752
O O11 0.336630 0.527753 0.507336
O O12 0.334519 0.984522 0.493904
O O13 0.566425 0.257384 0.856787
O O14 0.498705 0.006509 0.825120
O O15 0.610104 0.124664 0.169454
#
# Coordination Sequence:
#
# PCOD9252932 Si02
#       7
#     4   4   4   4   4   4   4
#     4  12  27  42  70  99 138 191 238 300 358 421
#     4  12  25  43  65  97 137 181 236 293 353 417
#     4  12  27  45  72 103 142 189 241 295 366 423
#     4  12  27  47  70 106 145 186 246 300 359 434
#     4  12  24  43  65  92 134 179 236 286 349 418
#     4  11  26  48  80 109 147 192 230 298 354 438
#     4  11  26  50  76 112 149 185 241 287 366 422
#
# _framework density 21.7682
#
# number of rings (size 3 to 8) (size 9 to 14) (size 15 to 20)
#    0.000    0.286    4.286    3.429    4.000    6.857 
#    0.000    0.000    0.000    0.000    0.000    0.000 
#    0.000    0.000    0.000    0.000    0.000    0.000 
#
# Total GULP energy -156682.139947 kJ/mol
# GULP energy per Si atom -5595.790712 kJ/mol
# Density = 2.171865 g / cm^3
# Si number density = 21.768200 Si / 1000 Ang^3
#
#
#
# Elastic Constant Matrix: (Units=GPa)
#
#
# Indices 1 2 3 4 5 6 
#
# 1 75.4198 23.4337 50.4561 0.0000 -21.4521 0.0000
# 2 23.4337 122.0047 45.4455 0.0000 -13.6494 0.0000
# 3 50.4561 45.4455 130.3068 0.0000 -23.4081 0.0000
# 4 0.0000 0.0000 0.0000 41.8141 0.0000 -1.0167
# 5 -21.4521 -13.6494 -23.4081 0.0000 36.9812 0.0000
# 6 0.0000 0.0000 0.0000 -1.0167 0.0000 35.6599
#
#
#
# Elastic Compliance Matrix: (Units=1/GPa)
#
#
# Indices 1 2 3 4 5 6 
#
# 1 0.019583 -0.000700 -0.006030 0.000000 0.007284 0.000000
# 2 -0.000700 0.009527 -0.002813 0.000000 0.001330 0.000000
# 3 -0.006030 -0.002813 0.011481 0.000000 0.002731 0.000000
# 4 0.000000 0.000000 0.000000 0.023932 0.000000 0.000682
# 5 0.007284 0.001330 0.002731 0.000000 0.033486 0.000000
# 6 0.000000 0.000000 0.000000 0.000682 0.000000 0.028062
#
#
# Mechanical properties :
#
#
# Convention : Reuss Voigt Hill
#
# Bulk Modulus (GPa) = 46.50091 62.93352 54.71722
# Shear Modulus (GPa) = 32.82471 36.78410 34.80441
#
# Velocity S-wave (km/s) = 3.88741 4.11519 4.00292
# Velocity P-wave (km/s) = 6.44651 7.18006 6.82315
#
# Compressibility (1/GPa) = 0.02150496
#
# Stress axis : x y z
#
# Youngs Moduli (GPa) = 51.06578 104.96047 87.10400
#
# Poissons Ratio (x) = 0.07350 0.52522
# Poissons Ratio (y) = 0.03576 0.24500
# Poissons Ratio (z) = 0.30792 0.29522
#
# Static dielectric constant tensor:
#      x y z
#    x 1.815680 0.000000 -0.064110 
#    y 0.000000 1.794080 0.000000 
#    z -0.064110 0.000000 1.842830 
# 
# From -- ./inp_files/18770.got.cif
#   From: 2010.05.17/outbox.cif.g08.bks.cpg/sg14_10_cif.got.tgz:18770.got - 2010.06.03 17:49:19.
