data_PCOD9252452
_publ_section_title
;
Structure prediction by ZEFSAII (Michael W. Deem and Ramdas Pophale) SiO2 
 PCOD9252452
Probable space group: P 21/C
;
_chemical_formula_sum "Si O2"
_cell_formula_units_Z 20
_cell_length_a 8.252927
_cell_length_b 16.885909
_cell_length_c 12.117870
_cell_angle_alpha 90.000000
_cell_angle_beta 147.836987
_cell_angle_gamma 90.000000
_cell_volume 898.958421
_symmetry_space_group_name_H-M "P 21/C"
_symmetry_group_IT_number 14
_symmetry_cell_setting 'monoclinic'
loop_
_space_group_symop_operation_xyz
x,y,z
-x,1/2+y,1/2-z
-x,-y,-z
x,1/2-y,1/2+z
loop_
_atom_site_type_symbol
_atom_site_label
_atom_site_fract_x
_atom_site_fract_y
_atom_site_fract_z
Si Si1 0.341183 0.533438 0.190974
Si Si2 0.742809 0.874874 0.056678
Si Si3 0.087846 0.686123 0.968198
Si Si4 0.571298 0.711748 0.841995
Si Si5 0.635657 0.059485 0.670611
O O1 0.462586 0.564097 0.379126
O O2 0.558217 0.475621 0.247077
O O3 0.319594 0.612866 0.105330
O O4 0.000000 0.500000 0.000000
O O5 0.868780 0.838431 0.242137
O O6 0.016168 0.923030 0.156936
O O7 0.650153 0.795581 0.940038
O O8 0.865793 0.684476 0.945041
O O9 0.285064 0.766865 0.095282
O O10 0.501251 0.648080 0.896455
O O11 0.500000 0.000000 0.500000
#
# Coordination Sequence:
#
# PCOD9252452 Si02
#       5
#     4   4   4   4   4
#     4  11  24  45  68 102 142 177 237 296 351 423
#     4  11  26  45  71 103 141 191 237 290 363 431
#     4  11  24  44  68 103 137 189 240 290 357 431
#     4  11  25  45  70 101 145 184 242 297 355 431
#     4  12  24  47  72 105 146 192 237 304 366 422
#
# _framework density 22.247971
#
# number of rings (size 3 to 8) (size 9 to 14) (size 15 to 20)
#    0.000    0.800    6.000    0.600    2.800    0.800 
#    3.600    0.000    0.000    0.000    0.000    0.000 
#    0.000    0.000    0.000    0.000    0.000    0.000 
#
# Total GULP energy -111458.001421 kJ/mol
# GULP energy per Si atom -5572.900071 kJ/mol
# Density = 2.219733 g / cm^3
# Si number density = 22.247971 Si / 1000 Ang^3
#
#
#
# Elastic Constant Matrix: (Units=GPa)
#
#
# Indices 1 2 3 4 5 6 
#
# 1 30.1636 23.3779 0.7823 0.0000 12.4837 0.0000
# 2 23.3779 123.6634 59.8471 0.0000 -0.7066 0.0000
# 3 0.7823 59.8471 91.1683 0.0000 -6.6669 0.0000
# 4 0.0000 0.0000 0.0000 36.6002 0.0000 14.5295
# 5 12.4837 -0.7066 -6.6669 0.0000 34.7859 0.0000
# 6 0.0000 0.0000 0.0000 14.5295 0.0000 26.6543
#
#
#
# Elastic Compliance Matrix: (Units=1/GPa)
#
#
# Indices 1 2 3 4 5 6 
#
# 1 0.049861 -0.012778 0.006727 0.000000 -0.016864 0.000000
# 2 -0.012778 0.015181 -0.009633 0.000000 0.003048 0.000000
# 3 0.006727 -0.009633 0.017286 0.000000 0.000703 0.000000
# 4 0.000000 0.000000 0.000000 0.034868 0.000000 -0.019007
# 5 -0.016864 0.003048 0.000703 0.000000 0.034996 0.000000
# 6 0.000000 0.000000 0.000000 -0.019007 0.000000 0.047878
#
#
# Mechanical properties :
#
#
# Convention : Reuss Voigt Hill
#
# Bulk Modulus (GPa) = 19.62325 45.88996 32.75661
# Shear Modulus (GPa) = 20.12679 30.34060 25.23369
#
# Velocity S-wave (km/s) = 3.01101 3.69690 3.37145
# Velocity P-wave (km/s) = 4.57468 6.23652 5.46909
#
# Compressibility (1/GPa) = 0.05095996
#
# Stress axis : x y z
#
# Youngs Moduli (GPa) = 20.05587 65.86968 57.84967
#
# Poissons Ratio (x) = 0.84166 -0.38914
# Poissons Ratio (y) = 0.25627 0.55728
# Poissons Ratio (z) = -0.13491 0.63454
#
# Static dielectric constant tensor:
#      x y z
#    x 1.805590 0.000000 -0.044980 
#    y 0.000000 1.737990 0.000000 
#    z -0.044980 0.000000 1.964110 
# 
# From -- ./inp_files/9558.got.cif
#   From: 2010.05.17/outbox.cif.g08.bks.cpg/sg14_5_cif.got.tgz:9558.got - 2010.06.03 17:49:19.
