data_PCOD9252103
_publ_section_title
;
Structure prediction by ZEFSAII (Michael W. Deem and Ramdas Pophale) SiO2 
 PCOD9252103
Probable space group: P 21/C
;
_chemical_formula_sum "Si O2"
_cell_formula_units_Z 30
_cell_length_a 15.634826
_cell_length_b 5.189642
_cell_length_c 27.791126
_cell_angle_alpha 90.000000
_cell_angle_beta 145.594952
_cell_angle_gamma 90.000000
_cell_volume 1274.135323
_symmetry_space_group_name_H-M "P 21/C"
_symmetry_group_IT_number 14
_symmetry_cell_setting 'monoclinic'
loop_
_space_group_symop_operation_xyz
x,y,z
-x,1/2+y,1/2-z
-x,-y,-z
x,1/2-y,1/2+z
loop_
_atom_site_type_symbol
_atom_site_label
_atom_site_fract_x
_atom_site_fract_y
_atom_site_fract_z
Si Si1 0.824701 0.302333 0.564152
Si Si2 0.997397 0.807394 0.606138
Si Si3 0.381893 0.216099 0.248088
Si Si4 0.434527 0.416052 0.604221
Si Si5 0.099099 0.631656 0.797073
Si Si6 0.695294 0.559341 0.880659
Si Si7 0.716904 0.356480 0.211870
Si Si8 0.000000 0.500000 0.000000
O O1 0.929162 0.543684 0.596564
O O2 0.660194 0.364534 0.465945
O O3 0.819098 0.254156 0.618600
O O4 0.901355 0.047961 0.579683
O O5 0.164146 0.833738 0.707089
O O6 0.009197 0.824169 0.553953
O O7 0.529036 0.059392 0.298077
O O8 0.308224 0.072353 0.258903
O O9 0.458221 0.471183 0.304524
O O10 0.272089 0.272464 0.152500
O O11 0.320212 0.230405 0.579227
O O12 0.551894 0.264100 0.625699
O O13 0.207853 0.564018 0.803137
O O14 0.013005 0.366198 0.770217
O O15 0.838007 0.373739 0.945588
#
# Coordination Sequence:
#
# PCOD9252103 Si02
#       8
#     4   4   4   4   4   4   4   2
#     4  12  26  50  74 107 151 196 238 318 379 431
#     4  12  27  46  73 109 152 192 252 302 370 443
#     4  11  24  44  69  97 148 196 251 294 377 440
#     4  11  25  45  70 103 155 191 245 310 369 444
#     4  12  25  49  80 108 144 191 249 315 382 445
#     4  11  23  43  66 102 148 201 243 302 360 450
#     4  11  27  45  74 108 137 195 253 311 364 459
#     4  12  26  40  70 112 144 196 252 298 366 434
#
# _framework density 23.545380000000002
#
# number of rings (size 3 to 8) (size 9 to 14) (size 15 to 20)
#    0.000    0.533    5.333    1.600    9.333    2.133 
#    0.000    0.667    0.000    0.000    0.000    0.000 
#    0.000    0.000    0.000    0.000    0.000    0.000 
#
# Total GULP energy -167316.097053 kJ/mol
# GULP energy per Si atom -5577.203235 kJ/mol
# Density = 2.349179 g / cm^3
# Si number density = 23.545380 Si / 1000 Ang^3
#
#
#
# Elastic Constant Matrix: (Units=GPa)
#
#
# Indices 1 2 3 4 5 6 
#
# 1 178.1994 35.2843 25.8348 0.0000 -1.9095 0.0000
# 2 35.2843 91.8445 -0.2905 0.0000 10.1212 0.0000
# 3 25.8348 -0.2905 49.3097 0.0000 -6.0810 0.0000
# 4 0.0000 0.0000 0.0000 21.6197 0.0000 -7.4036
# 5 -1.9095 10.1212 -6.0810 0.0000 33.0239 0.0000
# 6 0.0000 0.0000 0.0000 -7.4036 0.0000 30.3781
#
#
#
# Elastic Compliance Matrix: (Units=1/GPa)
#
#
# Indices 1 2 3 4 5 6 
#
# 1 0.006633 -0.002620 -0.003422 0.000000 0.000556 0.000000
# 2 -0.002620 0.012310 0.000984 0.000000 -0.003743 0.000000
# 3 -0.003422 0.000984 0.022529 0.000000 0.003649 0.000000
# 4 0.000000 0.000000 0.000000 0.050466 0.000000 0.012299
# 5 0.000556 -0.003743 0.003649 0.000000 0.032132 0.000000
# 6 0.000000 0.000000 0.000000 0.012299 0.000000 0.035916
#
#
# Mechanical properties :
#
#
# Convention : Reuss Voigt Hill
#
# Bulk Modulus (GPa) = 31.89309 49.00116 40.44713
# Shear Modulus (GPa) = 27.69255 34.23933 30.96594
#
# Velocity S-wave (km/s) = 3.43320 3.81751 3.63045
# Velocity P-wave (km/s) = 5.41208 6.34726 5.89824
#
# Compressibility (1/GPa) = 0.03135475
#
# Stress axis : x y z
#
# Youngs Moduli (GPa) = 150.77162 81.23346 44.38808
#
# Poissons Ratio (x) = 0.21285 0.15189
# Poissons Ratio (y) = 0.39505 -0.04367
# Poissons Ratio (z) = 0.51591 -0.07991
#
# Static dielectric constant tensor:
#      x y z
#    x 1.956730 0.000000 0.053910 
#    y 0.000000 3.042660 0.000000 
#    z 0.053910 0.000000 2.023270 
# 
# From -- ./inp_files/77434.got.cif
#   From: 2010.05.17/outbox.cif.g08.bks.cpg/sg14_39_cif.got.tgz:77434.got - 2010.06.03 17:49:19.
