data_PCOD9252151
_publ_section_title
;
Structure prediction by ZEFSAII (Michael W. Deem and Ramdas Pophale) SiO2 
 PCOD9252151
Probable space group: P 21/C
;
_chemical_formula_sum "Si O2"
_cell_formula_units_Z 28
_cell_length_a 8.284420
_cell_length_b 22.081103
_cell_length_c 9.499559
_cell_angle_alpha 90.000000
_cell_angle_beta 130.983664
_cell_angle_gamma 90.000000
_cell_volume 1311.818610
_symmetry_space_group_name_H-M "P 21/C"
_symmetry_group_IT_number 14
_symmetry_cell_setting 'monoclinic'
loop_
_space_group_symop_operation_xyz
x,y,z
-x,1/2+y,1/2-z
-x,-y,-z
x,1/2-y,1/2+z
loop_
_atom_site_type_symbol
_atom_site_label
_atom_site_fract_x
_atom_site_fract_y
_atom_site_fract_z
Si Si1 0.349562 0.871033 0.041533
Si Si2 0.681516 0.470801 0.005234
Si Si3 0.427942 0.435170 0.593050
Si Si4 0.589754 0.746598 0.609934
Si Si5 0.942026 0.026443 0.123795
Si Si6 0.688993 0.352098 0.182170
Si Si7 0.826399 0.816908 0.990702
O O1 0.404524 0.800331 0.053963
O O2 0.415580 0.883602 0.240315
O O3 0.474094 0.903046 0.986627
O O4 0.116068 0.902538 0.905446
O O5 0.730186 0.403629 0.091404
O O6 0.885404 0.510762 0.160148
O O7 0.500000 0.500000 0.000000
O O8 0.598867 0.462016 0.800328
O O9 0.269108 0.488501 0.461052
O O10 0.287026 0.382654 0.588598
O O11 0.468103 0.801416 0.465090
O O12 0.742592 0.711583 0.588969
O O13 0.732531 0.773497 0.816733
O O14 0.000000 0.000000 0.000000
O O15 0.918094 0.324282 0.358063
#
# Coordination Sequence:
#
# PCOD9252151 Si02
#       7
#     4   4   4   4   4   4   4
#     4  11  25  44  69  98 140 180 225 292 341 407
#     4  12  24  41  73 102 134 183 225 279 346 411
#     4  11  23  44  67 102 138 175 228 288 340 405
#     4  11  25  45  66 101 137 178 231 289 344 413
#     4  12  22  43  71 101 139 182 228 279 352 413
#     4  12  24  45  69  98 136 181 230 280 351 414
#     4  11  24  43  70  95 134 181 228 282 346 414
#
# _framework density 21.344415000000001
#
# number of rings (size 3 to 8) (size 9 to 14) (size 15 to 20)
#    0.000    0.571    7.143    0.429    2.000    0.571 
#    0.000    1.429    0.000    0.000    0.000    0.000 
#    0.000    0.000    0.000    0.000    0.000    0.000 
#
# Total GULP energy -156435.947330 kJ/mol
# GULP energy per Si atom -5586.998119 kJ/mol
# Density = 2.129583 g / cm^3
# Si number density = 21.344415 Si / 1000 Ang^3
#
#
#
# Elastic Constant Matrix: (Units=GPa)
#
#
# Indices 1 2 3 4 5 6 
#
# 1 69.9259 15.8771 41.1031 0.0000 -5.3962 0.0000
# 2 15.8771 85.9887 36.6441 0.0000 9.0712 0.0000
# 3 41.1031 36.6441 125.3265 0.0000 11.0067 0.0000
# 4 0.0000 0.0000 0.0000 35.8826 0.0000 -1.8675
# 5 -5.3962 9.0712 11.0067 0.0000 22.3177 0.0000
# 6 0.0000 0.0000 0.0000 -1.8675 0.0000 34.0591
#
#
#
# Elastic Compliance Matrix: (Units=1/GPa)
#
#
# Indices 1 2 3 4 5 6 
#
# 1 0.019193 -0.001649 -0.006563 0.000000 0.008548 0.000000
# 2 -0.001649 0.013716 -0.003078 0.000000 -0.004455 0.000000
# 3 -0.006563 -0.003078 0.011562 0.000000 -0.006038 0.000000
# 4 0.000000 0.000000 0.000000 0.027948 0.000000 0.001532
# 5 0.008548 -0.004455 -0.006038 0.000000 0.051663 0.000000
# 6 0.000000 0.000000 0.000000 0.001532 0.000000 0.029445
#
#
# Mechanical properties :
#
#
# Convention : Reuss Voigt Hill
#
# Bulk Modulus (GPa) = 45.68275 52.05441 48.86858
# Shear Modulus (GPa) = 27.26228 30.95967 29.11098
#
# Velocity S-wave (km/s) = 3.57775 3.81265 3.69707
# Velocity P-wave (km/s) = 6.20614 6.61986 6.41633
#
# Compressibility (1/GPa) = 0.02189010
#
# Stress axis : x y z
#
# Youngs Moduli (GPa) = 52.10302 72.90937 86.48975
#
# Poissons Ratio (x) = 0.12019 0.56766
# Poissons Ratio (y) = 0.08589 0.26625
# Poissons Ratio (z) = 0.34197 0.22444
#
# Static dielectric constant tensor:
#      x y z
#    x 1.833240 0.000000 -0.005570 
#    y 0.000000 1.743500 0.000000 
#    z -0.005570 0.000000 1.735580 
# 
# From -- ./inp_files/10441.got.cif
#   From: 2010.05.17/outbox.cif.g08.bks.cpg/sg14_6_cif.got.tgz:10441.got - 2010.06.03 17:49:19.
