data_PCOD9252169
_publ_section_title
;
Structure prediction by ZEFSAII (Michael W. Deem and Ramdas Pophale) SiO2 
 PCOD9252169
Probable space group: P 21/C
;
_chemical_formula_sum "Si O2"
_cell_formula_units_Z 28
_cell_length_a 8.774913
_cell_length_b 11.511789
_cell_length_c 16.084090
_cell_angle_alpha 90.000000
_cell_angle_beta 50.474780
_cell_angle_gamma 90.000000
_cell_volume 1253.229288
_symmetry_space_group_name_H-M "P 21/C"
_symmetry_group_IT_number 14
_symmetry_cell_setting 'monoclinic'
loop_
_space_group_symop_operation_xyz
x,y,z
-x,1/2+y,1/2-z
-x,-y,-z
x,1/2-y,1/2+z
loop_
_atom_site_type_symbol
_atom_site_label
_atom_site_fract_x
_atom_site_fract_y
_atom_site_fract_z
Si Si1 0.102109 0.538158 0.049843
Si Si2 0.276844 0.090123 0.884236
Si Si3 0.635344 0.248987 0.548387
Si Si4 0.989786 0.338853 0.196137
Si Si5 0.786246 0.718011 0.231607
Si Si6 0.396749 0.903674 0.094009
Si Si7 0.882717 0.140708 0.104302
O O1 0.128283 0.421184 0.093191
O O2 0.934877 0.617479 0.151952
O O3 0.301258 0.613962 0.969962
O O4 0.000000 0.500000 0.000000
O O5 0.240172 0.196475 0.836630
O O6 0.475642 0.103685 0.866867
O O7 0.255016 0.972357 0.838031
O O8 0.103615 0.092630 0.013850
O O9 0.438665 0.298715 0.660204
O O10 0.619618 0.290396 0.458960
O O11 0.810443 0.307287 0.541222
O O12 0.825947 0.419329 0.297570
O O13 0.888849 0.240946 0.171648
O O14 0.110715 0.277422 0.225735
O O15 0.500000 0.000000 0.000000
#
# Coordination Sequence:
#
# PCOD9252169 Si02
#       7
#     4   4   4   4   4   4   4
#     4  12  26  48  75 105 150 193 243 304 368 439
#     4  11  24  42  73 105 143 187 241 296 362 433
#     4  12  24  47  70 109 148 184 245 295 369 440
#     4  12  26  46  72 104 145 193 244 302 363 435
#     4  12  27  45  74 110 144 192 241 303 372 436
#     4  12  24  44  71 104 141 191 242 299 361 434
#     4  11  23  44  70 105 141 187 239 302 353 436
#
# _framework density 22.342279000000001
#
# number of rings (size 3 to 8) (size 9 to 14) (size 15 to 20)
#    0.000    0.286    5.714    2.571    4.000    0.571 
#    0.000    1.429    0.000    0.000    0.000    0.000 
#    0.000    0.000    0.000    0.000    0.000    0.000 
#
# Total GULP energy -156472.508324 kJ/mol
# GULP energy per Si atom -5588.303869 kJ/mol
# Density = 2.229143 g / cm^3
# Si number density = 22.342279 Si / 1000 Ang^3
#
#
#
# Elastic Constant Matrix: (Units=GPa)
#
#
# Indices 1 2 3 4 5 6 
#
# 1 83.0564 18.3618 -1.6368 0.0000 7.9725 0.0000
# 2 18.3618 66.5582 2.6611 0.0000 23.8457 0.0000
# 3 -1.6368 2.6611 38.3799 0.0000 3.3206 0.0000
# 4 0.0000 0.0000 0.0000 50.8555 0.0000 13.0008
# 5 7.9725 23.8457 3.3206 0.0000 39.4489 0.0000
# 6 0.0000 0.0000 0.0000 13.0008 0.0000 32.2049
#
#
#
# Elastic Compliance Matrix: (Units=1/GPa)
#
#
# Indices 1 2 3 4 5 6 
#
# 1 0.012859 -0.003350 0.000836 0.000000 -0.000644 0.000000
# 2 -0.003350 0.020055 -0.000547 0.000000 -0.011399 0.000000
# 3 0.000836 -0.000547 0.026307 0.000000 -0.002053 0.000000
# 4 0.000000 0.000000 0.000000 0.021926 0.000000 -0.008851
# 5 -0.000644 -0.011399 -0.002053 0.000000 0.032543 0.000000
# 6 0.000000 0.000000 0.000000 -0.008851 0.000000 0.034624
#
#
# Mechanical properties :
#
#
# Convention : Reuss Voigt Hill
#
# Bulk Modulus (GPa) = 18.83298 25.19629 22.01464
# Shear Modulus (GPa) = 29.04703 35.74242 32.39472
#
# Velocity S-wave (km/s) = 3.60959 4.00405 3.81192
# Velocity P-wave (km/s) = 5.08132 5.71650 5.40824
#
# Compressibility (1/GPa) = 0.05309834
#
# Stress axis : x y z
#
# Youngs Moduli (GPa) = 77.76679 49.86398 38.01341
#
# Poissons Ratio (x) = 0.16705 -0.03180
# Poissons Ratio (y) = 0.26053 0.02080
# Poissons Ratio (z) = -0.06505 0.02728
#
# Static dielectric constant tensor:
#      x y z
#    x 1.770680 0.000000 -0.039850 
#    y 0.000000 1.857470 0.000000 
#    z -0.039850 0.000000 1.840480 
# 
# From -- ./inp_files/40240.got.cif
#   From: 2010.05.17/outbox.cif.g08.bks.cpg/sg14_21_cif.got.tgz:40240.got - 2010.06.03 17:49:19.
