data_PCOD9252043
_publ_section_title
;
Structure prediction by ZEFSAII (Michael W. Deem and Ramdas Pophale) SiO2 
 PCOD9252043
Probable space group: P 21/C
;
_chemical_formula_sum "Si O2"
_cell_formula_units_Z 32
_cell_length_a 11.772452
_cell_length_b 13.336782
_cell_length_c 10.170324
_cell_angle_alpha 90.000000
_cell_angle_beta 109.452358
_cell_angle_gamma 90.000000
_cell_volume 1505.660411
_symmetry_space_group_name_H-M "P 21/C"
_symmetry_group_IT_number 14
_symmetry_cell_setting 'monoclinic'
loop_
_space_group_symop_operation_xyz
x,y,z
-x,1/2+y,1/2-z
-x,-y,-z
x,1/2-y,1/2+z
loop_
_atom_site_type_symbol
_atom_site_label
_atom_site_fract_x
_atom_site_fract_y
_atom_site_fract_z
Si Si1 0.359922 0.695111 0.826545
Si Si2 0.275583 0.968742 0.496318
Si Si3 0.417640 0.170969 0.153377
Si Si4 0.511129 0.531647 0.768871
Si Si5 0.298730 0.049198 0.879982
Si Si6 0.898022 0.860133 0.645321
Si Si7 0.817120 0.128485 0.269067
Si Si8 0.801069 0.715698 0.829627
O O1 0.472944 0.772051 0.876631
O O2 0.406806 0.612616 0.740389
O O3 0.244412 0.762760 0.750918
O O4 0.326899 0.625268 0.936572
O O5 0.220313 0.925932 0.609731
O O6 0.386468 0.041677 0.579619
O O7 0.176086 0.035415 0.384454
O O8 0.336256 0.248496 0.201272
O O9 0.467325 0.082605 0.264109
O O10 0.330754 0.112134 0.019864
O O11 0.578904 0.538983 0.656734
O O12 0.205861 0.114057 0.756983
O O13 0.243891 0.938634 0.869228
O O14 0.864441 0.797336 0.761982
O O15 0.857372 0.804530 0.494230
O O16 0.040797 0.872007 0.692736
#
# Coordination Sequence:
#
# PCOD9252043 Si02
#       8
#     4   4   4   4   4   4   4   4
#     4  12  25  39  70 106 134 180 236 286 353 428
#     4  11  24  45  68 101 139 188 231 288 360 416
#     4  12  24  42  68 103 147 169 225 296 348 428
#     4  11  23  42  64 101 141 177 218 288 357 417
#     4  11  23  42  65  99 135 182 221 274 364 412
#     4  12  26  50  73  98 142 188 245 289 336 422
#     4  11  27  45  68  99 134 191 236 289 353 409
#     4  12  25  45  75 103 129 191 235 281 352 416
#
# _framework density 21.253132999999998
#
# number of rings (size 3 to 8) (size 9 to 14) (size 15 to 20)
#    0.000    0.500    7.500    1.875    5.250    0.000 
#    0.000    0.625    0.000    0.000    0.000    0.000 
#    0.000    0.000    0.000    0.000    0.000    0.000 
#
# Total GULP energy -178890.949941 kJ/mol
# GULP energy per Si atom -5590.342186 kJ/mol
# Density = 2.120476 g / cm^3
# Si number density = 21.253133 Si / 1000 Ang^3
#
#
#
# Elastic Constant Matrix: (Units=GPa)
#
#
# Indices 1 2 3 4 5 6 
#
# 1 95.0954 42.0126 30.7561 0.0000 13.6982 0.0000
# 2 42.0126 121.9014 24.0239 0.0000 12.0747 0.0000
# 3 30.7561 24.0239 45.8496 0.0000 6.3948 0.0000
# 4 0.0000 0.0000 0.0000 31.9095 0.0000 -10.0709
# 5 13.6982 12.0747 6.3948 0.0000 18.5518 0.0000
# 6 0.0000 0.0000 0.0000 -10.0709 0.0000 22.4671
#
#
#
# Elastic Compliance Matrix: (Units=1/GPa)
#
#
# Indices 1 2 3 4 5 6 
#
# 1 0.015349 -0.003106 -0.007742 0.000000 -0.006643 0.000000
# 2 -0.003106 0.010152 -0.002767 0.000000 -0.003360 0.000000
# 3 -0.007742 -0.002767 0.028789 0.000000 -0.002406 0.000000
# 4 0.000000 0.000000 0.000000 0.036503 0.000000 0.016362
# 5 -0.006643 -0.003360 -0.002406 0.000000 0.061824 0.000000
# 6 0.000000 0.000000 0.000000 0.016362 0.000000 0.051844
#
#
# Mechanical properties :
#
#
# Convention : Reuss Voigt Hill
#
# Bulk Modulus (GPa) = 36.95536 50.71459 43.83497
# Shear Modulus (GPa) = 20.77173 25.65595 23.21384
#
# Velocity S-wave (km/s) = 3.12965 3.47819 3.30851
# Velocity P-wave (km/s) = 5.52137 6.32806 5.93843
#
# Compressibility (1/GPa) = 0.02705968
#
# Stress axis : x y z
#
# Youngs Moduli (GPa) = 65.15138 98.50244 34.73508
#
# Poissons Ratio (x) = 0.30596 0.26892
# Poissons Ratio (y) = 0.20237 0.09612
# Poissons Ratio (z) = 0.50441 0.27257
#
# Static dielectric constant tensor:
#      x y z
#    x 1.752400 0.000000 0.004780 
#    y 0.000000 1.816330 0.000000 
#    z 0.004780 0.000000 1.798030 
# 
# From -- ./inp_files/29146.got.cif
#   From: 2010.05.17/outbox.cif.g08.bks.cpg/sg14_15_cif.got.tgz:29146.got - 2010.06.03 17:49:19.
