data_PCOD9252306
_publ_section_title
;
Structure prediction by ZEFSAII (Michael W. Deem and Ramdas Pophale) SiO2 
 PCOD9252306
Probable space group: P 21/C
;
_chemical_formula_sum "Si O2"
_cell_formula_units_Z 28
_cell_length_a 14.105927
_cell_length_b 9.439679
_cell_length_c 10.157013
_cell_angle_alpha 90.000000
_cell_angle_beta 128.312609
_cell_angle_gamma 90.000000
_cell_volume 1061.195225
_symmetry_space_group_name_H-M "P 21/C"
_symmetry_group_IT_number 14
_symmetry_cell_setting 'monoclinic'
loop_
_space_group_symop_operation_xyz
x,y,z
-x,1/2+y,1/2-z
-x,-y,-z
x,1/2-y,1/2+z
loop_
_atom_site_type_symbol
_atom_site_label
_atom_site_fract_x
_atom_site_fract_y
_atom_site_fract_z
Si Si1 0.918340 0.515588 0.057826
Si Si2 0.301957 0.399743 0.432257
Si Si3 0.242633 0.820740 0.733167
Si Si4 0.814834 0.702242 0.401673
Si Si5 0.878489 0.047524 0.792087
Si Si6 0.596708 0.020082 0.466922
Si Si7 0.475459 0.747937 0.294994
O O1 0.803749 0.418105 0.925651
O O2 0.884916 0.677832 0.041787
O O3 0.962530 0.464274 0.236268
O O4 0.000000 0.500000 0.000000
O O5 0.272194 0.562015 0.369377
O O6 0.241934 0.295307 0.269473
O O7 0.267201 0.368851 0.555315
O O8 0.442148 0.360364 0.550939
O O9 0.139907 0.708214 0.679414
O O10 0.355387 0.731786 0.777268
O O11 0.897256 0.579878 0.410055
O O12 0.736680 0.008801 0.627401
O O13 0.556579 0.886561 0.340971
O O14 0.500000 0.000000 0.500000
O O15 0.566796 0.167091 0.371057
#
# Coordination Sequence:
#
# PCOD9252306 Si02
#       7
#     4   4   4   4   4   4   4
#     4  11  26  50  73 101 139 182 240 301 358 414
#     4  11  25  42  72 101 146 188 233 280 355 424
#     4  11  27  43  69 103 143 181 236 299 346 422
#     4  11  23  48  73 103 137 189 234 290 349 434
#     4  12  24  46  71 101 143 183 241 293 352 425
#     4  12  25  40  65  99 145 189 228 282 344 426
#     4  12  25  40  65 100 142 190 234 274 352 413
#
# _framework density 26.385342000000001
#
# number of rings (size 3 to 8) (size 9 to 14) (size 15 to 20)
#    0.000    0.571    5.714    1.286    6.000    1.143 
#    0.000    0.714    0.000    0.000    0.000    0.000 
#    0.000    0.000    0.000    0.000    0.000    0.000 
#
# Total GULP energy -156820.813261 kJ/mol
# GULP energy per Si atom -5600.743331 kJ/mol
# Density = 2.632529 g / cm^3
# Si number density = 26.385342 Si / 1000 Ang^3
#
#
#
# Elastic Constant Matrix: (Units=GPa)
#
#
# Indices 1 2 3 4 5 6 
#
# 1 90.4460 7.5134 -5.5363 0.0000 -31.9252 0.0000
# 2 7.5134 145.6445 28.5961 0.0000 -15.4998 0.0000
# 3 -5.5363 28.5961 50.0917 0.0000 -19.7085 0.0000
# 4 0.0000 0.0000 0.0000 43.7021 0.0000 7.4781
# 5 -31.9252 -15.4998 -19.7085 0.0000 47.2436 0.0000
# 6 0.0000 0.0000 0.0000 7.4781 0.0000 36.1708
#
#
#
# Elastic Compliance Matrix: (Units=1/GPa)
#
#
# Indices 1 2 3 4 5 6 
#
# 1 0.016666 -0.000906 0.007984 0.000000 0.014296 0.000000
# 2 -0.000906 0.007809 -0.004536 0.000000 0.000058 0.000000
# 3 0.007984 -0.004536 0.029876 0.000000 0.016370 0.000000
# 4 0.000000 0.000000 0.000000 0.023721 0.000000 -0.004904
# 5 0.014296 0.000058 0.016370 0.000000 0.037676 0.000000
# 6 0.000000 0.000000 0.000000 -0.004904 0.000000 0.028661
#
#
# Mechanical properties :
#
#
# Convention : Reuss Voigt Hill
#
# Bulk Modulus (GPa) = 16.82469 38.59205 27.70837
# Shear Modulus (GPa) = 31.41954 42.46392 36.94173
#
# Velocity S-wave (km/s) = 3.45453 4.01605 3.74583
# Velocity P-wave (km/s) = 4.72251 6.01357 5.40671
#
# Compressibility (1/GPa) = 0.05943646
#
# Stress axis : x y z
#
# Youngs Moduli (GPa) = 60.00118 128.04999 33.47172
#
# Poissons Ratio (x) = 0.11601 -0.26723
# Poissons Ratio (y) = 0.05436 0.15181
# Poissons Ratio (z) = -0.47904 0.58078
#
# Static dielectric constant tensor:
#      x y z
#    x 2.091430 0.000000 0.059640 
#    y 0.000000 2.047670 0.000000 
#    z 0.059640 0.000000 2.179340 
# 
# From -- ./inp_files/31904.got.cif
#   From: 2010.05.17/outbox.cif.g08.bks.cpg/sg14_16_cif.got.tgz:31904.got - 2010.06.03 17:49:19.
