data_PCOD9252133
_publ_section_title
;
Structure prediction by ZEFSAII (Michael W. Deem and Ramdas Pophale) SiO2 
 PCOD9252133
Probable space group: P 21/C
;
_chemical_formula_sum "Si O2"
_cell_formula_units_Z 20
_cell_length_a 10.739601
_cell_length_b 7.783418
_cell_length_c 13.961348
_cell_angle_alpha 90.000000
_cell_angle_beta 132.209326
_cell_angle_gamma 90.000000
_cell_volume 864.421208
_symmetry_space_group_name_H-M "P 21/C"
_symmetry_group_IT_number 14
_symmetry_cell_setting 'monoclinic'
loop_
_space_group_symop_operation_xyz
x,y,z
-x,1/2+y,1/2-z
-x,-y,-z
x,1/2-y,1/2+z
loop_
_atom_site_type_symbol
_atom_site_label
_atom_site_fract_x
_atom_site_fract_y
_atom_site_fract_z
Si Si1 0.440519 0.965724 0.861767
Si Si2 0.823140 0.131253 0.550702
Si Si3 0.598330 0.852688 0.343922
Si Si4 0.964981 0.804202 0.005597
Si Si5 0.903023 0.380166 0.751162
O O1 0.489541 0.773532 0.853650
O O2 0.240306 0.982892 0.766922
O O3 0.493224 0.089512 0.801371
O O4 0.500000 0.000000 0.000000
O O5 0.818597 0.301407 0.613163
O O6 0.931341 0.184436 0.513953
O O7 0.660702 0.025377 0.431424
O O8 0.933459 0.998082 0.670883
O O9 0.769483 0.749177 0.406855
O O10 0.036697 0.769207 0.147597
O O11 0.000000 0.000000 0.000000
#
# Coordination Sequence:
#
# PCOD9252133 Si02
#       5
#     4   4   4   4   4
#     4  12  29  46  70 103 147 188 235 287 362 426
#     4  11  23  45  71 103 137 179 240 289 351 415
#     4  11  27  48  69 101 149 186 233 298 348 426
#     4  11  23  43  74 100 133 181 235 294 351 412
#     4  11  24  43  70 101 136 181 232 289 349 423
#
# _framework density 23.136869999999998
#
# number of rings (size 3 to 8) (size 9 to 14) (size 15 to 20)
#    0.000    0.800    4.000    2.400   14.000    2.400 
#    0.000    0.000    0.000    0.000    0.000    0.000 
#    0.000    0.000    0.000    0.000    0.000    0.000 
#
# Total GULP energy -111808.445323 kJ/mol
# GULP energy per Si atom -5590.422266 kJ/mol
# Density = 2.308421 g / cm^3
# Si number density = 23.136870 Si / 1000 Ang^3
#
#
#
# Elastic Constant Matrix: (Units=GPa)
#
#
# Indices 1 2 3 4 5 6 
#
# 1 21.0804 -9.3867 24.5019 0.0000 -12.6654 0.0000
# 2 -9.3867 69.2265 48.6436 0.0000 -17.1668 0.0000
# 3 24.5019 48.6436 156.8279 0.0000 -24.5980 0.0000
# 4 0.0000 0.0000 0.0000 44.4879 0.0000 -30.8968
# 5 -12.6654 -17.1668 -24.5980 0.0000 33.3310 0.0000
# 6 0.0000 0.0000 0.0000 -30.8968 0.0000 15.6556
#
#
#
# Elastic Compliance Matrix: (Units=1/GPa)
#
#
# Indices 1 2 3 4 5 6 
#
# 1 0.144923 0.056324 -0.030449 0.000000 0.061607 0.000000
# 2 0.056324 0.041478 -0.016915 0.000000 0.030282 0.000000
# 3 -0.030449 -0.016915 0.014927 0.000000 -0.009266 0.000000
# 4 0.000000 0.000000 0.000000 -0.060650 0.000000 -0.119695
# 5 0.061607 0.030282 -0.009266 0.000000 0.062170 0.000000
# 6 0.000000 0.000000 0.000000 -0.119695 0.000000 -0.172348
#
#
# Mechanical properties :
#
#
# Convention : Reuss Voigt Hill
#
# Bulk Modulus (GPa) = 4.56108 41.62804 23.09456
# Shear Modulus (GPa) = 58.36847 30.91995 44.64421
#
# Velocity S-wave (km/s) = 5.02814 3.65964 4.39745
# Velocity P-wave (km/s) = 5.97372 5.99069 5.98221
#
# Compressibility (1/GPa) = 0.21924631
#
# Stress axis : x y z
#
# Youngs Moduli (GPa) = 6.90021 24.10932 66.99339
#
# Poissons Ratio (x) = -1.35793 2.03989
# Poissons Ratio (y) = -0.38865 1.13321
# Poissons Ratio (z) = 0.21011 0.40782
#
# Static dielectric constant tensor:
#      x y z
#    x 1.871540 0.000000 -0.013430 
#    y 0.000000 1.860620 0.000000 
#    z -0.013430 0.000000 1.880910 
# 
# From -- ./inp_files/28234.got.cif
#   From: 2010.05.17/outbox.cif.g08.bks.cpg/sg14_15_cif.got.tgz:28234.got - 2010.06.03 17:49:19.
