data_PCOD9252120
_publ_section_title
;
Structure prediction by ZEFSAII (Michael W. Deem and Ramdas Pophale) SiO2 
 PCOD9252120
Probable space group: P 21/C
;
_chemical_formula_sum "Si O2"
_cell_formula_units_Z 32
_cell_length_a 9.016053
_cell_length_b 11.004455
_cell_length_c 15.141604
_cell_angle_alpha 90.000000
_cell_angle_beta 110.521652
_cell_angle_gamma 90.000000
_cell_volume 1406.964396
_symmetry_space_group_name_H-M "P 21/C"
_symmetry_group_IT_number 14
_symmetry_cell_setting 'monoclinic'
loop_
_space_group_symop_operation_xyz
x,y,z
-x,1/2+y,1/2-z
-x,-y,-z
x,1/2-y,1/2+z
loop_
_atom_site_type_symbol
_atom_site_label
_atom_site_fract_x
_atom_site_fract_y
_atom_site_fract_z
Si Si1 0.311910 0.691230 0.842046
Si Si2 0.794574 0.755124 0.789526
Si Si3 0.455355 0.090763 0.069220
Si Si4 0.460653 0.461150 0.772579
Si Si5 0.887523 0.500838 0.100193
Si Si6 0.240390 0.459338 0.102563
Si Si7 0.083658 0.130931 0.012327
Si Si8 0.005021 0.737072 0.183522
O O1 0.436120 0.787736 0.906641
O O2 0.391304 0.581634 0.803853
O O3 0.203089 0.619107 0.889748
O O4 0.183720 0.757889 0.753566
O O5 0.662601 0.852829 0.736304
O O6 0.705829 0.653111 0.827648
O O7 0.890453 0.694074 0.729043
O O8 0.913373 0.812884 0.888118
O O9 0.477542 0.030219 0.170545
O O10 0.268536 0.119230 0.025391
O O11 0.500000 0.000000 0.000000
O O12 0.632455 0.437517 0.851007
O O13 0.931251 0.602750 0.180016
O O14 0.060857 0.479321 0.095731
O O15 0.773757 0.562822 0.003886
O O16 0.007382 0.212598 0.918554
O O17 0.000000 0.000000 0.000000
#
# Coordination Sequence:
#
# PCOD9252120 Si02
#       8
#     4   4   4   4   4   4   4   4
#     4  12  26  47  75 112 149 198 260 303 390 459
#     4  11  23  43  71 105 143 192 244 309 372 449
#     4  11  28  49  70 111 151 194 248 312 381 450
#     4  11  24  47  72 104 147 194 247 317 377 446
#     4  11  25  44  71 107 140 199 247 306 376 454
#     4  11  24  45  68 102 149 184 245 307 375 442
#     4  11  26  46  74 104 143 197 254 305 379 457
#     4  12  24  43  75 103 143 198 244 314 366 452
#
# _framework density 22.744001000000001
#
# number of rings (size 3 to 8) (size 9 to 14) (size 15 to 20)
#    0.000    0.750    3.750    3.750    3.500    1.500 
#    6.750    0.000    0.000    0.000    0.000    0.000 
#    0.000    0.000    0.000    0.000    0.000    0.000 
#
# Total GULP energy -178764.695660 kJ/mol
# GULP energy per Si atom -5586.396739 kJ/mol
# Density = 2.269223 g / cm^3
# Si number density = 22.744001 Si / 1000 Ang^3
#
#
#
# Elastic Constant Matrix: (Units=GPa)
#
#
# Indices 1 2 3 4 5 6 
#
# 1 122.5550 48.4394 38.2567 0.0000 20.5449 0.0000
# 2 48.4394 90.4456 24.2605 0.0000 18.1604 0.0000
# 3 38.2567 24.2605 46.9083 0.0000 15.9210 0.0000
# 4 0.0000 0.0000 0.0000 45.1600 0.0000 0.4838
# 5 20.5449 18.1604 15.9210 0.0000 30.0769 0.0000
# 6 0.0000 0.0000 0.0000 0.4838 0.0000 26.6714
#
#
#
# Elastic Compliance Matrix: (Units=1/GPa)
#
#
# Indices 1 2 3 4 5 6 
#
# 1 0.012475 -0.004323 -0.007231 0.000000 -0.002083 0.000000
# 2 -0.004323 0.015029 -0.002645 0.000000 -0.004722 0.000000
# 3 -0.007231 -0.002645 0.032139 0.000000 -0.010476 0.000000
# 4 0.000000 0.000000 0.000000 0.022148 0.000000 -0.000402
# 5 -0.002083 -0.004722 -0.010476 0.000000 0.043068 0.000000
# 6 0.000000 0.000000 0.000000 -0.000402 0.000000 0.037501
#
#
# Mechanical properties :
#
#
# Convention : Reuss Voigt Hill
#
# Bulk Modulus (GPa) = 32.00463 53.53582 42.77023
# Shear Modulus (GPa) = 24.85439 30.31179 27.58309
#
# Velocity S-wave (km/s) = 3.30932 3.65463 3.48625
# Velocity P-wave (km/s) = 5.35765 6.43412 5.92040
#
# Compressibility (1/GPa) = 0.03124548
#
# Stress axis : x y z
#
# Youngs Moduli (GPa) = 80.16175 66.53761 31.11483
#
# Poissons Ratio (x) = 0.28765 0.22499
# Poissons Ratio (y) = 0.34655 0.08228
# Poissons Ratio (z) = 0.57965 0.17596
#
# Static dielectric constant tensor:
#      x y z
#    x 1.866120 0.000000 -0.028280 
#    y 0.000000 1.938830 0.000000 
#    z -0.028280 0.000000 1.887090 
# 
# From -- ./inp_files/40381.got.cif
#   From: 2010.05.17/outbox.cif.g08.bks.cpg/sg14_21_cif.got.tgz:40381.got - 2010.06.03 17:49:19.
