data_PCOD9252344
_publ_section_title
;
Structure prediction by ZEFSAII (Michael W. Deem and Ramdas Pophale) SiO2 
 PCOD9252344
Probable space group: P 21/C
;
_chemical_formula_sum "Si O2"
_cell_formula_units_Z 24
_cell_length_a 26.875562
_cell_length_b 5.168494
_cell_length_c 14.344787
_cell_angle_alpha 90.000000
_cell_angle_beta 29.376126
_cell_angle_gamma 90.000000
_cell_volume 977.441369
_symmetry_space_group_name_H-M "P 21/C"
_symmetry_group_IT_number 14
_symmetry_cell_setting 'monoclinic'
loop_
_space_group_symop_operation_xyz
x,y,z
-x,1/2+y,1/2-z
-x,-y,-z
x,1/2-y,1/2+z
loop_
_atom_site_type_symbol
_atom_site_label
_atom_site_fract_x
_atom_site_fract_y
_atom_site_fract_z
Si Si1 0.245970 0.707684 0.693022
Si Si2 0.940774 0.253247 0.132524
Si Si3 0.609381 0.880318 0.635540
Si Si4 0.298042 0.115109 0.849731
Si Si5 0.428837 0.147474 0.978622
Si Si6 0.825904 0.374149 0.993091
O O1 0.169541 0.688214 0.731388
O O2 0.334611 0.522245 0.591109
O O3 0.167662 0.694071 0.908421
O O4 0.307184 0.959331 0.558208
O O5 0.921087 0.206369 0.274487
O O6 0.000000 0.500000 0.000000
O O7 0.000000 0.000000 0.000000
O O8 0.664443 0.664513 0.606980
O O9 0.537069 0.798140 0.669532
O O10 0.533394 0.009952 0.833710
O O11 0.384176 0.178679 0.633079
O O12 0.210546 0.332307 0.970316
O O13 0.263095 0.823513 0.892538
#
# Coordination Sequence:
#
# PCOD9252344 Si02
#       6
#     4   4   4   4   4   4
#     4  11  25  45  69  98 144 183 226 295 342 415
#     4  12  28  47  74 102 131 178 232 290 359 415
#     4  12  22  42  67 101 145 188 233 281 342 412
#     4  11  24  41  71 101 145 185 229 281 337 415
#     4  11  24  41  66 107 140 192 234 276 346 418
#     4  11  24  46  71 103 136 180 230 284 355 415
#
# _framework density 24.553899000000001
#
# number of rings (size 3 to 8) (size 9 to 14) (size 15 to 20)
#    0.000    0.667    5.000    2.500    2.333    1.333 
#    0.000    3.333    0.000    0.000    0.000    0.000 
#    0.000    0.000    0.000    0.000    0.000    0.000 
#
# Total GULP energy -133933.431000 kJ/mol
# GULP energy per Si atom -5580.559625 kJ/mol
# Density = 2.449801 g / cm^3
# Si number density = 24.553899 Si / 1000 Ang^3
#
#
#
# Elastic Constant Matrix: (Units=GPa)
#
#
# Indices 1 2 3 4 5 6 
#
# 1 62.2421 -5.8100 -1.3805 0.0000 19.7777 0.0000
# 2 -5.8100 67.1135 34.7758 0.0000 -11.2991 0.0000
# 3 -1.3805 34.7758 78.5317 0.0000 33.5903 0.0000
# 4 0.0000 0.0000 0.0000 48.2484 0.0000 -2.7483
# 5 19.7777 -11.2991 33.5903 0.0000 49.8590 0.0000
# 6 0.0000 0.0000 0.0000 -2.7483 0.0000 28.8290
#
#
#
# Elastic Compliance Matrix: (Units=1/GPa)
#
#
# Indices 1 2 3 4 5 6 
#
# 1 0.021029 -0.006373 0.010364 0.000000 -0.016768 0.000000
# 2 -0.006373 0.032784 -0.026535 0.000000 0.027835 0.000000
# 3 0.010364 -0.026535 0.040736 0.000000 -0.037568 0.000000
# 4 0.000000 0.000000 0.000000 0.020839 0.000000 0.001987
# 5 -0.016768 0.027835 -0.037568 0.000000 0.058326 0.000000
# 6 0.000000 0.000000 0.000000 0.001987 0.000000 0.034877
#
#
# Mechanical properties :
#
#
# Convention : Reuss Voigt Hill
#
# Bulk Modulus (GPa) = 20.21800 29.22868 24.72334
# Shear Modulus (GPa) = 18.50710 37.40743 27.95726
#
# Velocity S-wave (km/s) = 2.74840 3.90742 3.37799
# Velocity P-wave (km/s) = 4.28061 5.68216 5.03043
#
# Compressibility (1/GPa) = 0.04946087
#
# Stress axis : x y z
#
# Youngs Moduli (GPa) = 47.55229 30.50238 24.54858
#
# Poissons Ratio (x) = 0.19439 -0.25442
# Poissons Ratio (y) = 0.30304 0.65141
# Poissons Ratio (z) = -0.49283 0.80939
#
# Static dielectric constant tensor:
#      x y z
#    x 1.894800 0.000000 0.019030 
#    y 0.000000 2.265660 0.000000 
#    z 0.019030 0.000000 2.039210 
# 
# From -- ./inp_files/45673.got.cif
#   From: 2010.05.17/outbox.cif.g08.bks.cpg/sg14_23_cif.got.tgz:45673.got - 2010.06.03 17:49:19.
