data_PCOD9252769
_publ_section_title
;
Structure prediction by ZEFSAII (Michael W. Deem and Ramdas Pophale) SiO2 
 PCOD9252769
Probable space group: P 21/C
;
_chemical_formula_sum "Si O2"
_cell_formula_units_Z 20
_cell_length_a 7.956577
_cell_length_b 11.469224
_cell_length_c 10.759341
_cell_angle_alpha 90.000000
_cell_angle_beta 117.388216
_cell_angle_gamma 90.000000
_cell_volume 871.796120
_symmetry_space_group_name_H-M "P 21/C"
_symmetry_group_IT_number 14
_symmetry_cell_setting 'monoclinic'
loop_
_space_group_symop_operation_xyz
x,y,z
-x,1/2+y,1/2-z
-x,-y,-z
x,1/2-y,1/2+z
loop_
_atom_site_type_symbol
_atom_site_label
_atom_site_fract_x
_atom_site_fract_y
_atom_site_fract_z
Si Si1 0.632059 0.779394 0.669579
Si Si2 0.692441 0.114262 0.014485
Si Si3 0.218908 0.454872 0.973762
Si Si4 0.548717 0.052573 0.217791
Si Si5 0.991242 0.313183 0.083414
O O1 0.496140 0.693736 0.549710
O O2 0.676938 0.891613 0.602049
O O3 0.516836 0.823828 0.750309
O O4 0.825266 0.718684 0.774807
O O5 0.697916 0.065063 0.155964
O O6 0.863625 0.197496 0.034690
O O7 0.635668 0.013167 0.899021
O O8 0.355092 0.483245 0.136602
O O9 0.062998 0.365055 0.976082
O O10 0.128445 0.578185 0.904014
#
# Coordination Sequence:
#
# PCOD9252769 Si02
#       5
#     4   4   4   4   4
#     4  12  25  43  72 100 136 182 229 282 345 403
#     4  11  26  44  70  99 141 180 222 292 337 404
#     4  11  25  46  69 103 136 181 235 279 334 417
#     4  11  25  47  68 102 139 180 232 278 342 409
#     4  11  26  42  68 102 135 181 223 284 340 398
#
# _framework density 22.941141999999999
#
# number of rings (size 3 to 8) (size 9 to 14) (size 15 to 20)
#    0.000    0.800    4.000    1.800    5.600    2.400 
#    0.000    0.000    0.000    0.000    0.000    0.000 
#    0.000    0.000    0.000    0.000    0.000    0.000 
#
# Total GULP energy -111963.592010 kJ/mol
# GULP energy per Si atom -5598.179601 kJ/mol
# Density = 2.288893 g / cm^3
# Si number density = 22.941142 Si / 1000 Ang^3
#
#
#
# Elastic Constant Matrix: (Units=GPa)
#
#
# Indices 1 2 3 4 5 6 
#
# 1 35.5556 12.6329 23.4294 0.0000 3.7699 0.0000
# 2 12.6329 71.4610 27.3691 0.0000 -7.9596 0.0000
# 3 23.4294 27.3691 101.0274 0.0000 5.3644 0.0000
# 4 0.0000 0.0000 0.0000 43.5825 0.0000 10.1212
# 5 3.7699 -7.9596 5.3644 0.0000 26.7262 0.0000
# 6 0.0000 0.0000 0.0000 10.1212 0.0000 61.8200
#
#
#
# Elastic Compliance Matrix: (Units=1/GPa)
#
#
# Indices 1 2 3 4 5 6 
#
# 1 0.034447 -0.004078 -0.006632 0.000000 -0.004742 0.000000
# 2 -0.004078 0.016958 -0.003990 0.000000 0.006427 0.000000
# 3 -0.006632 -0.003990 0.012666 0.000000 -0.002795 0.000000
# 4 0.000000 0.000000 0.000000 0.023852 0.000000 -0.003905
# 5 -0.004742 0.006427 -0.002795 0.000000 0.040560 0.000000
# 6 0.000000 0.000000 0.000000 -0.003905 0.000000 0.016815
#
#
# Mechanical properties :
#
#
# Convention : Reuss Voigt Hill
#
# Bulk Modulus (GPa) = 28.84195 37.21187 33.02691
# Shear Modulus (GPa) = 26.84499 36.06658 31.45578
#
# Velocity S-wave (km/s) = 3.42448 3.96932 3.70692
# Velocity P-wave (km/s) = 5.31371 6.10435 5.72270
#
# Compressibility (1/GPa) = 0.03467172
#
# Stress axis : x y z
#
# Youngs Moduli (GPa) = 29.03032 58.96799 78.95397
#
# Poissons Ratio (x) = 0.24045 0.52363
# Poissons Ratio (y) = 0.11838 0.31500
# Poissons Ratio (z) = 0.19253 0.23527
#
# Static dielectric constant tensor:
#      x y z
#    x 1.868030 0.000000 0.007080 
#    y 0.000000 1.860430 0.000000 
#    z 0.007080 0.000000 1.865330 
# 
# From -- ./inp_files/24325.got.cif
#   From: 2010.05.17/outbox.cif.g08.bks.cpg/sg14_13_cif.got.tgz:24325.got - 2010.06.03 17:49:19.
