data_PCOD9252125
_publ_section_title
;
Structure prediction by ZEFSAII (Michael W. Deem and Ramdas Pophale) SiO2 
 PCOD9252125
Probable space group: P 21/C
;
_chemical_formula_sum "Si O2"
_cell_formula_units_Z 20
_cell_length_a 9.278960
_cell_length_b 7.464454
_cell_length_c 25.377901
_cell_angle_alpha 90.000000
_cell_angle_beta 150.713816
_cell_angle_gamma 90.000000
_cell_volume 859.834313
_symmetry_space_group_name_H-M "P 21/C"
_symmetry_group_IT_number 14
_symmetry_cell_setting 'monoclinic'
loop_
_space_group_symop_operation_xyz
x,y,z
-x,1/2+y,1/2-z
-x,-y,-z
x,1/2-y,1/2+z
loop_
_atom_site_type_symbol
_atom_site_label
_atom_site_fract_x
_atom_site_fract_y
_atom_site_fract_z
Si Si1 0.746425 0.524797 0.375362
Si Si2 0.763736 0.848175 0.172023
Si Si3 0.787669 0.720305 0.798655
Si Si4 0.632600 0.260658 0.669264
Si Si5 0.653579 0.037886 0.493159
O O1 0.548332 0.347591 0.308033
O O2 0.837111 0.599771 0.347414
O O3 0.532493 0.679239 0.330881
O O4 0.000000 0.500000 0.500000
O O5 0.872585 0.779574 0.264257
O O6 0.491068 0.724402 0.070899
O O7 0.037975 0.817218 0.220758
O O8 0.670544 0.052615 0.149605
O O9 0.000122 0.569462 0.891382
O O10 0.440316 0.117024 0.576581
O O11 0.500000 0.000000 0.500000
#
# Coordination Sequence:
#
# PCOD9252125 Si02
#       5
#     4   4   4   4   4
#     4  11  27  48  67 105 143 187 236 286 354 424
#     4  11  23  46  69 108 138 178 237 292 341 420
#     4  11  25  45  70 102 141 185 233 288 354 417
#     4  11  23  43  72 100 142 177 232 290 342 414
#     4  12  24  45  73 105 137 182 237 292 348 411
#
# _framework density 23.260294999999999
#
# number of rings (size 3 to 8) (size 9 to 14) (size 15 to 20)
#    0.000    0.800    4.000    3.600    5.600    1.600 
#    3.600    0.000    0.000    0.000    0.000    0.000 
#    0.000    0.000    0.000    0.000    0.000    0.000 
#
# Total GULP energy -111921.091761 kJ/mol
# GULP energy per Si atom -5596.054588 kJ/mol
# Density = 2.320735 g / cm^3
# Si number density = 23.260295 Si / 1000 Ang^3
#
#
#
# Elastic Constant Matrix: (Units=GPa)
#
#
# Indices 1 2 3 4 5 6 
#
# 1 41.4152 -1.3469 6.9960 0.0000 11.1776 0.0000
# 2 -1.3469 68.5475 18.5368 0.0000 7.9344 0.0000
# 3 6.9960 18.5368 129.4123 0.0000 11.1502 0.0000
# 4 0.0000 0.0000 0.0000 39.7324 0.0000 6.4205
# 5 11.1776 7.9344 11.1502 0.0000 12.9178 0.0000
# 6 0.0000 0.0000 0.0000 6.4205 0.0000 40.8282
#
#
#
# Elastic Compliance Matrix: (Units=1/GPa)
#
#
# Indices 1 2 3 4 5 6 
#
# 1 0.032602 0.004147 0.000317 0.000000 -0.031031 0.000000
# 2 0.004147 0.016519 -0.001520 0.000000 -0.012422 0.000000
# 3 0.000317 -0.001520 0.008503 0.000000 -0.006681 0.000000
# 4 0.000000 0.000000 0.000000 0.025825 0.000000 -0.004061
# 5 -0.031031 -0.012422 -0.006681 0.000000 0.117660 0.000000
# 6 0.000000 0.000000 0.000000 -0.004061 0.000000 0.025132
#
#
# Mechanical properties :
#
#
# Convention : Reuss Voigt Hill
#
# Bulk Modulus (GPa) = 15.74506 31.97185 23.85846
# Shear Modulus (GPa) = 20.70193 33.04162 26.87177
#
# Velocity S-wave (km/s) = 2.98654 3.77306 3.40260
# Velocity P-wave (km/s) = 4.32161 5.72332 5.07113
#
# Compressibility (1/GPa) = 0.06351197
#
# Stress axis : x y z
#
# Youngs Moduli (GPa) = 30.67304 60.53694 117.59964
#
# Poissons Ratio (x) = -0.25103 -0.03730
# Poissons Ratio (y) = -0.12719 0.17875
# Poissons Ratio (z) = -0.00973 0.09202
#
# Static dielectric constant tensor:
#      x y z
#    x 1.895380 0.000000 -0.002320 
#    y 0.000000 1.894450 0.000000 
#    z -0.002320 0.000000 1.872850 
# 
# From -- ./inp_files/23015.got.cif
#   From: 2010.05.17/outbox.cif.g08.bks.cpg/sg14_12_cif.got.tgz:23015.got - 2010.06.03 17:49:19.
