data_PCOD9252982
_publ_section_title
;
Structure prediction by ZEFSAII (Michael W. Deem and Ramdas Pophale) SiO2 
 PCOD9252982
Probable space group: P 21/C
;
_chemical_formula_sum "Si O2"
_cell_formula_units_Z 16
_cell_length_a 7.511419
_cell_length_b 9.107852
_cell_length_c 10.314842
_cell_angle_alpha 90.000000
_cell_angle_beta 66.288144
_cell_angle_gamma 90.000000
_cell_volume 646.095247
_symmetry_space_group_name_H-M "P 21/C"
_symmetry_group_IT_number 14
_symmetry_cell_setting 'monoclinic'
loop_
_space_group_symop_operation_xyz
x,y,z
-x,1/2+y,1/2-z
-x,-y,-z
x,1/2-y,1/2+z
loop_
_atom_site_type_symbol
_atom_site_label
_atom_site_fract_x
_atom_site_fract_y
_atom_site_fract_z
Si Si1 0.297710 0.671523 0.636596
Si Si2 0.299887 0.992164 0.637805
Si Si3 0.729155 0.582199 0.561030
Si Si4 0.001794 0.154952 0.570043
O O1 0.223340 0.831618 0.617568
O O2 0.530685 0.665592 0.578662
O O3 0.236271 0.538894 0.561019
O O4 0.209630 0.662984 0.805512
O O5 0.500000 0.000000 0.500000
O O6 0.316274 0.004003 0.788470
O O7 0.154323 0.121215 0.641979
O O8 0.904980 0.698861 0.518300
O O9 0.000000 0.000000 0.500000
#
# Coordination Sequence:
#
# PCOD9252982 Si02
#       4
#     4   4   4   4
#     4  11  27  48  75 108 150 200 249 313 374 454
#     4  12  27  47  77 107 150 200 250 310 381 443
#     4  11  28  49  76 111 153 195 256 312 375 453
#     4  12  28  47  77 111 149 199 251 311 385 451
#
# _framework density 24.764149
#
# number of rings (size 3 to 8) (size 9 to 14) (size 15 to 20)
#    0.000    0.500    2.500    3.000   14.000    2.000 
#    0.000    0.000    0.000    0.000    0.000    0.000 
#    0.000    0.000    0.000    0.000    0.000    0.000 
#
# Total GULP energy -89513.277001 kJ/mol
# GULP energy per Si atom -5594.579813 kJ/mol
# Density = 2.470778 g / cm^3
# Si number density = 24.764149 Si / 1000 Ang^3
#
#
#
# Elastic Constant Matrix: (Units=GPa)
#
#
# Indices 1 2 3 4 5 6 
#
# 1 66.9055 30.1093 10.5411 0.0000 -9.2099 0.0000
# 2 30.1093 162.3488 70.8114 0.0000 -8.3525 0.0000
# 3 10.5411 70.8114 148.3924 0.0000 -11.7230 0.0000
# 4 0.0000 0.0000 0.0000 49.9484 0.0000 2.6384
# 5 -9.2099 -8.3525 -11.7230 0.0000 34.5535 0.0000
# 6 0.0000 0.0000 0.0000 2.6384 0.0000 56.1911
#
#
#
# Elastic Compliance Matrix: (Units=1/GPa)
#
#
# Indices 1 2 3 4 5 6 
#
# 1 0.016825 -0.003198 0.000641 0.000000 0.003929 0.000000
# 2 -0.003198 0.008400 -0.003790 0.000000 -0.000108 0.000000
# 3 0.000641 -0.003790 0.008675 0.000000 0.002198 0.000000
# 4 0.000000 0.000000 0.000000 0.020070 0.000000 -0.000942
# 5 0.003929 -0.000108 0.002198 0.000000 0.030708 0.000000
# 6 0.000000 0.000000 0.000000 -0.000942 0.000000 0.017841
#
#
# Mechanical properties :
#
#
# Convention : Reuss Voigt Hill
#
# Bulk Modulus (GPa) = 47.15204 66.73001 56.94103
# Shear Modulus (GPa) = 40.88899 45.88425 43.38662
#
# Velocity S-wave (km/s) = 4.06783 4.30914 4.19022
# Velocity P-wave (km/s) = 6.41442 7.19465 6.81571
#
# Compressibility (1/GPa) = 0.02120799
#
# Stress axis : x y z
#
# Youngs Moduli (GPa) = 59.43361 119.04579 115.26796
#
# Poissons Ratio (x) = 0.38071 -0.07392
# Poissons Ratio (y) = 0.19007 0.43684
# Poissons Ratio (z) = -0.03811 0.45116
#
# Static dielectric constant tensor:
#      x y z
#    x 1.982730 0.000000 0.083840 
#    y 0.000000 2.084540 0.000000 
#    z 0.083840 0.000000 2.007200 
# 
# From -- ./inp_files/7313.got.cif
#   From: 2010.05.17/outbox.cif.g08.bks.cpg/sg14_4_cif.got.tgz:7313.got - 2010.06.03 17:49:19.
