data_PCOD9252271
_publ_section_title
;
Structure prediction by ZEFSAII (Michael W. Deem and Ramdas Pophale) SiO2 
 PCOD9252271
Probable space group: P 21/C
;
_chemical_formula_sum "Si O2"
_cell_formula_units_Z 32
_cell_length_a 10.726697
_cell_length_b 11.409275
_cell_length_c 12.365017
_cell_angle_alpha 90.000000
_cell_angle_beta 75.599816
_cell_angle_gamma 90.000000
_cell_volume 1465.734585
_symmetry_space_group_name_H-M "P 21/C"
_symmetry_group_IT_number 14
_symmetry_cell_setting 'monoclinic'
loop_
_space_group_symop_operation_xyz
x,y,z
-x,1/2+y,1/2-z
-x,-y,-z
x,1/2-y,1/2+z
loop_
_atom_site_type_symbol
_atom_site_label
_atom_site_fract_x
_atom_site_fract_y
_atom_site_fract_z
Si Si1 0.659342 0.085495 0.176949
Si Si2 0.801597 0.933974 0.963712
Si Si3 0.031481 0.881384 0.176099
Si Si4 0.762107 0.154517 0.682551
Si Si5 0.785779 0.549730 0.832070
Si Si6 0.796810 0.826759 0.548414
Si Si7 0.921596 0.137129 0.440493
Si Si8 0.361847 0.073394 0.219858
O O1 0.719650 0.211284 0.192460
O O2 0.511020 0.102646 0.179063
O O3 0.677775 0.003144 0.278267
O O4 0.732669 0.021963 0.062412
O O5 0.712951 0.913587 0.877096
O O6 0.930173 0.998724 0.892914
O O7 0.820663 0.809248 0.015998
O O8 0.117808 0.870042 0.264683
O O9 0.074047 0.771748 0.096061
O O10 0.883256 0.871173 0.241291
O O11 0.811552 0.124495 0.553092
O O12 0.654057 0.063127 0.742950
O O13 0.880622 0.444869 0.850716
O O14 0.743017 0.615840 0.949429
O O15 0.706281 0.852212 0.670198
O O16 0.935658 0.884685 0.544449
#
# Coordination Sequence:
#
# PCOD9252271 Si02
#       8
#     4   4   4   4   4   4   4   4
#     4  12  27  47  73 103 141 188 243 283 346 428
#     4  11  27  46  72 105 138 188 237 295 353 412
#     4  11  24  42  71 102 142 175 236 291 360 413
#     4  11  23  46  71  98 137 185 231 295 347 410
#     4  12  26  42  69 107 139 187 231 289 353 427
#     4  12  27  44  72 105 146 183 229 299 357 418
#     4  12  22  44  69 101 139 179 233 292 358 421
#     4  11  28  50  70 101 141 194 235 290 351 411
#
# _framework density 21.832056000000001
#
# number of rings (size 3 to 8) (size 9 to 14) (size 15 to 20)
#    0.000    0.500    5.000    3.000    8.750    1.500 
#    2.250    0.000    0.000    0.000    0.000    0.000 
#    0.000    0.000    0.000    0.000    0.000    0.000 
#
# Total GULP energy -179165.037902 kJ/mol
# GULP energy per Si atom -5598.907434 kJ/mol
# Density = 2.178236 g / cm^3
# Si number density = 21.832056 Si / 1000 Ang^3
#
#
#
# Elastic Constant Matrix: (Units=GPa)
#
#
# Indices 1 2 3 4 5 6 
#
# 1 32.9327 -10.0700 7.1772 0.0000 8.1994 0.0000
# 2 -10.0700 105.9443 25.1718 0.0000 7.2208 0.0000
# 3 7.1772 25.1718 101.7042 0.0000 18.8152 0.0000
# 4 0.0000 0.0000 0.0000 35.9539 0.0000 4.7008
# 5 8.1994 7.2208 18.8152 0.0000 26.5784 0.0000
# 6 0.0000 0.0000 0.0000 4.7008 0.0000 20.4974
#
#
#
# Elastic Compliance Matrix: (Units=1/GPa)
#
#
# Indices 1 2 3 4 5 6 
#
# 1 0.034743 0.004406 -0.001540 0.000000 -0.010825 0.000000
# 2 0.004406 0.010616 -0.002478 0.000000 -0.002489 0.000000
# 3 -0.001540 -0.002478 0.011900 0.000000 -0.007276 0.000000
# 4 0.000000 0.000000 0.000000 0.028673 0.000000 -0.006576
# 5 -0.010825 -0.002489 -0.007276 0.000000 0.046791 0.000000
# 6 0.000000 0.000000 0.000000 -0.006576 0.000000 0.050295
#
#
# Mechanical properties :
#
#
# Convention : Reuss Voigt Hill
#
# Bulk Modulus (GPa) = 17.23058 31.68214 24.45636
# Shear Modulus (GPa) = 24.80314 31.15941 27.98128
#
# Velocity S-wave (km/s) = 3.37425 3.78197 3.58391
# Velocity P-wave (km/s) = 4.80523 5.79779 5.32468
#
# Compressibility (1/GPa) = 0.05803635
#
# Stress axis : x y z
#
# Youngs Moduli (GPa) = 28.78284 94.19659 84.03020
#
# Poissons Ratio (x) = -0.41502 0.12937
# Poissons Ratio (y) = -0.12681 0.20822
# Poissons Ratio (z) = 0.04431 0.23341
#
# Static dielectric constant tensor:
#      x y z
#    x 1.754750 0.000000 0.021290 
#    y 0.000000 1.825500 0.000000 
#    z 0.021290 0.000000 1.788150 
# 
# From -- ./inp_files/29347.got.cif
#   From: 2010.05.17/outbox.cif.g08.bks.cpg/sg14_15_cif.got.tgz:29347.got - 2010.06.03 17:49:19.
