data_PCOD9252441
_publ_section_title
;
Structure prediction by ZEFSAII (Michael W. Deem and Ramdas Pophale) SiO2 
 PCOD9252441
Probable space group: P 21/C
;
_chemical_formula_sum "Si O2"
_cell_formula_units_Z 20
_cell_length_a 17.418042
_cell_length_b 5.200504
_cell_length_c 18.119945
_cell_angle_alpha 90.000000
_cell_angle_beta 25.764037
_cell_angle_gamma 90.000000
_cell_volume 713.439617
_symmetry_space_group_name_H-M "P 21/C"
_symmetry_group_IT_number 14
_symmetry_cell_setting 'monoclinic'
loop_
_space_group_symop_operation_xyz
x,y,z
-x,1/2+y,1/2-z
-x,-y,-z
x,1/2-y,1/2+z
loop_
_atom_site_type_symbol
_atom_site_label
_atom_site_fract_x
_atom_site_fract_y
_atom_site_fract_z
Si Si1 0.104744 0.316486 0.095020
Si Si2 0.584955 0.024685 0.147955
Si Si3 0.515678 0.206429 0.921082
Si Si4 0.895778 0.185429 0.534836
Si Si5 0.825708 0.499157 0.798164
O O1 0.130123 0.395332 0.157542
O O2 0.221102 0.056078 0.991584
O O3 0.170334 0.511416 0.976473
O O4 0.900789 0.285205 0.246902
O O5 0.468232 0.818846 0.295655
O O6 0.552598 0.942030 0.092652
O O7 0.717695 0.286048 0.728575
O O8 0.374116 0.438457 0.049263
O O9 0.500000 0.000000 0.000000
O O10 0.000000 0.000000 0.500000
O O11 0.042379 0.380255 0.376518
#
# Coordination Sequence:
#
# PCOD9252441 Si02
#       5
#     4   4   4   4   4
#     4  11  24  43  76 109 148 199 265 318 397 468
#     4  11  24  46  79 114 151 201 266 327 384 477
#     4  11  24  47  69 109 154 202 255 320 401 468
#     4  12  24  47  71 103 156 193 250 328 389 469
#     4  11  24  45  73 104 147 195 257 327 381 476
#
# _framework density 28.033206
#
# number of rings (size 3 to 8) (size 9 to 14) (size 15 to 20)
#    0.000    0.800    6.000    1.200    0.000    0.800 
#    0.000    2.000    0.000    0.000    0.000    0.000 
#    0.000    0.000    0.000    0.000    0.000    0.000 
#
# Total GULP energy -112186.392194 kJ/mol
# GULP energy per Si atom -5609.319610 kJ/mol
# Density = 2.796940 g / cm^3
# Si number density = 28.033206 Si / 1000 Ang^3
#
#
#
# Elastic Constant Matrix: (Units=GPa)
#
#
# Indices 1 2 3 4 5 6 
#
# 1 154.0564 29.1107 73.8715 0.0000 -13.5163 0.0000
# 2 29.1107 51.1734 52.0436 0.0000 -6.8001 0.0000
# 3 73.8715 52.0436 226.4884 0.0000 -27.3104 0.0000
# 4 0.0000 0.0000 0.0000 68.4517 0.0000 -4.3925
# 5 -13.5163 -6.8001 -27.3104 0.0000 64.3217 0.0000
# 6 0.0000 0.0000 0.0000 -4.3925 0.0000 53.8505
#
#
#
# Elastic Compliance Matrix: (Units=1/GPa)
#
#
# Indices 1 2 3 4 5 6 
#
# 1 0.007944 -0.002451 -0.001958 0.000000 0.000579 0.000000
# 2 -0.002451 0.026260 -0.005230 0.000000 0.000041 0.000000
# 3 -0.001958 -0.005230 0.006471 0.000000 0.001783 0.000000
# 4 0.000000 0.000000 0.000000 0.014686 0.000000 0.001198
# 5 0.000579 0.000041 0.001783 0.000000 0.016430 0.000000
# 6 0.000000 0.000000 0.000000 0.001198 0.000000 0.018668
#
#
# Mechanical properties :
#
#
# Convention : Reuss Voigt Hill
#
# Bulk Modulus (GPa) = 46.73561 82.41888 64.57725
# Shear Modulus (GPa) = 42.78367 55.77093 49.27730
#
# Velocity S-wave (km/s) = 3.91087 4.46517 4.19718
# Velocity P-wave (km/s) = 6.09105 7.48652 6.82455
#
# Compressibility (1/GPa) = 0.02139696
#
# Stress axis : x y z
#
# Youngs Moduli (GPa) = 125.88257 38.08117 154.54495
#
# Poissons Ratio (x) = 0.09333 0.30261
# Poissons Ratio (y) = 0.30851 0.80825
# Poissons Ratio (z) = 0.24648 0.19916
#
# Static dielectric constant tensor:
#      x y z
#    x 2.120530 0.000000 -0.043360 
#    y 0.000000 2.225690 0.000000 
#    z -0.043360 0.000000 2.394050 
# 
# From -- ./inp_files/54018.got.cif
#   From: 2010.05.17/outbox.cif.g08.bks.cpg/sg14_28_cif.got.tgz:54018.got - 2010.06.03 17:49:19.
