data_PCOD9252054
_publ_section_title
;
Structure prediction by ZEFSAII (Michael W. Deem and Ramdas Pophale) SiO2 
 PCOD9252054
Probable space group: P 21/C
;
_chemical_formula_sum "Si O2"
_cell_formula_units_Z 28
_cell_length_a 17.258859
_cell_length_b 8.110838
_cell_length_c 17.548881
_cell_angle_alpha 90.000000
_cell_angle_beta 152.814319
_cell_angle_gamma 90.000000
_cell_volume 1122.342052
_symmetry_space_group_name_H-M "P 21/C"
_symmetry_group_IT_number 14
_symmetry_cell_setting 'monoclinic'
loop_
_space_group_symop_operation_xyz
x,y,z
-x,1/2+y,1/2-z
-x,-y,-z
x,1/2-y,1/2+z
loop_
_atom_site_type_symbol
_atom_site_label
_atom_site_fract_x
_atom_site_fract_y
_atom_site_fract_z
Si Si1 0.920489 0.688208 0.204575
Si Si2 0.132761 0.856418 0.636847
Si Si3 0.372148 0.248785 0.674331
Si Si4 0.283678 0.365698 0.357445
Si Si5 0.399441 0.627099 0.252575
Si Si6 0.835687 0.325246 0.192314
Si Si7 0.448031 0.373961 0.887735
O O1 0.882020 0.812979 0.240133
O O2 0.882974 0.507530 0.204184
O O3 0.096064 0.704167 0.313701
O O4 0.784732 0.738576 0.020684
O O5 0.233772 0.803374 0.650149
O O6 0.081591 0.716233 0.652369
O O7 0.266348 0.957124 0.805740
O O8 0.000000 0.000000 0.500000
O O9 0.538905 0.283855 0.769696
O O10 0.361652 0.391967 0.729186
O O11 0.377507 0.067632 0.717148
O O12 0.443864 0.352134 0.552617
O O13 0.320274 0.244659 0.320079
O O14 0.634172 0.316067 0.024599
O O15 0.500000 0.500000 0.000000
#
# Coordination Sequence:
#
# PCOD9252054 Si02
#       7
#     4   4   4   4   4   4   4
#     4  11  26  48  69 107 148 190 245 305 371 447
#     4  12  25  44  71 105 144 192 241 306 368 437
#     4  11  25  43  73 104 147 186 244 312 355 446
#     4  11  23  46  72 100 143 185 246 300 363 441
#     4  11  23  42  68 104 141 188 244 297 367 436
#     4  12  25  45  77 103 149 199 241 305 384 437
#     4  12  24  46  79 107 143 192 246 305 369 437
#
# _framework density 24.947831999999998
#
# number of rings (size 3 to 8) (size 9 to 14) (size 15 to 20)
#    0.000    0.571    4.286    3.857    2.000    2.286 
#    0.000    2.857    0.000    0.000    0.000    0.000 
#    0.000    0.000    0.000    0.000    0.000    0.000 
#
# Total GULP energy -156619.481222 kJ/mol
# GULP energy per Si atom -5593.552901 kJ/mol
# Density = 2.489105 g / cm^3
# Si number density = 24.947832 Si / 1000 Ang^3
#
#
#
# Elastic Constant Matrix: (Units=GPa)
#
#
# Indices 1 2 3 4 5 6 
#
# 1 213.3239 39.8929 42.9512 0.0000 -6.4702 0.0000
# 2 39.8929 68.0679 4.2751 0.0000 -17.6085 0.0000
# 3 42.9512 4.2751 78.9396 0.0000 -13.5259 0.0000
# 4 0.0000 0.0000 0.0000 29.1995 0.0000 -7.4932
# 5 -6.4702 -17.6085 -13.5259 0.0000 39.6440 0.0000
# 6 0.0000 0.0000 0.0000 -7.4932 0.0000 53.9963
#
#
#
# Elastic Compliance Matrix: (Units=1/GPa)
#
#
# Indices 1 2 3 4 5 6 
#
# 1 0.006025 -0.003799 -0.003391 0.000000 -0.001861 0.000000
# 2 -0.003799 0.019006 0.002526 0.000000 0.008683 0.000000
# 3 -0.003391 0.002526 0.015372 0.000000 0.005813 0.000000
# 4 0.000000 0.000000 0.000000 0.035512 0.000000 0.004928
# 5 -0.001861 0.008683 0.005813 0.000000 0.030761 0.000000
# 6 0.000000 0.000000 0.000000 0.004928 0.000000 0.019204
#
#
# Mechanical properties :
#
#
# Convention : Reuss Voigt Hill
#
# Bulk Modulus (GPa) = 32.18225 59.39664 45.78944
# Shear Modulus (GPa) = 34.34874 42.78211 38.56542
#
# Velocity S-wave (km/s) = 3.71458 4.14558 3.93599
# Velocity P-wave (km/s) = 5.59690 6.83919 6.24899
#
# Compressibility (1/GPa) = 0.03107303
#
# Stress axis : x y z
#
# Youngs Moduli (GPa) = 165.98807 52.61622 65.05207
#
# Poissons Ratio (x) = 0.19991 0.22060
# Poissons Ratio (y) = 0.63064 -0.16431
# Poissons Ratio (z) = 0.56289 -0.13290
#
# Static dielectric constant tensor:
#      x y z
#    x 2.023400 0.000000 0.001110 
#    y 0.000000 2.008800 0.000000 
#    z 0.001110 0.000000 2.033820 
# 
# From -- ./inp_files/60359.got.cif
#   From: 2010.05.17/outbox.cif.g08.bks.cpg/sg14_31_cif.got.tgz:60359.got - 2010.06.03 17:49:19.
