data_PCOD9252300
_publ_section_title
;
Structure prediction by ZEFSAII (Michael W. Deem and Ramdas Pophale) SiO2 
 PCOD9252300
Probable space group: P 21/C
;
_chemical_formula_sum "Si O2"
_cell_formula_units_Z 32
_cell_length_a 21.679138
_cell_length_b 9.330527
_cell_length_c 13.869898
_cell_angle_alpha 90.000000
_cell_angle_beta 151.477010
_cell_angle_gamma 90.000000
_cell_volume 1339.692569
_symmetry_space_group_name_H-M "P 21/C"
_symmetry_group_IT_number 14
_symmetry_cell_setting 'monoclinic'
loop_
_space_group_symop_operation_xyz
x,y,z
-x,1/2+y,1/2-z
-x,-y,-z
x,1/2-y,1/2+z
loop_
_atom_site_type_symbol
_atom_site_label
_atom_site_fract_x
_atom_site_fract_y
_atom_site_fract_z
Si Si1 0.175015 0.153181 0.093665
Si Si2 0.798337 0.538675 0.584108
Si Si3 0.902400 0.508458 0.015458
Si Si4 0.106497 0.570447 0.774477
Si Si5 0.539445 0.605616 0.930501
Si Si6 0.484220 0.782527 0.543525
Si Si7 0.246037 0.684246 0.343880
Si Si8 0.319038 0.171893 0.553180
O O1 0.139901 0.323416 0.036510
O O2 0.307713 0.122388 0.330263
O O3 0.200466 0.081505 0.025151
O O4 0.046973 0.072787 0.957612
O O5 0.713749 0.409142 0.507528
O O6 0.745780 0.678467 0.565173
O O7 0.946721 0.496500 0.804748
O O8 0.829451 0.422140 0.831964
O O9 0.888474 0.424674 0.099791
O O10 0.164576 0.691393 0.783874
O O11 0.201719 0.437493 0.889209
O O12 0.468904 0.713327 0.907313
O O13 0.492067 0.446445 0.890086
O O14 0.559456 0.636292 0.846835
O O15 0.359290 0.740757 0.431911
O O16 0.609017 0.690103 0.745075
#
# Coordination Sequence:
#
# PCOD9252300 Si02
#       8
#     4   4   4   4   4   4   4   4
#     4  11  23  47  76 109 153 191 245 312 382 445
#     4  11  24  42  76 106 151 194 242 311 380 446
#     4  11  24  46  71 110 160 192 243 317 385 442
#     4  11  25  45  73 112 148 190 251 309 378 450
#     4  11  25  47  74 103 148 197 243 308 367 450
#     4  11  27  48  69 108 145 195 253 298 365 440
#     4  12  26  44  75 112 146 202 254 305 377 448
#     4  12  25  47  72 106 146 194 250 307 369 446
#
# _framework density 23.886078999999999
#
# number of rings (size 3 to 8) (size 9 to 14) (size 15 to 20)
#    0.000    0.750    5.000    1.125    3.500    3.500 
#    0.000    3.125    0.000    0.000    0.000    0.000 
#    0.000    0.000    0.000    0.000    0.000    0.000 
#
# Total GULP energy -178784.219463 kJ/mol
# GULP energy per Si atom -5587.006858 kJ/mol
# Density = 2.383171 g / cm^3
# Si number density = 23.886079 Si / 1000 Ang^3
#
#
#
# Elastic Constant Matrix: (Units=GPa)
#
#
# Indices 1 2 3 4 5 6 
#
# 1 137.0665 35.2171 23.5115 0.0000 27.9136 0.0000
# 2 35.2171 63.9650 17.6618 0.0000 16.3638 0.0000
# 3 23.5115 17.6618 59.6061 0.0000 11.6317 0.0000
# 4 0.0000 0.0000 0.0000 20.5626 0.0000 -1.0508
# 5 27.9136 16.3638 11.6317 0.0000 50.5142 0.0000
# 6 0.0000 0.0000 0.0000 -1.0508 0.0000 48.5725
#
#
#
# Elastic Compliance Matrix: (Units=1/GPa)
#
#
# Indices 1 2 3 4 5 6 
#
# 1 0.009280 -0.003695 -0.001883 0.000000 -0.003498 0.000000
# 2 -0.003695 0.019563 -0.003666 0.000000 -0.003452 0.000000
# 3 -0.001883 -0.003666 0.019026 0.000000 -0.002153 0.000000
# 4 0.000000 0.000000 0.000000 0.048686 0.000000 0.001053
# 5 -0.003498 -0.003452 -0.002153 0.000000 0.023343 0.000000
# 6 0.000000 0.000000 0.000000 0.001053 0.000000 0.020611
#
#
# Mechanical properties :
#
#
# Convention : Reuss Voigt Hill
#
# Bulk Modulus (GPa) = 34.03472 45.93538 39.98505
# Shear Modulus (GPa) = 29.62261 36.21301 32.91781
#
# Velocity S-wave (km/s) = 3.52541 3.89790 3.71633
# Velocity P-wave (km/s) = 5.55438 6.28736 5.93220
#
# Compressibility (1/GPa) = 0.02938176
#
# Stress axis : x y z
#
# Youngs Moduli (GPa) = 107.75429 51.11721 52.55970
#
# Poissons Ratio (x) = 0.18886 0.09899
# Poissons Ratio (y) = 0.39812 0.19267
# Poissons Ratio (z) = 0.20293 0.18738
#
# Static dielectric constant tensor:
#      x y z
#    x 1.996290 0.000000 -0.106710 
#    y 0.000000 1.910970 0.000000 
#    z -0.106710 0.000000 2.038040 
# 
# From -- ./inp_files/51373.got.cif
#   From: 2010.05.17/outbox.cif.g08.bks.cpg/sg14_26_cif.got.tgz:51373.got - 2010.06.03 17:49:19.
