data_PCOD9252760
_publ_section_title
;
Structure prediction by ZEFSAII (Michael W. Deem and Ramdas Pophale) SiO2 
 PCOD9252760
Probable space group: P 21/C
;
_chemical_formula_sum "Si O2"
_cell_formula_units_Z 20
_cell_length_a 5.195703
_cell_length_b 11.225741
_cell_length_c 14.340368
_cell_angle_alpha 90.000000
_cell_angle_beta 89.736061
_cell_angle_gamma 90.000000
_cell_volume 836.401925
_symmetry_space_group_name_H-M "P 21/C"
_symmetry_group_IT_number 14
_symmetry_cell_setting 'monoclinic'
loop_
_space_group_symop_operation_xyz
x,y,z
-x,1/2+y,1/2-z
-x,-y,-z
x,1/2-y,1/2+z
loop_
_atom_site_type_symbol
_atom_site_label
_atom_site_fract_x
_atom_site_fract_y
_atom_site_fract_z
Si Si1 0.111005 0.555597 0.745096
Si Si2 0.241659 0.288823 0.352590
Si Si3 0.249151 0.081955 0.500224
Si Si4 0.620831 0.034800 0.159336
Si Si5 0.529449 0.290766 0.154893
O O1 0.331506 0.477350 0.697174
O O2 0.039015 0.672470 0.683733
O O3 0.840385 0.484616 0.739996
O O4 0.244929 0.326714 0.914218
O O5 0.332667 0.414107 0.400307
O O6 0.414937 0.275218 0.259457
O O7 0.249040 0.890331 0.334792
O O8 0.500000 0.000000 0.500000
O O9 0.000000 0.000000 0.500000
O O10 0.299397 0.164114 0.590854
O O11 0.645751 0.166245 0.119629
#
# Coordination Sequence:
#
# PCOD9252760 Si02
#       5
#     4   4   4   4   4
#     4   9  22  39  67 105 135 188 241 298 356 434
#     4   9  25  46  71 105 151 190 252 304 373 443
#     4  12  32  47  74 113 155 192 250 314 381 449
#     4   9  22  39  71  99 136 187 254 290 359 438
#     4  11  25  45  77 105 147 205 242 307 388 432
#
# _framework density 23.911947999999999
#
# number of rings (size 3 to 8) (size 9 to 14) (size 15 to 20)
#    1.200    0.800    0.000    0.000   16.800    0.800 
#    0.000    1.000    0.000    0.000    0.000    0.000 
#    0.000    0.000    0.000    0.000    0.000    0.000 
#
# Total GULP energy -111575.466210 kJ/mol
# GULP energy per Si atom -5578.773310 kJ/mol
# Density = 2.385752 g / cm^3
# Si number density = 23.911948 Si / 1000 Ang^3
#
#
#
# Elastic Constant Matrix: (Units=GPa)
#
#
# Indices 1 2 3 4 5 6 
#
# 1 177.1397 43.8347 31.9830 0.0000 6.3266 0.0000
# 2 43.8347 123.5015 7.7220 0.0000 17.2657 0.0000
# 3 31.9830 7.7220 38.4145 0.0000 21.0937 0.0000
# 4 0.0000 0.0000 0.0000 28.5081 0.0000 5.9237
# 5 6.3266 17.2657 21.0937 0.0000 26.6755 0.0000
# 6 0.0000 0.0000 0.0000 5.9237 0.0000 44.7607
#
#
#
# Elastic Compliance Matrix: (Units=1/GPa)
#
#
# Indices 1 2 3 4 5 6 
#
# 1 0.008190 -0.003484 -0.011117 0.000000 0.009104 0.000000
# 2 -0.003484 0.010515 0.007195 0.000000 -0.011669 0.000000
# 3 -0.011117 0.007195 0.061773 0.000000 -0.050867 0.000000
# 4 0.000000 0.000000 0.000000 0.036070 0.000000 -0.004774
# 5 0.009104 -0.011669 -0.050867 0.000000 0.083104 0.000000
# 6 0.000000 0.000000 0.000000 -0.004774 0.000000 0.022973
#
#
# Mechanical properties :
#
#
# Convention : Reuss Voigt Hill
#
# Bulk Modulus (GPa) = 15.22897 56.23725 35.73311
# Shear Modulus (GPa) = 19.28080 37.02327 28.15204
#
# Velocity S-wave (km/s) = 2.84267 3.93913 3.43493
# Velocity P-wave (km/s) = 4.14209 6.65271 5.54146
#
# Compressibility (1/GPa) = 0.06566432
#
# Stress axis : x y z
#
# Youngs Moduli (GPa) = 122.10720 95.10020 16.18839
#
# Poissons Ratio (x) = 0.33136 0.17996
# Poissons Ratio (y) = 0.42546 -0.11647
# Poissons Ratio (z) = 1.35745 -0.68421
#
# Static dielectric constant tensor:
#      x y z
#    x 1.916530 0.000000 -0.007410 
#    y 0.000000 1.933000 0.000000 
#    z -0.007410 0.000000 1.985310 
# 
# From -- ./inp_files/63196.got.cif
#   From: 2010.05.17/outbox.cif.g08.bks.cpg/sg14_32_cif.got.tgz:63196.got - 2010.06.03 17:49:19.
