data_PCOD9252324
_publ_section_title
;
Structure prediction by ZEFSAII (Michael W. Deem and Ramdas Pophale) SiO2 
 PCOD9252324
Probable space group: P 21/C
;
_chemical_formula_sum "Si O2"
_cell_formula_units_Z 28
_cell_length_a 14.868092
_cell_length_b 8.322003
_cell_length_c 22.351346
_cell_angle_alpha 90.000000
_cell_angle_beta 28.888075
_cell_angle_gamma 90.000000
_cell_volume 1336.053879
_symmetry_space_group_name_H-M "P 21/C"
_symmetry_group_IT_number 14
_symmetry_cell_setting 'monoclinic'
loop_
_space_group_symop_operation_xyz
x,y,z
-x,1/2+y,1/2-z
-x,-y,-z
x,1/2-y,1/2+z
loop_
_atom_site_type_symbol
_atom_site_label
_atom_site_fract_x
_atom_site_fract_y
_atom_site_fract_z
Si Si1 0.626225 0.632306 0.781095
Si Si2 0.345790 0.440198 0.542921
Si Si3 0.125411 0.602291 0.879661
Si Si4 0.869176 0.663909 0.223083
Si Si5 0.503341 0.230437 0.343867
Si Si6 0.181358 0.149709 0.953822
Si Si7 0.744447 0.334308 0.511696
O O1 0.725880 0.702955 0.781443
O O2 0.563542 0.449494 0.822408
O O3 0.775603 0.640750 0.641002
O O4 0.449362 0.741969 0.866063
O O5 0.500000 0.500000 0.500000
O O6 0.180617 0.370882 0.679577
O O7 0.434838 0.314104 0.444821
O O8 0.274544 0.582102 0.541932
O O9 0.159891 0.490191 0.802335
O O10 0.327800 0.663889 0.782396
O O11 0.000000 0.500000 0.000000
O O12 0.014743 0.762542 0.925052
O O13 0.079999 0.718050 0.090881
O O14 0.333086 0.236219 0.397044
O O15 0.212635 0.976884 0.966159
#
# Coordination Sequence:
#
# PCOD9252324 Si02
#       7
#     4   4   4   4   4   4   4
#     4  12  24  42  68 104 140 180 222 284 344 408
#     4  11  23  51  67  93 140 182 227 288 336 400
#     4  12  25  42  68 103 136 180 223 280 344 404
#     4  12  25  44  72  97 137 181 228 286 343 400
#     4  11  26  43  70  99 137 183 228 279 341 408
#     4  11  25  42  68 101 143 179 224 277 346 414
#     4  11  26  43  69 101 134 183 232 280 339 403
#
# _framework density 20.957238
#
# number of rings (size 3 to 8) (size 9 to 14) (size 15 to 20)
#    0.000    0.571    4.286    3.429    6.000    5.143 
#    2.571    0.000    0.000    0.000    0.000    0.000 
#    0.000    0.000    0.000    0.000    0.000    0.000 
#
# Total GULP energy -156714.992718 kJ/mol
# GULP energy per Si atom -5596.964026 kJ/mol
# Density = 2.090954 g / cm^3
# Si number density = 20.957238 Si / 1000 Ang^3
#
#
#
# Elastic Constant Matrix: (Units=GPa)
#
#
# Indices 1 2 3 4 5 6 
#
# 1 48.7371 2.6322 -1.3407 0.0000 4.9160 0.0000
# 2 2.6322 51.9050 -3.9369 0.0000 7.7868 0.0000
# 3 -1.3407 -3.9369 58.9817 0.0000 5.1365 0.0000
# 4 0.0000 0.0000 0.0000 29.9261 0.0000 -11.2835
# 5 4.9160 7.7868 5.1365 0.0000 35.7986 0.0000
# 6 0.0000 0.0000 0.0000 -11.2835 0.0000 26.1260
#
#
#
# Elastic Compliance Matrix: (Units=1/GPa)
#
#
# Indices 1 2 3 4 5 6 
#
# 1 0.020854 -0.000580 0.000682 0.000000 -0.002835 0.000000
# 2 -0.000580 0.020107 0.001724 0.000000 -0.004541 0.000000
# 3 0.000682 0.001724 0.017343 0.000000 -0.002957 0.000000
# 4 0.000000 0.000000 0.000000 0.039916 0.000000 0.017239
# 5 -0.002835 -0.004541 -0.002957 0.000000 0.029736 0.000000
# 6 0.000000 0.000000 0.000000 0.017239 0.000000 0.045721
#
#
# Mechanical properties :
#
#
# Convention : Reuss Voigt Hill
#
# Bulk Modulus (GPa) = 16.14025 17.14810 16.64417
# Shear Modulus (GPa) = 26.22236 29.18808 27.70522
#
# Velocity S-wave (km/s) = 3.54111 3.73600 3.63986
# Velocity P-wave (km/s) = 4.94343 5.17788 5.06201
#
# Compressibility (1/GPa) = 0.06195692
#
# Stress axis : x y z
#
# Youngs Moduli (GPa) = 47.95153 49.73271 57.66159
#
# Poissons Ratio (x) = 0.02887 -0.03934
# Poissons Ratio (y) = 0.02783 -0.09943
# Poissons Ratio (z) = -0.03271 -0.08576
#
# Static dielectric constant tensor:
#      x y z
#    x 1.719340 0.000000 -0.013310 
#    y 0.000000 1.765850 0.000000 
#    z -0.013310 0.000000 1.747240 
# 
# From -- ./inp_files/50138.got.cif
#   From: 2010.05.17/outbox.cif.g08.bks.cpg/sg14_26_cif.got.tgz:50138.got - 2010.06.03 17:49:19.
