data_PCOD9252777
_publ_section_title
;
Structure prediction by ZEFSAII (Michael W. Deem and Ramdas Pophale) SiO2 
 PCOD9252777
Probable space group: P 21/C
;
_chemical_formula_sum "Si O2"
_cell_formula_units_Z 20
_cell_length_a 13.541085
_cell_length_b 5.773280
_cell_length_c 22.778793
_cell_angle_alpha 90.000000
_cell_angle_beta 148.495421
_cell_angle_gamma 90.000000
_cell_volume 930.568888
_symmetry_space_group_name_H-M "P 21/C"
_symmetry_group_IT_number 14
_symmetry_cell_setting 'monoclinic'
loop_
_space_group_symop_operation_xyz
x,y,z
-x,1/2+y,1/2-z
-x,-y,-z
x,1/2-y,1/2+z
loop_
_atom_site_type_symbol
_atom_site_label
_atom_site_fract_x
_atom_site_fract_y
_atom_site_fract_z
Si Si1 0.482022 0.283230 0.808408
Si Si2 0.989608 0.485408 0.277247
Si Si3 0.428255 0.558690 0.898762
Si Si4 0.807391 0.886603 0.424417
Si Si5 0.709501 0.599955 0.479112
O O1 0.455892 0.371268 0.861581
O O2 0.635467 0.439362 0.852713
O O3 0.285321 0.267857 0.674195
O O4 0.585723 0.041381 0.870362
O O5 0.153421 0.534189 0.407597
O O6 0.956999 0.739685 0.229436
O O7 0.794451 0.408551 0.208307
O O8 0.556901 0.767197 0.941084
O O9 0.500000 0.500000 0.000000
O O10 0.837319 0.760512 0.501918
O O11 0.000000 0.000000 0.500000
#
# Coordination Sequence:
#
# PCOD9252777 Si02
#       5
#     4   4   4   4   4
#     4  11  25  46  71 102 144 188 245 305 372 441
#     4  12  28  46  74 108 146 191 247 298 369 444
#     4  11  25  47  71 103 144 189 236 307 367 439
#     4  11  26  45  70 105 141 190 249 305 372 441
#     4  11  26  45  71 101 143 190 241 301 370 437
#
# _framework density 21.492231
#
# number of rings (size 3 to 8) (size 9 to 14) (size 15 to 20)
#    0.000    0.800    4.000    1.200   11.200    2.400 
#    0.000    0.000    0.000    0.000    0.000    0.000 
#    0.000    0.000    0.000    0.000    0.000    0.000 
#
# Total GULP energy -111544.793814 kJ/mol
# GULP energy per Si atom -5577.239691 kJ/mol
# Density = 2.144331 g / cm^3
# Si number density = 21.492231 Si / 1000 Ang^3
#
#
#
# Elastic Constant Matrix: (Units=GPa)
#
#
# Indices 1 2 3 4 5 6 
#
# 1 111.8921 14.5270 32.7103 0.0000 1.4665 0.0000
# 2 14.5270 34.5204 3.3262 0.0000 -14.4608 0.0000
# 3 32.7103 3.3262 99.7399 0.0000 -12.3884 0.0000
# 4 0.0000 0.0000 0.0000 32.3397 0.0000 -4.5764
# 5 1.4665 -14.4608 -12.3884 0.0000 34.8431 0.0000
# 6 0.0000 0.0000 0.0000 -4.5764 0.0000 -40.6702
#
#
#
# Elastic Compliance Matrix: (Units=1/GPa)
#
#
# Indices 1 2 3 4 5 6 
#
# 1 0.010927 -0.006049 -0.003924 0.000000 -0.004366 0.000000
# 2 -0.006049 0.038456 0.002841 0.000000 0.017225 0.000000
# 3 -0.003924 0.002841 0.011911 0.000000 0.005579 0.000000
# 4 0.000000 0.000000 0.000000 0.030437 0.000000 -0.003425
# 5 -0.004366 0.017225 0.005579 0.000000 0.038016 0.000000
# 6 0.000000 0.000000 0.000000 -0.003425 0.000000 -0.024203
#
#
# Mechanical properties :
#
#
# Convention : Reuss Voigt Hill
#
# Bulk Modulus (GPa) = 21.26326 38.58661 29.92493
# Shear Modulus (GPa) = 36.90429 18.34177 27.62303
#
# Velocity S-wave (km/s) = 4.14828 2.92449 3.58894
# Velocity P-wave (km/s) = 5.73230 5.42183 5.57923
#
# Compressibility (1/GPa) = 0.04702948
#
# Stress axis : x y z
#
# Youngs Moduli (GPa) = 91.51739 26.00387 83.95445
#
# Poissons Ratio (x) = 0.15730 0.32944
# Poissons Ratio (y) = 0.55358 -0.23850
# Poissons Ratio (z) = 0.35912 -0.07387
#
# Static dielectric constant tensor:
#      x y z
#    x 1.643310 0.000000 -0.005460 
#    y 0.000000 1.870480 0.000000 
#    z -0.005460 0.000000 1.743460 
# 
# From -- ./inp_files/50874.got.cif
#   From: 2010.05.17/outbox.cif.g08.bks.cpg/sg14_26_cif.got.tgz:50874.got - 2010.06.03 17:49:19.
