data_PCOD9252511
_publ_section_title
;
Structure prediction by ZEFSAII (Michael W. Deem and Ramdas Pophale) SiO2 
 PCOD9252511
Probable space group: P 21/C
;
_chemical_formula_sum "Si O2"
_cell_formula_units_Z 28
_cell_length_a 5.229812
_cell_length_b 12.499258
_cell_length_c 20.396202
_cell_angle_alpha 90.000000
_cell_angle_beta 57.711889
_cell_angle_gamma 90.000000
_cell_volume 1127.113964
_symmetry_space_group_name_H-M "P 21/C"
_symmetry_group_IT_number 14
_symmetry_cell_setting 'monoclinic'
loop_
_space_group_symop_operation_xyz
x,y,z
-x,1/2+y,1/2-z
-x,-y,-z
x,1/2-y,1/2+z
loop_
_atom_site_type_symbol
_atom_site_label
_atom_site_fract_x
_atom_site_fract_y
_atom_site_fract_z
Si Si1 0.959154 0.074153 0.832333
Si Si2 0.593455 0.864168 0.885437
Si Si3 0.139457 0.748477 0.548182
Si Si4 0.150031 0.957823 0.377579
Si Si5 0.505869 0.083687 0.247068
Si Si6 0.829722 0.283112 0.224839
Si Si7 0.353671 0.394844 0.958189
O O1 0.998782 0.161066 0.883666
O O2 0.848930 0.137041 0.783094
O O3 0.736468 0.978683 0.886137
O O4 0.262642 0.011834 0.771554
O O5 0.453515 0.889607 0.834082
O O6 0.860804 0.780081 0.833085
O O7 0.359938 0.814334 0.967942
O O8 0.354981 0.829596 0.559212
O O9 0.888343 0.812886 0.541824
O O10 0.243739 0.847061 0.331527
O O11 0.824571 0.941622 0.454374
O O12 0.180218 0.042868 0.314194
O O13 0.364449 0.007788 0.404485
O O14 0.591671 0.190624 0.273025
#
# Coordination Sequence:
#
# PCOD9252511 Si02
#       7
#     4   4   4   4   4   4   4
#     4  11  27  43  73 104 146 193 250 301 376 438
#     4  11  25  45  69 102 145 194 243 301 370 438
#     4  12  27  49  74 109 153 190 252 300 371 446
#     4  11  24  48  74 105 150 185 256 299 382 435
#     4  11  26  43  73 107 139 199 247 308 373 448
#     4  11  24  45  69 106 144 191 241 314 365 441
#     4  11  28  46  77 111 143 202 237 313 370 444
#
# _framework density 24.842209
#
# number of rings (size 3 to 8) (size 9 to 14) (size 15 to 20)
#    0.000    0.857    2.857    2.143   10.000    4.000 
#    0.000    0.000    0.000    0.000    0.000    0.000 
#    0.000    0.000    0.000    0.000    0.000    0.000 
#
# Total GULP energy -156961.856181 kJ/mol
# GULP energy per Si atom -5605.780578 kJ/mol
# Density = 2.478567 g / cm^3
# Si number density = 24.842209 Si / 1000 Ang^3
#
#
#
# Elastic Constant Matrix: (Units=GPa)
#
#
# Indices 1 2 3 4 5 6 
#
# 1 84.5070 56.3835 11.4232 0.0000 -2.0808 0.0000
# 2 56.3835 152.5986 51.9870 0.0000 -7.4847 0.0000
# 3 11.4232 51.9870 104.0433 0.0000 -9.8287 0.0000
# 4 0.0000 0.0000 0.0000 45.1645 0.0000 11.6458
# 5 -2.0808 -7.4847 -9.8287 0.0000 27.0099 0.0000
# 6 0.0000 0.0000 0.0000 11.6458 0.0000 47.2911
#
#
#
# Elastic Compliance Matrix: (Units=1/GPa)
#
#
# Indices 1 2 3 4 5 6 
#
# 1 0.015880 -0.006356 0.001431 0.000000 -0.000017 0.000000
# 2 -0.006356 0.010457 -0.004453 0.000000 0.000788 0.000000
# 3 0.001431 -0.004453 0.011985 0.000000 0.003238 0.000000
# 4 0.000000 0.000000 0.000000 0.023643 0.000000 -0.005822
# 5 -0.000017 0.000788 0.003238 0.000000 0.038418 0.000000
# 6 0.000000 0.000000 0.000000 -0.005822 0.000000 0.022579
#
#
# Mechanical properties :
#
#
# Convention : Reuss Voigt Hill
#
# Bulk Modulus (GPa) = 51.10815 64.52625 57.81720
# Shear Modulus (GPa) = 33.72889 38.65013 36.18951
#
# Velocity S-wave (km/s) = 3.68873 3.94867 3.82091
# Velocity P-wave (km/s) = 6.22576 6.84253 6.54142
#
# Compressibility (1/GPa) = 0.01956635
#
# Stress axis : x y z
#
# Youngs Moduli (GPa) = 62.97188 95.62842 83.43693
#
# Poissons Ratio (x) = 0.60779 -0.11936
# Poissons Ratio (y) = 0.40023 0.37153
# Poissons Ratio (z) = -0.09009 0.42582
#
# Static dielectric constant tensor:
#      x y z
#    x 1.993800 0.000000 0.012940 
#    y 0.000000 1.958960 0.000000 
#    z 0.012940 0.000000 1.949270 
# 
# From -- ./inp_files/63424.got.cif
#   From: 2010.05.17/outbox.cif.g08.bks.cpg/sg14_32_cif.got.tgz:63424.got - 2010.06.03 17:49:19.
