data_PCOD9252740
_publ_section_title
;
Structure prediction by ZEFSAII (Michael W. Deem and Ramdas Pophale) SiO2 
 PCOD9252740
Probable space group: P 21/C
;
_chemical_formula_sum "Si O2"
_cell_formula_units_Z 28
_cell_length_a 6.222130
_cell_length_b 19.764116
_cell_length_c 11.137206
_cell_angle_alpha 90.000000
_cell_angle_beta 56.204766
_cell_angle_gamma 90.000000
_cell_volume 1138.177029
_symmetry_space_group_name_H-M "P 21/C"
_symmetry_group_IT_number 14
_symmetry_cell_setting 'monoclinic'
loop_
_space_group_symop_operation_xyz
x,y,z
-x,1/2+y,1/2-z
-x,-y,-z
x,1/2-y,1/2+z
loop_
_atom_site_type_symbol
_atom_site_label
_atom_site_fract_x
_atom_site_fract_y
_atom_site_fract_z
Si Si1 0.495772 0.431100 0.924364
Si Si2 0.021868 0.217167 0.839987
Si Si3 0.987460 0.380668 0.155645
Si Si4 0.683772 0.504974 0.263733
Si Si5 0.106396 0.836334 0.783145
Si Si6 0.813985 0.945381 0.992163
Si Si7 0.379193 0.729742 0.840778
O O1 0.408757 0.447016 0.814402
O O2 0.774064 0.395603 0.834631
O O3 0.500000 0.500000 0.000000
O O4 0.292397 0.377228 0.038782
O O5 0.325695 0.208396 0.774337
O O6 0.939167 0.146809 0.803836
O O7 0.055091 0.280128 0.735515
O O8 0.773907 0.241374 0.994476
O O9 0.923340 0.458558 0.154124
O O10 0.810636 0.332614 0.131258
O O11 0.451769 0.451168 0.354470
O O12 0.741185 0.536812 0.375980
O O13 0.339282 0.792657 0.763353
O O14 0.951851 0.873288 0.937648
O O15 0.000000 0.000000 0.000000
#
# Coordination Sequence:
#
# PCOD9252740 Si02
#       7
#     4   4   4   4   4   4   4
#     4  12  26  47  76 109 154 195 242 314 376 450
#     4  11  27  46  74 103 143 196 245 315 367 440
#     4  11  27  44  69 105 142 186 249 294 372 441
#     4  11  27  43  72 106 141 190 238 295 373 439
#     4  11  26  44  72 104 142 187 250 300 373 443
#     4  11  25  45  71 103 141 186 238 302 368 440
#     4  11  27  46  75 101 145 193 247 313 367 441
#
# _framework density 24.600743999999999
#
# number of rings (size 3 to 8) (size 9 to 14) (size 15 to 20)
#    0.000    0.857    1.429    3.000   14.000    2.286 
#    0.000    0.000    0.000    0.000    0.000    0.000 
#    0.000    0.000    0.000    0.000    0.000    0.000 
#
# Total GULP energy -156380.462993 kJ/mol
# GULP energy per Si atom -5585.016535 kJ/mol
# Density = 2.454475 g / cm^3
# Si number density = 24.600744 Si / 1000 Ang^3
#
#
#
# Elastic Constant Matrix: (Units=GPa)
#
#
# Indices 1 2 3 4 5 6 
#
# 1 65.9448 8.1187 8.0802 0.0000 -4.8300 0.0000
# 2 8.1187 77.3837 2.7243 0.0000 5.3297 0.0000
# 3 8.0802 2.7243 80.6608 0.0000 -9.3890 0.0000
# 4 0.0000 0.0000 0.0000 55.7931 0.0000 -5.4530
# 5 -4.8300 5.3297 -9.3890 0.0000 44.2240 0.0000
# 6 0.0000 0.0000 0.0000 -5.4530 0.0000 30.2034
#
#
#
# Elastic Compliance Matrix: (Units=1/GPa)
#
#
# Indices 1 2 3 4 5 6 
#
# 1 0.015656 -0.001709 -0.001320 0.000000 0.001636 0.000000
# 2 -0.001709 0.013249 -0.000496 0.000000 -0.001889 0.000000
# 3 -0.001320 -0.000496 0.012854 0.000000 0.002645 0.000000
# 4 0.000000 0.000000 0.000000 0.018245 0.000000 0.003294
# 5 0.001636 -0.001889 0.002645 0.000000 0.023580 0.000000
# 6 0.000000 0.000000 0.000000 0.003294 0.000000 0.033704
#
#
# Mechanical properties :
#
#
# Convention : Reuss Voigt Hill
#
# Bulk Modulus (GPa) = 28.81039 29.09284 28.95162
# Shear Modulus (GPa) = 36.78932 39.71517 38.25225
#
# Velocity S-wave (km/s) = 3.87131 4.02231 3.94753
# Velocity P-wave (km/s) = 5.63199 5.78131 5.70714
#
# Compressibility (1/GPa) = 0.03470970
#
# Stress axis : x y z
#
# Youngs Moduli (GPa) = 63.87277 75.47492 77.79404
#
# Poissons Ratio (x) = 0.12897 0.10271
# Poissons Ratio (y) = 0.10914 0.03860
# Poissons Ratio (z) = 0.08433 0.03745
#
# Static dielectric constant tensor:
#      x y z
#    x 2.028410 0.000000 0.042370 
#    y 0.000000 1.929240 0.000000 
#    z 0.042370 0.000000 1.974460 
# 
# From -- ./inp_files/21688.got.cif
#   From: 2010.05.17/outbox.cif.g08.bks.cpg/sg14_11_cif.got.tgz:21688.got - 2010.06.03 17:49:19.
