data_PCOD9252825
_publ_section_title
;
Structure prediction by ZEFSAII (Michael W. Deem and Ramdas Pophale) SiO2 
 PCOD9252825
Probable space group: P 21/C
;
_chemical_formula_sum "Si O2"
_cell_formula_units_Z 24
_cell_length_a 7.076151
_cell_length_b 18.168750
_cell_length_c 7.275457
_cell_angle_alpha 90.000000
_cell_angle_beta 73.528423
_cell_angle_gamma 90.000000
_cell_volume 896.980791
_symmetry_space_group_name_H-M "P 21/C"
_symmetry_group_IT_number 14
_symmetry_cell_setting 'monoclinic'
loop_
_space_group_symop_operation_xyz
x,y,z
-x,1/2+y,1/2-z
-x,-y,-z
x,1/2-y,1/2+z
loop_
_atom_site_type_symbol
_atom_site_label
_atom_site_fract_x
_atom_site_fract_y
_atom_site_fract_z
Si Si1 0.557590 0.414219 0.165077
Si Si2 0.365816 0.304673 0.924908
Si Si3 0.839462 0.942660 0.289466
Si Si4 0.974672 0.686961 0.477996
Si Si5 0.010194 0.584729 0.131181
Si Si6 0.409535 0.670025 0.492781
O O1 0.379553 0.473004 0.198691
O O2 0.596152 0.398222 0.367615
O O3 0.441618 0.351882 0.077673
O O4 0.771485 0.418413 0.016267
O O5 0.156631 0.260787 0.990886
O O6 0.508702 0.233815 0.900846
O O7 0.015993 0.348051 0.726198
O O8 0.891959 0.876925 0.136050
O O9 0.863313 0.916324 0.497403
O O10 0.993676 0.010279 0.246293
O O11 0.562136 0.658930 0.284869
O O12 0.198219 0.695810 0.480405
#
# Coordination Sequence:
#
# PCOD9252825 Si02
#       6
#     4   4   4   4   4   4
#     4  12  25  48  71 105 148 191 244 304 372 437
#     4  12  27  44  69 107 145 197 243 294 373 444
#     4  11  25  47  75 111 146 197 246 301 372 435
#     4  12  26  46  75 104 149 195 243 309 365 440
#     4  11  26  47  76 108 149 193 251 306 362 441
#     4  12  25  46  68 105 146 186 245 298 366 437
#
# _framework density 26.756426999999999
#
# number of rings (size 3 to 8) (size 9 to 14) (size 15 to 20)
#    0.000    0.333    6.667    1.000    2.333    5.333 
#    0.000    0.833    0.000    0.000    0.000    0.000 
#    0.000    0.000    0.000    0.000    0.000    0.000 
#
# Total GULP energy -134388.829788 kJ/mol
# GULP energy per Si atom -5599.534574 kJ/mol
# Density = 2.669553 g / cm^3
# Si number density = 26.756427 Si / 1000 Ang^3
#
#
#
# Elastic Constant Matrix: (Units=GPa)
#
#
# Indices 1 2 3 4 5 6 
#
# 1 188.7452 10.0195 39.1691 0.0000 18.7852 0.0000
# 2 10.0195 62.6242 42.7594 0.0000 6.8114 0.0000
# 3 39.1691 42.7594 149.7598 0.0000 -0.6390 0.0000
# 4 0.0000 0.0000 0.0000 40.4497 0.0000 6.6684
# 5 18.7852 6.8114 -0.6390 0.0000 43.2208 0.0000
# 6 0.0000 0.0000 0.0000 6.6684 0.0000 30.3332
#
#
#
# Elastic Compliance Matrix: (Units=1/GPa)
#
#
# Indices 1 2 3 4 5 6 
#
# 1 0.005888 0.000506 -0.001696 0.000000 -0.002664 0.000000
# 2 0.000506 0.020334 -0.005953 0.000000 -0.003512 0.000000
# 3 -0.001696 -0.005953 0.008828 0.000000 0.001806 0.000000
# 4 0.000000 0.000000 0.000000 0.025652 0.000000 -0.005639
# 5 -0.002664 -0.003512 0.001806 0.000000 0.024875 0.000000
# 6 0.000000 0.000000 0.000000 -0.005639 0.000000 0.034207
#
#
# Mechanical properties :
#
#
# Convention : Reuss Voigt Hill
#
# Bulk Modulus (GPa) = 48.15977 65.00281 56.58129
# Shear Modulus (GPa) = 35.46293 43.41282 39.43788
#
# Velocity S-wave (km/s) = 3.64455 4.03242 3.84338
# Velocity P-wave (km/s) = 5.97903 6.78436 6.39439
#
# Compressibility (1/GPa) = 0.02076422
#
# Stress axis : x y z
#
# Youngs Moduli (GPa) = 169.82635 49.17860 113.27238
#
# Poissons Ratio (x) = -0.02486 0.19209
# Poissons Ratio (y) = -0.08585 0.67431
# Poissons Ratio (z) = 0.28799 0.29276
#
# Static dielectric constant tensor:
#      x y z
#    x 2.131860 0.000000 -0.063810 
#    y 0.000000 2.466390 0.000000 
#    z -0.063810 0.000000 2.091360 
# 
# From -- ./inp_files/21386.got.cif
#   From: 2010.05.17/outbox.cif.g08.bks.cpg/sg14_11_cif.got.tgz:21386.got - 2010.06.03 17:49:19.
