data_PCOD9252930
_publ_section_title
;
Structure prediction by ZEFSAII (Michael W. Deem and Ramdas Pophale) SiO2 
 PCOD9252930
Probable space group: P 21/C
;
_chemical_formula_sum "Si O2"
_cell_formula_units_Z 20
_cell_length_a 17.237158
_cell_length_b 8.709688
_cell_length_c 13.687100
_cell_angle_alpha 90.000000
_cell_angle_beta 157.692668
_cell_angle_gamma 90.000000
_cell_volume 779.968009
_symmetry_space_group_name_H-M "P 21/C"
_symmetry_group_IT_number 14
_symmetry_cell_setting 'monoclinic'
loop_
_space_group_symop_operation_xyz
x,y,z
-x,1/2+y,1/2-z
-x,-y,-z
x,1/2-y,1/2+z
loop_
_atom_site_type_symbol
_atom_site_label
_atom_site_fract_x
_atom_site_fract_y
_atom_site_fract_z
Si Si1 0.205429 0.907876 0.108273
Si Si2 0.983076 0.628007 0.064804
Si Si3 0.224592 0.389844 0.803559
Si Si4 0.395224 0.573939 0.639187
Si Si5 0.645313 0.059127 0.256808
O O1 0.708686 0.029809 0.688822
O O2 0.280084 0.998142 0.099260
O O3 0.270708 0.730730 0.166497
O O4 0.964661 0.924410 0.846725
O O5 0.210401 0.661876 0.369160
O O6 0.000000 0.500000 0.000000
O O7 0.864042 0.766514 0.875713
O O8 0.841242 0.552806 0.981758
O O9 0.415544 0.340188 0.089521
O O10 0.511822 0.469005 0.697524
O O11 0.500000 0.000000 0.000000
#
# Coordination Sequence:
#
# PCOD9252930 Si02
#       5
#     4   4   4   4   4
#     4  11  26  48  76 115 158 205 269 329 395 480
#     4  12  25  50  76 114 158 206 271 325 391 487
#     4  11  26  53  76 114 160 208 269 329 397 486
#     4  12  27  45  80 114 161 214 257 329 408 467
#     4  12  25  47  76 113 158 212 265 331 401 478
#
# _framework density 25.642077
#
# number of rings (size 3 to 8) (size 9 to 14) (size 15 to 20)
#    0.000    0.400    4.000    3.000    0.000    8.000 
#    0.000    0.000    0.000    0.000    0.000    0.000 
#    0.000    0.000    0.000    0.000    0.000    0.000 
#
# Total GULP energy -111925.997434 kJ/mol
# GULP energy per Si atom -5596.299872 kJ/mol
# Density = 2.558371 g / cm^3
# Si number density = 25.642077 Si / 1000 Ang^3
#
#
#
# Elastic Constant Matrix: (Units=GPa)
#
#
# Indices 1 2 3 4 5 6 
#
# 1 236.3557 72.0365 66.2601 0.0000 33.0570 0.0000
# 2 72.0365 103.2696 55.0880 0.0000 0.8516 0.0000
# 3 66.2601 55.0880 227.8807 0.0000 -14.4853 0.0000
# 4 0.0000 0.0000 0.0000 18.2422 0.0000 11.0194
# 5 33.0570 0.8516 -14.4853 0.0000 57.9508 0.0000
# 6 0.0000 0.0000 0.0000 11.0194 0.0000 29.5122
#
#
#
# Elastic Compliance Matrix: (Units=1/GPa)
#
#
# Indices 1 2 3 4 5 6 
#
# 1 0.006204 -0.003681 -0.001154 0.000000 -0.003773 0.000000
# 2 -0.003681 0.013342 -0.002067 0.000000 0.001387 0.000000
# 3 -0.001154 -0.002067 0.005352 0.000000 0.002026 0.000000
# 4 0.000000 0.000000 0.000000 0.070783 0.000000 -0.026429
# 5 -0.003773 0.001387 0.002026 0.000000 0.019895 0.000000
# 6 0.000000 0.000000 0.000000 -0.026429 0.000000 0.043753
#
#
# Mechanical properties :
#
#
# Convention : Reuss Voigt Hill
#
# Bulk Modulus (GPa) = 90.13164 106.03057 98.08111
# Shear Modulus (GPa) = 28.27569 46.08245 37.17907
#
# Velocity S-wave (km/s) = 3.32431 4.24387 3.81192
# Velocity P-wave (km/s) = 7.06830 8.09036 7.59654
#
# Compressibility (1/GPa) = 0.01109488
#
# Stress axis : x y z
#
# Youngs Moduli (GPa) = 161.18507 74.95000 186.83746
#
# Poissons Ratio (x) = 0.27589 0.21560
# Poissons Ratio (y) = 0.59332 0.38617
# Poissons Ratio (z) = 0.18600 0.15491
#
# Static dielectric constant tensor:
#      x y z
#    x 2.362740 0.000000 -0.413030 
#    y 0.000000 2.121350 0.000000 
#    z -0.413030 0.000000 2.560750 
# 
# From -- ./inp_files/48829.got.cif
#   From: 2010.05.17/outbox.cif.g08.bks.cpg/sg14_25_cif.got.tgz:48829.got - 2010.06.03 17:49:19.
