data_PCOD9252212
_publ_section_title
;
Structure prediction by ZEFSAII (Michael W. Deem and Ramdas Pophale) SiO2 
 PCOD9252212
Probable space group: P 21/C
;
_chemical_formula_sum "Si O2"
_cell_formula_units_Z 24
_cell_length_a 15.517947
_cell_length_b 8.865022
_cell_length_c 13.265841
_cell_angle_alpha 90.000000
_cell_angle_beta 148.677526
_cell_angle_gamma 90.000000
_cell_volume 948.703387
_symmetry_space_group_name_H-M "P 21/C"
_symmetry_group_IT_number 14
_symmetry_cell_setting 'monoclinic'
loop_
_space_group_symop_operation_xyz
x,y,z
-x,1/2+y,1/2-z
-x,-y,-z
x,1/2-y,1/2+z
loop_
_atom_site_type_symbol
_atom_site_label
_atom_site_fract_x
_atom_site_fract_y
_atom_site_fract_z
Si Si1 0.975065 0.101861 0.732001
Si Si2 0.287095 0.637692 0.200677
Si Si3 0.528754 0.762675 0.698111
Si Si4 0.817539 0.845515 0.631332
Si Si5 0.650173 0.629045 0.608336
Si Si6 0.690339 0.072891 0.885702
O O1 0.866116 0.015620 0.706591
O O2 0.028139 0.274807 0.777046
O O3 0.155604 0.026006 0.922861
O O4 0.855836 0.077717 0.516392
O O5 0.484801 0.610100 0.374195
O O6 0.272807 0.531687 0.284536
O O7 0.274811 0.818958 0.176167
O O8 0.575303 0.707560 0.633076
O O9 0.362847 0.693406 0.581194
O O10 0.554884 0.943148 0.725727
O O11 0.662629 0.681806 0.904671
O O12 0.781533 0.740162 0.690382
#
# Coordination Sequence:
#
# PCOD9252212 Si02
#       6
#     4   4   4   4   4   4
#     4  11  24  44  71 103 146 187 234 299 362 420
#     4  11  23  45  70 106 140 187 247 286 362 430
#     4  11  24  45  72 104 141 188 248 291 357 431
#     4  11  24  45  70 104 143 191 241 295 363 430
#     4  11  25  44  74 104 141 194 241 302 352 436
#     4  11  24  45  74 105 146 198 235 303 358 424
#
# _framework density 25.297684
#
# number of rings (size 3 to 8) (size 9 to 14) (size 15 to 20)
#    0.000    1.000    5.000    1.000    7.000    1.333 
#    0.000    5.000    0.000    0.000    0.000    0.000 
#    0.000    0.000    0.000    0.000    0.000    0.000 
#
# Total GULP energy -133825.837686 kJ/mol
# GULP energy per Si atom -5576.076570 kJ/mol
# Density = 2.524011 g / cm^3
# Si number density = 25.297684 Si / 1000 Ang^3
#
#
#
# Elastic Constant Matrix: (Units=GPa)
#
#
# Indices 1 2 3 4 5 6 
#
# 1 68.3512 30.9543 -1.7774 0.0000 -7.0564 0.0000
# 2 30.9543 131.9761 21.6786 0.0000 -4.8194 0.0000
# 3 -1.7774 21.6786 84.8178 0.0000 2.1376 0.0000
# 4 0.0000 0.0000 0.0000 52.9677 0.0000 6.0175
# 5 -7.0564 -4.8194 2.1376 0.0000 27.5534 0.0000
# 6 0.0000 0.0000 0.0000 6.0175 0.0000 41.7061
#
#
#
# Elastic Compliance Matrix: (Units=1/GPa)
#
#
# Indices 1 2 3 4 5 6 
#
# 1 0.016855 -0.004038 0.001297 0.000000 0.003510 0.000000
# 2 -0.004038 0.008943 -0.002388 0.000000 0.000715 0.000000
# 3 0.001297 -0.002388 0.012454 0.000000 -0.001052 0.000000
# 4 0.000000 0.000000 0.000000 0.019194 0.000000 -0.002769
# 5 0.003510 0.000715 -0.001052 0.000000 0.037399 0.000000
# 6 0.000000 0.000000 0.000000 -0.002769 0.000000 0.024377
#
#
# Mechanical properties :
#
#
# Convention : Reuss Voigt Hill
#
# Bulk Modulus (GPa) = 35.72358 42.98402 39.35380
# Shear Modulus (GPa) = 36.02005 40.06476 38.04241
#
# Velocity S-wave (km/s) = 3.77748 3.98393 3.88208
# Velocity P-wave (km/s) = 5.76002 6.17984 5.97362
#
# Compressibility (1/GPa) = 0.02799272
#
# Stress axis : x y z
#
# Youngs Moduli (GPa) = 59.32912 111.82322 80.29490
#
# Poissons Ratio (x) = 0.45156 -0.10413
# Poissons Ratio (y) = 0.23958 0.19177
# Poissons Ratio (z) = -0.07694 0.26707
#
# Static dielectric constant tensor:
#      x y z
#    x 2.118280 0.000000 0.036080 
#    y 0.000000 2.076330 0.000000 
#    z 0.036080 0.000000 2.014210 
# 
# From -- ./inp_files/48643.got.cif
#   From: 2010.05.17/outbox.cif.g08.bks.cpg/sg14_25_cif.got.tgz:48643.got - 2010.06.03 17:49:19.
