data_PCOD9252929
_publ_section_title
;
Structure prediction by ZEFSAII (Michael W. Deem and Ramdas Pophale) SiO2 
 PCOD9252929
Probable space group: P 21/C
;
_chemical_formula_sum "Si O2"
_cell_formula_units_Z 24
_cell_length_a 13.782792
_cell_length_b 14.032199
_cell_length_c 6.817845
_cell_angle_alpha 90.000000
_cell_angle_beta 43.633788
_cell_angle_gamma 90.000000
_cell_volume 909.888976
_symmetry_space_group_name_H-M "P 21/C"
_symmetry_group_IT_number 14
_symmetry_cell_setting 'monoclinic'
loop_
_space_group_symop_operation_xyz
x,y,z
-x,1/2+y,1/2-z
-x,-y,-z
x,1/2-y,1/2+z
loop_
_atom_site_type_symbol
_atom_site_label
_atom_site_fract_x
_atom_site_fract_y
_atom_site_fract_z
Si Si1 0.073918 0.972825 0.591353
Si Si2 0.377124 0.094936 0.603815
Si Si3 0.625634 0.262478 0.702129
Si Si4 0.503726 0.063769 0.804831
Si Si5 0.159651 0.730547 0.869294
Si Si6 0.893683 0.860551 0.179097
O O1 0.169856 0.882465 0.402664
O O2 0.968002 0.926266 0.904687
O O3 0.000000 0.000000 0.500000
O O4 0.132950 0.068847 0.599689
O O5 0.525806 0.145224 0.340360
O O6 0.375899 0.074122 0.837676
O O7 0.255223 0.162467 0.700023
O O8 0.376687 0.991647 0.499113
O O9 0.667181 0.239506 0.392535
O O10 0.532994 0.167337 0.842776
O O11 0.500000 0.000000 0.000000
O O12 0.192318 0.770202 0.066600
O O13 0.004459 0.778855 0.075722
#
# Coordination Sequence:
#
# PCOD9252929 Si02
#       6
#     4   4   4   4   4   4
#     4  11  26  48  77 112 150 204 251 312 388 454
#     4  11  27  48  75 114 155 196 254 327 378 443
#     4  12  24  48  78 106 150 204 255 306 380 461
#     4  11  26  48  76 110 150 202 254 310 384 456
#     4  12  24  48  77 106 151 204 251 311 383 458
#     4  11  27  48  75 114 158 191 258 324 376 454
#
# _framework density 26.376843000000001
#
# number of rings (size 3 to 8) (size 9 to 14) (size 15 to 20)
#    0.000    0.667    3.333    3.000    2.333    6.667 
#    0.000    0.000    0.000    0.000    0.000    0.000 
#    0.000    0.000    0.000    0.000    0.000    0.000 
#
# Total GULP energy -134118.811989 kJ/mol
# GULP energy per Si atom -5588.283833 kJ/mol
# Density = 2.631681 g / cm^3
# Si number density = 26.376843 Si / 1000 Ang^3
#
#
#
# Elastic Constant Matrix: (Units=GPa)
#
#
# Indices 1 2 3 4 5 6 
#
# 1 185.2730 12.7456 39.0777 0.0000 23.2069 0.0000
# 2 12.7456 97.2473 16.3869 0.0000 -5.5683 0.0000
# 3 39.0777 16.3869 109.5545 0.0000 37.7907 0.0000
# 4 0.0000 0.0000 0.0000 48.8646 0.0000 15.4522
# 5 23.2069 -5.5683 37.7907 0.0000 54.1639 0.0000
# 6 0.0000 0.0000 0.0000 15.4522 0.0000 41.0102
#
#
#
# Elastic Compliance Matrix: (Units=1/GPa)
#
#
# Indices 1 2 3 4 5 6 
#
# 1 0.005951 -0.000620 -0.001486 0.000000 -0.001577 0.000000
# 2 -0.000620 0.010966 -0.002502 0.000000 0.003138 0.000000
# 3 -0.001486 -0.002502 0.013040 0.000000 -0.008718 0.000000
# 4 0.000000 0.000000 0.000000 0.023233 0.000000 -0.008754
# 5 -0.001577 0.003138 -0.008718 0.000000 0.025543 0.000000
# 6 0.000000 0.000000 0.000000 -0.008754 0.000000 0.027683
#
#
# Mechanical properties :
#
#
# Convention : Reuss Voigt Hill
#
# Bulk Modulus (GPa) = 48.21414 58.72167 53.46791
# Shear Modulus (GPa) = 40.80175 50.39873 45.60024
#
# Velocity S-wave (km/s) = 3.93730 4.37592 4.16239
# Velocity P-wave (km/s) = 6.24407 6.91683 6.58904
#
# Compressibility (1/GPa) = 0.02074080
#
# Stress axis : x y z
#
# Youngs Moduli (GPa) = 168.03852 91.19478 76.68993
#
# Poissons Ratio (x) = 0.05652 0.11397
# Poissons Ratio (y) = 0.10415 0.19185
# Poissons Ratio (z) = 0.24973 0.22814
#
# Static dielectric constant tensor:
#      x y z
#    x 2.185000 0.000000 0.088430 
#    y 0.000000 1.988870 0.000000 
#    z 0.088430 0.000000 2.279610 
# 
# From -- ./inp_files/3548.got.cif
#   From: 2010.05.17/outbox.cif.g08.bks.cpg/sg14_2_cif.got.tgz:3548.got - 2010.06.03 17:49:19.
