data_PCOD9252779
_publ_section_title
;
Structure prediction by ZEFSAII (Michael W. Deem and Ramdas Pophale) SiO2 
 PCOD9252779
Probable space group: P 21/C
;
_chemical_formula_sum "Si O2"
_cell_formula_units_Z 24
_cell_length_a 16.180527
_cell_length_b 12.070733
_cell_length_c 9.410787
_cell_angle_alpha 90.000000
_cell_angle_beta 31.926824
_cell_angle_gamma 90.000000
_cell_volume 972.015177
_symmetry_space_group_name_H-M "P 21/C"
_symmetry_group_IT_number 14
_symmetry_cell_setting 'monoclinic'
loop_
_space_group_symop_operation_xyz
x,y,z
-x,1/2+y,1/2-z
-x,-y,-z
x,1/2-y,1/2+z
loop_
_atom_site_type_symbol
_atom_site_label
_atom_site_fract_x
_atom_site_fract_y
_atom_site_fract_z
Si Si1 0.632414 0.928792 0.497271
Si Si2 0.690038 0.004516 0.092658
Si Si3 0.002609 0.571256 0.765424
Si Si4 0.205893 0.309014 0.722162
Si Si5 0.136474 0.736550 0.881573
Si Si6 0.782942 0.104204 0.481838
O O1 0.674193 0.982640 0.283653
O O2 0.724649 0.813536 0.370292
O O3 0.445912 0.915153 0.759904
O O4 0.674007 0.014119 0.563342
O O5 0.674503 0.888116 0.033983
O O6 0.867710 0.041221 0.805618
O O7 0.945832 0.463703 0.762558
O O8 0.098309 0.655280 0.530284
O O9 0.849225 0.632599 0.050899
O O10 0.040280 0.305658 0.883301
O O11 0.239702 0.653462 0.826605
O O12 0.201738 0.789525 0.642238
#
# Coordination Sequence:
#
# PCOD9252779 Si02
#       6
#     4   4   4   4   4   4
#     4  11  26  48  72 104 155 195 238 305 382 434
#     4  11  25  46  71 105 151 198 240 304 369 450
#     4  12  23  42  75 107 143 193 258 303 356 440
#     4  12  24  43  75 110 144 197 248 306 369 439
#     4  12  23  40  75 108 145 189 253 303 359 428
#     4  12  25  44  72 108 144 196 247 310 360 436
#
# _framework density 24.690973
#
# number of rings (size 3 to 8) (size 9 to 14) (size 15 to 20)
#    0.000    0.333    6.667    3.000    0.000    1.333 
#    0.000    0.833    0.000    0.000    0.000    0.000 
#    0.000    0.000    0.000    0.000    0.000    0.000 
#
# Total GULP energy -134212.741739 kJ/mol
# GULP energy per Si atom -5592.197572 kJ/mol
# Density = 2.463478 g / cm^3
# Si number density = 24.690973 Si / 1000 Ang^3
#
#
#
# Elastic Constant Matrix: (Units=GPa)
#
#
# Indices 1 2 3 4 5 6 
#
# 1 130.8910 55.3404 58.2806 0.0000 -4.2342 0.0000
# 2 55.3404 117.9396 58.0999 0.0000 -11.2571 0.0000
# 3 58.2806 58.0999 68.2936 0.0000 -10.8640 0.0000
# 4 0.0000 0.0000 0.0000 33.3085 0.0000 5.7795
# 5 -4.2342 -11.2571 -10.8640 0.0000 36.5785 0.0000
# 6 0.0000 0.0000 0.0000 5.7795 0.0000 37.1311
#
#
#
# Elastic Compliance Matrix: (Units=1/GPa)
#
#
# Indices 1 2 3 4 5 6 
#
# 1 0.012517 -0.001107 -0.010038 0.000000 -0.001873 0.000000
# 2 -0.001107 0.014719 -0.011416 0.000000 0.001011 0.000000
# 3 -0.010038 -0.011416 0.033773 0.000000 0.005355 0.000000
# 4 0.000000 0.000000 0.000000 0.030856 0.000000 -0.004803
# 5 -0.001873 0.001011 0.005355 0.000000 0.029023 0.000000
# 6 0.000000 0.000000 0.000000 -0.004803 0.000000 0.027679
#
#
# Mechanical properties :
#
#
# Convention : Reuss Voigt Hill
#
# Bulk Modulus (GPa) = 62.94737 73.39621 68.17179
# Shear Modulus (GPa) = 25.12763 31.09719 28.11241
#
# Velocity S-wave (km/s) = 3.19358 3.55273 3.37793
# Velocity P-wave (km/s) = 6.25684 6.82786 6.54858
#
# Compressibility (1/GPa) = 0.01588629
#
# Stress axis : x y z
#
# Youngs Moduli (GPa) = 79.89218 67.94028 29.60970
#
# Poissons Ratio (x) = 0.07522 0.29721
# Poissons Ratio (y) = 0.08846 0.33803
# Poissons Ratio (z) = 0.80193 0.77562
#
# Static dielectric constant tensor:
#      x y z
#    x 2.007660 0.000000 0.014560 
#    y 0.000000 2.024330 0.000000 
#    z 0.014560 0.000000 1.935670 
# 
# From -- ./inp_files/33847.got.cif
#   From: 2010.05.17/outbox.cif.g08.bks.cpg/sg14_17_cif.got.tgz:33847.got - 2010.06.03 17:49:19.
