data_PCOD9252157
_publ_section_title
;
Structure prediction by ZEFSAII (Michael W. Deem and Ramdas Pophale) SiO2 
 PCOD9252157
Probable space group: P 21/C
;
_chemical_formula_sum "Si O2"
_cell_formula_units_Z 32
_cell_length_a 13.022648
_cell_length_b 11.655680
_cell_length_c 9.445324
_cell_angle_alpha 90.000000
_cell_angle_beta 98.726044
_cell_angle_gamma 90.000000
_cell_volume 1417.090254
_symmetry_space_group_name_H-M "P 21/C"
_symmetry_group_IT_number 14
_symmetry_cell_setting 'monoclinic'
loop_
_space_group_symop_operation_xyz
x,y,z
-x,1/2+y,1/2-z
-x,-y,-z
x,1/2-y,1/2+z
loop_
_atom_site_type_symbol
_atom_site_label
_atom_site_fract_x
_atom_site_fract_y
_atom_site_fract_z
Si Si1 0.134911 0.612859 0.139202
Si Si2 0.393773 0.024862 0.555194
Si Si3 0.718255 0.731648 0.471960
Si Si4 0.923431 0.301818 0.182127
Si Si5 0.153673 0.348122 0.229063
Si Si6 0.344532 0.627511 0.292849
Si Si7 0.388401 0.999607 0.057954
Si Si8 0.694400 0.371283 0.191586
O O1 0.084514 0.668809 0.269739
O O2 0.153390 0.477057 0.163364
O O3 0.251582 0.661075 0.168624
O O4 0.082586 0.659233 0.984521
O O5 0.354256 0.155095 0.551305
O O6 0.500000 0.000000 0.500000
O O7 0.407474 0.959779 0.707873
O O8 0.313041 0.960858 0.436981
O O9 0.815400 0.762519 0.391940
O O10 0.764967 0.690216 0.632323
O O11 0.646989 0.626198 0.407852
O O12 0.819580 0.355914 0.230512
O O13 0.036316 0.337401 0.258972
O O14 0.313214 0.553325 0.421455
O O15 0.368571 0.753321 0.358106
O O16 0.500000 0.000000 0.000000
O O17 0.367407 0.920201 0.187392
#
# Coordination Sequence:
#
# PCOD9252157 Si02
#       8
#     4   4   4   4   4   4   4   4
#     4  11  23  45  68 102 144 183 241 311 357 437
#     4  12  25  46  72 104 139 196 241 294 372 444
#     4  12  26  46  72 103 151 184 240 305 372 436
#     4  11  25  43  75 103 141 199 245 299 379 436
#     4  12  25  47  71 105 146 190 241 307 374 445
#     4  11  23  44  68  98 141 178 235 304 353 419
#     4  12  27  46  69 105 143 192 242 302 367 444
#     4  11  25  43  72 100 142 185 245 297 360 429
#
# _framework density 22.581484
#
# number of rings (size 3 to 8) (size 9 to 14) (size 15 to 20)
#    0.000    0.500    3.750    3.375    8.750    2.000 
#    0.000    1.875    0.000    0.000    0.000    0.000 
#    0.000    0.000    0.000    0.000    0.000    0.000 
#
# Total GULP energy -178235.784568 kJ/mol
# GULP energy per Si atom -5569.868268 kJ/mol
# Density = 2.253009 g / cm^3
# Si number density = 22.581484 Si / 1000 Ang^3
#
#
#
# Elastic Constant Matrix: (Units=GPa)
#
#
# Indices 1 2 3 4 5 6 
#
# 1 92.3141 24.8498 -1.4135 0.0000 -11.6498 0.0000
# 2 24.8498 164.3432 37.1148 0.0000 -21.7074 0.0000
# 3 -1.4135 37.1148 80.9615 0.0000 -16.0649 0.0000
# 4 0.0000 0.0000 0.0000 35.6123 0.0000 -15.1971
# 5 -11.6498 -21.7074 -16.0649 0.0000 27.9465 0.0000
# 6 0.0000 0.0000 0.0000 -15.1971 0.0000 22.6276
#
#
#
# Elastic Compliance Matrix: (Units=1/GPa)
#
#
# Indices 1 2 3 4 5 6 
#
# 1 0.011897 -0.001591 0.001892 0.000000 0.004811 0.000000
# 2 -0.001591 0.007406 -0.002724 0.000000 0.003524 0.000000
# 3 0.001892 -0.002724 0.015091 0.000000 0.007348 0.000000
# 4 0.000000 0.000000 0.000000 0.039361 0.000000 0.026436
# 5 0.004811 0.003524 0.007348 0.000000 0.044749 0.000000
# 6 0.000000 0.000000 0.000000 0.026436 0.000000 0.061948
#
#
# Mechanical properties :
#
#
# Convention : Reuss Voigt Hill
#
# Bulk Modulus (GPa) = 33.84246 50.96901 42.40573
# Shear Modulus (GPa) = 25.62161 35.70847 30.66504
#
# Velocity S-wave (km/s) = 3.37208 3.98089 3.68907
# Velocity P-wave (km/s) = 5.49369 6.61439 6.07991
#
# Compressibility (1/GPa) = 0.02954868
#
# Stress axis : x y z
#
# Youngs Moduli (GPa) = 84.05569 135.02810 66.26381
#
# Poissons Ratio (x) = 0.21477 -0.12534
# Poissons Ratio (y) = 0.13370 0.18048
# Poissons Ratio (z) = -0.15899 0.36776
#
# Static dielectric constant tensor:
#      x y z
#    x 1.933840 0.000000 0.039180 
#    y 0.000000 2.117210 0.000000 
#    z 0.039180 0.000000 1.910460 
# 
# From -- ./inp_files/15826.got.cif
#   From: 2010.05.17/outbox.cif.g08.bks.cpg/sg14_8_cif.got.tgz:15826.got - 2010.06.03 17:49:19.
