data_PCOD9252920
_publ_section_title
;
Structure prediction by ZEFSAII (Michael W. Deem and Ramdas Pophale) SiO2 
 PCOD9252920
Probable space group: P 21/C
;
_chemical_formula_sum "Si O2"
_cell_formula_units_Z 20
_cell_length_a 7.674646
_cell_length_b 10.349369
_cell_length_c 10.859858
_cell_angle_alpha 90.000000
_cell_angle_beta 81.892702
_cell_angle_gamma 90.000000
_cell_volume 853.953193
_symmetry_space_group_name_H-M "P 21/C"
_symmetry_group_IT_number 14
_symmetry_cell_setting 'monoclinic'
loop_
_space_group_symop_operation_xyz
x,y,z
-x,1/2+y,1/2-z
-x,-y,-z
x,1/2-y,1/2+z
loop_
_atom_site_type_symbol
_atom_site_label
_atom_site_fract_x
_atom_site_fract_y
_atom_site_fract_z
Si Si1 0.515366 0.257416 0.686825
Si Si2 0.858112 0.321595 0.504413
Si Si3 0.031519 0.567826 0.126847
Si Si4 0.195491 0.086486 0.122113
Si Si5 0.580633 0.486299 0.855444
O O1 0.700712 0.262199 0.598760
O O2 0.525677 0.350837 0.802625
O O3 0.478018 0.108748 0.718834
O O4 0.361581 0.318699 0.616217
O O5 0.923948 0.218421 0.398287
O O6 0.782795 0.452919 0.453236
O O7 0.026824 0.349013 0.572906
O O8 0.208601 0.507677 0.163849
O O9 0.868834 0.553580 0.233732
O O10 0.000000 0.500000 0.000000
O O11 0.500000 0.500000 0.000000
#
# Coordination Sequence:
#
# PCOD9252920 Si02
#       5
#     4   4   4   4   4
#     4  12  27  47  77 106 154 193 249 306 371 445
#     4  11  26  48  74 106 148 194 248 307 370 446
#     4  12  26  46  75 104 151 190 250 305 369 437
#     4  11  27  46  75 108 144 194 246 305 372 441
#     4  12  27  48  74 112 148 198 250 303 376 441
#
# _framework density 23.420486
#
# number of rings (size 3 to 8) (size 9 to 14) (size 15 to 20)
#    0.000    0.400    4.000    3.000    8.400    1.600 
#    0.000    0.000    0.000    0.000    0.000    0.000 
#    0.000    0.000    0.000    0.000    0.000    0.000 
#
# Total GULP energy -112135.978158 kJ/mol
# GULP energy per Si atom -5606.798908 kJ/mol
# Density = 2.336718 g / cm^3
# Si number density = 23.420486 Si / 1000 Ang^3
#
#
#
# Elastic Constant Matrix: (Units=GPa)
#
#
# Indices 1 2 3 4 5 6 
#
# 1 74.9383 15.4592 0.9596 0.0000 -2.6552 0.0000
# 2 15.4592 95.6223 10.8668 0.0000 11.8037 0.0000
# 3 0.9596 10.8668 44.1268 0.0000 10.0961 0.0000
# 4 0.0000 0.0000 0.0000 35.3131 0.0000 5.4968
# 5 -2.6552 11.8037 10.0961 0.0000 23.8769 0.0000
# 6 0.0000 0.0000 0.0000 5.4968 0.0000 39.3538
#
#
#
# Elastic Compliance Matrix: (Units=1/GPa)
#
#
# Indices 1 2 3 4 5 6 
#
# 1 0.013989 -0.002590 -0.000349 0.000000 0.002984 0.000000
# 2 -0.002590 0.011726 -0.001593 0.000000 -0.005411 0.000000
# 3 -0.000349 -0.001593 0.025342 0.000000 -0.009967 0.000000
# 4 0.000000 0.000000 0.000000 0.028947 0.000000 -0.004043
# 5 0.002984 -0.005411 -0.009967 0.000000 0.049103 0.000000
# 6 0.000000 0.000000 0.000000 -0.004043 0.000000 0.025975
#
#
# Mechanical properties :
#
#
# Convention : Reuss Voigt Hill
#
# Bulk Modulus (GPa) = 23.81413 29.91761 26.86587
# Shear Modulus (GPa) = 28.06714 32.20221 30.13468
#
# Velocity S-wave (km/s) = 3.46555 3.71207 3.59092
# Velocity P-wave (km/s) = 5.11894 5.58341 5.35621
#
# Compressibility (1/GPa) = 0.04199188
#
# Stress axis : x y z
#
# Youngs Moduli (GPa) = 71.48554 85.28380 39.45969
#
# Poissons Ratio (x) = 0.22090 0.01377
# Poissons Ratio (y) = 0.18516 0.06287
# Poissons Ratio (z) = 0.02495 0.13588
#
# Static dielectric constant tensor:
#      x y z
#    x 1.871780 0.000000 0.059650 
#    y 0.000000 1.863780 0.000000 
#    z 0.059650 0.000000 1.866610 
# 
# From -- ./inp_files/22977.got.cif
#   From: 2010.05.17/outbox.cif.g08.bks.cpg/sg14_12_cif.got.tgz:22977.got - 2010.06.03 17:49:19.
