data_PCOD9252427
_publ_section_title
;
Structure prediction by ZEFSAII (Michael W. Deem and Ramdas Pophale) SiO2 
 PCOD9252427
Probable space group: P 21/C
;
_chemical_formula_sum "Si O2"
_cell_formula_units_Z 16
_cell_length_a 9.940332
_cell_length_b 9.199711
_cell_length_c 9.564479
_cell_angle_alpha 90.000000
_cell_angle_beta 138.974390
_cell_angle_gamma 90.000000
_cell_volume 574.119791
_symmetry_space_group_name_H-M "P 21/C"
_symmetry_group_IT_number 14
_symmetry_cell_setting 'monoclinic'
loop_
_space_group_symop_operation_xyz
x,y,z
-x,1/2+y,1/2-z
-x,-y,-z
x,1/2-y,1/2+z
loop_
_atom_site_type_symbol
_atom_site_label
_atom_site_fract_x
_atom_site_fract_y
_atom_site_fract_z
Si Si1 0.116446 0.552029 0.901066
Si Si2 0.116250 0.793876 0.108449
Si Si3 0.331145 0.984932 0.041621
Si Si4 0.671042 0.777454 0.325155
O O1 0.157955 0.654353 0.799125
O O2 0.873849 0.520529 0.703472
O O3 0.162904 0.638288 0.078489
O O4 0.232911 0.398736 0.995056
O O5 0.237416 0.903047 0.104012
O O6 0.867263 0.789868 0.899726
O O7 0.417367 0.138718 0.163447
O O8 0.499452 0.873436 0.112760
#
# Coordination Sequence:
#
# PCOD9252427 Si02
#       4
#     4   4   4   4
#     4  11  24  47  74 103 143 186 234 291 348 413
#     4  11  25  48  73 103 143 185 236 292 346 415
#     4  11  24  44  71 105 142 184 233 289 352 416
#     4  11  24  43  72 106 141 185 232 288 354 416
#
# _framework density 27.868745000000001
#
# number of rings (size 3 to 8) (size 9 to 14) (size 15 to 20)
#    0.000    1.000    0.000    8.250    0.000    2.000 
#    0.000   17.500    0.000    1.500    0.000    0.000 
#    0.000    0.000    0.000    0.000    0.000    0.000 
#
# Total GULP energy -89629.326715 kJ/mol
# GULP energy per Si atom -5601.832920 kJ/mol
# Density = 2.780531 g / cm^3
# Si number density = 27.868745 Si / 1000 Ang^3
#
#
#
# Elastic Constant Matrix: (Units=GPa)
#
#
# Indices 1 2 3 4 5 6 
#
# 1 80.6499 -1.0422 12.9047 0.0000 -1.4610 0.0000
# 2 -1.0422 158.4295 30.6032 0.0000 -9.3116 0.0000
# 3 12.9047 30.6032 84.1495 0.0000 6.7617 0.0000
# 4 0.0000 0.0000 0.0000 68.5833 0.0000 -12.0082
# 5 -1.4610 -9.3116 6.7617 0.0000 70.6955 0.0000
# 6 0.0000 0.0000 0.0000 -12.0082 0.0000 -4.3135
#
#
#
# Elastic Compliance Matrix: (Units=1/GPa)
#
#
# Indices 1 2 3 4 5 6 
#
# 1 0.012768 0.000541 -0.002198 0.000000 0.000545 0.000000
# 2 0.000541 0.006904 -0.002688 0.000000 0.001178 0.000000
# 3 -0.002198 -0.002688 0.013333 0.000000 -0.001675 0.000000
# 4 0.000000 0.000000 0.000000 0.009803 0.000000 -0.027289
# 5 0.000545 0.001178 -0.001675 0.000000 0.014472 0.000000
# 6 0.000000 0.000000 0.000000 -0.027289 0.000000 -0.155861
#
#
# Mechanical properties :
#
#
# Convention : Reuss Voigt Hill
#
# Bulk Modulus (GPa) = 41.13081 45.35116 43.24098
# Shear Modulus (GPa) = -61.13619 45.71061 -7.71279
#
# Velocity S-wave (km/s) = -4.68880 4.05434 -1.66540
# Velocity P-wave (km/s) = 3.81081 6.18267 3.44261
#
# Compressibility (1/GPa) = 0.02431268
#
# Stress axis : x y z
#
# Youngs Moduli (GPa) = 78.32128 144.84287 75.00165
#
# Poissons Ratio (x) = -0.07832 0.16489
# Poissons Ratio (y) = -0.04235 0.20163
# Poissons Ratio (z) = 0.17219 0.38939
#
# Static dielectric constant tensor:
#      x y z
#    x 2.165960 0.000000 0.054310 
#    y 0.000000 2.164420 0.000000 
#    z 0.054310 0.000000 2.154390 
# 
# From -- ./inp_files/27926.got.cif
#   From: 2010.05.17/outbox.cif.g08.bks.cpg/sg14_14_cif.got.tgz:27926.got - 2010.06.03 17:49:19.
