data_PCOD9252237
_publ_section_title
;
Structure prediction by ZEFSAII (Michael W. Deem and Ramdas Pophale) SiO2 
 PCOD9252237
Probable space group: P 21/C
;
_chemical_formula_sum "Si O2"
_cell_formula_units_Z 18
_cell_length_a 10.157598
_cell_length_b 7.844399
_cell_length_c 22.405347
_cell_angle_alpha 90.000000
_cell_angle_beta 155.053797
_cell_angle_gamma 90.000000
_cell_volume 752.965508
_symmetry_space_group_name_H-M "P 21/C"
_symmetry_group_IT_number 14
_symmetry_cell_setting 'monoclinic'
loop_
_space_group_symop_operation_xyz
x,y,z
-x,1/2+y,1/2-z
-x,-y,-z
x,1/2-y,1/2+z
loop_
_atom_site_type_symbol
_atom_site_label
_atom_site_fract_x
_atom_site_fract_y
_atom_site_fract_z
Si Si1 0.454936 0.462262 0.801456
Si Si2 0.838769 0.230077 0.041975
Si Si3 0.500000 0.500000 0.500000
Si Si4 0.670896 0.730076 0.458038
Si Si5 0.249126 0.537738 0.198552
O O1 0.462864 0.601690 0.857145
O O2 0.643723 0.528861 0.821862
O O3 0.114238 0.403595 0.642387
O O4 0.640659 0.300463 0.905031
O O5 0.034308 0.398311 0.142868
O O6 0.627386 0.148200 0.005745
O O7 0.604440 0.648199 0.494271
O O8 0.544712 0.596403 0.357623
O O9 0.020555 0.800462 0.594979
#
# Coordination Sequence:
#
# PCOD9252237 Si02
#       5
#     4   4   2   4   4
#     4  11  23  45  74 110 141 183 236 294 355 406
#     4  11  25  43  71 101 144 187 230 289 343 420
#     4  12  28  46  62  96 136 190 236 272 348 414
#     4  11  25  43  71 101 144 187 230 289 343 420
#     4  11  23  45  74 110 141 183 236 294 355 406
#
# _framework density 23.905476
#
# number of rings (size 3 to 8) (size 9 to 14) (size 15 to 20)
#    0.000    0.889    0.000    8.000    0.000   10.667 
#    0.000   12.222    0.000    0.000    0.000    0.000 
#    0.000    0.000    0.000    0.000    0.000    0.000 
#
# Total GULP energy -100202.991914 kJ/mol
# GULP energy per Si atom -5566.832884 kJ/mol
# Density = 2.385107 g / cm^3
# Si number density = 23.905476 Si / 1000 Ang^3
#
#
#
# Elastic Constant Matrix: (Units=GPa)
#
#
# Indices 1 2 3 4 5 6 
#
# 1 161.2308 49.7047 23.3067 0.0000 1.5480 0.0000
# 2 49.7047 130.3717 14.8384 0.0000 0.3495 0.0000
# 3 23.3067 14.8384 119.5784 0.0000 -1.1146 0.0000
# 4 0.0000 0.0000 0.0000 52.5089 0.0000 0.0674
# 5 1.5480 0.3495 -1.1146 0.0000 -8.4599 0.0000
# 6 0.0000 0.0000 0.0000 0.0674 0.0000 59.1164
#
#
#
# Elastic Compliance Matrix: (Units=1/GPa)
#
#
# Indices 1 2 3 4 5 6 
#
# 1 0.007146 -0.002608 -0.001057 0.000000 0.001339 0.000000
# 2 -0.002608 0.008730 -0.000575 0.000000 -0.000041 0.000000
# 3 -0.001057 -0.000575 0.008627 0.000000 -0.001354 0.000000
# 4 0.000000 0.000000 0.000000 0.019044 0.000000 -0.000022
# 5 0.001339 -0.000041 -0.001354 0.000000 -0.117783 0.000000
# 6 0.000000 0.000000 0.000000 -0.000022 0.000000 0.016916
#
#
# Mechanical properties :
#
#
# Convention : Reuss Voigt Hill
#
# Bulk Modulus (GPa) = 62.40699 65.20897 63.80798
# Shear Modulus (GPa) = -114.94976 42.18847 -36.38065
#
# Velocity S-wave (km/s) = -6.94187 4.20551 -3.90533
# Velocity P-wave (km/s) = 6.17173 7.13574 2.53264
#
# Compressibility (1/GPa) = 0.01602385
#
# Stress axis : x y z
#
# Youngs Moduli (GPa) = 139.93583 114.54476 115.90882
#
# Poissons Ratio (x) = 0.29871 0.12249
# Poissons Ratio (y) = 0.36493 0.06670
# Poissons Ratio (z) = 0.14788 0.06591
#
# Static dielectric constant tensor:
#      x y z
#    x 1.764090 0.000000 -0.002220 
#    y 0.000000 2.040300 0.000000 
#    z -0.002220 0.000000 1.988190 
# 
# From -- ./inp_files/7627.got.cif
#   From: 2010.05.17/outbox.cif.g08.bks.cpg/sg14_4_cif.got.tgz:7627.got - 2010.06.03 17:49:19.
