data_PCOD9252656
_publ_section_title
;
Structure prediction by ZEFSAII (Michael W. Deem and Ramdas Pophale) SiO2 
 PCOD9252656
Probable space group: P 21/C
;
_chemical_formula_sum "Si O2"
_cell_formula_units_Z 20
_cell_length_a 8.754208
_cell_length_b 9.963892
_cell_length_c 8.367213
_cell_angle_alpha 90.000000
_cell_angle_beta 94.931684
_cell_angle_gamma 90.000000
_cell_volume 727.136451
_symmetry_space_group_name_H-M "P 21/C"
_symmetry_group_IT_number 14
_symmetry_cell_setting 'monoclinic'
loop_
_space_group_symop_operation_xyz
x,y,z
-x,1/2+y,1/2-z
-x,-y,-z
x,1/2-y,1/2+z
loop_
_atom_site_type_symbol
_atom_site_label
_atom_site_fract_x
_atom_site_fract_y
_atom_site_fract_z
Si Si1 0.164896 0.535398 0.834926
Si Si2 0.964292 0.702580 0.305419
Si Si3 0.352270 0.318348 0.254862
Si Si4 0.754403 0.054119 0.018379
Si Si5 0.571218 0.172474 0.498927
O O1 0.072620 0.396956 0.847066
O O2 0.247881 0.522035 0.669664
O O3 0.278391 0.579002 0.986883
O O4 0.058005 0.662585 0.789874
O O5 0.797474 0.755397 0.340337
O O6 0.076365 0.610141 0.421180
O O7 0.296142 0.429788 0.376401
O O8 0.451524 0.201151 0.348566
O O9 0.469413 0.375885 0.137031
O O10 0.641447 0.179343 0.038375
#
# Coordination Sequence:
#
# PCOD9252656 Si02
#       5
#     4   4   4   4   4
#     4  11  24  49  73 105 147 194 241 295 363 434
#     4  11  25  43  74 108 138 193 244 295 348 434
#     4  12  25  46  74 106 144 196 240 295 365 434
#     4  11  24  50  73  98 151 204 230 283 388 437
#     4  11  26  44  73 108 142 189 242 297 355 433
#
# _framework density 27.505154000000001
#
# number of rings (size 3 to 8) (size 9 to 14) (size 15 to 20)
#    0.000    0.800    4.000    2.400    5.600    0.800 
#    0.000    5.000    0.000    0.000    0.000    0.000 
#    0.000    0.000    0.000    0.000    0.000    0.000 
#
# Total GULP energy -112074.055480 kJ/mol
# GULP energy per Si atom -5603.702774 kJ/mol
# Density = 2.744255 g / cm^3
# Si number density = 27.505154 Si / 1000 Ang^3
#
#
#
# Elastic Constant Matrix: (Units=GPa)
#
#
# Indices 1 2 3 4 5 6 
#
# 1 162.8863 64.1579 51.0618 0.0000 42.2680 0.0000
# 2 64.1579 154.2308 19.8731 0.0000 25.7732 0.0000
# 3 51.0618 19.8731 71.8219 0.0000 37.0199 0.0000
# 4 0.0000 0.0000 0.0000 31.4507 0.0000 7.7160
# 5 42.2680 25.7732 37.0199 0.0000 48.9056 0.0000
# 6 0.0000 0.0000 0.0000 7.7160 0.0000 66.4105
#
#
#
# Elastic Compliance Matrix: (Units=1/GPa)
#
#
# Indices 1 2 3 4 5 6 
#
# 1 0.009463 -0.002807 -0.004096 0.000000 -0.003599 0.000000
# 2 -0.002807 0.007943 0.001156 0.000000 -0.002635 0.000000
# 3 -0.004096 0.001156 0.024605 0.000000 -0.015694 0.000000
# 4 0.000000 0.000000 0.000000 0.032729 0.000000 -0.003803
# 5 -0.003599 -0.002635 -0.015694 0.000000 0.036826 0.000000
# 6 0.000000 0.000000 0.000000 -0.003803 0.000000 0.015500
#
#
# Mechanical properties :
#
#
# Convention : Reuss Voigt Hill
#
# Bulk Modulus (GPa) = 32.76932 73.23605 53.00269
# Shear Modulus (GPa) = 33.61760 46.27646 39.94703
#
# Velocity S-wave (km/s) = 3.49983 4.10624 3.81510
# Velocity P-wave (km/s) = 5.31710 7.01182 6.22243
#
# Compressibility (1/GPa) = 0.03051635
#
# Stress axis : x y z
#
# Youngs Moduli (GPa) = 105.67707 125.89861 40.64228
#
# Poissons Ratio (x) = 0.35343 0.16647
# Poissons Ratio (y) = 0.29666 -0.04699
# Poissons Ratio (z) = 0.43285 -0.14555
#
# Static dielectric constant tensor:
#      x y z
#    x 2.116590 0.000000 0.002180 
#    y 0.000000 2.150330 0.000000 
#    z 0.002180 0.000000 2.128630 
# 
# From -- ./inp_files/8000.got.cif
#   From: 2010.05.17/outbox.cif.g08.bks.cpg/sg14_4_cif.got.tgz:8000.got - 2010.06.03 17:49:19.
