data_PCOD9252104
_publ_section_title
;
Structure prediction by ZEFSAII (Michael W. Deem and Ramdas Pophale) SiO2 
 PCOD9252104
Probable space group: P 21/C
;
_chemical_formula_sum "Si O2"
_cell_formula_units_Z 20
_cell_length_a 6.866973
_cell_length_b 25.831257
_cell_length_c 5.142903
_cell_angle_alpha 90.000000
_cell_angle_beta 74.892608
_cell_angle_gamma 90.000000
_cell_volume 880.732572
_symmetry_space_group_name_H-M "P 21/C"
_symmetry_group_IT_number 14
_symmetry_cell_setting 'monoclinic'
loop_
_space_group_symop_operation_xyz
x,y,z
-x,1/2+y,1/2-z
-x,-y,-z
x,1/2-y,1/2+z
loop_
_atom_site_type_symbol
_atom_site_label
_atom_site_fract_x
_atom_site_fract_y
_atom_site_fract_z
Si Si1 0.072634 0.040983 0.184347
Si Si2 0.345929 0.970267 0.368749
Si Si3 0.231047 0.348652 0.696519
Si Si4 0.839447 0.282906 0.847935
Si Si5 0.514507 0.641314 0.866540
O O1 0.122363 0.100394 0.112565
O O2 0.879867 0.042411 0.443794
O O3 0.284218 0.014572 0.188380
O O4 0.000000 0.000000 0.000000
O O5 0.443541 0.914674 0.285026
O O6 0.500000 0.000000 0.500000
O O7 0.380693 0.331125 0.415489
O O8 0.061523 0.306362 0.807552
O O9 0.340264 0.363236 0.930492
O O10 0.813270 0.263049 0.564297
O O11 0.677253 0.326665 0.971180
#
# Coordination Sequence:
#
# PCOD9252104 Si02
#       5
#     4   4   4   4   4
#     4  11  25  40  70 104 152 195 239 291 363 430
#     4  11  23  43  67 106 146 193 238 289 356 443
#     4  12  27  47  73 110 145 191 241 303 359 441
#     4  12  28  51  77 104 143 189 245 313 369 426
#     4  12  27  46  77 107 148 190 247 293 371 439
#
# _framework density 22.708366000000002
#
# number of rings (size 3 to 8) (size 9 to 14) (size 15 to 20)
#    0.000    0.400    4.000    3.600    5.600    8.000 
#    0.000    0.000    0.000    0.000    0.000    0.000 
#    0.000    0.000    0.000    0.000    0.000    0.000 
#
# Total GULP energy -111772.287212 kJ/mol
# GULP energy per Si atom -5588.614361 kJ/mol
# Density = 2.265668 g / cm^3
# Si number density = 22.708366 Si / 1000 Ang^3
#
#
#
# Elastic Constant Matrix: (Units=GPa)
#
#
# Indices 1 2 3 4 5 6 
#
# 1 104.8813 19.2818 19.6365 0.0000 -1.3279 0.0000
# 2 19.2818 63.3814 4.5686 0.0000 -15.2820 0.0000
# 3 19.6365 4.5686 81.8434 0.0000 -12.5767 0.0000
# 4 0.0000 0.0000 0.0000 36.8332 0.0000 -7.6259
# 5 -1.3279 -15.2820 -12.5767 0.0000 48.0290 0.0000
# 6 0.0000 0.0000 0.0000 -7.6259 0.0000 34.9709
#
#
#
# Elastic Compliance Matrix: (Units=1/GPa)
#
#
# Indices 1 2 3 4 5 6 
#
# 1 0.010625 -0.003399 -0.002585 0.000000 -0.001465 0.000000
# 2 -0.003399 0.018177 0.000703 0.000000 0.005874 0.000000
# 3 -0.002585 0.000703 0.013360 0.000000 0.003651 0.000000
# 4 0.000000 0.000000 0.000000 0.028433 0.000000 0.006200
# 5 -0.001465 0.005874 0.003651 0.000000 0.023605 0.000000
# 6 0.000000 0.000000 0.000000 0.006200 0.000000 0.029947
#
#
# Mechanical properties :
#
#
# Convention : Reuss Voigt Hill
#
# Bulk Modulus (GPa) = 31.64353 37.45333 34.54843
# Shear Modulus (GPa) = 34.42525 37.74121 36.08323
#
# Velocity S-wave (km/s) = 3.89777 4.08118 3.99053
# Velocity P-wave (km/s) = 5.84994 6.22391 6.03982
#
# Compressibility (1/GPa) = 0.03160204
#
# Stress axis : x y z
#
# Youngs Moduli (GPa) = 94.11903 55.01418 74.84860
#
# Poissons Ratio (x) = 0.18700 0.19345
# Poissons Ratio (y) = 0.31992 -0.05266
# Poissons Ratio (z) = 0.24325 -0.03870
#
# Static dielectric constant tensor:
#      x y z
#    x 1.787880 0.000000 -0.028350 
#    y 0.000000 1.852820 0.000000 
#    z -0.028350 0.000000 1.931220 
# 
# From -- ./inp_files/548.got.cif
#   From: 2010.05.17/outbox.cif.g08.bks.cpg/sg14_1_cif.got.tgz:548.got - 2010.06.03 17:49:19.
