data_PCOD9252631
_publ_section_title
;
Structure prediction by ZEFSAII (Michael W. Deem and Ramdas Pophale) SiO2 
 PCOD9252631
Probable space group: P 21/C
;
_chemical_formula_sum "Si O2"
_cell_formula_units_Z 24
_cell_length_a 11.364279
_cell_length_b 11.731292
_cell_length_c 8.441452
_cell_angle_alpha 90.000000
_cell_angle_beta 72.053471
_cell_angle_gamma 90.000000
_cell_volume 1070.638102
_symmetry_space_group_name_H-M "P 21/C"
_symmetry_group_IT_number 14
_symmetry_cell_setting 'monoclinic'
loop_
_space_group_symop_operation_xyz
x,y,z
-x,1/2+y,1/2-z
-x,-y,-z
x,1/2-y,1/2+z
loop_
_atom_site_type_symbol
_atom_site_label
_atom_site_fract_x
_atom_site_fract_y
_atom_site_fract_z
Si Si1 0.404688 0.898013 0.690275
Si Si2 0.051090 0.918676 0.618771
Si Si3 0.605154 0.979117 0.825545
Si Si4 0.815836 0.676184 0.390668
Si Si5 0.696214 0.311367 0.090883
Si Si6 0.787630 0.909093 0.253568
O O1 0.539937 0.914905 0.705507
O O2 0.388742 0.841569 0.525354
O O3 0.329157 0.815242 0.839356
O O4 0.339021 0.020691 0.711774
O O5 0.161901 0.837792 0.511815
O O6 0.942553 0.848217 0.745345
O O7 0.113312 0.001012 0.722683
O O8 0.000000 0.000000 0.500000
O O9 0.712252 0.903135 0.854535
O O10 0.658390 0.098523 0.741690
O O11 0.500000 0.000000 0.000000
O O12 0.779239 0.806964 0.381595
O O13 0.824640 0.643078 0.570038
#
# Coordination Sequence:
#
# PCOD9252631 Si02
#       6
#     4   4   4   4   4   4
#     4  11  26  46  74 108 147 194 245 303 364 435
#     4  11  24  48  74 105 141 187 246 298 368 434
#     4  12  25  47  74 105 147 195 246 302 364 437
#     4  12  26  46  75 106 151 191 245 304 369 425
#     4  11  26  47  73 104 144 191 245 303 366 432
#     4  11  27  46  73 111 146 194 243 303 364 437
#
# _framework density 22.416537000000002
#
# number of rings (size 3 to 8) (size 9 to 14) (size 15 to 20)
#    0.000    0.667    3.333    3.000    4.667    8.000 
#    0.000    0.000    0.000    0.000    0.000    0.000 
#    0.000    0.000    0.000    0.000    0.000    0.000 
#
# Total GULP energy -134563.282171 kJ/mol
# GULP energy per Si atom -5606.803424 kJ/mol
# Density = 2.236552 g / cm^3
# Si number density = 22.416537 Si / 1000 Ang^3
#
#
#
# Elastic Constant Matrix: (Units=GPa)
#
#
# Indices 1 2 3 4 5 6 
#
# 1 100.2022 10.6137 37.9955 0.0000 -3.9929 0.0000
# 2 10.6137 75.9750 47.1566 0.0000 -8.5250 0.0000
# 3 37.9955 47.1566 93.8629 0.0000 -14.7148 0.0000
# 4 0.0000 0.0000 0.0000 41.6002 0.0000 6.7641
# 5 -3.9929 -8.5250 -14.7148 0.0000 33.2946 0.0000
# 6 0.0000 0.0000 0.0000 6.7641 0.0000 16.0665
#
#
#
# Elastic Compliance Matrix: (Units=1/GPa)
#
#
# Indices 1 2 3 4 5 6 
#
# 1 0.011998 0.001930 -0.005935 0.000000 -0.000690 0.000000
# 2 0.001930 0.019452 -0.010462 0.000000 0.000589 0.000000
# 3 -0.005935 -0.010462 0.019104 0.000000 0.005053 0.000000
# 4 0.000000 0.000000 0.000000 0.025805 0.000000 -0.010864
# 5 -0.000690 0.000589 0.005053 0.000000 0.032336 0.000000
# 6 0.000000 0.000000 0.000000 -0.010864 0.000000 0.066815
#
#
# Mechanical properties :
#
#
# Convention : Reuss Voigt Hill
#
# Bulk Modulus (GPa) = 46.24942 51.28574 48.76758
# Shear Modulus (GPa) = 23.62387 29.81055 26.71721
#
# Velocity S-wave (km/s) = 3.24984 3.65066 3.45607
# Velocity P-wave (km/s) = 5.89564 6.37950 6.14233
#
# Compressibility (1/GPa) = 0.02162189
#
# Stress axis : x y z
#
# Youngs Moduli (GPa) = 83.34556 51.40840 52.34451
#
# Poissons Ratio (x) = -0.09922 0.31064
# Poissons Ratio (y) = -0.16085 0.54761
# Poissons Ratio (z) = 0.49462 0.53782
#
# Static dielectric constant tensor:
#      x y z
#    x 1.823920 0.000000 0.010550 
#    y 0.000000 1.785770 0.000000 
#    z 0.010550 0.000000 1.832300 
# 
# From -- ./inp_files/12352.got.cif
#   From: 2010.05.17/outbox.cif.g08.bks.cpg/sg14_7_cif.got.tgz:12352.got - 2010.06.03 17:49:19.
