data_PCOD9252542
_publ_section_title
;
Structure prediction by ZEFSAII (Michael W. Deem and Ramdas Pophale) SiO2 
 PCOD9252542
Probable space group: P 21/C
;
_chemical_formula_sum "Si O2"
_cell_formula_units_Z 20
_cell_length_a 11.737189
_cell_length_b 8.543063
_cell_length_c 8.192883
_cell_angle_alpha 90.000000
_cell_angle_beta 72.983276
_cell_angle_gamma 90.000000
_cell_volume 785.546683
_symmetry_space_group_name_H-M "P 21/C"
_symmetry_group_IT_number 14
_symmetry_cell_setting 'monoclinic'
loop_
_space_group_symop_operation_xyz
x,y,z
-x,1/2+y,1/2-z
-x,-y,-z
x,1/2-y,1/2+z
loop_
_atom_site_type_symbol
_atom_site_label
_atom_site_fract_x
_atom_site_fract_y
_atom_site_fract_z
Si Si1 0.153452 0.128880 0.083493
Si Si2 0.955810 0.967628 0.333143
Si Si3 0.321469 0.265375 0.225931
Si Si4 0.563353 0.137672 0.081708
Si Si5 0.298141 0.582759 0.151785
O O1 0.083020 0.287935 0.154399
O O2 0.259014 0.115602 0.171193
O O3 0.059767 0.994173 0.156727
O O4 0.221526 0.170671 0.890298
O O5 0.842266 0.076510 0.332263
O O6 0.000000 0.000000 0.500000
O O7 0.452838 0.220758 0.221486
O O8 0.336857 0.405458 0.085899
O O9 0.656623 0.084933 0.179967
O O10 0.634084 0.272573 0.955938
O O11 0.500000 0.000000 0.000000
#
# Coordination Sequence:
#
# PCOD9252542 Si02
#       5
#     4   4   4   4   4
#     4  11  24  45  77 103 148 195 253 310 384 447
#     4  11  26  48  75 110 150 197 253 318 378 456
#     4  11  24  46  69 107 146 196 245 307 377 453
#     4  12  26  48  77 111 153 197 252 317 374 459
#     4  11  27  45  75 110 150 200 252 305 385 454
#
# _framework density 25.459978
#
# number of rings (size 3 to 8) (size 9 to 14) (size 15 to 20)
#    0.000    0.800    2.000    4.200    2.800   11.200 
#    0.000    0.000    0.000    0.000    0.000    0.000 
#    0.000    0.000    0.000    0.000    0.000    0.000 
#
# Total GULP energy -111714.468084 kJ/mol
# GULP energy per Si atom -5585.723404 kJ/mol
# Density = 2.540203 g / cm^3
# Si number density = 25.459978 Si / 1000 Ang^3
#
#
#
# Elastic Constant Matrix: (Units=GPa)
#
#
# Indices 1 2 3 4 5 6 
#
# 1 177.2437 51.3737 61.4620 0.0000 15.3010 0.0000
# 2 51.3737 103.0457 27.7252 0.0000 -24.0821 0.0000
# 3 61.4620 27.7252 107.1041 0.0000 -1.0760 0.0000
# 4 0.0000 0.0000 0.0000 36.7788 0.0000 -8.7814
# 5 15.3010 -24.0821 -1.0760 0.0000 39.9148 0.0000
# 6 0.0000 0.0000 0.0000 -8.7814 0.0000 62.3665
#
#
#
# Elastic Compliance Matrix: (Units=1/GPa)
#
#
# Indices 1 2 3 4 5 6 
#
# 1 0.009019 -0.004965 -0.003956 0.000000 -0.006560 0.000000
# 2 -0.004965 0.014978 -0.000918 0.000000 0.010915 0.000000
# 3 -0.003956 -0.000918 0.011858 0.000000 0.001282 0.000000
# 4 0.000000 0.000000 0.000000 0.028135 0.000000 0.003962
# 5 -0.006560 0.010915 0.001282 0.000000 0.034188 0.000000
# 6 0.000000 0.000000 0.000000 0.003962 0.000000 0.016592
#
#
# Mechanical properties :
#
#
# Convention : Reuss Voigt Hill
#
# Bulk Modulus (GPa) = 61.82295 74.27948 68.05121
# Shear Modulus (GPa) = 35.75471 44.26753 40.01112
#
# Velocity S-wave (km/s) = 3.75153 4.17431 3.96855
# Velocity P-wave (km/s) = 6.56509 7.24372 6.91274
#
# Compressibility (1/GPa) = 0.01617522
#
# Stress axis : x y z
#
# Youngs Moduli (GPa) = 110.87316 66.76544 84.33354
#
# Poissons Ratio (x) = 0.33150 0.33366
# Poissons Ratio (y) = 0.55050 0.07744
# Poissons Ratio (z) = 0.43866 0.06131
#
# Static dielectric constant tensor:
#      x y z
#    x 2.031080 0.000000 0.063120 
#    y 0.000000 2.093430 0.000000 
#    z 0.063120 0.000000 2.175950 
# 
# From -- ./inp_files/11811.got.cif
#   From: 2010.05.17/outbox.cif.g08.bks.cpg/sg14_6_cif.got.tgz:11811.got - 2010.06.03 17:49:19.
