data_PCOD9252983
_publ_section_title
;
Structure prediction by ZEFSAII (Michael W. Deem and Ramdas Pophale) SiO2 
 PCOD9252983
Probable space group: P 21/C
;
_chemical_formula_sum "Si O2"
_cell_formula_units_Z 24
_cell_length_a 5.148952
_cell_length_b 11.211453
_cell_length_c 17.507984
_cell_angle_alpha 90.000000
_cell_angle_beta 74.134021
_cell_angle_gamma 90.000000
_cell_volume 972.184137
_symmetry_space_group_name_H-M "P 21/C"
_symmetry_group_IT_number 14
_symmetry_cell_setting 'monoclinic'
loop_
_space_group_symop_operation_xyz
x,y,z
-x,1/2+y,1/2-z
-x,-y,-z
x,1/2-y,1/2+z
loop_
_atom_site_type_symbol
_atom_site_label
_atom_site_fract_x
_atom_site_fract_y
_atom_site_fract_z
Si Si1 0.754730 0.332653 0.829750
Si Si2 0.053463 0.634372 0.974927
Si Si3 0.631239 0.458939 0.570621
Si Si4 0.001625 0.332115 0.427218
Si Si5 0.345122 0.399235 0.117890
Si Si6 0.651638 0.692970 0.277230
O O1 0.676061 0.457779 0.876360
O O2 0.553810 0.316950 0.775879
O O3 0.792391 0.213370 0.879802
O O4 0.055335 0.348801 0.772304
O O5 0.377385 0.641831 0.944902
O O6 0.912587 0.653662 0.905376
O O7 0.000000 0.500000 0.000000
O O8 0.886658 0.706984 0.052193
O O9 0.500000 0.500000 0.500000
O O10 0.781290 0.565901 0.603720
O O11 0.442323 0.386774 0.643018
O O12 0.861092 0.373042 0.517854
O O13 0.343018 0.331682 0.198515
#
# Coordination Sequence:
#
# PCOD9252983 Si02
#       6
#     4   4   4   4   4   4
#     4  12  30  48  76 113 161 204 258 321 406 473
#     4  12  24  45  78 110 147 184 263 319 378 458
#     4  11  27  49  84 107 157 204 273 321 385 470
#     4  11  27  48  76 117 144 208 255 326 386 471
#     4  12  26  48  74 108 150 203 247 324 387 467
#     4  12  29  51  73 116 157 208 258 325 399 472
#
# _framework density 24.686681
#
# number of rings (size 3 to 8) (size 9 to 14) (size 15 to 20)
#    0.000    0.333    3.333    3.500    9.333    0.000 
#    0.000    0.000    0.000    0.000    0.000    0.000 
#    0.000    0.000    0.000    0.000    0.000    0.000 
#
# Total GULP energy -134234.571522 kJ/mol
# GULP energy per Si atom -5593.107147 kJ/mol
# Density = 2.463049 g / cm^3
# Si number density = 24.686681 Si / 1000 Ang^3
#
#
#
# Elastic Constant Matrix: (Units=GPa)
#
#
# Indices 1 2 3 4 5 6 
#
# 1 129.3766 37.9531 51.3617 0.0000 9.3977 0.0000
# 2 37.9531 112.8507 33.6345 0.0000 -2.6029 0.0000
# 3 51.3617 33.6345 115.5996 0.0000 18.0725 0.0000
# 4 0.0000 0.0000 0.0000 34.8490 0.0000 0.9973
# 5 9.3977 -2.6029 18.0725 0.0000 50.1223 0.0000
# 6 0.0000 0.0000 0.0000 0.9973 0.0000 39.0834
#
#
#
# Elastic Compliance Matrix: (Units=1/GPa)
#
#
# Indices 1 2 3 4 5 6 
#
# 1 0.009880 -0.002256 -0.003630 0.000000 -0.000661 0.000000
# 2 -0.002256 0.010342 -0.002286 0.000000 0.001784 0.000000
# 3 -0.003630 -0.002286 0.011488 0.000000 -0.003580 0.000000
# 4 0.000000 0.000000 0.000000 0.028716 0.000000 -0.000733
# 5 -0.000661 0.001784 -0.003580 0.000000 0.021459 0.000000
# 6 0.000000 0.000000 0.000000 -0.000733 0.000000 0.025605
#
#
# Mechanical properties :
#
#
# Convention : Reuss Voigt Hill
#
# Bulk Modulus (GPa) = 65.07476 67.08061 66.07769
# Shear Modulus (GPa) = 38.77249 40.46946 39.62098
#
# Velocity S-wave (km/s) = 3.96736 4.05325 4.01053
# Velocity P-wave (km/s) = 6.88506 7.00977 6.94770
#
# Compressibility (1/GPa) = 0.01536694
#
# Stress axis : x y z
#
# Youngs Moduli (GPa) = 101.21063 96.68890 87.04545
#
# Poissons Ratio (x) = 0.21815 0.31599
# Poissons Ratio (y) = 0.22835 0.19896
# Poissons Ratio (z) = 0.36741 0.22100
#
# Static dielectric constant tensor:
#      x y z
#    x 2.305700 0.000000 -0.192110 
#    y 0.000000 2.212590 0.000000 
#    z -0.192110 0.000000 2.162550 
# 
# From -- ./inp_files/52982.got.cif
#   From: 2010.05.17/outbox.cif.g08.bks.cpg/sg14_27_cif.got.tgz:52982.got - 2010.06.03 17:49:19.
