data_PCOD9252607
_publ_section_title
;
Structure prediction by ZEFSAII (Michael W. Deem and Ramdas Pophale) SiO2 
 PCOD9252607
Probable space group: P 21/C
;
_chemical_formula_sum "Si O2"
_cell_formula_units_Z 24
_cell_length_a 10.873320
_cell_length_b 11.232250
_cell_length_c 15.110323
_cell_angle_alpha 90.000000
_cell_angle_beta 34.903437
_cell_angle_gamma 90.000000
_cell_volume 1055.958355
_symmetry_space_group_name_H-M "P 21/C"
_symmetry_group_IT_number 14
_symmetry_cell_setting 'monoclinic'
loop_
_space_group_symop_operation_xyz
x,y,z
-x,1/2+y,1/2-z
-x,-y,-z
x,1/2-y,1/2+z
loop_
_atom_site_type_symbol
_atom_site_label
_atom_site_fract_x
_atom_site_fract_y
_atom_site_fract_z
Si Si1 0.775377 0.250723 0.754083
Si Si2 0.602549 0.829939 0.418510
Si Si3 0.246549 0.001970 0.827850
Si Si4 0.876804 0.569581 0.904155
Si Si5 0.356962 0.971084 0.288853
Si Si6 0.283860 0.428459 0.653884
O O1 0.742432 0.373465 0.723766
O O2 0.010351 0.194042 0.632565
O O3 0.673260 0.150727 0.748481
O O4 0.640511 0.280393 0.923697
O O5 0.684781 0.915291 0.448572
O O6 0.728438 0.707754 0.363295
O O7 0.673654 0.894329 0.286611
O O8 0.401398 0.012866 0.820808
O O9 0.000000 0.000000 0.000000
O O10 0.076894 0.499801 0.743354
O O11 0.790328 0.494454 0.038543
O O12 0.289732 0.069040 0.256921
O O13 0.500000 0.500000 0.500000
#
# Coordination Sequence:
#
# PCOD9252607 Si02
#       6
#     4   4   4   4   4   4
#     4  11  25  49  71 103 143 190 241 299 367 435
#     4  12  27  45  74 108 148 187 239 312 360 443
#     4  12  31  43  73 110 148 189 247 301 371 426
#     4  11  26  46  77 103 146 192 245 300 371 437
#     4  11  26  49  74 101 147 193 245 303 361 444
#     4  11  24  47  74 105 138 193 248 294 372 437
#
# _framework density 22.728169000000001
#
# number of rings (size 3 to 8) (size 9 to 14) (size 15 to 20)
#    0.000    0.667    5.000    2.500   14.000    0.000 
#    0.000    0.000    0.000    0.000    0.000    0.000 
#    0.000    0.000    0.000    0.000    0.000    0.000 
#
# Total GULP energy -133962.873283 kJ/mol
# GULP energy per Si atom -5581.786387 kJ/mol
# Density = 2.267644 g / cm^3
# Si number density = 22.728169 Si / 1000 Ang^3
#
#
#
# Elastic Constant Matrix: (Units=GPa)
#
#
# Indices 1 2 3 4 5 6 
#
# 1 53.0951 3.2594 14.7768 0.0000 -14.3741 0.0000
# 2 3.2594 85.7732 17.7497 0.0000 7.8695 0.0000
# 3 14.7768 17.7497 119.0404 0.0000 -13.8522 0.0000
# 4 0.0000 0.0000 0.0000 31.1924 0.0000 12.7289
# 5 -14.3741 7.8695 -13.8522 0.0000 38.3509 0.0000
# 6 0.0000 0.0000 0.0000 12.7289 0.0000 19.8248
#
#
#
# Elastic Compliance Matrix: (Units=1/GPa)
#
#
# Indices 1 2 3 4 5 6 
#
# 1 0.021435 -0.001193 -0.001586 0.000000 0.007706 0.000000
# 2 -0.001193 0.012498 -0.002157 0.000000 -0.003791 0.000000
# 3 -0.001586 -0.002157 0.009292 0.000000 0.003204 0.000000
# 4 0.000000 0.000000 0.000000 0.043441 0.000000 -0.027892
# 5 0.007706 -0.003791 0.003204 0.000000 0.030898 0.000000
# 6 0.000000 0.000000 0.000000 -0.027892 0.000000 0.068350
#
#
# Mechanical properties :
#
#
# Convention : Reuss Voigt Hill
#
# Bulk Modulus (GPa) = 29.98242 36.60896 33.29569
# Shear Modulus (GPa) = 24.16578 32.68183 28.42380
#
# Velocity S-wave (km/s) = 3.26429 3.79614 3.54022
# Velocity P-wave (km/s) = 5.23716 5.94613 5.60287
#
# Compressibility (1/GPa) = 0.03335288
#
# Stress axis : x y z
#
# Youngs Moduli (GPa) = 46.65276 80.01249 107.62165
#
# Poissons Ratio (x) = 0.09548 0.17071
# Poissons Ratio (y) = 0.05567 0.23209
# Poissons Ratio (z) = 0.07400 0.17255
#
# Static dielectric constant tensor:
#      x y z
#    x 1.737220 0.000000 -0.071500 
#    y 0.000000 1.848090 0.000000 
#    z -0.071500 0.000000 1.854840 
# 
# From -- ./inp_files/57643.got.cif
#   From: 2010.05.17/outbox.cif.g08.bks.cpg/sg14_29_cif.got.tgz:57643.got - 2010.06.03 17:49:19.
