data_PCOD9252535
_publ_section_title
;
Structure prediction by ZEFSAII (Michael W. Deem and Ramdas Pophale) SiO2 
 PCOD9252535
Probable space group: P 21/C
;
_chemical_formula_sum "Si O2"
_cell_formula_units_Z 20
_cell_length_a 5.001625
_cell_length_b 20.333244
_cell_length_c 7.817300
_cell_angle_alpha 90.000000
_cell_angle_beta 108.882102
_cell_angle_gamma 90.000000
_cell_volume 752.231169
_symmetry_space_group_name_H-M "P 21/C"
_symmetry_group_IT_number 14
_symmetry_cell_setting 'monoclinic'
loop_
_space_group_symop_operation_xyz
x,y,z
-x,1/2+y,1/2-z
-x,-y,-z
x,1/2-y,1/2+z
loop_
_atom_site_type_symbol
_atom_site_label
_atom_site_fract_x
_atom_site_fract_y
_atom_site_fract_z
Si Si1 0.924731 0.926835 0.040339
Si Si2 0.650747 0.759303 0.489334
Si Si3 0.271702 0.692965 0.620518
Si Si4 0.716465 0.522351 0.846556
Si Si5 0.409424 0.105148 0.343980
O O1 0.171830 0.878798 0.152300
O O2 0.744848 0.938399 0.175488
O O3 0.843088 0.891683 0.845105
O O4 0.000000 0.000000 0.000000
O O5 0.980156 0.737355 0.569493
O O6 0.554310 0.819559 0.593699
O O7 0.422980 0.700584 0.469043
O O8 0.549564 0.788255 0.288351
O O9 0.585824 0.450701 0.778069
O O10 0.598447 0.567516 0.975154
O O11 0.000000 0.500000 0.000000
#
# Coordination Sequence:
#
# PCOD9252535 Si02
#       5
#     4   4   4   4   4
#     4  12  26  47  77 112 158 207 265 330 401 476
#     4  12  28  52  81 114 161 206 267 333 399 486
#     4  12  29  51  79 116 154 212 265 327 406 478
#     4  11  24  45  73 109 152 203 263 323 395 474
#     4  11  26  45  75 111 151 205 261 327 398 469
#
# _framework density 26.587571000000001
#
# number of rings (size 3 to 8) (size 9 to 14) (size 15 to 20)
#    0.000    0.400    2.000    5.400   11.200    3.200 
#    0.000    0.000    0.000    0.000    0.000    0.000 
#    0.000    0.000    0.000    0.000    0.000    0.000 
#
# Total GULP energy -111447.923559 kJ/mol
# GULP energy per Si atom -5572.396178 kJ/mol
# Density = 2.652706 g / cm^3
# Si number density = 26.587571 Si / 1000 Ang^3
#
#
#
# Elastic Constant Matrix: (Units=GPa)
#
#
# Indices 1 2 3 4 5 6 
#
# 1 101.4520 19.5245 16.5601 0.0000 8.3849 0.0000
# 2 19.5245 138.9143 24.2555 0.0000 1.1382 0.0000
# 3 16.5601 24.2555 102.1980 0.0000 3.2050 0.0000
# 4 0.0000 0.0000 0.0000 41.4321 0.0000 3.0146
# 5 8.3849 1.1382 3.2050 0.0000 45.8041 0.0000
# 6 0.0000 0.0000 0.0000 3.0146 0.0000 46.6520
#
#
#
# Elastic Compliance Matrix: (Units=1/GPa)
#
#
# Indices 1 2 3 4 5 6 
#
# 1 0.010460 -0.001220 -0.001349 0.000000 -0.001790 0.000000
# 2 -0.001220 0.007652 -0.001623 0.000000 0.000147 0.000000
# 3 -0.001349 -0.001623 0.010403 0.000000 -0.000441 0.000000
# 4 0.000000 0.000000 0.000000 0.024250 0.000000 -0.001567
# 5 -0.001790 0.000147 -0.000441 0.000000 0.022187 0.000000
# 6 0.000000 0.000000 0.000000 -0.001567 0.000000 0.021537
#
#
# Mechanical properties :
#
#
# Convention : Reuss Voigt Hill
#
# Bulk Modulus (GPa) = 49.67643 51.47162 50.57403
# Shear Modulus (GPa) = 44.80979 45.59260 45.20119
#
# Velocity S-wave (km/s) = 4.10977 4.14552 4.12768
# Velocity P-wave (km/s) = 6.42222 6.50500 6.46375
#
# Compressibility (1/GPa) = 0.02013027
#
# Stress axis : x y z
#
# Youngs Moduli (GPa) = 95.60392 130.67886 96.12982
#
# Poissons Ratio (x) = 0.15941 0.12970
# Poissons Ratio (y) = 0.11663 0.15603
# Poissons Ratio (z) = 0.12899 0.21211
#
# Static dielectric constant tensor:
#      x y z
#    x 2.055690 0.000000 -0.329020 
#    y 0.000000 2.357380 0.000000 
#    z -0.329020 0.000000 1.525120 
# 
# From -- ./inp_files/6012.got.cif
#   From: 2010.05.17/outbox.cif.g08.bks.cpg/sg14_4_cif.got.tgz:6012.got - 2010.06.03 17:49:19.
