data_PCOD9252610
_publ_section_title
;
Structure prediction by ZEFSAII (Michael W. Deem and Ramdas Pophale) SiO2 
 PCOD9252610
Probable space group: P 21/C
;
_chemical_formula_sum "Si O2"
_cell_formula_units_Z 28
_cell_length_a 4.983475
_cell_length_b 14.610262
_cell_length_c 16.946846
_cell_angle_alpha 90.000000
_cell_angle_beta 63.240507
_cell_angle_gamma 90.000000
_cell_volume 1101.752674
_symmetry_space_group_name_H-M "P 21/C"
_symmetry_group_IT_number 14
_symmetry_cell_setting 'monoclinic'
loop_
_space_group_symop_operation_xyz
x,y,z
-x,1/2+y,1/2-z
-x,-y,-z
x,1/2-y,1/2+z
loop_
_atom_site_type_symbol
_atom_site_label
_atom_site_fract_x
_atom_site_fract_y
_atom_site_fract_z
Si Si1 0.842811 0.632189 0.886236
Si Si2 0.112106 0.429991 0.418961
Si Si3 0.630173 0.657333 0.143053
Si Si4 0.825010 0.405510 0.009453
Si Si5 0.185050 0.284622 0.726366
Si Si6 0.880031 0.021525 0.254378
Si Si7 0.332319 0.810161 0.105817
O O1 0.093088 0.645293 0.919603
O O2 0.745715 0.728388 0.860431
O O3 0.957694 0.557038 0.807145
O O4 0.526072 0.590295 0.956972
O O5 0.135456 0.477842 0.330235
O O6 0.436006 0.388916 0.398419
O O7 0.000000 0.500000 0.500000
O O8 0.862230 0.349725 0.440474
O O9 0.582451 0.710962 0.231876
O O10 0.436510 0.566112 0.176610
O O11 0.542608 0.720459 0.080786
O O12 0.982985 0.637579 0.087219
O O13 0.000000 0.500000 0.000000
O O14 0.097126 0.390017 0.723309
O O15 0.915027 0.224297 0.798888
#
# Coordination Sequence:
#
# PCOD9252610 Si02
#       7
#     4   4   4   4   4   4   4
#     4  12  27  47  76 108 150 191 246 303 364 441
#     4  12  27  49  76 107 147 192 248 304 364 434
#     4  11  25  47  74 105 153 192 243 301 367 436
#     4  12  27  45  73 111 146 189 246 305 368 427
#     4  11  26  48  76 108 144 200 245 293 374 435
#     4  11  26  44  78 107 149 196 249 299 365 443
#     4  11  24  47  74  98 146 195 235 295 372 423
#
# _framework density 25.414055000000001
#
# number of rings (size 3 to 8) (size 9 to 14) (size 15 to 20)
#    0.000    0.571    4.286    1.714   12.000    1.143 
#    2.571    0.000    0.000    0.000    0.000    0.000 
#    0.000    0.000    0.000    0.000    0.000    0.000 
#
# Total GULP energy -156721.702874 kJ/mol
# GULP energy per Si atom -5597.203674 kJ/mol
# Density = 2.535621 g / cm^3
# Si number density = 25.414055 Si / 1000 Ang^3
#
#
#
# Elastic Constant Matrix: (Units=GPa)
#
#
# Indices 1 2 3 4 5 6 
#
# 1 107.3784 12.4560 0.5784 0.0000 15.0058 0.0000
# 2 12.4560 106.8318 23.6372 0.0000 11.6075 0.0000
# 3 0.5784 23.6372 69.5505 0.0000 18.9111 0.0000
# 4 0.0000 0.0000 0.0000 48.7039 0.0000 9.3459
# 5 15.0058 11.6075 18.9111 0.0000 35.4735 0.0000
# 6 0.0000 0.0000 0.0000 9.3459 0.0000 50.8194
#
#
#
# Elastic Compliance Matrix: (Units=1/GPa)
#
#
# Indices 1 2 3 4 5 6 
#
# 1 0.010087 -0.001002 0.001553 0.000000 -0.004767 0.000000
# 2 -0.001002 0.010313 -0.003151 0.000000 -0.001271 0.000000
# 3 0.001553 -0.003151 0.017934 0.000000 -0.009186 0.000000
# 4 0.000000 0.000000 0.000000 0.021283 0.000000 -0.003914
# 5 -0.004767 -0.001271 -0.009186 0.000000 0.035520 0.000000
# 6 0.000000 0.000000 0.000000 -0.003914 0.000000 0.020397
#
#
# Mechanical properties :
#
#
# Convention : Reuss Voigt Hill
#
# Bulk Modulus (GPa) = 30.18104 39.67824 34.92964
# Shear Modulus (GPa) = 37.94267 43.47197 40.70732
#
# Velocity S-wave (km/s) = 3.86810 4.14036 4.00655
# Velocity P-wave (km/s) = 5.64368 6.20511 5.93104
#
# Compressibility (1/GPa) = 0.03313338
#
# Stress axis : x y z
#
# Youngs Moduli (GPa) = 99.13901 96.96932 55.76068
#
# Poissons Ratio (x) = 0.09713 -0.08658
# Poissons Ratio (y) = 0.09931 0.17570
# Poissons Ratio (z) = -0.15393 0.30554
#
# Static dielectric constant tensor:
#      x y z
#    x 1.972450 0.000000 0.002130 
#    y 0.000000 2.060250 0.000000 
#    z 0.002130 0.000000 2.056050 
# 
# From -- ./inp_files/53261.got.cif
#   From: 2010.05.17/outbox.cif.g08.bks.cpg/sg14_27_cif.got.tgz:53261.got - 2010.06.03 17:49:19.
