data_PCOD9252016
_publ_section_title
;
Structure prediction by ZEFSAII (Michael W. Deem and Ramdas Pophale) SiO2 
 PCOD9252016
Probable space group: P 21/C
;
_chemical_formula_sum "Si O2"
_cell_formula_units_Z 24
_cell_length_a 13.837821
_cell_length_b 14.640712
_cell_length_c 8.765718
_cell_angle_alpha 90.000000
_cell_angle_beta 31.582109
_cell_angle_gamma 90.000000
_cell_volume 930.071842
_symmetry_space_group_name_H-M "P 21/C"
_symmetry_group_IT_number 14
_symmetry_cell_setting 'monoclinic'
loop_
_space_group_symop_operation_xyz
x,y,z
-x,1/2+y,1/2-z
-x,-y,-z
x,1/2-y,1/2+z
loop_
_atom_site_type_symbol
_atom_site_label
_atom_site_fract_x
_atom_site_fract_y
_atom_site_fract_z
Si Si1 0.205084 0.533954 0.753702
Si Si2 0.360906 0.676710 0.743128
Si Si3 0.304020 0.035509 0.701716
Si Si4 0.861145 0.139320 0.948663
Si Si5 0.275463 0.335794 0.959479
Si Si6 0.648707 0.646407 0.571006
O O1 0.247790 0.586651 0.849875
O O2 0.233866 0.607097 0.580836
O O3 0.322501 0.443824 0.569078
O O4 0.000000 0.500000 0.000000
O O5 0.546961 0.820585 0.887829
O O6 0.436762 0.669749 0.813848
O O7 0.237095 0.765600 0.881455
O O8 0.308975 0.081253 0.530700
O O9 0.273735 0.114630 0.869024
O O10 0.500000 0.000000 0.500000
O O11 0.172297 0.947939 0.896131
O O12 0.080568 0.150408 0.638627
O O13 0.253106 0.242798 0.087984
#
# Coordination Sequence:
#
# PCOD9252016 Si02
#       6
#     4   4   4   4   4   4
#     4  11  24  44  70 103 141 184 236 290 351 422
#     4  12  25  45  73 103 141 185 232 290 354 418
#     4  11  24  45  69  98 139 184 233 290 352 417
#     4  11  26  45  70 106 144 186 238 295 353 420
#     4  12  24  44  73 103 140 187 236 286 351 423
#     4  11  23  41  67  99 138 182 228 287 349 410
#
# _framework density 25.804455999999998
#
# number of rings (size 3 to 8) (size 9 to 14) (size 15 to 20)
#    0.000    0.667    0.000    9.000    0.000    2.667 
#    0.000    3.333    0.000    0.000    0.000    1.167 
#    0.000    0.000    0.000    0.000    0.000    0.000 
#
# Total GULP energy -134353.260424 kJ/mol
# GULP energy per Si atom -5598.052518 kJ/mol
# Density = 2.574572 g / cm^3
# Si number density = 25.804456 Si / 1000 Ang^3
#
#
#
# Elastic Constant Matrix: (Units=GPa)
#
#
# Indices 1 2 3 4 5 6 
#
# 1 82.3119 44.5612 22.2338 0.0000 -12.8883 0.0000
# 2 44.5612 148.6794 42.9959 0.0000 -9.9466 0.0000
# 3 22.2338 42.9959 112.3985 0.0000 -20.1630 0.0000
# 4 0.0000 0.0000 0.0000 37.2453 0.0000 -5.1607
# 5 -12.8883 -9.9466 -20.1630 0.0000 37.3703 0.0000
# 6 0.0000 0.0000 0.0000 -5.1607 0.0000 62.3553
#
#
#
# Elastic Compliance Matrix: (Units=1/GPa)
#
#
# Indices 1 2 3 4 5 6 
#
# 1 0.015142 -0.004066 -0.000772 0.000000 0.003723 0.000000
# 2 -0.004066 0.008663 -0.002599 0.000000 -0.000499 0.000000
# 3 -0.000772 -0.002599 0.010930 0.000000 0.004939 0.000000
# 4 0.000000 0.000000 0.000000 0.027161 0.000000 0.002248
# 5 0.003723 -0.000499 0.004939 0.000000 0.030575 0.000000
# 6 0.000000 0.000000 0.000000 0.002248 0.000000 0.016223
#
#
# Mechanical properties :
#
#
# Convention : Reuss Voigt Hill
#
# Bulk Modulus (GPa) = 50.35092 62.55242 56.45167
# Shear Modulus (GPa) = 38.40635 42.96744 40.68689
#
# Velocity S-wave (km/s) = 3.86211 4.08501 3.97513
# Velocity P-wave (km/s) = 6.28035 6.82227 6.55691
#
# Compressibility (1/GPa) = 0.01986061
#
# Stress axis : x y z
#
# Youngs Moduli (GPa) = 66.04351 115.43798 91.49277
#
# Poissons Ratio (x) = 0.46935 0.07063
# Poissons Ratio (y) = 0.26852 0.23779
# Poissons Ratio (z) = 0.05098 0.30002
#
# Static dielectric constant tensor:
#      x y z
#    x 2.081600 0.000000 0.131950 
#    y 0.000000 2.071640 0.000000 
#    z 0.131950 0.000000 2.107030 
# 
# From -- ./inp_files/32528.got.cif
#   From: 2010.05.17/outbox.cif.g08.bks.cpg/sg14_17_cif.got.tgz:32528.got - 2010.06.03 17:49:19.
