data_PCOD9252646
_publ_section_title
;
Structure prediction by ZEFSAII (Michael W. Deem and Ramdas Pophale) SiO2 
 PCOD9252646
Probable space group: P 21/C
;
_chemical_formula_sum "Si O2"
_cell_formula_units_Z 12
_cell_length_a 9.782937
_cell_length_b 5.116216
_cell_length_c 18.364471
_cell_angle_alpha 90.000000
_cell_angle_beta 152.136733
_cell_angle_gamma 90.000000
_cell_volume 429.586866
_symmetry_space_group_name_H-M "P 21/C"
_symmetry_group_IT_number 14
_symmetry_cell_setting 'monoclinic'
loop_
_space_group_symop_operation_xyz
x,y,z
-x,1/2+y,1/2-z
-x,-y,-z
x,1/2-y,1/2+z
loop_
_atom_site_type_symbol
_atom_site_label
_atom_site_fract_x
_atom_site_fract_y
_atom_site_fract_z
Si Si1 0.312425 0.064938 0.183035
Si Si2 0.791736 0.597524 0.734592
Si Si3 0.319742 0.198703 0.466900
O O1 0.470920 0.324269 0.227453
O O2 0.263029 0.145053 0.244275
O O3 0.000000 0.000000 0.000000
O O4 0.513725 0.405697 0.601745
O O5 0.847089 0.640506 0.674965
O O6 0.079996 0.455414 0.900064
O O7 0.500000 0.000000 0.500000
#
# Coordination Sequence:
#
# PCOD9252646 Si02
#       3
#     4   4   4
#     4  12  32  59  89 125 176 240 294 359 430 530
#     4  11  27  48  83 124 171 219 297 351 448 513
#     4  11  24  48  81 123 168 222 277 375 431 515
#
# _framework density 27.933814999999999
#
# number of rings (size 3 to 8) (size 9 to 14) (size 15 to 20)
#    0.000    0.667    3.333    1.000    9.333    2.667 
#    0.000    3.333    0.000    0.000    0.000    0.000 
#    0.000    0.000    0.000    0.000    0.000    0.000 
#
# Total GULP energy -67421.757084 kJ/mol
# GULP energy per Si atom -5618.479757 kJ/mol
# Density = 2.787024 g / cm^3
# Si number density = 27.933815 Si / 1000 Ang^3
#
#
#
# Elastic Constant Matrix: (Units=GPa)
#
#
# Indices 1 2 3 4 5 6 
#
# 1 111.7445 44.1517 49.2928 0.0000 -9.1478 0.0000
# 2 44.1517 187.4253 82.0750 0.0000 15.7019 0.0000
# 3 49.2928 82.0750 186.6645 0.0000 18.9458 0.0000
# 4 0.0000 0.0000 0.0000 69.3519 0.0000 11.8259
# 5 -9.1478 15.7019 18.9458 0.0000 47.9470 0.0000
# 6 0.0000 0.0000 0.0000 11.8259 0.0000 85.7862
#
#
#
# Elastic Compliance Matrix: (Units=1/GPa)
#
#
# Indices 1 2 3 4 5 6 
#
# 1 0.011074 -0.001825 -0.002497 0.000000 0.003697 0.000000
# 2 -0.001825 0.006960 -0.002408 0.000000 -0.001676 0.000000
# 3 -0.002497 -0.002408 0.007338 0.000000 -0.002587 0.000000
# 4 0.000000 0.000000 0.000000 0.014766 0.000000 -0.002036
# 5 0.003697 -0.001676 -0.002587 0.000000 0.023133 0.000000
# 6 0.000000 0.000000 0.000000 -0.002036 0.000000 0.011937
#
#
# Mechanical properties :
#
#
# Convention : Reuss Voigt Hill
#
# Bulk Modulus (GPa) = 83.95101 92.98595 88.46848
# Shear Modulus (GPa) = 53.97139 61.30467 57.63803
#
# Velocity S-wave (km/s) = 4.40035 4.68978 4.54737
# Velocity P-wave (km/s) = 7.47906 7.91742 7.70136
#
# Compressibility (1/GPa) = 0.01191171
#
# Stress axis : x y z
#
# Youngs Moduli (GPa) = 90.29903 143.66911 136.27249
#
# Poissons Ratio (x) = 0.26219 0.34031
# Poissons Ratio (y) = 0.16479 0.32820
# Poissons Ratio (z) = 0.22550 0.34602
#
# Static dielectric constant tensor:
#      x y z
#    x 2.174200 0.000000 -0.057830 
#    y 0.000000 2.243620 0.000000 
#    z -0.057830 0.000000 2.145170 
# 
# From -- ./inp_files/7074.got.cif
#   From: 2010.05.17/outbox.cif.g08.bks.cpg/sg14_4_cif.got.tgz:7074.got - 2010.06.03 17:49:19.
