data_PCOD9252127
_publ_section_title
;
Structure prediction by ZEFSAII (Michael W. Deem and Ramdas Pophale) SiO2 
 PCOD9252127
Probable space group: P 21/C
;
_chemical_formula_sum "Si O2"
_cell_formula_units_Z 28
_cell_length_a 12.657176
_cell_length_b 5.025035
_cell_length_c 19.062374
_cell_angle_alpha 90.000000
_cell_angle_beta 117.434592
_cell_angle_gamma 90.000000
_cell_volume 1076.067586
_symmetry_space_group_name_H-M "P 21/C"
_symmetry_group_IT_number 14
_symmetry_cell_setting 'monoclinic'
loop_
_space_group_symop_operation_xyz
x,y,z
-x,1/2+y,1/2-z
-x,-y,-z
x,1/2-y,1/2+z
loop_
_atom_site_type_symbol
_atom_site_label
_atom_site_fract_x
_atom_site_fract_y
_atom_site_fract_z
Si Si1 0.274936 0.159046 0.787261
Si Si2 0.364179 0.440356 0.942052
Si Si3 0.913604 0.020948 0.818386
Si Si4 0.858029 0.201774 0.157731
Si Si5 0.578926 0.413276 0.778659
Si Si6 0.257416 0.311701 0.053901
Si Si7 0.112648 0.805486 0.047425
O O1 0.365628 0.311836 0.864963
O O2 0.202268 0.336860 0.710859
O O3 0.336562 0.924778 0.763794
O O4 0.179131 0.066432 0.814787
O O5 0.265422 0.674320 0.906239
O O6 0.500000 0.500000 0.000000
O O7 0.312130 0.282553 0.992956
O O8 0.037169 0.861422 0.863835
O O9 0.908242 0.123441 0.737189
O O10 0.901369 0.245114 0.873189
O O11 0.526221 0.122115 0.771439
O O12 0.648716 0.542227 0.865608
O O13 0.146230 0.524253 0.022149
O O14 0.218229 0.017174 0.064629
O O15 0.000000 0.000000 0.000000
#
# Coordination Sequence:
#
# PCOD9252127 Si02
#       7
#     4   4   4   4   4   4   4
#     4  11  25  46  74 105 141 191 240 307 362 431
#     4  11  28  47  70 104 145 193 246 298 363 435
#     4  11  23  43  72 109 138 188 239 304 364 440
#     4  11  24  43  73 103 145 183 245 298 368 430
#     4  12  27  48  76 105 144 192 248 301 365 431
#     4  12  27  49  71 109 146 192 244 297 364 440
#     4  12  27  46  75 105 152 189 239 297 372 439
#
# _framework density 26.020671
#
# number of rings (size 3 to 8) (size 9 to 14) (size 15 to 20)
#    0.000    0.571    2.857    3.857   10.000    0.571 
#    0.000    0.000    0.000    0.000    0.000    0.000 
#    0.000    0.000    0.000    0.000    0.000    0.000 
#
# Total GULP energy -156746.897857 kJ/mol
# GULP energy per Si atom -5598.103495 kJ/mol
# Density = 2.596145 g / cm^3
# Si number density = 26.020671 Si / 1000 Ang^3
#
#
#
# Elastic Constant Matrix: (Units=GPa)
#
#
# Indices 1 2 3 4 5 6 
#
# 1 116.3083 16.3353 39.5211 0.0000 -3.1577 0.0000
# 2 16.3353 85.2897 9.7052 0.0000 4.9956 0.0000
# 3 39.5211 9.7052 72.1174 0.0000 15.4825 0.0000
# 4 0.0000 0.0000 0.0000 24.4327 0.0000 7.8307
# 5 -3.1577 4.9956 15.4825 0.0000 54.3894 0.0000
# 6 0.0000 0.0000 0.0000 7.8307 0.0000 38.4228
#
#
#
# Elastic Compliance Matrix: (Units=1/GPa)
#
#
# Indices 1 2 3 4 5 6 
#
# 1 0.011066 -0.001542 -0.006417 0.000000 0.002611 0.000000
# 2 -0.001542 0.012146 -0.000565 0.000000 -0.001044 0.000000
# 3 -0.006417 -0.000565 0.018669 0.000000 -0.005635 0.000000
# 4 0.000000 0.000000 0.000000 0.043789 0.000000 -0.008924
# 5 0.002611 -0.001044 -0.005635 0.000000 0.020237 0.000000
# 6 0.000000 0.000000 0.000000 -0.008924 0.000000 0.027845
#
#
# Mechanical properties :
#
#
# Convention : Reuss Voigt Hill
#
# Bulk Modulus (GPa) = 40.27196 44.98203 42.62700
# Shear Modulus (GPa) = 31.43118 37.32592 34.37855
#
# Velocity S-wave (km/s) = 3.47930 3.79155 3.63878
# Velocity P-wave (km/s) = 5.62594 6.04089 5.83711
#
# Compressibility (1/GPa) = 0.02483117
#
# Stress axis : x y z
#
# Youngs Moduli (GPa) = 90.36823 82.33447 53.56544
#
# Poissons Ratio (x) = 0.12697 0.34374
# Poissons Ratio (y) = 0.13936 0.03028
# Poissons Ratio (z) = 0.57991 0.04654
#
# Static dielectric constant tensor:
#      x y z
#    x 2.150540 0.000000 0.222910 
#    y 0.000000 2.037720 0.000000 
#    z 0.222910 0.000000 2.356250 
# 
# From -- ./inp_files/66553.got.cif
#   From: 2010.05.17/outbox.cif.g08.bks.cpg/sg14_34_cif.got.tgz:66553.got - 2010.06.03 17:49:19.
