data_PCOD9252985
_publ_section_title
;
Structure prediction by ZEFSAII (Michael W. Deem and Ramdas Pophale) SiO2 
 PCOD9252985
Probable space group: P 21/C
;
_chemical_formula_sum "Si O2"
_cell_formula_units_Z 14
_cell_length_a 7.010667
_cell_length_b 7.659340
_cell_length_c 9.275362
_cell_angle_alpha 90.000000
_cell_angle_beta 66.793612
_cell_angle_gamma 90.000000
_cell_volume 457.762554
_symmetry_space_group_name_H-M "P 21/C"
_symmetry_group_IT_number 14
_symmetry_cell_setting 'monoclinic'
loop_
_space_group_symop_operation_xyz
x,y,z
-x,1/2+y,1/2-z
-x,-y,-z
x,1/2-y,1/2+z
loop_
_atom_site_type_symbol
_atom_site_label
_atom_site_fract_x
_atom_site_fract_y
_atom_site_fract_z
Si Si1 0.500000 0.500000 0.000000
Si Si2 0.989934 0.921832 0.236941
Si Si3 0.843908 0.788707 0.001800
Si Si4 0.422939 0.818314 0.232156
O O1 0.438784 0.624026 0.160730
O O2 0.557993 0.336181 0.102046
O O3 0.210631 0.906392 0.246539
O O4 0.817514 0.890712 0.415710
O O5 0.002536 0.094910 0.138285
O O6 0.942464 0.774619 0.129527
O O7 0.631867 0.887432 0.091520
#
# Coordination Sequence:
#
# PCOD9252985 Si02
#       4
#     2   4   4   4
#     4  12  32  50  92 118 170 222 288 334 436 490
#     4  11  27  48  78 113 162 215 280 339 418 501
#     4  11  27  49  77 118 161 216 281 343 417 501
#     4  12  29  55  79 125 167 227 273 362 409 512
#
# _framework density 30.583542000000001
#
# number of rings (size 3 to 8) (size 9 to 14) (size 15 to 20)
#    0.000    0.571    0.000    4.286   24.000    1.143 
#    0.000    0.000    0.000    0.000    0.000    0.000 
#    0.000    0.000    0.000    0.000    0.000    0.000 
#
# Total GULP energy -78211.659369 kJ/mol
# GULP energy per Si atom -5586.547098 kJ/mol
# Density = 3.051393 g / cm^3
# Si number density = 30.583542 Si / 1000 Ang^3
#
#
#
# Elastic Constant Matrix: (Units=GPa)
#
#
# Indices 1 2 3 4 5 6 
#
# 1 174.4791 5.5579 84.1507 0.0000 14.7669 0.0000
# 2 5.5579 136.7970 93.9680 0.0000 12.7700 0.0000
# 3 84.1507 93.9680 284.6583 0.0000 25.0682 0.0000
# 4 0.0000 0.0000 0.0000 94.2231 0.0000 14.4405
# 5 14.7669 12.7700 25.0682 0.0000 77.7752 0.0000
# 6 0.0000 0.0000 0.0000 14.4405 0.0000 27.1018
#
#
#
# Elastic Compliance Matrix: (Units=1/GPa)
#
#
# Indices 1 2 3 4 5 6 
#
# 1 0.006943 0.001491 -0.002478 0.000000 -0.000765 0.000000
# 2 0.001491 0.009798 -0.003611 0.000000 -0.000728 0.000000
# 3 -0.002478 -0.003611 0.005500 0.000000 -0.000709 0.000000
# 4 0.000000 0.000000 0.000000 0.011557 0.000000 -0.006158
# 5 -0.000765 -0.000728 -0.000709 0.000000 0.013351 0.000000
# 6 0.000000 0.000000 0.000000 -0.006158 0.000000 0.040179
#
#
# Mechanical properties :
#
#
# Convention : Reuss Voigt Hill
#
# Bulk Modulus (GPa) = 76.64969 107.03196 91.84082
# Shear Modulus (GPa) = 49.56783 67.30389 58.43586
#
# Velocity S-wave (km/s) = 4.03020 4.69621 4.37589
# Velocity P-wave (km/s) = 6.83912 8.02984 7.45828
#
# Compressibility (1/GPa) = 0.01304637
#
# Stress axis : x y z
#
# Youngs Moduli (GPa) = 144.02046 102.06178 181.82104
#
# Poissons Ratio (x) = -0.15219 0.45047
# Poissons Ratio (y) = -0.21475 0.65657
# Poissons Ratio (z) = 0.35681 0.36855
#
# Static dielectric constant tensor:
#      x y z
#    x 1.555880 0.000000 0.105710 
#    y 0.000000 2.391970 0.000000 
#    z 0.105710 0.000000 2.207190 
# 
# From -- ./inp_files/7154.got.cif
#   From: 2010.05.17/outbox.cif.g08.bks.cpg/sg14_4_cif.got.tgz:7154.got - 2010.06.03 17:49:19.
