data_PCOD9252289
_publ_section_title
;
Structure prediction by ZEFSAII (Michael W. Deem and Ramdas Pophale) SiO2 
 PCOD9252289
Probable space group: P 21/C
;
_chemical_formula_sum "Si O2"
_cell_formula_units_Z 30
_cell_length_a 20.790652
_cell_length_b 9.356425
_cell_length_c 18.633998
_cell_angle_alpha 90.000000
_cell_angle_beta 159.680313
_cell_angle_gamma 90.000000
_cell_volume 1258.740540
_symmetry_space_group_name_H-M "P 21/C"
_symmetry_group_IT_number 14
_symmetry_cell_setting 'monoclinic'
loop_
_space_group_symop_operation_xyz
x,y,z
-x,1/2+y,1/2-z
-x,-y,-z
x,1/2-y,1/2+z
loop_
_atom_site_type_symbol
_atom_site_label
_atom_site_fract_x
_atom_site_fract_y
_atom_site_fract_z
Si Si1 0.353671 0.355237 0.937320
Si Si2 0.266111 0.975647 0.152299
Si Si3 0.249817 0.104499 0.734217
Si Si4 0.516963 0.730640 0.635530
Si Si5 0.000000 0.500000 0.500000
Si Si6 0.087969 0.464795 0.317021
Si Si7 0.139627 0.872025 0.723247
Si Si8 0.242862 0.148703 0.483108
O O1 0.299582 0.197878 0.854781
O O2 0.318412 0.380209 0.983753
O O3 0.214825 0.455593 0.747618
O O4 0.572960 0.369291 0.154635
O O5 0.373170 0.127483 0.270415
O O6 0.079872 0.959709 0.003106
O O7 0.209745 0.968783 0.009241
O O8 0.412318 0.111227 0.846790
O O9 0.069384 0.178957 0.508110
O O10 0.189444 0.952316 0.701228
O O11 0.296968 0.744203 0.400910
O O12 0.587596 0.681826 0.786544
O O13 0.139004 0.526948 0.292313
O O14 0.119234 0.294415 0.352652
O O15 0.880452 0.519215 0.115864
#
# Coordination Sequence:
#
# PCOD9252289 Si02
#       8
#     4   4   4   4   2   4   4   4
#     4  12  25  44  68 104 137 185 229 291 344 429
#     4  11  26  42  69 102 140 181 237 284 355 415
#     4  11  24  43  68 101 137 175 234 283 352 416
#     4  11  24  43  68  99 135 180 236 288 343 422
#     4  12  24  42  68  98 142 178 222 288 350 418
#     4  11  23  47  70 103 137 192 233 294 352 415
#     4  11  24  44  71  95 139 184 226 292 349 411
#     4  11  24  46  72  99 145 180 245 288 348 422
#
# _framework density 23.833347
#
# number of rings (size 3 to 8) (size 9 to 14) (size 15 to 20)
#    0.000    0.800    5.333    1.600    1.867    1.067 
#    2.400    0.000    0.000    0.000    0.000    0.000 
#    0.000    0.000    0.000    0.000    0.000    0.000 
#
# Total GULP energy -167419.496440 kJ/mol
# GULP energy per Si atom -5580.649881 kJ/mol
# Density = 2.377910 g / cm^3
# Si number density = 23.833347 Si / 1000 Ang^3
#
#
#
# Elastic Constant Matrix: (Units=GPa)
#
#
# Indices 1 2 3 4 5 6 
#
# 1 107.8762 2.3831 13.3912 0.0000 -11.0651 0.0000
# 2 2.3831 27.4111 8.5856 0.0000 1.4492 0.0000
# 3 13.3912 8.5856 120.5379 0.0000 14.2882 0.0000
# 4 0.0000 0.0000 0.0000 23.0663 0.0000 -10.4586
# 5 -11.0651 1.4492 14.2882 0.0000 34.4368 0.0000
# 6 0.0000 0.0000 0.0000 -10.4586 0.0000 17.9724
#
#
#
# Elastic Compliance Matrix: (Units=1/GPa)
#
#
# Indices 1 2 3 4 5 6 
#
# 1 0.009862 -0.000587 -0.001506 0.000000 0.003818 0.000000
# 2 -0.000587 0.037357 -0.002510 0.000000 -0.000719 0.000000
# 3 -0.001506 -0.002510 0.009137 0.000000 -0.004169 0.000000
# 4 0.000000 0.000000 0.000000 0.058892 0.000000 0.034271
# 5 0.003818 -0.000719 -0.004169 0.000000 0.032026 0.000000
# 6 0.000000 0.000000 0.000000 0.034271 0.000000 0.075584
#
#
# Mechanical properties :
#
#
# Convention : Reuss Voigt Hill
#
# Bulk Modulus (GPa) = 21.21036 33.83834 27.52435
# Shear Modulus (GPa) = 20.17915 30.52611 25.35263
#
# Velocity S-wave (km/s) = 2.91293 3.58273 3.26505
# Velocity P-wave (km/s) = 4.49803 5.59851 5.07817
#
# Compressibility (1/GPa) = 0.04714677
#
# Stress axis : x y z
#
# Youngs Moduli (GPa) = 101.40430 26.76880 109.45108
#
# Poissons Ratio (x) = 0.01572 0.16487
# Poissons Ratio (y) = 0.05956 0.27476
# Poissons Ratio (z) = 0.15275 0.06720
#
# Static dielectric constant tensor:
#      x y z
#    x 1.865750 0.000000 -0.010350 
#    y 0.000000 1.995020 0.000000 
#    z -0.010350 0.000000 1.865800 
# 
# From -- ./inp_files/61335.got.cif
#   From: 2010.05.17/outbox.cif.g08.bks.cpg/sg14_31_cif.got.tgz:61335.got - 2010.06.03 17:49:19.
