data_PCOD9252206
_publ_section_title
;
Structure prediction by ZEFSAII (Michael W. Deem and Ramdas Pophale) SiO2 
 PCOD9252206
Probable space group: P 21/C
;
_chemical_formula_sum "Si O2"
_cell_formula_units_Z 32
_cell_length_a 15.416744
_cell_length_b 12.968430
_cell_length_c 21.405693
_cell_angle_alpha 90.000000
_cell_angle_beta 19.978960
_cell_angle_gamma 90.000000
_cell_volume 1462.253336
_symmetry_space_group_name_H-M "P 21/C"
_symmetry_group_IT_number 14
_symmetry_cell_setting 'monoclinic'
loop_
_space_group_symop_operation_xyz
x,y,z
-x,1/2+y,1/2-z
-x,-y,-z
x,1/2-y,1/2+z
loop_
_atom_site_type_symbol
_atom_site_label
_atom_site_fract_x
_atom_site_fract_y
_atom_site_fract_z
Si Si1 0.172016 0.377392 0.645775
Si Si2 0.038216 0.753291 0.830233
Si Si3 0.593899 0.029204 0.782952
Si Si4 0.091763 0.170302 0.451971
Si Si5 0.605346 0.674320 0.951549
Si Si6 0.863245 0.870970 0.151602
Si Si7 0.362896 0.497066 0.310912
Si Si8 0.833782 0.558109 0.914269
O O1 0.401907 0.451517 0.469408
O O2 0.261840 0.285526 0.629475
O O3 0.086905 0.322552 0.638850
O O4 0.952769 0.446313 0.823927
O O5 0.308449 0.804324 0.661804
O O6 0.044488 0.639013 0.795585
O O7 0.892938 0.733811 0.993570
O O8 0.835958 0.102472 0.628824
O O9 0.686963 0.911597 0.711876
O O10 0.459316 0.056405 0.808494
O O11 0.077072 0.254163 0.407698
O O12 0.675524 0.628006 0.837230
O O13 0.717734 0.600616 0.928628
O O14 0.733513 0.924835 0.179832
O O15 0.125078 0.930135 0.988459
O O16 0.605081 0.556269 0.118552
#
# Coordination Sequence:
#
# PCOD9252206 Si02
#       8
#     4   4   4   4   4   4   4   4
#     4  11  25  42  70 100 136 181 226 277 342 403
#     4  11  23  45  68  98 134 182 221 278 342 399
#     4  11  24  42  67  98 133 179 223 275 332 401
#     4  11  24  43  67  97 134 179 224 275 340 393
#     4  11  25  45  67 100 138 175 226 278 338 406
#     4  11  26  42  70  99 132 175 222 278 336 403
#     4  11  24  45  68 101 132 175 225 278 337 399
#     4  11  25  44  69  98 136 175 225 280 339 408
#
# _framework density 21.884032000000001
#
# number of rings (size 3 to 8) (size 9 to 14) (size 15 to 20)
#    0.000    1.000    2.500    3.000    5.250    5.500 
#    0.000    0.000    0.000    0.000    0.000    0.000 
#    0.000    0.000    0.000    0.000    0.000    0.000 
#
# Total GULP energy -179043.700333 kJ/mol
# GULP energy per Si atom -5595.115635 kJ/mol
# Density = 2.183422 g / cm^3
# Si number density = 21.884032 Si / 1000 Ang^3
#
#
#
# Elastic Constant Matrix: (Units=GPa)
#
#
# Indices 1 2 3 4 5 6 
#
# 1 48.4971 0.5296 -8.2523 0.0000 1.3332 0.0000
# 2 0.5296 38.9991 14.8696 0.0000 5.1536 0.0000
# 3 -8.2523 14.8696 53.8316 0.0000 -0.8887 0.0000
# 4 0.0000 0.0000 0.0000 33.4735 0.0000 6.0793
# 5 1.3332 5.1536 -0.8887 0.0000 30.9182 0.0000
# 6 0.0000 0.0000 0.0000 6.0793 0.0000 11.0766
#
#
#
# Elastic Compliance Matrix: (Units=1/GPa)
#
#
# Indices 1 2 3 4 5 6 
#
# 1 0.021283 -0.001630 0.003704 0.000000 -0.000540 0.000000
# 2 -0.001630 0.029581 -0.008505 0.000000 -0.005105 0.000000
# 3 0.003704 -0.008505 0.021525 0.000000 0.001877 0.000000
# 4 0.000000 0.000000 0.000000 0.033182 0.000000 -0.018212
# 5 -0.000540 -0.005105 0.001877 0.000000 0.033272 0.000000
# 6 0.000000 0.000000 0.000000 -0.018212 0.000000 0.100276
#
#
# Mechanical properties :
#
#
# Convention : Reuss Voigt Hill
#
# Bulk Modulus (GPa) = 16.79935 17.29128 17.04532
# Shear Modulus (GPa) = 18.39436 24.03903 21.21669
#
# Velocity S-wave (km/s) = 2.90235 3.31792 3.11707
# Velocity P-wave (km/s) = 4.35025 4.75359 4.55638
#
# Compressibility (1/GPa) = 0.05952610
#
# Stress axis : x y z
#
# Youngs Moduli (GPa) = 46.98650 33.80522 46.45846
#
# Poissons Ratio (x) = 0.05510 -0.17208
# Poissons Ratio (y) = 0.07659 0.39514
# Poissons Ratio (z) = -0.17404 0.28752
#
# Static dielectric constant tensor:
#      x y z
#    x 1.785190 0.000000 -0.005820 
#    y 0.000000 1.792450 0.000000 
#    z -0.005820 0.000000 1.785070 
# 
# From -- ./inp_files/68713.got.cif
#   From: 2010.05.17/outbox.cif.g08.bks.cpg/sg14_35_cif.got.tgz:68713.got - 2010.06.03 17:49:19.
