data_PCOD9252263
_publ_section_title
;
Structure prediction by ZEFSAII (Michael W. Deem and Ramdas Pophale) SiO2 
 PCOD9252263
Probable space group: P 21/C
;
_chemical_formula_sum "Si O2"
_cell_formula_units_Z 20
_cell_length_a 4.995842
_cell_length_b 9.043263
_cell_length_c 16.497140
_cell_angle_alpha 90.000000
_cell_angle_beta 85.447990
_cell_angle_gamma 90.000000
_cell_volume 742.968595
_symmetry_space_group_name_H-M "P 21/C"
_symmetry_group_IT_number 14
_symmetry_cell_setting 'monoclinic'
loop_
_space_group_symop_operation_xyz
x,y,z
-x,1/2+y,1/2-z
-x,-y,-z
x,1/2-y,1/2+z
loop_
_atom_site_type_symbol
_atom_site_label
_atom_site_fract_x
_atom_site_fract_y
_atom_site_fract_z
Si Si1 0.788087 0.763445 0.611816
Si Si2 0.049318 0.685835 0.443511
Si Si3 0.477364 0.001370 0.279386
Si Si4 0.416232 0.478066 0.605857
Si Si5 0.879531 0.235379 0.234211
O O1 0.963725 0.771712 0.525913
O O2 0.642375 0.915893 0.640154
O O3 0.565197 0.635871 0.602791
O O4 0.966244 0.722574 0.686932
O O5 0.850804 0.544042 0.438721
O O6 0.358204 0.637125 0.429714
O O7 0.991508 0.763912 0.357637
O O8 0.771533 0.069016 0.256420
O O9 0.336695 0.055655 0.199869
O O10 0.394805 0.831779 0.273722
#
# Coordination Sequence:
#
# PCOD9252263 Si02
#       5
#     4   4   4   4   4
#     4  12  25  43  78 104 149 201 245 309 382 438
#     4  11  26  45  73 111 151 187 254 312 367 446
#     4  11  24  44  76 101 154 196 246 305 375 443
#     4  11  23  46  70 112 144 192 247 309 362 445
#     4  11  26  48  71 114 149 202 251 312 372 450
#
# _framework density 26.919036999999999
#
# number of rings (size 3 to 8) (size 9 to 14) (size 15 to 20)
#    0.000    0.800    4.000    2.400    5.600    0.800 
#    0.000    4.000    0.000    0.000    0.000    0.000 
#    0.000    0.000    0.000    0.000    0.000    0.000 
#
# Total GULP energy -111792.634566 kJ/mol
# GULP energy per Si atom -5589.631728 kJ/mol
# Density = 2.685777 g / cm^3
# Si number density = 26.919037 Si / 1000 Ang^3
#
#
#
# Elastic Constant Matrix: (Units=GPa)
#
#
# Indices 1 2 3 4 5 6 
#
# 1 131.5050 4.6427 48.1443 0.0000 10.8772 0.0000
# 2 4.6427 54.1785 16.3722 0.0000 9.1559 0.0000
# 3 48.1443 16.3722 205.4224 0.0000 -22.2265 0.0000
# 4 0.0000 0.0000 0.0000 36.8750 0.0000 -7.5032
# 5 10.8772 9.1559 -22.2265 0.0000 66.8556 0.0000
# 6 0.0000 0.0000 0.0000 -7.5032 0.0000 38.8420
#
#
#
# Elastic Compliance Matrix: (Units=1/GPa)
#
#
# Indices 1 2 3 4 5 6 
#
# 1 0.008611 0.000324 -0.002282 0.000000 -0.002204 0.000000
# 2 0.000324 0.019612 -0.002008 0.000000 -0.003406 0.000000
# 3 -0.002282 -0.002008 0.005843 0.000000 0.002589 0.000000
# 4 0.000000 0.000000 0.000000 0.028228 0.000000 0.005453
# 5 -0.002204 -0.003406 0.002589 0.000000 0.016643 0.000000
# 6 0.000000 0.000000 0.000000 0.005453 0.000000 0.026799
#
#
# Mechanical properties :
#
#
# Convention : Reuss Voigt Hill
#
# Bulk Modulus (GPa) = 38.26376 58.82491 48.54434
# Shear Modulus (GPa) = 40.85673 49.97763 45.41718
#
# Velocity S-wave (km/s) = 3.90007 4.31349 4.11198
# Velocity P-wave (km/s) = 5.87588 6.83434 6.37316
#
# Compressibility (1/GPa) = 0.02613439
#
# Stress axis : x y z
#
# Youngs Moduli (GPa) = 116.13412 50.98918 171.14320
#
# Poissons Ratio (x) = -0.01654 0.39062
# Poissons Ratio (y) = -0.03767 0.34359
# Poissons Ratio (z) = 0.26507 0.10237
#
# Static dielectric constant tensor:
#      x y z
#    x 2.162860 0.000000 -0.052460 
#    y 0.000000 2.168780 0.000000 
#    z -0.052460 0.000000 2.149640 
# 
# From -- ./inp_files/52808.got.cif
#   From: 2010.05.17/outbox.cif.g08.bks.cpg/sg14_27_cif.got.tgz:52808.got - 2010.06.03 17:49:19.
