data_PCOD9252548
_publ_section_title
;
Structure prediction by ZEFSAII (Michael W. Deem and Ramdas Pophale) SiO2 
 PCOD9252548
Probable space group: P 21/C
;
_chemical_formula_sum "Si O2"
_cell_formula_units_Z 24
_cell_length_a 13.026972
_cell_length_b 6.763478
_cell_length_c 22.916078
_cell_angle_alpha 90.000000
_cell_angle_beta 31.598373
_cell_angle_gamma 90.000000
_cell_volume 1057.921424
_symmetry_space_group_name_H-M "P 21/C"
_symmetry_group_IT_number 14
_symmetry_cell_setting 'monoclinic'
loop_
_space_group_symop_operation_xyz
x,y,z
-x,1/2+y,1/2-z
-x,-y,-z
x,1/2-y,1/2+z
loop_
_atom_site_type_symbol
_atom_site_label
_atom_site_fract_x
_atom_site_fract_y
_atom_site_fract_z
Si Si1 0.584128 0.246168 0.897537
Si Si2 0.414159 0.519452 0.377105
Si Si3 0.970953 0.002127 0.699954
Si Si4 0.733357 0.804462 0.641626
Si Si5 0.137716 0.633887 0.004372
Si Si6 0.288213 0.146660 0.636678
O O1 0.478431 0.122780 0.898334
O O2 0.609868 0.480493 0.873236
O O3 0.802506 0.159825 0.795467
O O4 0.455405 0.239594 0.018955
O O5 0.332731 0.381951 0.364408
O O6 0.595581 0.641993 0.262689
O O7 0.256237 0.682224 0.472738
O O8 0.857778 0.795086 0.761281
O O9 0.053382 0.009250 0.594978
O O10 0.152369 0.033829 0.655201
O O11 0.954785 0.782490 0.556576
O O12 0.733457 0.999217 0.600596
#
# Coordination Sequence:
#
# PCOD9252548 Si02
#       6
#     4   4   4   4   4   4
#     4  11  26  46  69 104 139 189 233 289 354 422
#     4  12  24  44  74 101 140 183 235 290 348 419
#     4  12  24  45  72 104 139 182 235 289 354 420
#     4  11  24  46  67 105 144 179 233 289 348 414
#     4  11  26  44  70 103 140 187 233 287 352 418
#     4  11  26  45  71 103 142 182 233 296 353 419
#
# _framework density 22.685994999999998
#
# number of rings (size 3 to 8) (size 9 to 14) (size 15 to 20)
#    0.000    0.667    5.000    2.000    2.333    6.667 
#    0.000    0.000    0.000    0.000    0.000    0.000 
#    0.000    0.000    0.000    0.000    0.000    0.000 
#
# Total GULP energy -134370.599948 kJ/mol
# GULP energy per Si atom -5598.774998 kJ/mol
# Density = 2.263436 g / cm^3
# Si number density = 22.685995 Si / 1000 Ang^3
#
#
#
# Elastic Constant Matrix: (Units=GPa)
#
#
# Indices 1 2 3 4 5 6 
#
# 1 61.2579 26.6683 17.1251 0.0000 -4.3109 0.0000
# 2 26.6683 72.0485 29.5071 0.0000 -13.8770 0.0000
# 3 17.1251 29.5071 97.1434 0.0000 -9.4312 0.0000
# 4 0.0000 0.0000 0.0000 40.9671 0.0000 -11.7138
# 5 -4.3109 -13.8770 -9.4312 0.0000 18.6174 0.0000
# 6 0.0000 0.0000 0.0000 -11.7138 0.0000 48.6338
#
#
#
# Elastic Compliance Matrix: (Units=1/GPa)
#
#
# Indices 1 2 3 4 5 6 
#
# 1 0.019663 -0.006930 -0.001494 0.000000 -0.001369 0.000000
# 2 -0.006930 0.020225 -0.003801 0.000000 0.011545 0.000000
# 3 -0.001494 -0.003801 0.011993 0.000000 0.002896 0.000000
# 4 0.000000 0.000000 0.000000 0.026215 0.000000 0.006314
# 5 -0.001369 0.011545 0.002896 0.000000 0.063469 0.000000
# 6 0.000000 0.000000 0.000000 0.006314 0.000000 0.022083
#
#
# Mechanical properties :
#
#
# Convention : Reuss Voigt Hill
#
# Bulk Modulus (GPa) = 36.45518 41.89454 39.17486
# Shear Modulus (GPa) = 25.34975 32.12029 28.73502
#
# Velocity S-wave (km/s) = 3.34641 3.76688 3.56285
# Velocity P-wave (km/s) = 5.57096 6.11771 5.85073
#
# Compressibility (1/GPa) = 0.02743095
#
# Stress axis : x y z
#
# Youngs Moduli (GPa) = 50.85790 49.44431 83.38090
#
# Poissons Ratio (x) = 0.34264 0.12460
# Poissons Ratio (y) = 0.35243 0.31691
# Poissons Ratio (z) = 0.07600 0.18792
#
# Static dielectric constant tensor:
#      x y z
#    x 1.842150 0.000000 -0.006440 
#    y 0.000000 1.833450 0.000000 
#    z -0.006440 0.000000 1.794060 
# 
# From -- ./inp_files/77388.got.cif
#   From: 2010.05.17/outbox.cif.g08.bks.cpg/sg14_39_cif.got.tgz:77388.got - 2010.06.03 17:49:19.
