data_PCOD9252583
_publ_section_title
;
Structure prediction by ZEFSAII (Michael W. Deem and Ramdas Pophale) SiO2 
 PCOD9252583
Probable space group: P 21/C
;
_chemical_formula_sum "Si O2"
_cell_formula_units_Z 20
_cell_length_a 11.613438
_cell_length_b 8.579277
_cell_length_c 8.058842
_cell_angle_alpha 90.000000
_cell_angle_beta 103.754063
_cell_angle_gamma 90.000000
_cell_volume 779.917740
_symmetry_space_group_name_H-M "P 21/C"
_symmetry_group_IT_number 14
_symmetry_cell_setting 'monoclinic'
loop_
_space_group_symop_operation_xyz
x,y,z
-x,1/2+y,1/2-z
-x,-y,-z
x,1/2-y,1/2+z
loop_
_atom_site_type_symbol
_atom_site_label
_atom_site_fract_x
_atom_site_fract_y
_atom_site_fract_z
Si Si1 0.560164 0.366354 0.406929
Si Si2 0.157768 0.370535 0.384922
Si Si3 0.694436 0.084232 0.621586
Si Si4 0.045918 0.032506 0.327031
Si Si5 0.325852 0.321758 0.154874
O O1 0.500000 0.500000 0.500000
O O2 0.641769 0.244723 0.532154
O O3 0.638109 0.428494 0.282604
O O4 0.449536 0.279970 0.279985
O O5 0.247593 0.407126 0.266675
O O6 0.242080 0.317074 0.562695
O O7 0.057787 0.500151 0.340596
O O8 0.086757 0.210381 0.326707
O O9 0.837187 0.071525 0.667391
O O10 0.654707 0.941722 0.488679
O O11 0.000000 0.000000 0.500000
#
# Coordination Sequence:
#
# PCOD9252583 Si02
#       5
#     4   4   4   4   4
#     4  12  27  49  79 111 154 204 257 324 395 470
#     4  11  24  46  77 105 158 202 261 328 387 469
#     4  11  26  47  76 112 158 199 262 318 394 474
#     4  11  25  49  75 114 155 203 263 331 390 464
#     4  11  25  46  71 113 153 203 256 318 394 466
#
# _framework density 25.643730000000001
#
# number of rings (size 3 to 8) (size 9 to 14) (size 15 to 20)
#    0.000    0.800    4.000    3.000    2.800   10.400 
#    0.000    0.000    0.000    0.000    0.000    0.000 
#    0.000    0.000    0.000    0.000    0.000    0.000 
#
# Total GULP energy -112128.728693 kJ/mol
# GULP energy per Si atom -5606.436435 kJ/mol
# Density = 2.558536 g / cm^3
# Si number density = 25.643730 Si / 1000 Ang^3
#
#
#
# Elastic Constant Matrix: (Units=GPa)
#
#
# Indices 1 2 3 4 5 6 
#
# 1 176.3308 43.9483 51.0150 0.0000 -2.1298 0.0000
# 2 43.9483 85.4873 22.2143 0.0000 13.3719 0.0000
# 3 51.0150 22.2143 91.7865 0.0000 -28.9616 0.0000
# 4 0.0000 0.0000 0.0000 41.0922 0.0000 13.9470
# 5 -2.1298 13.3719 -28.9616 0.0000 71.1496 0.0000
# 6 0.0000 0.0000 0.0000 13.9470 0.0000 51.1953
#
#
#
# Elastic Compliance Matrix: (Units=1/GPa)
#
#
# Indices 1 2 3 4 5 6 
#
# 1 0.007413 -0.002728 -0.003704 0.000000 -0.000773 0.000000
# 2 -0.002728 0.014625 -0.003347 0.000000 -0.004193 0.000000
# 3 -0.003704 -0.003347 0.015979 0.000000 0.007023 0.000000
# 4 0.000000 0.000000 0.000000 0.026815 0.000000 -0.007305
# 5 -0.000773 -0.004193 0.007023 0.000000 0.017678 0.000000
# 6 0.000000 0.000000 0.000000 -0.007305 0.000000 0.021523
#
#
# Mechanical properties :
#
#
# Convention : Reuss Voigt Hill
#
# Bulk Modulus (GPa) = 54.16707 65.32887 59.74797
# Shear Modulus (GPa) = 38.53722 48.44922 43.49322
#
# Velocity S-wave (km/s) = 3.88079 4.35135 4.12279
# Velocity P-wave (km/s) = 6.42258 7.12576 6.78329
#
# Compressibility (1/GPa) = 0.01846140
#
# Stress axis : x y z
#
# Youngs Moduli (GPa) = 134.89246 68.37462 62.58065
#
# Poissons Ratio (x) = 0.18650 0.23181
# Poissons Ratio (y) = 0.36794 0.20943
# Poissons Ratio (z) = 0.49966 0.22882
#
# Static dielectric constant tensor:
#      x y z
#    x 1.996770 0.000000 0.017880 
#    y 0.000000 1.998860 0.000000 
#    z 0.017880 0.000000 2.061580 
# 
# From -- ./inp_files/11859.got.cif
#   From: 2010.05.17/outbox.cif.g08.bks.cpg/sg14_6_cif.got.tgz:11859.got - 2010.06.03 17:49:19.
