data_PCOD9252423
_publ_section_title
;
Structure prediction by ZEFSAII (Michael W. Deem and Ramdas Pophale) SiO2 
 PCOD9252423
Probable space group: P 21/C
;
_chemical_formula_sum "Si O2"
_cell_formula_units_Z 20
_cell_length_a 8.985348
_cell_length_b 15.912921
_cell_length_c 12.516779
_cell_angle_alpha 90.000000
_cell_angle_beta 32.184665
_cell_angle_gamma 90.000000
_cell_volume 953.277060
_symmetry_space_group_name_H-M "P 21/C"
_symmetry_group_IT_number 14
_symmetry_cell_setting 'monoclinic'
loop_
_space_group_symop_operation_xyz
x,y,z
-x,1/2+y,1/2-z
-x,-y,-z
x,1/2-y,1/2+z
loop_
_atom_site_type_symbol
_atom_site_label
_atom_site_fract_x
_atom_site_fract_y
_atom_site_fract_z
Si Si1 0.800077 0.581684 0.625227
Si Si2 0.013420 0.187871 0.186429
Si Si3 0.755976 0.951452 0.791408
Si Si4 0.319583 0.038886 0.393248
Si Si5 0.619532 0.839897 0.455367
O O1 0.906141 0.651694 0.478700
O O2 0.496857 0.546531 0.774540
O O3 0.766571 0.617740 0.764262
O O4 0.000000 0.500000 0.500000
O O5 0.118012 0.117862 0.207005
O O6 0.178542 0.271944 0.114150
O O7 0.679710 0.197861 0.396205
O O8 0.668369 0.915967 0.728521
O O9 0.002873 0.017155 0.615813
O O10 0.500000 0.000000 0.000000
O O11 0.442132 0.090387 0.417235
#
# Coordination Sequence:
#
# PCOD9252423 Si02
#       5
#     4   4   4   4   4
#     4  12  24  47  77 100 136 193 244 289 355 432
#     4  12  28  46  70 107 147 189 234 301 369 422
#     4  11  24  43  71 104 139 181 240 291 351 426
#     4  11  24  44  73 102 135 184 241 291 345 428
#     4  12  29  45  71 105 149 183 242 297 365 426
#
# _framework density 20.980260000000001
#
# number of rings (size 3 to 8) (size 9 to 14) (size 15 to 20)
#    0.000    0.400    6.000    1.800    5.600    1.600 
#    0.000    0.000    0.000    0.000    0.000    0.000 
#    0.000    0.000    0.000    0.000    0.000    0.000 
#
# Total GULP energy -111912.441476 kJ/mol
# GULP energy per Si atom -5595.622074 kJ/mol
# Density = 2.093251 g / cm^3
# Si number density = 20.980260 Si / 1000 Ang^3
#
#
#
# Elastic Constant Matrix: (Units=GPa)
#
#
# Indices 1 2 3 4 5 6 
#
# 1 85.5796 24.1514 44.3564 0.0000 24.2983 0.0000
# 2 24.1514 57.7050 42.4707 0.0000 0.7764 0.0000
# 3 44.3564 42.4707 146.7417 0.0000 -0.7960 0.0000
# 4 0.0000 0.0000 0.0000 21.4383 0.0000 -14.2776
# 5 24.2983 0.7764 -0.7960 0.0000 44.6079 0.0000
# 6 0.0000 0.0000 0.0000 -14.2776 0.0000 46.2890
#
#
#
# Elastic Compliance Matrix: (Units=1/GPa)
#
#
# Indices 1 2 3 4 5 6 
#
# 1 0.017819 -0.004224 -0.004216 0.000000 -0.009708 0.000000
# 2 -0.004224 0.023032 -0.005380 0.000000 0.001804 0.000000
# 3 -0.004216 -0.005380 0.009660 0.000000 0.002563 0.000000
# 4 0.000000 0.000000 0.000000 0.058705 0.000000 0.018107
# 5 -0.009708 0.001804 0.002563 0.000000 0.027720 0.000000
# 6 0.000000 0.000000 0.000000 0.018107 0.000000 0.027188
#
#
# Mechanical properties :
#
#
# Convention : Reuss Voigt Hill
#
# Bulk Modulus (GPa) = 43.72235 56.88703 50.30469
# Shear Modulus (GPa) = 25.07681 34.40355 29.74018
#
# Velocity S-wave (km/s) = 3.46100 4.05384 3.76910
# Velocity P-wave (km/s) = 6.07094 7.00607 6.55520
#
# Compressibility (1/GPa) = 0.02287160
#
# Stress axis : x y z
#
# Youngs Moduli (GPa) = 56.12105 43.41702 103.51887
#
# Poissons Ratio (x) = 0.18339 0.43647
# Poissons Ratio (y) = 0.23705 0.55689
# Poissons Ratio (z) = 0.23662 0.23357
#
# Static dielectric constant tensor:
#      x y z
#    x 1.797670 0.000000 -0.022380 
#    y 0.000000 1.739010 0.000000 
#    z -0.022380 0.000000 1.763440 
# 
# From -- ./inp_files/21135.got.cif
#   From: 2010.05.17/outbox.cif.g08.bks.cpg/sg14_11_cif.got.tgz:21135.got - 2010.06.03 17:49:19.
