data_PCOD9252715
_publ_section_title
;
Structure prediction by ZEFSAII (Michael W. Deem and Ramdas Pophale) SiO2 
 PCOD9252715
Probable space group: P 21/C
;
_chemical_formula_sum "Si O2"
_cell_formula_units_Z 28
_cell_length_a 11.461387
_cell_length_b 5.020311
_cell_length_c 21.677244
_cell_angle_alpha 90.000000
_cell_angle_beta 116.662097
_cell_angle_gamma 90.000000
_cell_volume 1114.675054
_symmetry_space_group_name_H-M "P 21/C"
_symmetry_group_IT_number 14
_symmetry_cell_setting 'monoclinic'
loop_
_space_group_symop_operation_xyz
x,y,z
-x,1/2+y,1/2-z
-x,-y,-z
x,1/2-y,1/2+z
loop_
_atom_site_type_symbol
_atom_site_label
_atom_site_fract_x
_atom_site_fract_y
_atom_site_fract_z
Si Si1 0.365052 0.081283 0.436442
Si Si2 0.232954 0.956361 0.090254
Si Si3 0.222324 0.418025 0.780305
Si Si4 0.081005 0.455422 0.081945
Si Si5 0.778562 0.086272 0.057160
Si Si6 0.415281 0.228889 0.222158
Si Si7 0.006187 0.276396 0.324726
O O1 0.261155 0.890921 0.445301
O O2 0.500000 0.000000 0.500000
O O3 0.334472 0.020124 0.357420
O O4 0.330132 0.389876 0.438766
O O5 0.122677 0.150162 0.091732
O O6 0.363560 0.086271 0.147850
O O7 0.204457 0.655065 0.103470
O O8 0.220022 0.978283 0.014305
O O9 0.296171 0.264330 0.743148
O O10 0.102284 0.287452 0.790225
O O11 0.140702 0.659570 0.731516
O O12 0.010003 0.554370 0.126423
O O13 0.000000 0.500000 0.000000
O O14 0.911196 0.009637 0.122845
O O15 0.479464 0.514418 0.228265
#
# Coordination Sequence:
#
# PCOD9252715 Si02
#       7
#     4   4   4   4   4   4   4
#     4  11  26  46  72 103 144 195 257 304 370 443
#     4  12  26  46  74 106 150 192 257 301 385 441
#     4  11  27  47  76 111 153 201 251 314 388 451
#     4  12  25  44  75 112 151 192 241 312 382 466
#     4  11  25  44  73 107 142 196 240 310 378 442
#     4  12  30  51  76 107 150 206 263 319 378 459
#     4  11  25  47  76 115 157 199 251 319 387 472
#
# _framework density 25.119426000000001
#
# number of rings (size 3 to 8) (size 9 to 14) (size 15 to 20)
#    0.000    0.571    2.857    3.429    8.000    2.286 
#    0.000    0.000    0.000    0.000    0.000    0.000 
#    0.000    0.000    0.000    0.000    0.000    0.000 
#
# Total GULP energy -156808.135985 kJ/mol
# GULP energy per Si atom -5600.290571 kJ/mol
# Density = 2.506225 g / cm^3
# Si number density = 25.119426 Si / 1000 Ang^3
#
#
#
# Elastic Constant Matrix: (Units=GPa)
#
#
# Indices 1 2 3 4 5 6 
#
# 1 64.3076 -1.1668 38.0502 0.0000 -19.7187 0.0000
# 2 -1.1668 48.9125 9.9414 0.0000 -3.8789 0.0000
# 3 38.0502 9.9414 147.9090 0.0000 1.7539 0.0000
# 4 0.0000 0.0000 0.0000 34.3731 0.0000 2.5432
# 5 -19.7187 -3.8789 1.7539 0.0000 44.4454 0.0000
# 6 0.0000 0.0000 0.0000 2.5432 0.0000 45.9925
#
#
#
# Elastic Compliance Matrix: (Units=1/GPa)
#
#
# Indices 1 2 3 4 5 6 
#
# 1 0.022361 0.002587 -0.006049 0.000000 0.010385 0.000000
# 2 0.002587 0.021183 -0.002126 0.000000 0.003080 0.000000
# 3 -0.006049 -0.002126 0.008498 0.000000 -0.003205 0.000000
# 4 0.000000 0.000000 0.000000 0.029212 0.000000 -0.001615
# 5 0.010385 0.003080 -0.003205 0.000000 0.027502 0.000000
# 6 0.000000 0.000000 0.000000 -0.001615 0.000000 0.021832
#
#
# Mechanical properties :
#
#
# Convention : Reuss Voigt Hill
#
# Bulk Modulus (GPa) = 24.47108 39.41986 31.94547
# Shear Modulus (GPa) = 32.17777 39.24914 35.71345
#
# Velocity S-wave (km/s) = 3.58298 3.95714 3.77470
# Velocity P-wave (km/s) = 5.18459 6.05026 5.63408
#
# Compressibility (1/GPa) = 0.04086457
#
# Stress axis : x y z
#
# Youngs Moduli (GPa) = 44.72066 47.20840 117.67426
#
# Poissons Ratio (x) = -0.12211 0.71187
# Poissons Ratio (y) = -0.11567 0.25014
# Poissons Ratio (z) = 0.27054 0.10035
#
# Static dielectric constant tensor:
#      x y z
#    x 2.002700 0.000000 0.016820 
#    y 0.000000 1.970910 0.000000 
#    z 0.016820 0.000000 2.032880 
# 
# From -- ./inp_files/66562.got.cif
#   From: 2010.05.17/outbox.cif.g08.bks.cpg/sg14_34_cif.got.tgz:66562.got - 2010.06.03 17:49:19.
