data_PCOD9252905
_publ_section_title
;
Structure prediction by ZEFSAII (Michael W. Deem and Ramdas Pophale) SiO2 
 PCOD9252905
Probable space group: P 21/C
;
_chemical_formula_sum "Si O2"
_cell_formula_units_Z 24
_cell_length_a 13.057296
_cell_length_b 9.263978
_cell_length_c 8.878020
_cell_angle_alpha 90.000000
_cell_angle_beta 77.490681
_cell_angle_gamma 90.000000
_cell_volume 1048.413805
_symmetry_space_group_name_H-M "P 21/C"
_symmetry_group_IT_number 14
_symmetry_cell_setting 'monoclinic'
loop_
_space_group_symop_operation_xyz
x,y,z
-x,1/2+y,1/2-z
-x,-y,-z
x,1/2-y,1/2+z
loop_
_atom_site_type_symbol
_atom_site_label
_atom_site_fract_x
_atom_site_fract_y
_atom_site_fract_z
Si Si1 0.734970 0.359740 0.786626
Si Si2 0.592195 0.598118 0.407549
Si Si3 0.489021 0.368301 0.892501
Si Si4 0.873201 0.932913 0.402922
Si Si5 0.202564 0.569854 0.565972
Si Si6 0.935140 0.637331 0.214478
O O1 0.609995 0.334295 0.806574
O O2 0.763960 0.499898 0.878392
O O3 0.780619 0.214741 0.844497
O O4 0.790213 0.388806 0.610054
O O5 0.500000 0.500000 0.500000
O O6 0.567998 0.748206 0.492421
O O7 0.578078 0.603225 0.234142
O O8 0.701041 0.534498 0.425540
O O9 0.500000 0.500000 0.000000
O O10 0.916364 0.797145 0.289659
O O11 0.871909 0.881456 0.577053
O O12 0.950687 0.072769 0.364662
O O13 0.103816 0.477512 0.648865
#
# Coordination Sequence:
#
# PCOD9252905 Si02
#       6
#     4   4   4   4   4   4
#     4  12  25  45  69 102 136 185 231 285 346 411
#     4  12  25  46  67 101 138 184 234 282 345 409
#     4  12  27  43  70  98 140 185 231 289 343 409
#     4  11  26  47  74 105 142 180 232 280 354 408
#     4  12  27  44  73 101 142 184 235 286 348 411
#     4  11  26  47  73 106 140 183 226 291 341 419
#
# _framework density 22.891725000000001
#
# number of rings (size 3 to 8) (size 9 to 14) (size 15 to 20)
#    0.000    0.333    3.333    4.000    7.000    5.333 
#    0.000    0.000    0.000    0.000    0.000    0.000 
#    0.000    0.000    0.000    0.000    0.000    0.000 
#
# Total GULP energy -134376.803925 kJ/mol
# GULP energy per Si atom -5599.033497 kJ/mol
# Density = 2.283962 g / cm^3
# Si number density = 22.891725 Si / 1000 Ang^3
#
#
#
# Elastic Constant Matrix: (Units=GPa)
#
#
# Indices 1 2 3 4 5 6 
#
# 1 35.0434 0.8526 1.1303 0.0000 -5.6874 0.0000
# 2 0.8526 141.2461 48.2665 0.0000 3.9871 0.0000
# 3 1.1303 48.2665 143.4617 0.0000 23.7694 0.0000
# 4 0.0000 0.0000 0.0000 2.9923 0.0000 46.7104
# 5 -5.6874 3.9871 23.7694 0.0000 28.0388 0.0000
# 6 0.0000 0.0000 0.0000 46.7104 0.0000 -31.8681
#
#
#
# Elastic Compliance Matrix: (Units=1/GPa)
#
#
# Indices 1 2 3 4 5 6 
#
# 1 0.029762 0.000121 -0.001480 0.000000 0.007275 0.000000
# 2 0.000121 0.008043 -0.002934 0.000000 0.001368 0.000000
# 3 -0.001480 -0.002934 0.009249 0.000000 -0.007724 0.000000
# 4 0.000000 0.000000 0.000000 0.013994 0.000000 0.020512
# 5 0.007275 0.001368 -0.007724 0.000000 0.043494 0.000000
# 6 0.000000 0.000000 0.000000 0.020512 0.000000 -0.001314
#
#
# Mechanical properties :
#
#
# Convention : Reuss Voigt Hill
#
# Bulk Modulus (GPa) = 25.99623 46.69443 36.34533
# Shear Modulus (GPa) = 40.11694 17.79939 28.95816
#
# Velocity S-wave (km/s) = 4.19079 2.79148 3.56055
# Velocity P-wave (km/s) = 5.89896 5.55266 5.72843
#
# Compressibility (1/GPa) = 0.03846711
#
# Stress axis : x y z
#
# Youngs Moduli (GPa) = 33.60043 124.33244 108.12182
#
# Poissons Ratio (x) = -0.01503 0.16007
# Poissons Ratio (y) = -0.00406 0.31718
# Poissons Ratio (z) = 0.04974 0.36473
#
# Static dielectric constant tensor:
#      x y z
#    x 1.791580 0.000000 0.086550 
#    y 0.000000 1.752490 0.000000 
#    z 0.086550 0.000000 1.788900 
# 
# From -- ./inp_files/15047.got.cif
#   From: 2010.05.17/outbox.cif.g08.bks.cpg/sg14_8_cif.got.tgz:15047.got - 2010.06.03 17:49:19.
