data_PCOD9252336
_publ_section_title
;
Structure prediction by ZEFSAII (Michael W. Deem and Ramdas Pophale) SiO2 
 PCOD9252336
Probable space group: P 21/C
;
_chemical_formula_sum "Si O2"
_cell_formula_units_Z 32
_cell_length_a 5.441476
_cell_length_b 8.917782
_cell_length_c 27.686443
_cell_angle_alpha 90.000000
_cell_angle_beta 63.173817
_cell_angle_gamma 90.000000
_cell_volume 1198.920559
_symmetry_space_group_name_H-M "P 21/C"
_symmetry_group_IT_number 14
_symmetry_cell_setting 'monoclinic'
loop_
_space_group_symop_operation_xyz
x,y,z
-x,1/2+y,1/2-z
-x,-y,-z
x,1/2-y,1/2+z
loop_
_atom_site_type_symbol
_atom_site_label
_atom_site_fract_x
_atom_site_fract_y
_atom_site_fract_z
Si Si1 0.437230 0.477941 0.259491
Si Si2 0.016450 0.118068 0.954933
Si Si3 0.950271 0.216813 0.809349
Si Si4 0.343822 0.309690 0.088029
Si Si5 0.884312 0.233958 0.707799
Si Si6 0.489489 0.048149 0.357890
Si Si7 0.930132 0.443403 0.953000
Si Si8 0.628834 0.470895 0.401904
O O1 0.331606 0.636313 0.287558
O O2 0.745343 0.422579 0.234968
O O3 0.422063 0.494058 0.202628
O O4 0.252310 0.342342 0.297727
O O5 0.845721 0.273241 0.974391
O O6 0.351079 0.128927 0.925175
O O7 0.871676 0.057945 0.919229
O O8 0.000000 0.000000 0.000000
O O9 0.002261 0.271640 0.750036
O O10 0.741971 0.341210 0.850205
O O11 0.772784 0.065361 0.837725
O O12 0.536626 0.407543 0.104624
O O13 0.450906 0.140320 0.077342
O O14 0.074378 0.289589 0.145621
O O15 0.256903 0.423990 0.053062
O O16 0.173835 0.100220 0.392510
O O17 0.000000 0.500000 0.000000
#
# Coordination Sequence:
#
# PCOD9252336 Si02
#       8
#     4   4   4   4   4   4   4   4
#     4  11  24  40  68  99 148 193 254 307 386 461
#     4  12  29  56  80 112 151 204 264 324 392 463
#     4  11  24  44  67 108 147 202 247 306 392 463
#     4  12  26  46  73 109 152 197 259 321 391 462
#     4  11  25  40  66 103 144 201 245 312 374 469
#     4  11  25  45  70 104 149 197 251 317 383 470
#     4  12  28  50  78 111 150 204 258 327 396 455
#     4  12  28  49  82 112 152 202 257 324 385 470
#
# _framework density 26.690677000000001
#
# number of rings (size 3 to 8) (size 9 to 14) (size 15 to 20)
#    0.000    0.500    5.000    1.875    7.000    1.500 
#    0.000    0.000    0.000    0.000    0.000    0.000 
#    0.000    0.000    0.000    0.000    0.000    0.000 
#
# Total GULP energy -178412.915141 kJ/mol
# GULP energy per Si atom -5575.403598 kJ/mol
# Density = 2.662993 g / cm^3
# Si number density = 26.690677 Si / 1000 Ang^3
#
#
#
# Elastic Constant Matrix: (Units=GPa)
#
#
# Indices 1 2 3 4 5 6 
#
# 1 66.5697 11.1352 12.1286 0.0000 3.0432 0.0000
# 2 11.1352 127.0191 16.7822 0.0000 16.5735 0.0000
# 3 12.1286 16.7822 77.8064 0.0000 1.6702 0.0000
# 4 0.0000 0.0000 0.0000 37.5084 0.0000 -0.1474
# 5 3.0432 16.5735 1.6702 0.0000 45.2494 0.0000
# 6 0.0000 0.0000 0.0000 -0.1474 0.0000 45.1559
#
#
#
# Elastic Compliance Matrix: (Units=1/GPa)
#
#
# Indices 1 2 3 4 5 6 
#
# 1 0.015618 -0.000999 -0.002206 0.000000 -0.000603 0.000000
# 2 -0.000999 0.008568 -0.001628 0.000000 -0.003011 0.000000
# 3 -0.002206 -0.001628 0.013542 0.000000 0.000245 0.000000
# 4 0.000000 0.000000 0.000000 0.026661 0.000000 0.000087
# 5 -0.000603 -0.003011 0.000245 0.000000 0.023234 0.000000
# 6 0.000000 0.000000 0.000000 0.000087 0.000000 0.022146
#
#
# Mechanical properties :
#
#
# Convention : Reuss Voigt Hill
#
# Bulk Modulus (GPa) = 35.63407 39.05411 37.34409
# Shear Modulus (GPa) = 38.82280 41.00602 39.91441
#
# Velocity S-wave (km/s) = 3.81799 3.92387 3.87129
# Velocity P-wave (km/s) = 5.72851 5.93236 5.83132
#
# Compressibility (1/GPa) = 0.02806303
#
# Stress axis : x y z
#
# Youngs Moduli (GPa) = 64.02672 116.70839 73.84343
#
# Poissons Ratio (x) = 0.11659 0.16291
# Poissons Ratio (y) = 0.06396 0.12020
# Poissons Ratio (z) = 0.14126 0.18997
#
# Static dielectric constant tensor:
#      x y z
#    x 2.306940 0.000000 -0.038230 
#    y 0.000000 2.209010 0.000000 
#    z -0.038230 0.000000 2.168500 
# 
# From -- ./inp_files/78802.got.cif
#   From: 2010.05.17/outbox.cif.g08.bks.cpg/sg14_40_cif.got.tgz:78802.got - 2010.06.03 17:49:19.
