data_PCOD9252442
_publ_section_title
;
Structure prediction by ZEFSAII (Michael W. Deem and Ramdas Pophale) SiO2 
 PCOD9252442
Probable space group: P 21/C
;
_chemical_formula_sum "Si O2"
_cell_formula_units_Z 24
_cell_length_a 13.554206
_cell_length_b 5.202709
_cell_length_c 13.850098
_cell_angle_alpha 90.000000
_cell_angle_beta 116.816178
_cell_angle_gamma 90.000000
_cell_volume 871.654709
_symmetry_space_group_name_H-M "P 21/C"
_symmetry_group_IT_number 14
_symmetry_cell_setting 'monoclinic'
loop_
_space_group_symop_operation_xyz
x,y,z
-x,1/2+y,1/2-z
-x,-y,-z
x,1/2-y,1/2+z
loop_
_atom_site_type_symbol
_atom_site_label
_atom_site_fract_x
_atom_site_fract_y
_atom_site_fract_z
Si Si1 0.820534 0.318809 0.938237
Si Si2 0.723260 0.960174 0.730597
Si Si3 0.528090 0.620650 0.701609
Si Si4 0.338457 0.772233 0.975414
Si Si5 0.859004 0.838085 0.141553
Si Si6 0.989885 0.963127 0.371992
O O1 0.766409 0.104982 0.844545
O O2 0.882481 0.503503 0.889985
O O3 0.724449 0.402042 0.970604
O O4 0.927333 0.243672 0.052427
O O5 0.652826 0.138860 0.624902
O O6 0.650276 0.715915 0.728865
O O7 0.822239 0.879631 0.703946
O O8 0.515087 0.342452 0.743703
O O9 0.452038 0.642350 0.573291
O O10 0.251967 0.007041 0.929829
O O11 0.944154 0.992735 0.244834
O O12 0.923467 0.698930 0.085311
#
# Coordination Sequence:
#
# PCOD9252442 Si02
#       6
#     4   4   4   4   4   4
#     4  11  24  47  73 111 156 208 265 326 396 486
#     4  12  27  50  81 113 161 210 273 338 413 489
#     4  12  31  54  87 121 162 214 277 342 423 494
#     4  12  27  51  77 118 155 212 272 333 415 480
#     4  12  26  46  78 113 163 211 271 330 410 489
#     4  11  24  43  76 114 164 210 271 320 410 483
#
# _framework density 27.533837999999999
#
# number of rings (size 3 to 8) (size 9 to 14) (size 15 to 20)
#    0.000    0.333    5.000    2.500    7.000    4.667 
#    0.000    0.000    0.000    0.000    0.000    0.000 
#    0.000    0.000    0.000    0.000    0.000    0.000 
#
# Total GULP energy -134422.889719 kJ/mol
# GULP energy per Si atom -5600.953738 kJ/mol
# Density = 2.747117 g / cm^3
# Si number density = 27.533838 Si / 1000 Ang^3
#
#
#
# Elastic Constant Matrix: (Units=GPa)
#
#
# Indices 1 2 3 4 5 6 
#
# 1 129.0085 12.8579 31.6243 0.0000 -4.2884 0.0000
# 2 12.8579 66.9700 15.1917 0.0000 -5.7065 0.0000
# 3 31.6243 15.1917 160.7333 0.0000 8.9105 0.0000
# 4 0.0000 0.0000 0.0000 36.1690 0.0000 5.2696
# 5 -4.2884 -5.7065 8.9105 0.0000 60.3569 0.0000
# 6 0.0000 0.0000 0.0000 5.2696 0.0000 46.2568
#
#
#
# Elastic Compliance Matrix: (Units=1/GPa)
#
#
# Indices 1 2 3 4 5 6 
#
# 1 0.008273 -0.001175 -0.001556 0.000000 0.000706 0.000000
# 2 -0.001175 0.015595 -0.001331 0.000000 0.001587 0.000000
# 3 -0.001556 -0.001331 0.006721 0.000000 -0.001229 0.000000
# 4 0.000000 0.000000 0.000000 0.028115 0.000000 -0.003203
# 5 0.000706 0.001587 -0.001229 0.000000 0.016950 0.000000
# 6 0.000000 0.000000 0.000000 -0.003203 0.000000 0.021983
#
#
# Mechanical properties :
#
#
# Convention : Reuss Voigt Hill
#
# Bulk Modulus (GPa) = 44.51179 52.89552 48.70366
# Shear Modulus (GPa) = 44.15015 48.35908 46.25462
#
# Velocity S-wave (km/s) = 4.00870 4.19543 4.10313
# Velocity P-wave (km/s) = 6.13413 6.53618 6.33834
#
# Compressibility (1/GPa) = 0.02246596
#
# Stress axis : x y z
#
# Youngs Moduli (GPa) = 120.86864 64.12384 148.77660
#
# Poissons Ratio (x) = 0.07537 0.23148
# Poissons Ratio (y) = 0.14206 0.19798
# Poissons Ratio (z) = 0.18806 0.08533
#
# Static dielectric constant tensor:
#      x y z
#    x 2.094190 0.000000 0.016460 
#    y 0.000000 2.301180 0.000000 
#    z 0.016460 0.000000 2.201030 
# 
# From -- ./inp_files/46000.got.cif
#   From: 2010.05.17/outbox.cif.g08.bks.cpg/sg14_23_cif.got.tgz:46000.got - 2010.06.03 17:49:19.
