data_PCOD9252541
_publ_section_title
;
Structure prediction by ZEFSAII (Michael W. Deem and Ramdas Pophale) SiO2 
 PCOD9252541
Probable space group: P 21/C
;
_chemical_formula_sum "Si O2"
_cell_formula_units_Z 24
_cell_length_a 19.269002
_cell_length_b 10.225956
_cell_length_c 13.110442
_cell_angle_alpha 90.000000
_cell_angle_beta 152.455231
_cell_angle_gamma 90.000000
_cell_volume 1194.640753
_symmetry_space_group_name_H-M "P 21/C"
_symmetry_group_IT_number 14
_symmetry_cell_setting 'monoclinic'
loop_
_space_group_symop_operation_xyz
x,y,z
-x,1/2+y,1/2-z
-x,-y,-z
x,1/2-y,1/2+z
loop_
_atom_site_type_symbol
_atom_site_label
_atom_site_fract_x
_atom_site_fract_y
_atom_site_fract_z
Si Si1 0.016698 0.628812 0.590255
Si Si2 0.759731 0.210255 0.234614
Si Si3 0.737641 0.708609 0.791146
Si Si4 0.494588 0.108084 0.405784
Si Si5 0.757865 0.050929 0.436552
Si Si6 0.582829 0.962778 0.921954
O O1 0.084497 0.749564 0.613317
O O2 0.000000 0.500000 0.500000
O O3 0.860129 0.680628 0.430572
O O4 0.132196 0.592214 0.830297
O O5 0.768794 0.158113 0.361334
O O6 0.661038 0.340689 0.102128
O O7 0.668821 0.097992 0.056155
O O8 0.601065 0.771738 0.675166
O O9 0.799262 0.587187 0.937736
O O10 0.673348 0.648157 0.602256
O O11 0.426742 0.061003 0.210667
O O12 0.500000 0.000000 0.500000
O O13 0.586035 0.037828 0.251934
#
# Coordination Sequence:
#
# PCOD9252541 Si02
#       6
#     4   4   4   4   4   4
#     4  12  29  44  70 104 145 178 223 290 346 409
#     4  11  24  46  69 100 137 182 231 277 347 405
#     4  11  26  46  69 102 141 180 229 283 351 405
#     4  12  25  38  73 106 132 177 237 280 334 409
#     4  11  24  47  73  98 140 185 224 290 344 399
#     4  11  24  45  76 100 135 183 232 292 332 401
#
# _framework density 20.08972
#
# number of rings (size 3 to 8) (size 9 to 14) (size 15 to 20)
#    0.000    0.667    5.000    2.000    9.333    4.000 
#    0.000    0.000    0.000    0.000    0.000    0.000 
#    0.000    0.000    0.000    0.000    0.000    0.000 
#
# Total GULP energy -134245.311060 kJ/mol
# GULP energy per Si atom -5593.554627 kJ/mol
# Density = 2.004400 g / cm^3
# Si number density = 20.089720 Si / 1000 Ang^3
#
#
#
# Elastic Constant Matrix: (Units=GPa)
#
#
# Indices 1 2 3 4 5 6 
#
# 1 78.3244 22.1953 29.4140 0.0000 -28.9634 0.0000
# 2 22.1953 71.2370 39.0147 0.0000 -29.7343 0.0000
# 3 29.4140 39.0147 78.9705 0.0000 -26.3546 0.0000
# 4 0.0000 0.0000 0.0000 23.7558 0.0000 17.8717
# 5 -28.9634 -29.7343 -26.3546 0.0000 49.7689 0.0000
# 6 0.0000 0.0000 0.0000 17.8717 0.0000 32.2886
#
#
#
# Elastic Compliance Matrix: (Units=1/GPa)
#
#
# Indices 1 2 3 4 5 6 
#
# 1 0.017117 0.000056 -0.003726 0.000000 0.008022 0.000000
# 2 0.000056 0.022151 -0.007940 0.000000 0.009062 0.000000
# 3 -0.003726 -0.007940 0.019030 0.000000 0.003165 0.000000
# 4 0.000000 0.000000 0.000000 0.072130 0.000000 -0.039924
# 5 0.008022 0.009062 0.003165 0.000000 0.031851 0.000000
# 6 0.000000 0.000000 0.000000 -0.039924 0.000000 0.053068
#
#
# Mechanical properties :
#
#
# Convention : Reuss Voigt Hill
#
# Bulk Modulus (GPa) = 28.50853 45.53109 37.01981
# Shear Modulus (GPa) = 19.97909 30.35653 25.16781
#
# Velocity S-wave (km/s) = 3.15698 3.89144 3.54329
# Velocity P-wave (km/s) = 5.24501 6.55012 5.93356
#
# Compressibility (1/GPa) = 0.03507722
#
# Stress axis : x y z
#
# Youngs Moduli (GPa) = 58.42066 45.14384 52.54926
#
# Poissons Ratio (x) = -0.00252 0.19580
# Poissons Ratio (y) = -0.00326 0.41725
# Poissons Ratio (z) = 0.21768 0.35845
#
# Static dielectric constant tensor:
#      x y z
#    x 1.700680 0.000000 -0.009360 
#    y 0.000000 1.709170 0.000000 
#    z -0.009360 0.000000 1.678440 
# 
# From -- ./inp_files/28470.got.cif
#   From: 2010.05.17/outbox.cif.g08.bks.cpg/sg14_15_cif.got.tgz:28470.got - 2010.06.03 17:49:19.
