data_PCOD9252146
_publ_section_title
;
Structure prediction by ZEFSAII (Michael W. Deem and Ramdas Pophale) SiO2 
 PCOD9252146
Probable space group: P 21/C
;
_chemical_formula_sum "Si O2"
_cell_formula_units_Z 20
_cell_length_a 16.755544
_cell_length_b 5.653114
_cell_length_c 9.257960
_cell_angle_alpha 90.000000
_cell_angle_beta 89.317196
_cell_angle_gamma 90.000000
_cell_volume 876.860963
_symmetry_space_group_name_H-M "P 21/C"
_symmetry_group_IT_number 14
_symmetry_cell_setting 'monoclinic'
loop_
_space_group_symop_operation_xyz
x,y,z
-x,1/2+y,1/2-z
-x,-y,-z
x,1/2-y,1/2+z
loop_
_atom_site_type_symbol
_atom_site_label
_atom_site_fract_x
_atom_site_fract_y
_atom_site_fract_z
Si Si1 0.799424 0.018553 0.760472
Si Si2 0.408292 0.969692 0.539104
Si Si3 0.747506 0.761017 0.511826
Si Si4 0.328154 0.870708 0.826628
Si Si5 0.975855 0.448411 0.331251
O O1 0.803254 0.943773 0.593285
O O2 0.722459 0.184847 0.767764
O O3 0.881470 0.106181 0.822306
O O4 0.775841 0.786823 0.851825
O O5 0.389555 0.976443 0.709554
O O6 0.379135 0.737245 0.455419
O O7 0.500000 0.000000 0.500000
O O8 0.344484 0.157617 0.478883
O O9 0.742462 0.517477 0.597243
O O10 0.987529 0.702925 0.241964
O O11 0.000000 0.500000 0.500000
#
# Coordination Sequence:
#
# PCOD9252146 Si02
#       5
#     4   4   4   4   4
#     4  11  25  43  74  93 139 177 234 286 340 442
#     4  11  26  40  65  97 135 175 226 290 342 411
#     4  11  23  44  65  99 128 185 228 277 346 412
#     4  11  24  43  63  96 130 179 228 270 351 405
#     4  12  29  50  77 116 153 196 246 311 385 445
#
# _framework density 22.808633
#
# number of rings (size 3 to 8) (size 9 to 14) (size 15 to 20)
#    0.000    0.800    4.000    1.800    8.400    0.800 
#    0.000    0.000    0.000    0.000    0.000    0.000 
#    0.000    0.000    0.000    0.000    0.000    0.000 
#
# Total GULP energy -111465.536630 kJ/mol
# GULP energy per Si atom -5573.276831 kJ/mol
# Density = 2.275672 g / cm^3
# Si number density = 22.808633 Si / 1000 Ang^3
#
#
#
# Elastic Constant Matrix: (Units=GPa)
#
#
# Indices 1 2 3 4 5 6 
#
# 1 64.9536 -11.7905 -0.0244 0.0000 10.7849 0.0000
# 2 -11.7905 48.5088 24.9757 0.0000 -6.1261 0.0000
# 3 -0.0244 24.9757 102.4591 0.0000 2.0610 0.0000
# 4 0.0000 0.0000 0.0000 29.4566 0.0000 -9.7530
# 5 10.7849 -6.1261 2.0610 0.0000 25.4556 0.0000
# 6 0.0000 0.0000 0.0000 -9.7530 0.0000 17.5476
#
#
#
# Elastic Compliance Matrix: (Units=1/GPa)
#
#
# Indices 1 2 3 4 5 6 
#
# 1 0.017124 0.003775 -0.000790 0.000000 -0.006282 0.000000
# 2 0.003775 0.025407 -0.006294 0.000000 0.005024 0.000000
# 3 -0.000790 -0.006294 0.011336 0.000000 -0.002098 0.000000
# 4 0.000000 0.000000 0.000000 0.041604 0.000000 0.023124
# 5 -0.006282 0.005024 -0.002098 0.000000 0.043325 0.000000
# 6 0.000000 0.000000 0.000000 0.023124 0.000000 0.069840
#
#
# Mechanical properties :
#
#
# Convention : Reuss Voigt Hill
#
# Bulk Modulus (GPa) = 21.16350 26.91591 24.03970
# Shear Modulus (GPa) = 21.64476 28.00936 24.82706
#
# Velocity S-wave (km/s) = 3.08388 3.50811 3.30281
# Velocity P-wave (km/s) = 4.68821 5.31370 5.01073
#
# Compressibility (1/GPa) = 0.04725116
#
# Stress axis : x y z
#
# Youngs Moduli (GPa) = 58.39846 39.35876 88.21358
#
# Poissons Ratio (x) = -0.14859 0.06967
# Poissons Ratio (y) = -0.22047 0.55517
# Poissons Ratio (z) = 0.04613 0.24771
#
# Static dielectric constant tensor:
#      x y z
#    x 1.793590 0.000000 0.000790 
#    y 0.000000 1.851120 0.000000 
#    z 0.000790 0.000000 1.891120 
# 
# From -- ./inp_files/17221.got.cif
#   From: 2010.05.17/outbox.cif.g08.bks.cpg/sg14_9_cif.got.tgz:17221.got - 2010.06.03 17:49:19.
