data_PCOD9252164
_publ_section_title
;
Structure prediction by ZEFSAII (Michael W. Deem and Ramdas Pophale) SiO2 
 PCOD9252164
Probable space group: P 21/C
;
_chemical_formula_sum "Si O2"
_cell_formula_units_Z 20
_cell_length_a 13.339281
_cell_length_b 7.866002
_cell_length_c 8.157439
_cell_angle_alpha 90.000000
_cell_angle_beta 114.630680
_cell_angle_gamma 90.000000
_cell_volume 778.055251
_symmetry_space_group_name_H-M "P 21/C"
_symmetry_group_IT_number 14
_symmetry_cell_setting 'monoclinic'
loop_
_space_group_symop_operation_xyz
x,y,z
-x,1/2+y,1/2-z
-x,-y,-z
x,1/2-y,1/2+z
loop_
_atom_site_type_symbol
_atom_site_label
_atom_site_fract_x
_atom_site_fract_y
_atom_site_fract_z
Si Si1 0.927511 0.853523 0.747774
Si Si2 0.825256 0.946341 0.354137
Si Si3 0.846378 0.330774 0.410473
Si Si4 0.615791 0.653196 0.930357
Si Si5 0.619888 0.007094 0.798176
O O1 0.917950 0.895588 0.551791
O O2 0.877995 0.015927 0.809190
O O3 0.169090 0.855223 0.675514
O O4 0.050011 0.824865 0.896556
O O5 0.711841 0.910326 0.374453
O O6 0.853770 0.814304 0.230155
O O7 0.726935 0.378989 0.400145
O O8 0.619497 0.856343 0.928736
O O9 0.495720 0.603601 0.779786
O O10 0.628526 0.574481 0.120362
#
# Coordination Sequence:
#
# PCOD9252164 Si02
#       5
#     4   4   4   4   4
#     4  11  27  45  70 104 139 186 235 284 350 418
#     4  12  24  47  72 102 142 183 233 291 347 411
#     4  11  25  44  68 102 142 182 232 283 349 415
#     4  11  23  44  69  98 140 180 230 292 340 415
#     4  11  24  46  68 102 139 181 239 281 353 411
#
# _framework density 25.705116
#
# number of rings (size 3 to 8) (size 9 to 14) (size 15 to 20)
#    0.000    0.800    4.000    1.800    5.600    2.400 
#    3.600    0.000    0.000    0.000    0.000    0.000 
#    0.000    0.000    0.000    0.000    0.000    0.000 
#
# Total GULP energy -112322.231731 kJ/mol
# GULP energy per Si atom -5616.111587 kJ/mol
# Density = 2.564661 g / cm^3
# Si number density = 25.705116 Si / 1000 Ang^3
#
#
#
# Elastic Constant Matrix: (Units=GPa)
#
#
# Indices 1 2 3 4 5 6 
#
# 1 169.6092 67.9168 59.8597 0.0000 18.6794 0.0000
# 2 67.9168 205.1138 27.4244 0.0000 1.6938 0.0000
# 3 59.8597 27.4244 76.7269 0.0000 22.8393 0.0000
# 4 0.0000 0.0000 0.0000 21.9757 0.0000 5.0096
# 5 18.6794 1.6938 22.8393 0.0000 36.6960 0.0000
# 6 0.0000 0.0000 0.0000 5.0096 0.0000 48.1423
#
#
#
# Elastic Compliance Matrix: (Units=1/GPa)
#
#
# Indices 1 2 3 4 5 6 
#
# 1 0.008958 -0.002158 -0.006002 0.000000 -0.000725 0.000000
# 2 -0.002158 0.005677 -0.000730 0.000000 0.001291 0.000000
# 3 -0.006002 -0.000730 0.020936 0.000000 -0.009941 0.000000
# 4 0.000000 0.000000 0.000000 0.046611 0.000000 -0.004850
# 5 -0.000725 0.001291 -0.009941 0.000000 0.033748 0.000000
# 6 0.000000 0.000000 0.000000 -0.004850 0.000000 0.021276
#
#
# Mechanical properties :
#
#
# Convention : Reuss Voigt Hill
#
# Bulk Modulus (GPa) = 56.20519 84.65016 70.42768
# Shear Modulus (GPa) = 31.07248 41.11273 36.09260
#
# Velocity S-wave (km/s) = 3.48056 4.00359 3.75120
# Velocity P-wave (km/s) = 6.16970 7.37390 6.79851
#
# Compressibility (1/GPa) = 0.01779195
#
# Stress axis : x y z
#
# Youngs Moduli (GPa) = 111.63347 176.15831 47.76540
#
# Poissons Ratio (x) = 0.38009 0.28667
# Poissons Ratio (y) = 0.24087 0.03486
# Poissons Ratio (z) = 0.66998 0.12856
#
# Static dielectric constant tensor:
#      x y z
#    x 2.007830 0.000000 -0.004780 
#    y 0.000000 1.989020 0.000000 
#    z -0.004780 0.000000 2.037280 
# 
# From -- ./inp_files/12079.got.cif
#   From: 2010.05.17/outbox.cif.g08.bks.cpg/sg14_7_cif.got.tgz:12079.got - 2010.06.03 17:49:19.
