data_PCOD9252251
_publ_section_title
;
Structure prediction by ZEFSAII (Michael W. Deem and Ramdas Pophale) SiO2 
 PCOD9252251
Probable space group: P 21/C
;
_chemical_formula_sum "Si O2"
_cell_formula_units_Z 20
_cell_length_a 5.470165
_cell_length_b 10.315685
_cell_length_c 13.750170
_cell_angle_alpha 90.000000
_cell_angle_beta 113.045836
_cell_angle_gamma 90.000000
_cell_volume 713.978294
_symmetry_space_group_name_H-M "P 21/C"
_symmetry_group_IT_number 14
_symmetry_cell_setting 'monoclinic'
loop_
_space_group_symop_operation_xyz
x,y,z
-x,1/2+y,1/2-z
-x,-y,-z
x,1/2-y,1/2+z
loop_
_atom_site_type_symbol
_atom_site_label
_atom_site_fract_x
_atom_site_fract_y
_atom_site_fract_z
Si Si1 0.755207 0.943585 0.645258
Si Si2 0.010338 0.853054 0.881188
Si Si3 0.143562 0.848142 0.547027
Si Si4 0.492741 0.559712 0.360887
Si Si5 0.374882 0.829722 0.234086
O O1 0.449822 0.896344 0.581572
O O2 0.424315 0.071225 0.790827
O O3 0.907241 0.860784 0.752880
O O4 0.932323 0.933908 0.575453
O O5 0.269644 0.581161 0.804771
O O6 0.807011 0.937789 0.911269
O O7 0.024319 0.712728 0.931269
O O8 0.175167 0.721077 0.621121
O O9 0.462483 0.693982 0.294215
O O10 0.304201 0.586174 0.421290
#
# Coordination Sequence:
#
# PCOD9252251 Si02
#       5
#     4   4   4   4   4
#     4  11  24  44  70 104 143 186 232 296 352 420
#     4  11  23  46  69 111 136 189 240 291 348 429
#     4  12  25  44  76 104 142 188 237 293 359 414
#     4  11  25  43  75 103 146 183 240 291 354 422
#     4  11  23  48  75 105 143 192 233 294 364 412
#
# _framework density 28.012056000000001
#
# number of rings (size 3 to 8) (size 9 to 14) (size 15 to 20)
#    0.000    0.800    6.000    1.200    0.000   13.600 
#    0.000    6.000    0.000    1.200    0.000    0.000 
#    0.000    0.000    0.000    0.000    0.000    0.000 
#
# Total GULP energy -111919.777101 kJ/mol
# GULP energy per Si atom -5595.988855 kJ/mol
# Density = 2.794830 g / cm^3
# Si number density = 28.012056 Si / 1000 Ang^3
#
#
#
# Elastic Constant Matrix: (Units=GPa)
#
#
# Indices 1 2 3 4 5 6 
#
# 1 205.7217 12.0441 30.6266 0.0000 -30.4107 0.0000
# 2 12.0441 138.0377 10.2883 0.0000 6.6176 0.0000
# 3 30.6266 10.2883 90.9559 0.0000 -0.6724 0.0000
# 4 0.0000 0.0000 0.0000 65.2990 0.0000 -7.0261
# 5 -30.4107 6.6176 -0.6724 0.0000 65.5898 0.0000
# 6 0.0000 0.0000 0.0000 -7.0261 0.0000 44.4512
#
#
#
# Elastic Compliance Matrix: (Units=1/GPa)
#
#
# Indices 1 2 3 4 5 6 
#
# 1 0.005540 -0.000474 -0.001792 0.000000 0.002598 0.000000
# 2 -0.000474 0.007383 -0.000683 0.000000 -0.000972 0.000000
# 3 -0.001792 -0.000683 0.011670 0.000000 -0.000643 0.000000
# 4 0.000000 0.000000 0.000000 0.015579 0.000000 0.002463
# 5 0.002598 -0.000972 -0.000643 0.000000 0.016542 0.000000
# 6 0.000000 0.000000 0.000000 0.002463 0.000000 0.022886
#
#
# Mechanical properties :
#
#
# Convention : Reuss Voigt Hill
#
# Bulk Modulus (GPa) = 53.49169 60.07036 56.78102
# Shear Modulus (GPa) = 54.50747 60.51843 57.51295
#
# Velocity S-wave (km/s) = 4.41597 4.65310 4.53609
# Velocity P-wave (km/s) = 6.71852 7.09644 6.91006
#
# Compressibility (1/GPa) = 0.01869449
#
# Stress axis : x y z
#
# Youngs Moduli (GPa) = 180.51893 135.44173 85.68728
#
# Poissons Ratio (x) = 0.06424 0.15359
# Poissons Ratio (y) = 0.08562 0.05849
# Poissons Ratio (z) = 0.32357 0.09246
#
# Static dielectric constant tensor:
#      x y z
#    x 2.272160 0.000000 0.040910 
#    y 0.000000 2.251300 0.000000 
#    z 0.040910 0.000000 2.246120 
# 
# From -- ./inp_files/37047.got.cif
#   From: 2010.05.17/outbox.cif.g08.bks.cpg/sg14_19_cif.got.tgz:37047.got - 2010.06.03 17:49:19.
