data_PCOD9252836
_publ_section_title
;
Structure prediction by ZEFSAII (Michael W. Deem and Ramdas Pophale) SiO2 
 PCOD9252836
Probable space group: P 21/C
;
_chemical_formula_sum "Si O2"
_cell_formula_units_Z 26
_cell_length_a 9.030232
_cell_length_b 8.543584
_cell_length_c 13.011982
_cell_angle_alpha 90.000000
_cell_angle_beta 76.607646
_cell_angle_gamma 90.000000
_cell_volume 976.582756
_symmetry_space_group_name_H-M "P 21/C"
_symmetry_group_IT_number 14
_symmetry_cell_setting 'monoclinic'
loop_
_space_group_symop_operation_xyz
x,y,z
-x,1/2+y,1/2-z
-x,-y,-z
x,1/2-y,1/2+z
loop_
_atom_site_type_symbol
_atom_site_label
_atom_site_fract_x
_atom_site_fract_y
_atom_site_fract_z
Si Si1 0.269800 0.832192 0.286983
Si Si2 0.477987 0.868293 0.918704
Si Si3 0.000000 0.500000 0.000000
Si Si4 0.003610 0.843235 0.929890
Si Si5 0.620062 0.579570 0.751589
Si Si6 0.279167 0.645583 0.086922
Si Si7 0.194350 0.156457 0.237773
O O1 0.394847 0.775698 0.488274
O O2 0.451461 0.839512 0.274304
O O3 0.238289 0.783151 0.174720
O O4 0.199607 0.006985 0.312627
O O5 0.647553 0.835329 0.851323
O O6 0.398454 0.962979 0.839947
O O7 0.500000 0.000000 0.000000
O O8 0.064088 0.316191 0.011409
O O9 0.131909 0.572356 0.057874
O O10 0.930912 0.866557 0.828241
O O11 0.170127 0.777709 0.874193
O O12 0.000000 0.000000 0.000000
O O13 0.639777 0.480684 0.852372
O O14 0.774723 0.679962 0.710823
#
# Coordination Sequence:
#
# PCOD9252836 Si02
#       7
#     4   4   2   4   4   4   4
#     4  11  26  50  84 121 170 224 290 367 451 542
#     4  11  25  47  86 125 174 228 303 376 464 552
#     4  12  30  54  80 132 174 238 302 360 454 546
#     4  12  30  55  82 122 177 237 295 369 451 548
#     4  11  25  49  84 131 173 233 300 377 469 530
#     4  12  26  53  83 131 180 235 300 375 460 552
#     4  11  25  50  78 125 161 227 291 365 456 533
#
# _framework density 26.623448
#
# number of rings (size 3 to 8) (size 9 to 14) (size 15 to 20)
#    0.000    0.615    4.615    2.769    6.462    1.846 
#    2.769    0.000    0.000    0.000    0.000    0.000 
#    0.000    0.000    0.000    0.000    0.000    0.000 
#
# Total GULP energy -145106.170475 kJ/mol
# GULP energy per Si atom -5581.006557 kJ/mol
# Density = 2.656285 g / cm^3
# Si number density = 26.623448 Si / 1000 Ang^3
#
#
#
# Elastic Constant Matrix: (Units=GPa)
#
#
# Indices 1 2 3 4 5 6 
#
# 1 95.3037 40.8669 51.2564 0.0000 24.5319 0.0000
# 2 40.8669 172.7659 54.7276 0.0000 18.5357 0.0000
# 3 51.2564 54.7276 142.0803 0.0000 31.8096 0.0000
# 4 0.0000 0.0000 0.0000 74.0629 0.0000 7.3468
# 5 24.5319 18.5357 31.8096 0.0000 64.1305 0.0000
# 6 0.0000 0.0000 0.0000 7.3468 0.0000 53.0938
#
#
#
# Elastic Compliance Matrix: (Units=1/GPa)
#
#
# Indices 1 2 3 4 5 6 
#
# 1 0.014034 -0.001830 -0.003684 0.000000 -0.003012 0.000000
# 2 -0.001830 0.006861 -0.001907 0.000000 -0.000337 0.000000
# 3 -0.003684 -0.001907 0.009745 0.000000 -0.002873 0.000000
# 4 0.000000 0.000000 0.000000 0.013690 0.000000 -0.001894
# 5 -0.003012 -0.000337 -0.002873 0.000000 0.018268 0.000000
# 6 0.000000 0.000000 0.000000 -0.001894 0.000000 0.019097
#
#
# Mechanical properties :
#
#
# Convention : Reuss Voigt Hill
#
# Bulk Modulus (GPa) = 63.29438 78.20574 70.75006
# Shear Modulus (GPa) = 49.11454 55.81070 52.46262
#
# Velocity S-wave (km/s) = 4.29976 4.58350 4.44389
# Velocity P-wave (km/s) = 6.96248 7.57957 7.27757
#
# Compressibility (1/GPa) = 0.01579919
#
# Stress axis : x y z
#
# Youngs Moduli (GPa) = 71.25620 145.74411 102.61496
#
# Poissons Ratio (x) = 0.26665 0.37800
# Poissons Ratio (y) = 0.13037 0.19573
# Poissons Ratio (z) = 0.26248 0.27799
#
# Static dielectric constant tensor:
#      x y z
#    x 2.042030 0.000000 -0.040900 
#    y 0.000000 3.099250 0.000000 
#    z -0.040900 0.000000 2.208790 
# 
# From -- ./inp_files/46169.got.cif
#   From: 2010.05.17/outbox.cif.g08.bks.cpg/sg14_24_cif.got.tgz:46169.got - 2010.06.03 17:49:19.
