data_PCOD9252152
_publ_section_title
;
Structure prediction by ZEFSAII (Michael W. Deem and Ramdas Pophale) SiO2 
 PCOD9252152
Probable space group: P 21/C
;
_chemical_formula_sum "Si O2"
_cell_formula_units_Z 20
_cell_length_a 13.398052
_cell_length_b 11.832659
_cell_length_c 11.700551
_cell_angle_alpha 90.000000
_cell_angle_beta 145.427064
_cell_angle_gamma 90.000000
_cell_volume 1052.595837
_symmetry_space_group_name_H-M "P 21/C"
_symmetry_group_IT_number 14
_symmetry_cell_setting 'monoclinic'
loop_
_space_group_symop_operation_xyz
x,y,z
-x,1/2+y,1/2-z
-x,-y,-z
x,1/2-y,1/2+z
loop_
_atom_site_type_symbol
_atom_site_label
_atom_site_fract_x
_atom_site_fract_y
_atom_site_fract_z
Si Si1 0.911793 0.469454 0.797867
Si Si2 0.733813 0.898243 0.469117
Si Si3 0.672564 0.849433 0.986192
Si Si4 0.546911 0.341166 0.494795
Si Si5 0.456460 0.919889 0.566337
O O1 0.731415 0.401159 0.644214
O O2 0.850890 0.585994 0.683387
O O3 0.062919 0.403767 0.873344
O O4 0.000000 0.500000 0.000000
O O5 0.698890 0.784535 0.506617
O O6 0.602036 0.882610 0.236232
O O7 0.687300 0.010570 0.496307
O O8 0.607795 0.898125 0.803842
O O9 0.529728 0.868266 0.952120
O O10 0.580718 0.206829 0.512235
O O11 0.500000 0.000000 0.500000
#
# Coordination Sequence:
#
# PCOD9252152 Si02
#       5
#     4   4   4   4   4
#     4  12  24  41  70  98 130 172 224 271 329 393
#     4  11  24  43  66  98 134 171 220 278 322 391
#     4  11  23  44  67  96 136 167 225 273 324 401
#     4  11  23  45  69  96 128 180 219 267 338 388
#     4  11  23  44  69  94 135 176 216 273 333 388
#
# _framework density 19.000644000000001
#
# number of rings (size 3 to 8) (size 9 to 14) (size 15 to 20)
#    0.000    0.800    6.000    1.800    2.800    0.000 
#    3.600    1.000    0.000    0.000    0.000    0.000 
#    0.000    0.000    0.000    0.000    0.000    0.000 
#
# Total GULP energy -111642.045372 kJ/mol
# GULP energy per Si atom -5582.102269 kJ/mol
# Density = 1.895740 g / cm^3
# Si number density = 19.000644 Si / 1000 Ang^3
#
#
#
# Elastic Constant Matrix: (Units=GPa)
#
#
# Indices 1 2 3 4 5 6 
#
# 1 106.5267 35.8710 36.1987 0.0000 14.3612 0.0000
# 2 35.8710 118.9606 41.0266 0.0000 2.5168 0.0000
# 3 36.1987 41.0266 91.9096 0.0000 9.6290 0.0000
# 4 0.0000 0.0000 0.0000 25.6093 0.0000 -3.4458
# 5 14.3612 2.5168 9.6290 0.0000 36.3028 0.0000
# 6 0.0000 0.0000 0.0000 -3.4458 0.0000 38.5213
#
#
#
# Elastic Compliance Matrix: (Units=1/GPa)
#
#
# Indices 1 2 3 4 5 6 
#
# 1 0.011761 -0.002368 -0.003194 0.000000 -0.003641 0.000000
# 2 -0.002368 0.010421 -0.003849 0.000000 0.001235 0.000000
# 3 -0.003194 -0.003849 0.014087 0.000000 -0.002206 0.000000
# 4 0.000000 0.000000 0.000000 0.039524 0.000000 0.003536
# 5 -0.003641 0.001235 -0.002206 0.000000 0.029486 0.000000
# 6 0.000000 0.000000 0.000000 0.003536 0.000000 0.026276
#
#
# Mechanical properties :
#
#
# Convention : Reuss Voigt Hill
#
# Bulk Modulus (GPa) = 57.30969 60.39884 58.85427
# Shear Modulus (GPa) = 32.01193 33.70674 32.85933
#
# Velocity S-wave (km/s) = 4.10906 4.21643 4.16309
# Velocity P-wave (km/s) = 7.26223 7.45394 7.35871
#
# Compressibility (1/GPa) = 0.01744905
#
# Stress axis : x y z
#
# Youngs Moduli (GPa) = 85.02861 95.95702 70.98670
#
# Poissons Ratio (x) = 0.22722 0.22670
# Poissons Ratio (y) = 0.20134 0.27320
# Poissons Ratio (z) = 0.27154 0.36931
#
# Static dielectric constant tensor:
#      x y z
#    x 1.676170 0.000000 -0.017800 
#    y 0.000000 1.672780 0.000000 
#    z -0.017800 0.000000 1.641700 
# 
# From -- ./inp_files/32047.got.cif
#   From: 2010.05.17/outbox.cif.g08.bks.cpg/sg14_17_cif.got.tgz:32047.got - 2010.06.03 17:49:19.
