data_PCOD9252471
_publ_section_title
;
Structure prediction by ZEFSAII (Michael W. Deem and Ramdas Pophale) SiO2 
 PCOD9252471
Probable space group: P 21/C
;
_chemical_formula_sum "Si O2"
_cell_formula_units_Z 32
_cell_length_a 9.122408
_cell_length_b 10.382577
_cell_length_c 14.820687
_cell_angle_alpha 90.000000
_cell_angle_beta 81.178486
_cell_angle_gamma 90.000000
_cell_volume 1387.123196
_symmetry_space_group_name_H-M "P 21/C"
_symmetry_group_IT_number 14
_symmetry_cell_setting 'monoclinic'
loop_
_space_group_symop_operation_xyz
x,y,z
-x,1/2+y,1/2-z
-x,-y,-z
x,1/2-y,1/2+z
loop_
_atom_site_type_symbol
_atom_site_label
_atom_site_fract_x
_atom_site_fract_y
_atom_site_fract_z
Si Si1 0.339481 0.881364 0.574123
Si Si2 0.003198 0.085247 0.411310
Si Si3 0.047416 0.151102 0.885812
Si Si4 0.547416 0.848898 0.385812
Si Si5 0.503198 0.585247 0.411310
Si Si6 0.160519 0.881364 0.925877
Si Si7 0.918639 0.161832 0.703428
Si Si8 0.581361 0.338168 0.296572
O O1 0.163192 0.860774 0.587858
O O2 0.410453 0.882965 0.467096
O O3 0.424398 0.772977 0.625791
O O4 0.356052 0.023291 0.614997
O O5 0.106589 0.210219 0.413097
O O6 0.000000 0.000000 0.500000
O O7 0.048527 0.982422 0.332673
O O8 0.013334 0.180043 0.784661
O O9 0.910453 0.117035 0.967096
O O10 0.143948 0.023291 0.885003
O O11 0.606589 0.710219 0.413097
O O12 0.513334 0.819957 0.284661
O O13 0.500000 0.500000 0.500000
O O14 0.336808 0.639226 0.412142
O O15 0.548527 0.482422 0.332673
O O16 0.075602 0.772977 0.874209
O O17 0.750000 0.167461 0.750000
#
# Coordination Sequence:
#
# PCOD9252471 Si02
#       8
#     4   4   4   4   4   4   4   4
#     4  11  25  48  68  99 145 173 225 292 329 404
#     4  12  24  45  71 100 136 183 222 279 344 401
#     4  11  24  44  71 100 134 182 224 277 345 399
#     4  11  24  44  71 100 134 182 224 277 345 399
#     4  12  24  45  71 100 136 183 222 279 344 401
#     4  11  25  48  68  99 145 173 225 292 329 404
#     4  12  24  44  71  98 136 182 226 277 340 404
#     4  12  24  44  71  98 136 182 226 277 340 404
#
# _framework density 23.069326
#
# number of rings (size 3 to 8) (size 9 to 14) (size 15 to 20)
#    0.000    0.500    5.000    3.750    0.000    1.000 
#    9.000    0.000    0.000    0.000    0.000    0.000 
#    0.000    0.000    0.000    0.000    0.000    0.000 
#
# Total GULP energy -178744.059897 kJ/mol
# GULP energy per Si atom -5585.751872 kJ/mol
# Density = 2.301682 g / cm^3
# Si number density = 23.069326 Si / 1000 Ang^3
#
#
#
# Elastic Constant Matrix: (Units=GPa)
#
#
# Indices 1 2 3 4 5 6 
#
# 1 21.5168 15.2117 -2.1897 0.0000 15.0146 0.0000
# 2 15.2117 163.3392 3.1418 0.0000 24.0359 0.0000
# 3 -2.1897 3.1418 61.5239 0.0000 17.4143 0.0000
# 4 0.0000 0.0000 0.0000 56.4488 0.0000 8.0087
# 5 15.0146 24.0359 17.4143 0.0000 27.6478 0.0000
# 6 0.0000 0.0000 0.0000 8.0087 0.0000 21.7171
#
#
#
# Elastic Compliance Matrix: (Units=1/GPa)
#
#
# Indices 1 2 3 4 5 6 
#
# 1 0.093658 0.000406 0.021673 0.000000 -0.064867 0.000000
# 2 0.000406 0.007165 0.001794 0.000000 -0.007580 0.000000
# 3 0.021673 0.001794 0.025199 0.000000 -0.029202 0.000000
# 4 0.000000 0.000000 0.000000 0.018693 0.000000 -0.006894
# 5 -0.064867 -0.007580 -0.029202 0.000000 0.096379 0.000000
# 6 0.000000 0.000000 0.000000 -0.006894 0.000000 0.048589
#
#
# Mechanical properties :
#
#
# Convention : Reuss Voigt Hill
#
# Bulk Modulus (GPa) = 5.75475 30.96752 18.36114
# Shear Modulus (GPa) = 16.67443 36.51047 26.59245
#
# Velocity S-wave (km/s) = 2.69140 3.98256 3.39886
# Velocity P-wave (km/s) = 3.48686 5.88222 4.83522
#
# Compressibility (1/GPa) = 0.17376935
#
# Stress axis : x y z
#
# Youngs Moduli (GPa) = 10.67710 139.56187 39.68404
#
# Poissons Ratio (x) = -0.05668 -0.86008
# Poissons Ratio (y) = -0.00434 -0.07119
# Poissons Ratio (z) = -0.23141 -0.25037
#
# Static dielectric constant tensor:
#      x y z
#    x 1.890750 0.000000 0.020260 
#    y 0.000000 2.005040 0.000000 
#    z 0.020260 0.000000 1.947960 
# 
# From -- ./inp_files/43703.got.cif
#   From: 2010.05.17/outbox.cif.g08.bks.cpg/sg14_22_cif.got.tgz:43703.got - 2010.06.03 17:49:19.
