data_PCOD9252384
_publ_section_title
;
Structure prediction by ZEFSAII (Michael W. Deem and Ramdas Pophale) SiO2 
 PCOD9252384
Probable space group: P 21/C
;
_chemical_formula_sum "Si O2"
_cell_formula_units_Z 20
_cell_length_a 13.346286
_cell_length_b 5.927289
_cell_length_c 18.109749
_cell_angle_alpha 90.000000
_cell_angle_beta 145.312378
_cell_angle_gamma 90.000000
_cell_volume 815.302913
_symmetry_space_group_name_H-M "P 21/C"
_symmetry_group_IT_number 14
_symmetry_cell_setting 'monoclinic'
loop_
_space_group_symop_operation_xyz
x,y,z
-x,1/2+y,1/2-z
-x,-y,-z
x,1/2-y,1/2+z
loop_
_atom_site_type_symbol
_atom_site_label
_atom_site_fract_x
_atom_site_fract_y
_atom_site_fract_z
Si Si1 0.483921 0.947770 0.871144
Si Si2 0.098870 0.797309 0.603147
Si Si3 0.792410 0.989285 0.965824
Si Si4 0.381792 0.203257 0.404319
Si Si5 0.997636 0.305263 0.710372
O O1 0.282433 0.862801 0.752969
O O2 0.597465 0.901394 0.867061
O O3 0.454710 0.209217 0.871138
O O4 0.593535 0.862266 0.008475
O O5 0.169836 0.612405 0.587772
O O6 0.944377 0.700580 0.561315
O O7 0.000000 0.000000 0.500000
O O8 0.835468 0.166004 0.056803
O O9 0.176474 0.166982 0.272322
O O10 0.500000 0.000000 0.500000
O O11 0.999457 0.544129 0.758395
#
# Coordination Sequence:
#
# PCOD9252384 Si02
#       5
#     4   4   4   4   4
#     4  11  25  45  71 109 143 191 251 302 381 443
#     4  11  27  46  72 102 147 194 249 309 369 455
#     4  11  26  47  69 106 144 197 245 310 375 449
#     4  11  24  42  73 105 147 187 247 317 371 449
#     4  12  26  46  77 110 151 198 250 311 385 446
#
# _framework density 24.530760000000001
#
# number of rings (size 3 to 8) (size 9 to 14) (size 15 to 20)
#    0.000    0.800    2.000    3.600   11.200    3.200 
#    0.000    0.000    0.000    0.000    0.000    0.000 
#    0.000    0.000    0.000    0.000    0.000    0.000 
#
# Total GULP energy -111584.389427 kJ/mol
# GULP energy per Si atom -5579.219471 kJ/mol
# Density = 2.447493 g / cm^3
# Si number density = 24.530760 Si / 1000 Ang^3
#
#
#
# Elastic Constant Matrix: (Units=GPa)
#
#
# Indices 1 2 3 4 5 6 
#
# 1 127.3817 41.2282 15.0709 0.0000 49.9412 0.0000
# 2 41.2282 75.8662 3.7002 0.0000 13.1634 0.0000
# 3 15.0709 3.7002 78.5503 0.0000 31.9768 0.0000
# 4 0.0000 0.0000 0.0000 39.2439 0.0000 -7.0033
# 5 49.9412 13.1634 31.9768 0.0000 55.7583 0.0000
# 6 0.0000 0.0000 0.0000 -7.0033 0.0000 37.7514
#
#
#
# Elastic Compliance Matrix: (Units=1/GPa)
#
#
# Indices 1 2 3 4 5 6 
#
# 1 0.014634 -0.005766 0.002929 0.000000 -0.013426 0.000000
# 2 -0.005766 0.016063 -0.000273 0.000000 0.001529 0.000000
# 3 0.002929 -0.000273 0.017251 0.000000 -0.012453 0.000000
# 4 0.000000 0.000000 0.000000 0.026354 0.000000 0.004889
# 5 -0.013426 0.001529 -0.012453 0.000000 0.036740 0.000000
# 6 0.000000 0.000000 0.000000 0.004889 0.000000 0.027396
#
#
# Mechanical properties :
#
#
# Convention : Reuss Voigt Hill
#
# Bulk Modulus (GPa) = 23.96426 44.64409 34.30417
# Shear Modulus (GPa) = 31.53277 41.33733 36.43505
#
# Velocity S-wave (km/s) = 3.58919 4.10948 3.85811
# Velocity P-wave (km/s) = 5.19294 6.38403 5.81904
#
# Compressibility (1/GPa) = 0.04172881
#
# Stress axis : x y z
#
# Youngs Moduli (GPa) = 68.33529 62.25679 57.96844
#
# Poissons Ratio (x) = 0.35896 -0.16981
# Poissons Ratio (y) = 0.39401 0.01581
# Poissons Ratio (z) = -0.20018 0.01698
#
# Static dielectric constant tensor:
#      x y z
#    x 1.972670 0.000000 -0.026530 
#    y 0.000000 2.174280 0.000000 
#    z -0.026530 0.000000 2.044190 
# 
# From -- ./inp_files/66204.got.cif
#   From: 2010.05.17/outbox.cif.g08.bks.cpg/sg14_34_cif.got.tgz:66204.got - 2010.06.03 17:49:19.
