data_PCOD9252317
_publ_section_title
;
Structure prediction by ZEFSAII (Michael W. Deem and Ramdas Pophale) SiO2 
 PCOD9252317
Probable space group: P 21/C
;
_chemical_formula_sum "Si O2"
_cell_formula_units_Z 26
_cell_length_a 16.416568
_cell_length_b 13.117895
_cell_length_c 9.760404
_cell_angle_alpha 90.000000
_cell_angle_beta 30.093082
_cell_angle_gamma 90.000000
_cell_volume 1053.911341
_symmetry_space_group_name_H-M "P 21/C"
_symmetry_group_IT_number 14
_symmetry_cell_setting 'monoclinic'
loop_
_space_group_symop_operation_xyz
x,y,z
-x,1/2+y,1/2-z
-x,-y,-z
x,1/2-y,1/2+z
loop_
_atom_site_type_symbol
_atom_site_label
_atom_site_fract_x
_atom_site_fract_y
_atom_site_fract_z
Si Si1 0.733779 0.016092 0.238715
Si Si2 0.224815 0.995346 0.280590
Si Si3 0.934897 0.832621 0.661579
Si Si4 0.344192 0.834047 0.402182
Si Si5 0.026184 0.347373 0.600041
Si Si6 0.432204 0.602716 0.278769
Si Si7 0.500000 0.000000 0.000000
O O1 0.601075 0.929271 0.466787
O O2 0.687403 0.106392 0.409472
O O3 0.703338 0.057151 0.129067
O O4 0.907661 0.963152 0.006832
O O5 0.292946 0.023506 0.328461
O O6 0.098141 0.904639 0.436615
O O7 0.176488 0.092047 0.263635
O O8 0.403976 0.952868 0.967213
O O9 0.885041 0.812888 0.889668
O O10 0.944163 0.726436 0.570158
O O11 0.404831 0.720239 0.340179
O O12 0.470921 0.887055 0.118397
O O13 0.164926 0.830271 0.597760
#
# Coordination Sequence:
#
# PCOD9252317 Si02
#       7
#     4   4   4   4   4   4   2
#     4  11  27  47  71 107 148 190 249 310 373 461
#     4  11  23  49  72 105 145 192 251 303 376 442
#     4  11  26  46  78 106 151 198 246 313 372 455
#     4  12  27  45  75 103 145 193 246 311 373 452
#     4  12  26  47  72 114 146 201 247 304 382 447
#     4  11  25  48  72 100 145 193 241 307 382 436
#     4  12  26  44  74 114 138 190 252 304 368 456
#
# _framework density 24.670007999999999
#
# number of rings (size 3 to 8) (size 9 to 14) (size 15 to 20)
#    0.000    0.615    6.154    0.462    6.462    1.231 
#    0.000    0.000    0.000    0.000    0.000    0.000 
#    0.000    0.000    0.000    0.000    0.000    0.000 
#
# Total GULP energy -145000.396963 kJ/mol
# GULP energy per Si atom -5576.938345 kJ/mol
# Density = 2.461386 g / cm^3
# Si number density = 24.670008 Si / 1000 Ang^3
#
#
#
# Elastic Constant Matrix: (Units=GPa)
#
#
# Indices 1 2 3 4 5 6 
#
# 1 121.4430 31.0629 9.7456 0.0000 -10.9584 0.0000
# 2 31.0629 142.3192 28.0744 0.0000 1.7704 0.0000
# 3 9.7456 28.0744 46.0325 0.0000 -3.3530 0.0000
# 4 0.0000 0.0000 0.0000 29.4799 0.0000 8.7723
# 5 -10.9584 1.7704 -3.3530 0.0000 44.8890 0.0000
# 6 0.0000 0.0000 0.0000 8.7723 0.0000 26.1442
#
#
#
# Elastic Compliance Matrix: (Units=1/GPa)
#
#
# Indices 1 2 3 4 5 6 
#
# 1 0.008959 -0.001865 -0.000598 0.000000 0.002216 0.000000
# 2 -0.001865 0.008397 -0.004809 0.000000 -0.001146 0.000000
# 3 -0.000598 -0.004809 0.024922 0.000000 0.001905 0.000000
# 4 0.000000 0.000000 0.000000 0.037684 0.000000 -0.012644
# 5 0.002216 -0.001146 0.001905 0.000000 0.023006 0.000000
# 6 0.000000 0.000000 0.000000 -0.012644 0.000000 0.042492
#
#
# Mechanical properties :
#
#
# Convention : Reuss Voigt Hill
#
# Bulk Modulus (GPa) = 36.05778 49.72896 42.89337
# Shear Modulus (GPa) = 29.54224 36.16341 32.85283
#
# Velocity S-wave (km/s) = 3.46424 3.83284 3.65319
# Velocity P-wave (km/s) = 5.53616 6.30785 5.93456
#
# Compressibility (1/GPa) = 0.02773327
#
# Stress axis : x y z
#
# Youngs Moduli (GPa) = 111.61562 119.09681 40.12459
#
# Poissons Ratio (x) = 0.22213 0.02399
# Poissons Ratio (y) = 0.20818 0.19298
# Poissons Ratio (z) = 0.06673 0.57279
#
# Static dielectric constant tensor:
#      x y z
#    x 2.364220 0.000000 -0.019950 
#    y 0.000000 2.039620 0.000000 
#    z -0.019950 0.000000 2.027380 
# 
# From -- ./inp_files/33891.got.cif
#   From: 2010.05.17/outbox.cif.g08.bks.cpg/sg14_17_cif.got.tgz:33891.got - 2010.06.03 17:49:19.
