data_PCOD9252052
_publ_section_title
;
Structure prediction by ZEFSAII (Michael W. Deem and Ramdas Pophale) SiO2 
 PCOD9252052
Probable space group: P 21/C
;
_chemical_formula_sum "Si O2"
_cell_formula_units_Z 32
_cell_length_a 24.162916
_cell_length_b 13.557363
_cell_length_c 9.333617
_cell_angle_alpha 90.000000
_cell_angle_beta 151.844320
_cell_angle_gamma 90.000000
_cell_volume 1442.766027
_symmetry_space_group_name_H-M "P 21/C"
_symmetry_group_IT_number 14
_symmetry_cell_setting 'monoclinic'
loop_
_space_group_symop_operation_xyz
x,y,z
-x,1/2+y,1/2-z
-x,-y,-z
x,1/2-y,1/2+z
loop_
_atom_site_type_symbol
_atom_site_label
_atom_site_fract_x
_atom_site_fract_y
_atom_site_fract_z
Si Si1 0.628554 0.019837 0.130747
Si Si2 0.777610 0.661160 0.064900
Si Si3 0.733930 0.836040 0.797830
Si Si4 0.099354 0.040241 0.623611
Si Si5 0.258585 0.667179 0.920100
Si Si6 0.000843 0.397576 0.590077
Si Si7 0.610877 0.459502 0.999759
Si Si8 0.309046 0.895621 0.029535
O O1 0.647329 0.123417 0.253020
O O2 0.728112 0.948113 0.421658
O O3 0.646339 0.046114 0.006242
O O4 0.507061 0.961249 0.861318
O O5 0.696274 0.735693 0.788654
O O6 0.775529 0.680405 0.229632
O O7 0.906239 0.667067 0.287271
O O8 0.641779 0.925004 0.583385
O O9 0.832573 0.877723 0.130077
O O10 0.050783 0.080728 0.362622
O O11 0.000000 0.000000 0.500000
O O12 0.189614 0.951767 0.799137
O O13 0.128240 0.648709 0.684970
O O14 0.284554 0.599113 0.840931
O O15 0.282613 0.781094 0.943143
O O16 0.000000 0.500000 0.500000
O O17 0.602514 0.411081 0.136299
#
# Coordination Sequence:
#
# PCOD9252052 Si02
#       8
#     4   4   4   4   4   4   4   4
#     4  12  25  48  72 101 143 185 238 301 358 423
#     4  12  25  45  71 104 139 190 240 292 364 426
#     4  11  26  45  69 102 142 182 247 293 359 431
#     4  11  23  42  67 102 145 189 233 293 351 422
#     4  12  25  45  71 107 141 188 237 292 359 430
#     4  12  22  44  70 101 150 189 233 292 361 428
#     4  11  25  49  71 101 143 184 236 304 356 419
#     4  11  25  45  70 106 140 185 242 289 361 431
#
# _framework density 22.179618999999999
#
# number of rings (size 3 to 8) (size 9 to 14) (size 15 to 20)
#    0.000    0.500    3.750    4.500    3.500    2.000 
#    4.500    0.000    0.000    0.000    0.000    0.000 
#    0.000    0.000    0.000    0.000    0.000    0.000 
#
# Total GULP energy -178975.066102 kJ/mol
# GULP energy per Si atom -5592.970816 kJ/mol
# Density = 2.212914 g / cm^3
# Si number density = 22.179619 Si / 1000 Ang^3
#
#
#
# Elastic Constant Matrix: (Units=GPa)
#
#
# Indices 1 2 3 4 5 6 
#
# 1 102.6721 27.0754 33.0746 0.0000 -28.1757 0.0000
# 2 27.0754 113.8753 8.5597 0.0000 4.6187 0.0000
# 3 33.0746 8.5597 82.7136 0.0000 -9.6907 0.0000
# 4 0.0000 0.0000 0.0000 27.1580 0.0000 -7.5210
# 5 -28.1757 4.6187 -9.6907 0.0000 44.4545 0.0000
# 6 0.0000 0.0000 0.0000 -7.5210 0.0000 28.9183
#
#
#
# Elastic Compliance Matrix: (Units=1/GPa)
#
#
# Indices 1 2 3 4 5 6 
#
# 1 0.014406 -0.003440 -0.004406 0.000000 0.008528 0.000000
# 2 -0.003440 0.009729 -0.000005 0.000000 -0.003192 0.000000
# 3 -0.004406 -0.000005 0.013880 0.000000 0.000234 0.000000
# 4 0.000000 0.000000 0.000000 0.039680 0.000000 0.010320
# 5 0.008528 -0.003192 0.000234 0.000000 0.028283 0.000000
# 6 0.000000 0.000000 0.000000 0.010320 0.000000 0.037264
#
#
# Mechanical properties :
#
#
# Convention : Reuss Voigt Hill
#
# Bulk Modulus (GPa) = 44.81603 48.52004 46.66803
# Shear Modulus (GPa) = 30.05149 35.47624 32.76387
#
# Velocity S-wave (km/s) = 3.68491 4.00371 3.84761
# Velocity P-wave (km/s) = 6.19311 6.58000 6.38948
#
# Compressibility (1/GPa) = 0.02231345
#
# Stress axis : x y z
#
# Youngs Moduli (GPa) = 69.41364 102.78200 72.04866
#
# Poissons Ratio (x) = 0.35358 0.31741
# Poissons Ratio (y) = 0.23879 0.00038
# Poissons Ratio (z) = 0.30581 0.00054
#
# Static dielectric constant tensor:
#      x y z
#    x 1.839300 0.000000 0.014670 
#    y 0.000000 1.801210 0.000000 
#    z 0.014670 0.000000 1.835370 
# 
# From -- ./inp_files/19536.got.cif
#   From: 2010.05.17/outbox.cif.g08.bks.cpg/sg14_10_cif.got.tgz:19536.got - 2010.06.03 17:49:19.
