data_PCOD9252519
_publ_section_title
;
Structure prediction by ZEFSAII (Michael W. Deem and Ramdas Pophale) SiO2 
 PCOD9252519
Probable space group: P 21/C
;
_chemical_formula_sum "Si O2"
_cell_formula_units_Z 20
_cell_length_a 6.617759
_cell_length_b 8.005116
_cell_length_c 17.037586
_cell_angle_alpha 90.000000
_cell_angle_beta 100.526381
_cell_angle_gamma 90.000000
_cell_volume 887.392291
_symmetry_space_group_name_H-M "P 21/C"
_symmetry_group_IT_number 14
_symmetry_cell_setting 'monoclinic'
loop_
_space_group_symop_operation_xyz
x,y,z
-x,1/2+y,1/2-z
-x,-y,-z
x,1/2-y,1/2+z
loop_
_atom_site_type_symbol
_atom_site_label
_atom_site_fract_x
_atom_site_fract_y
_atom_site_fract_z
Si Si1 0.392903 0.134441 0.936230
Si Si2 0.718410 0.465059 0.735307
Si Si3 0.121435 0.172079 0.527283
Si Si4 0.504063 0.029563 0.380151
Si Si5 0.095532 0.838678 0.339157
O O1 0.531212 0.298704 0.929359
O O2 0.356487 0.055686 0.848419
O O3 0.183445 0.203784 0.962009
O O4 0.500000 0.000000 0.000000
O O5 0.549906 0.445631 0.791394
O O6 0.803352 0.287571 0.714116
O O7 0.905325 0.567264 0.786660
O O8 0.991289 0.251632 0.589131
O O9 0.340140 0.109621 0.577236
O O10 0.000000 0.000000 0.500000
O O11 0.272535 0.968585 0.374747
#
# Coordination Sequence:
#
# PCOD9252519 Si02
#       5
#     4   4   4   4   4
#     4  12  26  44  71 108 140 181 241 297 355 428
#     4  11  26  43  71 101 137 184 234 289 348 433
#     4  11  25  44  72  99 137 188 227 290 363 417
#     4  11  24  47  71  96 143 186 231 287 361 421
#     4  11  24  45  70  99 139 187 235 286 356 427
#
# _framework density 22.537946000000002
#
# number of rings (size 3 to 8) (size 9 to 14) (size 15 to 20)
#    0.000    0.800    2.000    4.200    5.600    7.200 
#    0.000    0.000    0.000    0.000    0.000    0.000 
#    0.000    0.000    0.000    0.000    0.000    0.000 
#
# Total GULP energy -111960.502852 kJ/mol
# GULP energy per Si atom -5598.025143 kJ/mol
# Density = 2.248665 g / cm^3
# Si number density = 22.537946 Si / 1000 Ang^3
#
#
#
# Elastic Constant Matrix: (Units=GPa)
#
#
# Indices 1 2 3 4 5 6 
#
# 1 98.9963 22.4864 55.7284 0.0000 -28.4152 0.0000
# 2 22.4864 74.1889 28.5218 0.0000 -24.5024 0.0000
# 3 55.7284 28.5218 128.8316 0.0000 -33.1065 0.0000
# 4 0.0000 0.0000 0.0000 49.3141 0.0000 -9.3553
# 5 -28.4152 -24.5024 -33.1065 0.0000 45.3450 0.0000
# 6 0.0000 0.0000 0.0000 -9.3553 0.0000 27.4097
#
#
#
# Elastic Compliance Matrix: (Units=1/GPa)
#
#
# Indices 1 2 3 4 5 6 
#
# 1 0.014433 -0.000863 -0.004737 0.000000 0.005120 0.000000
# 2 -0.000863 0.016755 -0.001414 0.000000 0.007481 0.000000
# 3 -0.004737 -0.001414 0.011282 0.000000 0.004505 0.000000
# 4 0.000000 0.000000 0.000000 0.021682 0.000000 0.007400
# 5 0.005120 0.007481 0.004505 0.000000 0.032593 0.000000
# 6 0.000000 0.000000 0.000000 0.007400 0.000000 0.039009
#
#
# Mechanical properties :
#
#
# Convention : Reuss Voigt Hill
#
# Bulk Modulus (GPa) = 35.15740 57.27668 46.21704
# Shear Modulus (GPa) = 31.39491 37.43242 34.41366
#
# Velocity S-wave (km/s) = 3.73631 4.07979 3.91182
# Velocity P-wave (km/s) = 5.85205 6.90373 6.39953
#
# Compressibility (1/GPa) = 0.02844352
#
# Stress axis : x y z
#
# Youngs Moduli (GPa) = 69.28344 59.68447 88.64026
#
# Poissons Ratio (x) = 0.05149 0.41986
# Poissons Ratio (y) = 0.05977 0.12532
# Poissons Ratio (z) = 0.32817 0.08438
#
# Static dielectric constant tensor:
#      x y z
#    x 1.828250 0.000000 -0.005570 
#    y 0.000000 1.819910 0.000000 
#    z -0.005570 0.000000 1.855750 
# 
# From -- ./inp_files/52631.got.cif
#   From: 2010.05.17/outbox.cif.g08.bks.cpg/sg14_27_cif.got.tgz:52631.got - 2010.06.03 17:49:19.
