data_PCOD9252783
_publ_section_title
;
Structure prediction by ZEFSAII (Michael W. Deem and Ramdas Pophale) SiO2 
 PCOD9252783
Probable space group: P 21/C
;
_chemical_formula_sum "Si O2"
_cell_formula_units_Z 20
_cell_length_a 6.244651
_cell_length_b 18.587443
_cell_length_c 7.520677
_cell_angle_alpha 90.000000
_cell_angle_beta 66.978803
_cell_angle_gamma 90.000000
_cell_volume 803.419938
_symmetry_space_group_name_H-M "P 21/C"
_symmetry_group_IT_number 14
_symmetry_cell_setting 'monoclinic'
loop_
_space_group_symop_operation_xyz
x,y,z
-x,1/2+y,1/2-z
-x,-y,-z
x,1/2-y,1/2+z
loop_
_atom_site_type_symbol
_atom_site_label
_atom_site_fract_x
_atom_site_fract_y
_atom_site_fract_z
Si Si1 0.959939 0.098385 0.144468
Si Si2 0.676396 0.959462 0.251462
Si Si3 0.602501 0.203149 0.163737
Si Si4 0.310763 0.646037 0.757635
Si Si5 0.813356 0.611831 0.057909
O O1 0.836340 0.175866 0.188629
O O2 0.093684 0.081787 0.283978
O O3 0.751574 0.040809 0.188578
O O4 0.136929 0.086933 0.925130
O O5 0.431014 0.929124 0.266212
O O6 0.707268 0.942988 0.449412
O O7 0.586913 0.288675 0.159385
O O8 0.376870 0.171225 0.331507
O O9 0.630439 0.168187 0.961398
O O10 0.040187 0.642861 0.887471
#
# Coordination Sequence:
#
# PCOD9252783 Si02
#       5
#     4   4   4   4   4
#     4  11  25  46  73 106 143 185 234 287 348 419
#     4  11  25  46  73 106 143 185 234 287 348 419
#     4  12  27  46  72 105 143 186 236 290 347 419
#     4  12  27  46  72 105 143 186 236 290 347 419
#     4  12  25  46  74 102 141 188 230 290 351 412
#
# _framework density 24.893581000000001
#
# number of rings (size 3 to 8) (size 9 to 14) (size 15 to 20)
#    0.000    0.400    4.000    4.200    2.800    8.800 
#    0.000    0.000    0.000    0.000    0.000    0.000 
#    0.000    0.000    0.000    0.000    0.000    0.000 
#
# Total GULP energy -112179.717948 kJ/mol
# GULP energy per Si atom -5608.985897 kJ/mol
# Density = 2.483692 g / cm^3
# Si number density = 24.893581 Si / 1000 Ang^3
#
#
#
# Elastic Constant Matrix: (Units=GPa)
#
#
# Indices 1 2 3 4 5 6 
#
# 1 69.2955 5.4105 44.7073 0.0000 8.9783 0.0000
# 2 5.4105 44.6579 8.0391 0.0000 -1.6195 0.0000
# 3 44.7073 8.0391 154.6386 0.0000 0.7997 0.0000
# 4 0.0000 0.0000 0.0000 33.5832 0.0000 -1.7768
# 5 8.9783 -1.6195 0.7997 0.0000 61.8001 0.0000
# 6 0.0000 0.0000 0.0000 -1.7768 0.0000 32.6367
#
#
#
# Elastic Compliance Matrix: (Units=1/GPa)
#
#
# Indices 1 2 3 4 5 6 
#
# 1 0.018221 -0.001369 -0.005183 0.000000 -0.002616 0.000000
# 2 -0.001369 0.022730 -0.000790 0.000000 0.000805 0.000000
# 3 -0.005183 -0.000790 0.008003 0.000000 0.000629 0.000000
# 4 0.000000 0.000000 0.000000 0.029863 0.000000 0.001626
# 5 -0.002616 0.000805 0.000629 0.000000 0.016574 0.000000
# 6 0.000000 0.000000 0.000000 0.001626 0.000000 0.030729
#
#
# Mechanical properties :
#
#
# Convention : Reuss Voigt Hill
#
# Bulk Modulus (GPa) = 29.18108 42.76732 35.97420
# Shear Modulus (GPa) = 32.84570 39.63300 36.23935
#
# Velocity S-wave (km/s) = 3.63636 3.99444 3.81960
# Velocity P-wave (km/s) = 5.42020 6.20414 5.82537
#
# Compressibility (1/GPa) = 0.03426878
#
# Stress axis : x y z
#
# Youngs Moduli (GPa) = 54.88249 43.99525 124.95363
#
# Poissons Ratio (x) = 0.06025 0.64764
# Poissons Ratio (y) = 0.07515 0.09870
# Poissons Ratio (z) = 0.28446 0.03475
#
# Static dielectric constant tensor:
#      x y z
#    x 1.987250 0.000000 0.024000 
#    y 0.000000 1.926130 0.000000 
#    z 0.024000 0.000000 1.926840 
# 
# From -- ./inp_files/5836.got.cif
#   From: 2010.05.17/outbox.cif.g08.bks.cpg/sg14_3_cif.got.tgz:5836.got - 2010.06.03 17:49:19.
