data_PCOD9252031
_publ_section_title
;
Structure prediction by ZEFSAII (Michael W. Deem and Ramdas Pophale) SiO2 
 PCOD9252031
Probable space group: P 21/C
;
_chemical_formula_sum "Si O2"
_cell_formula_units_Z 20
_cell_length_a 12.500692
_cell_length_b 19.404183
_cell_length_c 9.001337
_cell_angle_alpha 90.000000
_cell_angle_beta 154.850949
_cell_angle_gamma 90.000000
_cell_volume 927.896072
_symmetry_space_group_name_H-M "P 21/C"
_symmetry_group_IT_number 14
_symmetry_cell_setting 'monoclinic'
loop_
_space_group_symop_operation_xyz
x,y,z
-x,1/2+y,1/2-z
-x,-y,-z
x,1/2-y,1/2+z
loop_
_atom_site_type_symbol
_atom_site_label
_atom_site_fract_x
_atom_site_fract_y
_atom_site_fract_z
Si Si1 0.992401 0.864079 0.813058
Si Si2 0.996503 0.630524 0.674472
Si Si3 0.188587 0.497543 0.091958
Si Si4 0.646817 0.767427 0.867981
Si Si5 0.342112 0.747511 0.732343
O O1 0.822640 0.797666 0.566190
O O2 0.890154 0.928512 0.594978
O O3 0.993720 0.876222 0.992830
O O4 0.259605 0.831175 0.098446
O O5 0.733108 0.659809 0.409297
O O6 0.099548 0.561897 0.879683
O O7 0.169379 0.692401 0.953407
O O8 0.500000 0.500000 0.500000
O O9 0.000000 0.500000 0.000000
O O10 0.608912 0.766714 0.995909
O O11 0.381120 0.748902 0.457319
#
# Coordination Sequence:
#
# PCOD9252031 Si02
#       5
#     4   4   4   4   4
#     4  11  25  44  69 103 140 188 234 292 355 425
#     4  11  25  44  69 103 140 188 234 292 355 425
#     4  12  31  50  73 104 142 192 242 298 353 420
#     4  11  23  41  71 105 141 179 234 292 355 421
#     4  11  23  41  71 105 141 179 234 292 355 421
#
# _framework density 21.554136
#
# number of rings (size 3 to 8) (size 9 to 14) (size 15 to 20)
#    0.000    0.800    4.000    1.800   11.200    0.000 
#    0.000    3.000    0.000    0.000    0.000    0.000 
#    0.000    0.000    0.000    0.000    0.000    0.000 
#
# Total GULP energy -111352.700030 kJ/mol
# GULP energy per Si atom -5567.635001 kJ/mol
# Density = 2.150508 g / cm^3
# Si number density = 21.554136 Si / 1000 Ang^3
#
#
#
# Elastic Constant Matrix: (Units=GPa)
#
#
# Indices 1 2 3 4 5 6 
#
# 1 100.8729 39.3184 34.6400 0.0000 -3.0706 0.0000
# 2 39.3184 148.3678 44.0823 0.0000 -6.0489 0.0000
# 3 34.6400 44.0823 92.0543 0.0000 -8.4860 0.0000
# 4 0.0000 0.0000 0.0000 40.0467 0.0000 -18.0719
# 5 -3.0706 -6.0489 -8.4860 0.0000 28.3555 0.0000
# 6 0.0000 0.0000 0.0000 -18.0719 0.0000 21.7266
#
#
#
# Elastic Compliance Matrix: (Units=1/GPa)
#
#
# Indices 1 2 3 4 5 6 
#
# 1 0.011937 -0.002135 -0.003489 0.000000 -0.000207 0.000000
# 2 -0.002135 0.008249 -0.003091 0.000000 0.000603 0.000000
# 3 -0.003489 -0.003091 0.013945 0.000000 0.003136 0.000000
# 4 0.000000 0.000000 0.000000 0.039976 0.000000 0.033252
# 5 -0.000207 0.000603 0.003136 0.000000 0.036311 0.000000
# 6 0.000000 0.000000 0.000000 0.033252 0.000000 0.073685
#
#
# Mechanical properties :
#
#
# Convention : Reuss Voigt Hill
#
# Bulk Modulus (GPa) = 59.87432 64.15292 62.01362
# Shear Modulus (GPa) = 24.14274 32.90938 28.52606
#
# Velocity S-wave (km/s) = 3.35042 3.91170 3.64189
# Velocity P-wave (km/s) = 6.54262 7.08732 6.82041
#
# Compressibility (1/GPa) = 0.01670165
#
# Stress axis : x y z
#
# Youngs Moduli (GPa) = 83.76964 121.22838 71.70932
#
# Poissons Ratio (x) = 0.25888 0.25016
# Poissons Ratio (y) = 0.17889 0.22165
# Poissons Ratio (z) = 0.29223 0.37471
#
# Static dielectric constant tensor:
#      x y z
#    x 1.849970 0.000000 0.182260 
#    y 0.000000 1.702880 0.000000 
#    z 0.182260 0.000000 2.055670 
# 
# From -- ./inp_files/5441.got.cif
#   From: 2010.05.17/outbox.cif.g08.bks.cpg/sg14_3_cif.got.tgz:5441.got - 2010.06.03 17:49:19.
