data_PCOD9252514
_publ_section_title
;
Structure prediction by ZEFSAII (Michael W. Deem and Ramdas Pophale) SiO2 
 PCOD9252514
Probable space group: P 21/C
;
_chemical_formula_sum "Si O2"
_cell_formula_units_Z 16
_cell_length_a 5.587728
_cell_length_b 4.823041
_cell_length_c 27.298069
_cell_angle_alpha 90.000000
_cell_angle_beta 125.504874
_cell_angle_gamma 90.000000
_cell_volume 598.891042
_symmetry_space_group_name_H-M "P 21/C"
_symmetry_group_IT_number 14
_symmetry_cell_setting 'monoclinic'
loop_
_space_group_symop_operation_xyz
x,y,z
-x,1/2+y,1/2-z
-x,-y,-z
x,1/2-y,1/2+z
loop_
_atom_site_type_symbol
_atom_site_label
_atom_site_fract_x
_atom_site_fract_y
_atom_site_fract_z
Si Si1 0.884499 0.272284 0.263932
Si Si2 0.234755 0.524670 0.594087
Si Si3 0.257868 0.474601 0.162009
Si Si4 0.363330 0.254600 0.513483
O O1 0.538777 0.340354 0.221618
O O2 0.045588 0.556638 0.270943
O O3 0.948957 0.123603 0.323008
O O4 0.115749 0.282060 0.615880
O O5 0.410416 0.338178 0.575715
O O6 0.987468 0.708105 0.536591
O O7 0.376834 0.770743 0.642745
O O8 0.500000 0.500000 0.500000
O O9 0.500000 0.000000 0.500000
#
# Coordination Sequence:
#
# PCOD9252514 Si02
#       4
#     4   4   4   4
#     4  12  26  46  72 102 142 188 234 288 348 412
#     4  11  25  44  71 102 139 182 229 289 348 410
#     4  12  25  47  71 102 143 183 233 290 346 414
#     4  11  24  45  70 102 139 179 231 287 346 416
#
# _framework density 26.716049999999999
#
# number of rings (size 3 to 8) (size 9 to 14) (size 15 to 20)
#    0.000    0.500    0.000    9.000    0.000   12.000 
#    0.000    5.000    0.000    0.000    0.000    0.000 
#    0.000    0.000    0.000    0.000    0.000    0.000 
#
# Total GULP energy -89541.368553 kJ/mol
# GULP energy per Si atom -5596.335535 kJ/mol
# Density = 2.665524 g / cm^3
# Si number density = 26.716050 Si / 1000 Ang^3
#
#
#
# Elastic Constant Matrix: (Units=GPa)
#
#
# Indices 1 2 3 4 5 6 
#
# 1 83.8714 42.8970 18.8703 0.0000 -29.4932 0.0000
# 2 42.8970 235.1260 48.8549 0.0000 -31.2646 0.0000
# 3 18.8703 48.8549 72.3134 0.0000 -25.8443 0.0000
# 4 0.0000 0.0000 0.0000 53.3308 0.0000 -11.8929
# 5 -29.4932 -31.2646 -25.8443 0.0000 39.3532 0.0000
# 6 0.0000 0.0000 0.0000 -11.8929 0.0000 69.9085
#
#
#
# Elastic Compliance Matrix: (Units=1/GPa)
#
#
# Indices 1 2 3 4 5 6 
#
# 1 0.016729 -0.001685 0.001013 0.000000 0.011864 0.000000
# 2 -0.001685 0.005277 -0.002716 0.000000 0.001146 0.000000
# 3 0.001013 -0.002716 0.019469 0.000000 0.011387 0.000000
# 4 0.000000 0.000000 0.000000 0.019490 0.000000 0.003316
# 5 0.011864 0.001146 0.011387 0.000000 0.042691 0.000000
# 6 0.000000 0.000000 0.000000 0.003316 0.000000 0.014868
#
#
# Mechanical properties :
#
#
# Convention : Reuss Voigt Hill
#
# Bulk Modulus (GPa) = 28.81907 68.06172 48.44040
# Shear Modulus (GPa) = 36.53175 51.23106 43.88140
#
# Velocity S-wave (km/s) = 3.70186 4.38381 4.05719
# Velocity P-wave (km/s) = 5.39280 7.15227 6.33393
#
# Compressibility (1/GPa) = 0.03469925
#
# Stress axis : x y z
#
# Youngs Moduli (GPa) = 59.77694 189.49545 51.36380
#
# Poissons Ratio (x) = 0.31930 -0.05204
# Poissons Ratio (y) = 0.10072 0.13950
# Poissons Ratio (z) = -0.06056 0.51466
#
# Static dielectric constant tensor:
#      x y z
#    x 2.043590 0.000000 0.064420 
#    y 0.000000 1.978520 0.000000 
#    z 0.064420 0.000000 2.331530 
# 
# From -- ./inp_files/75401.got.cif
#   From: 2010.05.17/outbox.cif.g08.bks.cpg/sg14_38_cif.got.tgz:75401.got - 2010.06.03 17:49:19.
