data_PCOD9252643
_publ_section_title
;
Structure prediction by ZEFSAII (Michael W. Deem and Ramdas Pophale) SiO2 
 PCOD9252643
Probable space group: P 21/C
;
_chemical_formula_sum "Si O2"
_cell_formula_units_Z 28
_cell_length_a 8.535346
_cell_length_b 7.770926
_cell_length_c 20.359966
_cell_angle_alpha 90.000000
_cell_angle_beta 125.269733
_cell_angle_gamma 90.000000
_cell_volume 1102.545907
_symmetry_space_group_name_H-M "P 21/C"
_symmetry_group_IT_number 14
_symmetry_cell_setting 'monoclinic'
loop_
_space_group_symop_operation_xyz
x,y,z
-x,1/2+y,1/2-z
-x,-y,-z
x,1/2-y,1/2+z
loop_
_atom_site_type_symbol
_atom_site_label
_atom_site_fract_x
_atom_site_fract_y
_atom_site_fract_z
Si Si1 0.453185 0.788588 0.395374
Si Si2 0.123125 0.424563 0.815118
Si Si3 0.716603 0.240266 0.376042
Si Si4 0.839395 0.759147 0.042674
Si Si5 0.262574 0.657264 0.478921
Si Si6 0.455496 0.096719 0.212883
Si Si7 0.098501 0.286734 0.178770
O O1 0.299954 0.941893 0.351256
O O2 0.672501 0.842782 0.463898
O O3 0.390595 0.683877 0.445579
O O4 0.452941 0.666350 0.332119
O O5 0.171236 0.286193 0.882796
O O6 0.072858 0.343751 0.733582
O O7 0.942195 0.529677 0.799384
O O8 0.648716 0.262699 0.434218
O O9 0.606456 0.096020 0.308696
O O10 0.657877 0.420095 0.326527
O O11 0.945526 0.221483 0.428923
O O12 0.793545 0.960222 0.021208
O O13 0.065943 0.755410 0.414187
O O14 0.299081 0.236758 0.197276
#
# Coordination Sequence:
#
# PCOD9252643 Si02
#       7
#     4   4   4   4   4   4   4
#     4  11  26  48  76 115 149 197 256 313 384 456
#     4  11  27  46  76 113 153 200 253 318 380 455
#     4  12  28  48  76 112 150 207 250 320 385 455
#     4  12  24  48  77 107 153 195 249 317 373 461
#     4  11  24  48  79 109 143 201 257 310 384 453
#     4  12  27  47  74 109 158 193 258 309 386 456
#     4  11  25  48  75 108 153 200 253 311 383 451
#
# _framework density 25.395768
#
# number of rings (size 3 to 8) (size 9 to 14) (size 15 to 20)
#    0.000    0.571    2.857    3.857    8.000    0.000 
#    5.143    3.571    0.000    0.000    0.000    0.000 
#    0.000    0.000    0.000    0.000    0.000    0.000 
#
# Total GULP energy -157173.976417 kJ/mol
# GULP energy per Si atom -5613.356301 kJ/mol
# Density = 2.533797 g / cm^3
# Si number density = 25.395768 Si / 1000 Ang^3
#
#
#
# Elastic Constant Matrix: (Units=GPa)
#
#
# Indices 1 2 3 4 5 6 
#
# 1 108.0777 10.1368 36.4427 0.0000 5.4249 0.0000
# 2 10.1368 79.1844 20.4292 0.0000 -4.5485 0.0000
# 3 36.4427 20.4292 134.5220 0.0000 -9.4136 0.0000
# 4 0.0000 0.0000 0.0000 40.9287 0.0000 0.7550
# 5 5.4249 -4.5485 -9.4136 0.0000 45.9128 0.0000
# 6 0.0000 0.0000 0.0000 0.7550 0.0000 26.6253
#
#
#
# Elastic Compliance Matrix: (Units=1/GPa)
#
#
# Indices 1 2 3 4 5 6 
#
# 1 0.010368 -0.000704 -0.002833 0.000000 -0.001876 0.000000
# 2 -0.000704 0.013229 -0.001746 0.000000 0.001036 0.000000
# 3 -0.002833 -0.001746 0.008601 0.000000 0.001925 0.000000
# 4 0.000000 0.000000 0.000000 0.024446 0.000000 -0.000693
# 5 -0.001876 0.001036 0.001925 0.000000 0.022499 0.000000
# 6 0.000000 0.000000 0.000000 -0.000693 0.000000 0.037578
#
#
# Mechanical properties :
#
#
# Convention : Reuss Voigt Hill
#
# Bulk Modulus (GPa) = 46.22773 50.64462 48.43618
# Shear Modulus (GPa) = 37.17542 39.67836 38.42689
#
# Velocity S-wave (km/s) = 3.83017 3.95701 3.89411
# Velocity P-wave (km/s) = 6.14839 6.39239 6.27158
#
# Compressibility (1/GPa) = 0.02163204
#
# Stress axis : x y z
#
# Youngs Moduli (GPa) = 96.44982 75.59272 116.26442
#
# Poissons Ratio (x) = 0.05322 0.32939
# Poissons Ratio (y) = 0.06791 0.20297
# Poissons Ratio (z) = 0.27325 0.13197
#
# Static dielectric constant tensor:
#      x y z
#    x 2.000130 0.000000 0.023820 
#    y 0.000000 1.990420 0.000000 
#    z 0.023820 0.000000 1.963040 
# 
# From -- ./inp_files/65045.got.cif
#   From: 2010.05.17/outbox.cif.g08.bks.cpg/sg14_33_cif.got.tgz:65045.got - 2010.06.03 17:49:19.
