data_PCOD9252573
_publ_section_title
;
Structure prediction by ZEFSAII (Michael W. Deem and Ramdas Pophale) SiO2 
 PCOD9252573
Probable space group: P 21/C
;
_chemical_formula_sum "Si O2"
_cell_formula_units_Z 32
_cell_length_a 9.666920
_cell_length_b 11.433649
_cell_length_c 15.240671
_cell_angle_alpha 90.000000
_cell_angle_beta 72.810457
_cell_angle_gamma 90.000000
_cell_volume 1609.279715
_symmetry_space_group_name_H-M "P 21/C"
_symmetry_group_IT_number 14
_symmetry_cell_setting 'monoclinic'
loop_
_space_group_symop_operation_xyz
x,y,z
-x,1/2+y,1/2-z
-x,-y,-z
x,1/2-y,1/2+z
loop_
_atom_site_type_symbol
_atom_site_label
_atom_site_fract_x
_atom_site_fract_y
_atom_site_fract_z
Si Si1 0.378224 0.338913 0.735428
Si Si2 0.833926 0.488752 0.555016
Si Si3 0.829466 0.229164 0.834299
Si Si4 0.711634 0.260909 0.662145
Si Si5 0.215688 0.495238 0.895657
Si Si6 0.887656 0.022044 0.394498
Si Si7 0.345672 0.995134 0.074523
Si Si8 0.845311 0.871881 0.230235
O O1 0.543292 0.295038 0.704978
O O2 0.331401 0.407744 0.831886
O O3 0.352869 0.428329 0.660292
O O4 0.267305 0.233243 0.742522
O O5 0.783132 0.355966 0.583602
O O6 0.756474 0.540319 0.484132
O O7 0.805437 0.556440 0.650503
O O8 0.000000 0.500000 0.500000
O O9 0.790791 0.264564 0.741803
O O10 0.835342 0.345389 0.891270
O O11 0.989715 0.173576 0.808498
O O12 0.714443 0.132461 0.887522
O O13 0.731419 0.128564 0.625096
O O14 0.062398 0.481275 0.872854
O O15 0.179400 0.471302 0.003731
O O16 0.842079 0.950575 0.317568
O O17 0.500000 0.000000 0.000000
#
# Coordination Sequence:
#
# PCOD9252573 Si02
#       8
#     4   4   4   4   4   4   4   4
#     4  12  28  46  69 106 146 188 233 289 364 430
#     4  12  27  45  74 106 139 188 251 295 354 435
#     4  12  24  47  75 102 142 188 237 296 357 423
#     4  12  26  45  74 102 148 188 232 294 368 428
#     4  11  25  46  72 102 144 185 232 292 363 418
#     4  11  24  46  73 104 136 182 240 297 351 418
#     4  12  26  48  71 103 145 190 234 295 365 427
#     4  12  26  45  70 106 139 183 242 295 348 427
#
# _framework density 19.884674
#
# number of rings (size 3 to 8) (size 9 to 14) (size 15 to 20)
#    0.000    0.250    7.500    0.750    5.250    1.000 
#    0.000    1.250    0.000    0.000    0.000    0.000 
#    0.000    0.000    0.000    0.000    0.000    0.000 
#
# Total GULP energy -179011.107877 kJ/mol
# GULP energy per Si atom -5594.097121 kJ/mol
# Density = 1.983942 g / cm^3
# Si number density = 19.884674 Si / 1000 Ang^3
#
#
#
# Elastic Constant Matrix: (Units=GPa)
#
#
# Indices 1 2 3 4 5 6 
#
# 1 63.3907 10.2963 -11.6761 0.0000 -17.8186 0.0000
# 2 10.2963 99.6573 10.1881 0.0000 -17.5890 0.0000
# 3 -11.6761 10.1881 58.9486 0.0000 -3.0938 0.0000
# 4 0.0000 0.0000 0.0000 15.9711 0.0000 -3.0375
# 5 -17.8186 -17.5890 -3.0938 0.0000 44.9918 0.0000
# 6 0.0000 0.0000 0.0000 -3.0375 0.0000 29.7393
#
#
#
# Elastic Compliance Matrix: (Units=1/GPa)
#
#
# Indices 1 2 3 4 5 6 
#
# 1 0.018800 -0.001091 0.004296 0.000000 0.007315 0.000000
# 2 -0.001091 0.011003 -0.001922 0.000000 0.003738 0.000000
# 3 0.004296 -0.001922 0.018263 0.000000 0.002206 0.000000
# 4 0.000000 0.000000 0.000000 0.063853 0.000000 0.006522
# 5 0.007315 0.003738 0.002206 0.000000 0.026736 0.000000
# 6 0.000000 0.000000 0.000000 0.006522 0.000000 0.034292
#
#
# Mechanical properties :
#
#
# Convention : Reuss Voigt Hill
#
# Bulk Modulus (GPa) = 19.74975 26.62370 23.18672
# Shear Modulus (GPa) = 26.70137 32.35301 29.52719
#
# Velocity S-wave (km/s) = 3.66841 4.03803 3.85765
# Velocity P-wave (km/s) = 5.28174 5.92950 5.61497
#
# Compressibility (1/GPa) = 0.05063356
#
# Stress axis : x y z
#
# Youngs Moduli (GPa) = 53.19240 90.88303 54.75630
#
# Poissons Ratio (x) = 0.09911 -0.23524
# Poissons Ratio (y) = 0.05801 0.10522
# Poissons Ratio (z) = -0.22852 0.17463
#
# Static dielectric constant tensor:
#      x y z
#    x 1.661270 0.000000 0.008670 
#    y 0.000000 1.695660 0.000000 
#    z 0.008670 0.000000 1.637110 
# 
# From -- ./inp_files/40299.got.cif
#   From: 2010.05.17/outbox.cif.g08.bks.cpg/sg14_21_cif.got.tgz:40299.got - 2010.06.03 17:49:19.
