data_PCOD9252653
_publ_section_title
;
Structure prediction by ZEFSAII (Michael W. Deem and Ramdas Pophale) SiO2 
 PCOD9252653
Probable space group: P 21/C
;
_chemical_formula_sum "Si O2"
_cell_formula_units_Z 28
_cell_length_a 5.103404
_cell_length_b 19.957456
_cell_length_c 9.991783
_cell_angle_alpha 90.000000
_cell_angle_beta 92.996962
_cell_angle_gamma 90.000000
_cell_volume 1016.280836
_symmetry_space_group_name_H-M "P 21/C"
_symmetry_group_IT_number 14
_symmetry_cell_setting 'monoclinic'
loop_
_space_group_symop_operation_xyz
x,y,z
-x,1/2+y,1/2-z
-x,-y,-z
x,1/2-y,1/2+z
loop_
_atom_site_type_symbol
_atom_site_label
_atom_site_fract_x
_atom_site_fract_y
_atom_site_fract_z
Si Si1 0.500000 0.500000 0.500000
Si Si2 0.346500 0.944978 0.746308
Si Si3 0.305009 0.316126 0.216745
Si Si4 0.952439 0.239986 0.517649
Si Si5 0.000000 0.000000 0.500000
Si Si6 0.444454 0.305789 0.850581
Si Si7 0.923021 0.884912 0.041706
Si Si8 0.303568 0.922753 0.294583
O O1 0.700176 0.449314 0.596813
O O2 0.257155 0.445424 0.514277
O O3 0.105723 0.961150 0.642408
O O4 0.497692 0.880399 0.696203
O O5 0.529960 0.011186 0.738876
O O6 0.438503 0.244046 0.223536
O O7 0.285136 0.347268 0.362520
O O8 0.477396 0.371065 0.147786
O O9 0.017870 0.300411 0.153953
O O10 0.175159 0.209148 0.422756
O O11 0.984608 0.319919 0.540181
O O12 0.680491 0.222041 0.445233
O O13 0.120982 0.941545 0.411625
O O14 0.145180 0.905241 0.156883
#
# Coordination Sequence:
#
# PCOD9252653 Si02
#       8
#     2   4   4   4   2   4   4   4
#     4  12  24  50  70 108 154 198 250 330 392 482
#     4  12  28  45  72 113 150 202 259 330 396 474
#     4  11  24  49  72 107 150 209 259 324 401 469
#     4  11  26  46  77 107 152 201 266 327 391 474
#     4  12  26  46  74 108 154 196 264 318 402 462
#     4  11  27  45  73 110 149 196 267 322 388 475
#     4  11  25  48  74 110 153 203 263 323 406 473
#     4  12  24  47  74 111 153 210 254 337 397 478
#
# _framework density 27.551438000000001
#
# number of rings (size 3 to 8) (size 9 to 14) (size 15 to 20)
#    0.000    0.571    4.286    2.143    8.000    0.571 
#    0.000    4.286    0.000    0.000    0.000    0.000 
#    0.000    0.000    0.000    0.000    0.000    0.000 
#
# Total GULP energy -155985.393514 kJ/mol
# GULP energy per Si atom -5570.906911 kJ/mol
# Density = 2.748873 g / cm^3
# Si number density = 27.551438 Si / 1000 Ang^3
#
#
#
# Elastic Constant Matrix: (Units=GPa)
#
#
# Indices 1 2 3 4 5 6 
#
# 1 78.9742 14.0784 7.0632 0.0000 24.9710 0.0000
# 2 14.0784 153.0968 2.9291 0.0000 15.0713 0.0000
# 3 7.0632 2.9291 112.1196 0.0000 17.8959 0.0000
# 4 0.0000 0.0000 0.0000 48.3240 0.0000 8.7371
# 5 24.9710 15.0713 17.8959 0.0000 30.2007 0.0000
# 6 0.0000 0.0000 0.0000 8.7371 0.0000 48.4588
#
#
#
# Elastic Compliance Matrix: (Units=1/GPa)
#
#
# Indices 1 2 3 4 5 6 
#
# 1 0.017322 -0.000138 0.001312 0.000000 -0.015031 0.000000
# 2 -0.000138 0.006887 0.000397 0.000000 -0.003558 0.000000
# 3 0.001312 0.000397 0.009974 0.000000 -0.007193 0.000000
# 4 0.000000 0.000000 0.000000 0.021391 0.000000 -0.003857
# 5 -0.015031 -0.003558 -0.007193 0.000000 0.051577 0.000000
# 6 0.000000 0.000000 0.000000 -0.003857 0.000000 0.021331
#
#
# Mechanical properties :
#
#
# Convention : Reuss Voigt Hill
#
# Bulk Modulus (GPa) = 26.79297 43.59244 35.19270
# Shear Modulus (GPa) = 36.28844 46.73801 41.51323
#
# Velocity S-wave (km/s) = 3.63315 4.12320 3.88590
# Velocity P-wave (km/s) = 5.22929 6.20679 5.73889
#
# Compressibility (1/GPa) = 0.03732323
#
# Stress axis : x y z
#
# Youngs Moduli (GPa) = 57.72889 145.19753 100.25948
#
# Poissons Ratio (x) = 0.02009 -0.13149
# Poissons Ratio (y) = 0.00799 -0.03977
# Poissons Ratio (z) = -0.07571 -0.05759
#
# Static dielectric constant tensor:
#      x y z
#    x 2.027680 0.000000 0.124000 
#    y 0.000000 2.107980 0.000000 
#    z 0.124000 0.000000 2.037410 
# 
# From -- ./inp_files/21860.got.cif
#   From: 2010.05.17/outbox.cif.g08.bks.cpg/sg14_11_cif.got.tgz:21860.got - 2010.06.03 17:49:19.
