data_PCOD9252910
_publ_section_title
;
Structure prediction by ZEFSAII (Michael W. Deem and Ramdas Pophale) SiO2 
 PCOD9252910
Probable space group: P 21/C
;
_chemical_formula_sum "Si O2"
_cell_formula_units_Z 14
_cell_length_a 9.047245
_cell_length_b 8.220113
_cell_length_c 8.818445
_cell_angle_alpha 90.000000
_cell_angle_beta 127.731604
_cell_angle_gamma 90.000000
_cell_volume 518.680704
_symmetry_space_group_name_H-M "P 21/C"
_symmetry_group_IT_number 14
_symmetry_cell_setting 'monoclinic'
loop_
_space_group_symop_operation_xyz
x,y,z
-x,1/2+y,1/2-z
-x,-y,-z
x,1/2-y,1/2+z
loop_
_atom_site_type_symbol
_atom_site_label
_atom_site_fract_x
_atom_site_fract_y
_atom_site_fract_z
Si Si1 0.649251 0.054441 0.380746
Si Si2 0.000000 0.500000 0.500000
Si Si3 0.557862 0.772482 0.005444
Si Si4 0.016814 0.310403 0.205643
O O1 0.569230 0.193412 0.445347
O O2 0.543778 0.093950 0.159823
O O3 0.868673 0.078147 0.525784
O O4 0.594770 0.882690 0.418151
O O5 0.031429 0.627648 0.379168
O O6 0.006372 0.650980 0.629742
O O7 0.762450 0.823872 0.190393
#
# Coordination Sequence:
#
# PCOD9252910 Si02
#       4
#     4   2   4   4
#     4  11  26  47  75 111 155 208 268 330 403 482
#     4  12  28  52  84 116 162 216 270 332 408 484
#     4  11  26  47  75 111 155 208 268 330 403 482
#     4  12  26  52  82 116 166 212 272 336 408 480
#
# _framework density 26.991557
#
# number of rings (size 3 to 8) (size 9 to 14) (size 15 to 20)
#    0.000    0.571    2.857    3.429   12.000    2.286 
#   10.286    0.000    0.000    0.000    0.000    0.000 
#    0.000    0.000    0.000    0.000    0.000    0.000 
#
# Total GULP energy -78051.794205 kJ/mol
# GULP energy per Si atom -5575.128158 kJ/mol
# Density = 2.693012 g / cm^3
# Si number density = 26.991557 Si / 1000 Ang^3
#
#
#
# Elastic Constant Matrix: (Units=GPa)
#
#
# Indices 1 2 3 4 5 6 
#
# 1 127.0960 49.9387 86.2081 0.0000 3.7489 0.0000
# 2 49.9387 103.0276 68.1933 0.0000 -16.3589 0.0000
# 3 86.2081 68.1933 173.7901 0.0000 14.4179 0.0000
# 4 0.0000 0.0000 0.0000 68.4490 0.0000 -29.3136
# 5 3.7489 -16.3589 14.4179 0.0000 48.3098 0.0000
# 6 0.0000 0.0000 0.0000 -29.3136 0.0000 45.5664
#
#
#
# Elastic Compliance Matrix: (Units=1/GPa)
#
#
# Indices 1 2 3 4 5 6 
#
# 1 0.012362 -0.002721 -0.005033 0.000000 -0.000378 0.000000
# 2 -0.002721 0.015755 -0.005427 0.000000 0.007166 0.000000
# 3 -0.005033 -0.005427 0.010767 0.000000 -0.004660 0.000000
# 4 0.000000 0.000000 0.000000 0.020165 0.000000 0.012972
# 5 -0.000378 0.007166 -0.004660 0.000000 0.024546 0.000000
# 6 0.000000 0.000000 0.000000 0.012972 0.000000 0.030291
#
#
# Mechanical properties :
#
#
# Convention : Reuss Voigt Hill
#
# Bulk Modulus (GPa) = 79.85856 90.28821 85.07339
# Shear Modulus (GPa) = 34.62071 45.76996 40.19533
#
# Velocity S-wave (km/s) = 3.58529 4.12237 3.86318
# Velocity P-wave (km/s) = 6.84031 7.49545 7.17536
#
# Compressibility (1/GPa) = 0.01252214
#
# Stress axis : x y z
#
# Youngs Moduli (GPa) = 80.89104 63.47332 92.87749
#
# Poissons Ratio (x) = 0.17269 0.46748
# Poissons Ratio (y) = 0.22008 0.50403
# Poissons Ratio (z) = 0.40715 0.34446
#
# Static dielectric constant tensor:
#      x y z
#    x 2.055190 0.000000 -0.085570 
#    y 0.000000 2.105520 0.000000 
#    z -0.085570 0.000000 1.638680 
# 
# From -- ./inp_files/7155.got.cif
#   From: 2010.05.17/outbox.cif.g08.bks.cpg/sg14_4_cif.got.tgz:7155.got - 2010.06.03 17:49:19.
