data_PCOD9252260
_publ_section_title
;
Structure prediction by ZEFSAII (Michael W. Deem and Ramdas Pophale) SiO2 
 PCOD9252260
Probable space group: P 21/C
;
_chemical_formula_sum "Si O2"
_cell_formula_units_Z 26
_cell_length_a 17.075338
_cell_length_b 10.130607
_cell_length_c 8.942920
_cell_angle_alpha 90.000000
_cell_angle_beta 140.081239
_cell_angle_gamma 90.000000
_cell_volume 992.696985
_symmetry_space_group_name_H-M "P 21/C"
_symmetry_group_IT_number 14
_symmetry_cell_setting 'monoclinic'
loop_
_space_group_symop_operation_xyz
x,y,z
-x,1/2+y,1/2-z
-x,-y,-z
x,1/2-y,1/2+z
loop_
_atom_site_type_symbol
_atom_site_label
_atom_site_fract_x
_atom_site_fract_y
_atom_site_fract_z
Si Si1 0.164688 0.379773 0.082352
Si Si2 0.389695 0.493587 0.220756
Si Si3 0.715175 0.901928 0.721459
Si Si4 0.167246 0.857238 0.743034
Si Si5 0.500000 0.500000 0.000000
Si Si6 0.322237 0.756546 0.215036
Si Si7 0.940237 0.400859 0.531823
O O1 0.270961 0.428868 0.123455
O O2 0.212033 0.233671 0.193184
O O3 0.149207 0.487795 0.191262
O O4 0.036389 0.390715 0.808195
O O5 0.500000 0.500000 0.500000
O O6 0.366651 0.647144 0.163371
O O7 0.395933 0.429563 0.063871
O O8 0.630836 0.917504 0.742834
O O9 0.810382 0.021010 0.848252
O O10 0.281154 0.823419 0.800497
O O11 0.070075 0.748899 0.545792
O O12 0.202787 0.813785 0.959534
O O13 0.577477 0.363685 0.110073
O O14 0.000000 0.500000 0.500000
#
# Coordination Sequence:
#
# PCOD9252260 Si02
#       7
#     4   4   4   4   2   4   4
#     4  11  26  44  77 115 149 203 262 323 392 468
#     4  11  24  47  71 103 153 200 250 312 401 467
#     4  12  26  50  75 116 154 200 262 326 389 478
#     4  11  24  47  73 110 155 199 257 317 399 463
#     4  12  26  44  78 108 156 190 258 316 390 470
#     4  11  23  46  70 105 146 205 244 314 385 472
#     4  12  22  51  78 103 157 209 258 320 395 468
#
# _framework density 26.191274
#
# number of rings (size 3 to 8) (size 9 to 14) (size 15 to 20)
#    0.000    0.615    4.615    2.769    4.308    2.462 
#    2.769    1.538    0.000    0.000    0.000    0.000 
#    0.000    0.000    0.000    0.000    0.000    0.000 
#
# Total GULP energy -144941.567011 kJ/mol
# GULP energy per Si atom -5574.675654 kJ/mol
# Density = 2.613166 g / cm^3
# Si number density = 26.191274 Si / 1000 Ang^3
#
#
#
# Elastic Constant Matrix: (Units=GPa)
#
#
# Indices 1 2 3 4 5 6 
#
# 1 34.5290 17.3885 22.8645 0.0000 21.8772 0.0000
# 2 17.3885 188.4951 59.0485 0.0000 -4.4120 0.0000
# 3 22.8645 59.0485 179.9670 0.0000 20.4858 0.0000
# 4 0.0000 0.0000 0.0000 50.1843 0.0000 6.5910
# 5 21.8772 -4.4120 20.4858 0.0000 55.3294 0.0000
# 6 0.0000 0.0000 0.0000 6.5910 0.0000 42.1591
#
#
#
# Elastic Compliance Matrix: (Units=1/GPa)
#
#
# Indices 1 2 3 4 5 6 
#
# 1 0.042644 -0.003563 -0.002398 0.000000 -0.016258 0.000000
# 2 -0.003563 0.006294 -0.001910 0.000000 0.002618 0.000000
# 3 -0.002398 -0.001910 0.006679 0.000000 -0.001677 0.000000
# 4 0.000000 0.000000 0.000000 0.020344 0.000000 -0.003181
# 5 -0.016258 0.002618 -0.001677 0.000000 0.025332 0.000000
# 6 0.000000 0.000000 0.000000 -0.003181 0.000000 0.024217
#
#
# Mechanical properties :
#
#
# Convention : Reuss Voigt Hill
#
# Bulk Modulus (GPa) = 25.07932 66.84378 45.96155
# Shear Modulus (GPa) = 32.35331 49.78054 41.06693
#
# Velocity S-wave (km/s) = 3.51845 4.36438 3.96405
# Velocity P-wave (km/s) = 5.10904 7.13960 6.20790
#
# Compressibility (1/GPa) = 0.03987349
#
# Stress axis : x y z
#
# Youngs Moduli (GPa) = 23.44986 158.89212 149.72473
#
# Poissons Ratio (x) = 0.56616 0.35906
# Poissons Ratio (y) = 0.08356 0.28602
# Poissons Ratio (z) = 0.05624 0.30353
#
# Static dielectric constant tensor:
#      x y z
#    x 1.571830 0.000000 0.098410 
#    y 0.000000 1.979840 0.000000 
#    z 0.098410 0.000000 2.082920 
# 
# From -- ./inp_files/35800.got.cif
#   From: 2010.05.17/outbox.cif.g08.bks.cpg/sg14_18_cif.got.tgz:35800.got - 2010.06.03 17:49:19.
