data_PCOD9252674
_publ_section_title
;
Structure prediction by ZEFSAII (Michael W. Deem and Ramdas Pophale) SiO2 
 PCOD9252674
Probable space group: P 21/C
;
_chemical_formula_sum "Si O2"
_cell_formula_units_Z 16
_cell_length_a 9.663293
_cell_length_b 4.903160
_cell_length_c 26.988941
_cell_angle_alpha 90.000000
_cell_angle_beta 152.899506
_cell_angle_gamma 90.000000
_cell_volume 582.539757
_symmetry_space_group_name_H-M "P 21/C"
_symmetry_group_IT_number 14
_symmetry_cell_setting 'monoclinic'
loop_
_space_group_symop_operation_xyz
x,y,z
-x,1/2+y,1/2-z
-x,-y,-z
x,1/2-y,1/2+z
loop_
_atom_site_type_symbol
_atom_site_label
_atom_site_fract_x
_atom_site_fract_y
_atom_site_fract_z
Si Si1 0.439932 0.951229 0.265200
Si Si2 0.060066 0.548771 0.234799
Si Si3 0.782588 0.167581 0.068365
Si Si4 0.282590 0.832420 0.068366
O O1 0.489620 0.162773 0.235884
O O2 0.647048 0.071146 0.375026
O O3 0.088701 0.984716 0.167589
O O4 0.411297 0.515285 0.332410
O O5 0.989621 0.837227 0.235885
O O6 0.852950 0.428854 0.124973
O O7 0.749999 0.242560 1.000000
O O8 0.500000 0.000000 0.000000
O O9 0.000000 0.000000 0.000000
#
# Coordination Sequence:
#
# PCOD9252674 Si02
#       4
#     4   4   4   4
#     4  11  26  51  77 112 153 199 254 314 371 455
#     4  11  26  51  77 112 153 199 254 314 371 455
#     4  11  24  50  76 115 150 202 251 313 379 450
#     4  11  24  50  76 115 150 202 251 313 379 450
#
# _framework density 27.465937
#
# number of rings (size 3 to 8) (size 9 to 14) (size 15 to 20)
#    0.000    1.000    5.000    0.000    0.000   10.000 
#    9.000    0.000    0.000    0.000    0.000    0.000 
#    0.000    0.000    0.000    0.000    0.000    0.000 
#
# Total GULP energy -90046.113069 kJ/mol
# GULP energy per Si atom -5627.882067 kJ/mol
# Density = 2.740342 g / cm^3
# Si number density = 27.465937 Si / 1000 Ang^3
#
#
#
# Elastic Constant Matrix: (Units=GPa)
#
#
# Indices 1 2 3 4 5 6 
#
# 1 249.0526 35.2073 84.2211 0.0000 -34.0598 0.0000
# 2 35.2073 51.9451 -6.1876 0.0000 2.0242 0.0000
# 3 84.2211 -6.1876 169.7467 0.0000 -14.9095 0.0000
# 4 0.0000 0.0000 0.0000 43.5185 0.0000 1.0865
# 5 -34.0598 2.0242 -14.9095 0.0000 71.7832 0.0000
# 6 0.0000 0.0000 0.0000 1.0865 0.0000 50.8920
#
#
#
# Elastic Compliance Matrix: (Units=1/GPa)
#
#
# Indices 1 2 3 4 5 6 
#
# 1 0.005952 -0.004473 -0.002910 0.000000 0.002346 0.000000
# 2 -0.004473 0.022707 0.002856 0.000000 -0.002169 0.000000
# 3 -0.002910 0.002856 0.007447 0.000000 0.000085 0.000000
# 4 0.000000 0.000000 0.000000 0.022991 0.000000 -0.000491
# 5 0.002346 -0.002169 0.000085 0.000000 0.015123 0.000000
# 6 0.000000 0.000000 0.000000 -0.000491 0.000000 0.019660
#
#
# Mechanical properties :
#
#
# Convention : Reuss Voigt Hill
#
# Bulk Modulus (GPa) = 36.96413 77.46954 57.21684
# Shear Modulus (GPa) = 44.66230 57.07233 50.86732
#
# Velocity S-wave (km/s) = 4.03687 4.56338 4.30817
# Velocity P-wave (km/s) = 5.93429 7.48551 6.75458
#
# Compressibility (1/GPa) = 0.02705325
#
# Stress axis : x y z
#
# Youngs Moduli (GPa) = 167.99688 44.03873 134.28720
#
# Poissons Ratio (x) = 0.19697 0.39082
# Poissons Ratio (y) = 0.75138 -0.38356
# Poissons Ratio (z) = 0.48893 -0.12579
#
# Static dielectric constant tensor:
#      x y z
#    x 2.130320 0.000000 -0.037310 
#    y 0.000000 2.140070 0.000000 
#    z -0.037310 0.000000 2.178390 
# 
# From -- ./inp_files/11426.got.cif
#   From: 2010.05.17/outbox.cif.g08.bks.cpg/sg14_6_cif.got.tgz:11426.got - 2010.06.03 17:49:19.
