data_PCOD9252901
_publ_section_title
;
Structure prediction by ZEFSAII (Michael W. Deem and Ramdas Pophale) SiO2 
 PCOD9252901
Probable space group: P 21/C
;
_chemical_formula_sum "Si O2"
_cell_formula_units_Z 24
_cell_length_a 12.391281
_cell_length_b 9.199080
_cell_length_c 11.317070
_cell_angle_alpha 90.000000
_cell_angle_beta 116.775872
_cell_angle_gamma 90.000000
_cell_volume 1151.693513
_symmetry_space_group_name_H-M "P 21/C"
_symmetry_group_IT_number 14
_symmetry_cell_setting 'monoclinic'
loop_
_space_group_symop_operation_xyz
x,y,z
-x,1/2+y,1/2-z
-x,-y,-z
x,1/2-y,1/2+z
loop_
_atom_site_type_symbol
_atom_site_label
_atom_site_fract_x
_atom_site_fract_y
_atom_site_fract_z
Si Si1 0.667745 0.460269 0.478735
Si Si2 0.903734 0.495838 0.241094
Si Si3 0.015242 0.693341 0.109604
Si Si4 0.767243 0.352011 0.962254
Si Si5 0.218663 0.203453 0.126626
Si Si6 0.613102 0.538981 0.718025
O O1 0.735419 0.313386 0.476862
O O2 0.731441 0.598085 0.450402
O O3 0.660337 0.478983 0.615787
O O4 0.530766 0.451079 0.362713
O O5 0.001708 0.585895 0.213788
O O6 0.840142 0.603812 0.301173
O O7 0.960325 0.357180 0.334116
O O8 0.806730 0.433217 0.100597
O O9 0.120479 0.648125 0.072861
O O10 0.887969 0.697348 0.978642
O O11 0.657068 0.432051 0.843124
O O12 0.324060 0.306323 0.227137
#
# Coordination Sequence:
#
# PCOD9252901 Si02
#       6
#     4   4   4   4   4   4
#     4  11  26  47  72 100 138 185 233 285 337 404
#     4  12  26  42  71 102 137 182 220 286 352 412
#     4  12  26  44  70 104 142 176 226 284 348 414
#     4  12  25  47  69 104 139 180 232 282 347 410
#     4  12  25  47  69 104 139 180 232 282 347 410
#     4  11  26  47  72 100 138 185 233 285 337 404
#
# _framework density 20.838877
#
# number of rings (size 3 to 8) (size 9 to 14) (size 15 to 20)
#    0.000    0.333    3.333    5.000    7.000    0.000 
#    0.000    1.667    0.000    0.000    0.000    0.000 
#    0.000    0.000    0.000    0.000    0.000    0.000 
#
# Total GULP energy -134515.541179 kJ/mol
# GULP energy per Si atom -5604.814216 kJ/mol
# Density = 2.079145 g / cm^3
# Si number density = 20.838877 Si / 1000 Ang^3
#
#
#
# Elastic Constant Matrix: (Units=GPa)
#
#
# Indices 1 2 3 4 5 6 
#
# 1 54.5131 4.5780 18.4148 0.0000 -3.6482 0.0000
# 2 4.5780 93.8312 8.7324 0.0000 0.8148 0.0000
# 3 18.4148 8.7324 57.8614 0.0000 7.9646 0.0000
# 4 0.0000 0.0000 0.0000 39.5956 0.0000 8.8626
# 5 -3.6482 0.8148 7.9646 0.0000 26.2352 0.0000
# 6 0.0000 0.0000 0.0000 8.8626 0.0000 20.4666
#
#
#
# Elastic Compliance Matrix: (Units=1/GPa)
#
#
# Indices 1 2 3 4 5 6 
#
# 1 0.021231 -0.000391 -0.007416 0.000000 0.005216 0.000000
# 2 -0.000391 0.010817 -0.001518 0.000000 0.000070 0.000000
# 3 -0.007416 -0.001518 0.020880 0.000000 -0.007323 0.000000
# 4 0.000000 0.000000 0.000000 0.027966 0.000000 -0.012110
# 5 0.005216 0.000070 -0.007323 0.000000 0.041063 0.000000
# 6 0.000000 0.000000 0.000000 -0.012110 0.000000 0.054104
#
#
# Mechanical properties :
#
#
# Convention : Reuss Voigt Hill
#
# Bulk Modulus (GPa) = 29.17248 29.96178 29.56713
# Shear Modulus (GPa) = 24.25571 28.89151 26.57361
#
# Velocity S-wave (km/s) = 3.41539 3.72751 3.57486
# Velocity P-wave (km/s) = 5.43900 5.73889 5.59095
#
# Compressibility (1/GPa) = 0.03427888
#
# Stress axis : x y z
#
# Youngs Moduli (GPa) = 47.10029 92.44572 47.89286
#
# Poissons Ratio (x) = 0.03615 0.35517
# Poissons Ratio (y) = 0.01842 0.07269
# Poissons Ratio (z) = 0.34929 0.14031
#
# Static dielectric constant tensor:
#      x y z
#    x 1.705320 0.000000 0.012090 
#    y 0.000000 1.716060 0.000000 
#    z 0.012090 0.000000 1.722970 
# 
# From -- ./inp_files/28172.got.cif
#   From: 2010.05.17/outbox.cif.g08.bks.cpg/sg14_15_cif.got.tgz:28172.got - 2010.06.03 17:49:19.
