data_PCOD9252603
_publ_section_title
;
Structure prediction by ZEFSAII (Michael W. Deem and Ramdas Pophale) SiO2 
 PCOD9252603
Probable space group: P 21/C
;
_chemical_formula_sum "Si O2"
_cell_formula_units_Z 30
_cell_length_a 11.426762
_cell_length_b 11.541687
_cell_length_c 18.650608
_cell_angle_alpha 90.000000
_cell_angle_beta 35.304616
_cell_angle_gamma 90.000000
_cell_volume 1421.529014
_symmetry_space_group_name_H-M "P 21/C"
_symmetry_group_IT_number 14
_symmetry_cell_setting 'monoclinic'
loop_
_space_group_symop_operation_xyz
x,y,z
-x,1/2+y,1/2-z
-x,-y,-z
x,1/2-y,1/2+z
loop_
_atom_site_type_symbol
_atom_site_label
_atom_site_fract_x
_atom_site_fract_y
_atom_site_fract_z
Si Si1 0.080269 0.337237 0.825573
Si Si2 0.806328 0.583951 0.514636
Si Si3 0.000000 0.000000 0.500000
Si Si4 0.080269 0.337237 0.094158
Si Si5 0.207609 0.750000 0.646196
Si Si6 0.806327 0.916048 0.179036
Si Si7 0.484258 0.932022 0.581734
Si Si8 0.484257 0.932021 0.934009
O O1 0.992405 0.399310 0.939782
O O2 0.132269 0.202856 0.813995
O O3 0.294169 0.396589 0.701892
O O4 0.931912 0.336194 0.831105
O O5 0.867729 0.702856 0.446264
O O6 0.752584 0.609309 0.623708
O O7 0.625468 0.515555 0.567296
O O8 0.000002 0.500001 0.415994
O O9 0.992404 0.100691 0.567813
O O10 0.931911 0.336194 0.236982
O O11 0.294168 0.396589 0.003940
O O12 0.347243 0.820077 0.632141
O O13 0.347244 0.679925 0.520617
O O14 0.625465 0.984443 0.307238
O O15 0.500000 0.000000 0.500000
O O16 0.500000 0.000000 0.000000
#
# Coordination Sequence:
#
# PCOD9252603 Si02
#       8
#     4   4   2   4   4   4   4   4
#     4  12  26  48  76 111 153 198 258 313 390 455
#     4  11  24  47  73 104 149 197 245 305 376 447
#     4  12  28  48  74 116 154 192 248 332 378 456
#     4  12  26  48  76 111 153 198 258 313 390 455
#     4  12  24  48  76 104 158 202 252 324 376 462
#     4  11  24  47  73 104 149 197 245 305 376 447
#     4  12  26  44  73 114 147 200 253 308 379 465
#     4  12  26  44  73 114 147 200 253 308 379 465
#
# _framework density 21.104037000000002
#
# number of rings (size 3 to 8) (size 9 to 14) (size 15 to 20)
#    0.000    0.267    4.000    5.600    1.867    0.000 
#    0.000    0.000    0.000    0.000    0.000    0.000 
#    0.000    0.000    0.000    0.000    0.000    0.000 
#
# Total GULP energy -167451.932856 kJ/mol
# GULP energy per Si atom -5581.731095 kJ/mol
# Density = 2.105600 g / cm^3
# Si number density = 21.104037 Si / 1000 Ang^3
#
#
#
# Elastic Constant Matrix: (Units=GPa)
#
#
# Indices 1 2 3 4 5 6 
#
# 1 76.2775 -5.5373 36.7377 0.0000 10.2234 0.0000
# 2 -5.5373 75.9689 0.4682 0.0000 -5.0109 0.0000
# 3 36.7377 0.4682 65.9463 0.0000 -1.5950 0.0000
# 4 0.0000 0.0000 0.0000 49.5839 0.0000 0.9116
# 5 10.2234 -5.0109 -1.5950 0.0000 23.5145 0.0000
# 6 0.0000 0.0000 0.0000 0.9116 0.0000 50.6755
#
#
#
# Elastic Compliance Matrix: (Units=1/GPa)
#
#
# Indices 1 2 3 4 5 6 
#
# 1 0.019843 0.000909 -0.011283 0.000000 -0.009199 0.000000
# 2 0.000909 0.013393 -0.000543 0.000000 0.002422 0.000000
# 3 -0.011283 -0.000543 0.021605 0.000000 0.006256 0.000000
# 4 0.000000 0.000000 0.000000 0.020175 0.000000 -0.000363
# 5 -0.009199 0.002422 0.006256 0.000000 0.047467 0.000000
# 6 0.000000 0.000000 0.000000 -0.000363 0.000000 0.019740
#
#
# Mechanical properties :
#
#
# Convention : Reuss Voigt Hill
#
# Bulk Modulus (GPa) = 30.29718 31.28111 30.78915
# Shear Modulus (GPa) = 28.56181 37.18970 32.87576
#
# Velocity S-wave (km/s) = 3.68282 4.20242 3.95117
# Velocity P-wave (km/s) = 5.69838 6.19690 5.95286
#
# Compressibility (1/GPa) = 0.03300637
#
# Stress axis : x y z
#
# Youngs Moduli (GPa) = 50.39451 74.66789 46.28589
#
# Poissons Ratio (x) = -0.06788 0.52226
# Poissons Ratio (y) = -0.04582 0.02513
# Poissons Ratio (z) = 0.56862 0.04054
#
# Static dielectric constant tensor:
#      x y z
#    x 1.675290 0.000000 -0.025830 
#    y 0.000000 1.848800 0.000000 
#    z -0.025830 0.000000 1.706240 
# 
# From -- ./inp_files/67416.got.cif
#   From: 2010.05.17/outbox.cif.g08.bks.cpg/sg14_34_cif.got.tgz:67416.got - 2010.06.03 17:49:19.
