data_PCOD9252246
_publ_section_title
;
Structure prediction by ZEFSAII (Michael W. Deem and Ramdas Pophale) SiO2 
 PCOD9252246
Probable space group: P 21/C
;
_chemical_formula_sum "Si O2"
_cell_formula_units_Z 20
_cell_length_a 11.495855
_cell_length_b 9.461630
_cell_length_c 9.723077
_cell_angle_alpha 90.000000
_cell_angle_beta 67.104722
_cell_angle_gamma 90.000000
_cell_volume 974.256090
_symmetry_space_group_name_H-M "P 21/C"
_symmetry_group_IT_number 14
_symmetry_cell_setting 'monoclinic'
loop_
_space_group_symop_operation_xyz
x,y,z
-x,1/2+y,1/2-z
-x,-y,-z
x,1/2-y,1/2+z
loop_
_atom_site_type_symbol
_atom_site_label
_atom_site_fract_x
_atom_site_fract_y
_atom_site_fract_z
Si Si1 0.054080 0.233381 0.675907
Si Si2 0.619591 0.895057 0.783561
Si Si3 0.874405 0.912579 0.094846
Si Si4 0.104262 0.504186 0.833328
Si Si5 0.612526 0.604664 0.615132
O O1 0.060842 0.383523 0.747141
O O2 0.918447 0.159466 0.722128
O O3 0.000000 0.500000 0.500000
O O4 0.110241 0.268555 0.501347
O O5 0.752458 0.973256 0.693368
O O6 0.605984 0.750085 0.704587
O O7 0.620209 0.864907 0.948038
O O8 0.505421 0.002195 0.806485
O O9 0.870964 0.871036 0.256443
O O10 0.742278 0.972560 0.103037
O O11 0.000000 0.500000 0.000000
#
# Coordination Sequence:
#
# PCOD9252246 Si02
#       5
#     4   4   4   4   4
#     4  12  22  38  65  93 127 166 211 266 325 373
#     4  11  25  45  68  95 133 176 217 273 322 391
#     4  12  22  39  66  94 128 169 212 268 325 375
#     4  12  24  42  66 101 130 168 219 272 327 388
#     4  11  23  46  66  94 135 172 221 267 326 391
#
# _framework density 20.528482
#
# number of rings (size 3 to 8) (size 9 to 14) (size 15 to 20)
#    0.000    0.400    8.000    0.000    0.000    2.400 
#    7.200    0.000    0.000    0.000    0.000    0.000 
#    0.000    0.000    0.000    0.000    0.000    0.000 
#
# Total GULP energy -111617.620095 kJ/mol
# GULP energy per Si atom -5580.881005 kJ/mol
# Density = 2.048176 g / cm^3
# Si number density = 20.528482 Si / 1000 Ang^3
#
#
#
# Elastic Constant Matrix: (Units=GPa)
#
#
# Indices 1 2 3 4 5 6 
#
# 1 200.4069 80.9424 59.3701 0.0000 -10.3224 0.0000
# 2 80.9424 54.6751 12.4138 0.0000 -11.0290 0.0000
# 3 59.3701 12.4138 72.3460 0.0000 0.1972 0.0000
# 4 0.0000 0.0000 0.0000 37.6054 0.0000 5.0368
# 5 -10.3224 -11.0290 0.1972 0.0000 31.8958 0.0000
# 6 0.0000 0.0000 0.0000 5.0368 0.0000 40.5608
#
#
#
# Elastic Compliance Matrix: (Units=1/GPa)
#
#
# Indices 1 2 3 4 5 6 
#
# 1 0.017937 -0.024717 -0.010471 0.000000 -0.002677 0.000000
# 2 -0.024717 0.054590 0.010887 0.000000 0.010810 0.000000
# 3 -0.010471 0.010887 0.020547 0.000000 0.000249 0.000000
# 4 0.000000 0.000000 0.000000 0.027042 0.000000 -0.003358
# 5 -0.002677 0.010810 0.000249 0.000000 0.034222 0.000000
# 6 0.000000 0.000000 0.000000 -0.003358 0.000000 0.025071
#
#
# Mechanical properties :
#
#
# Convention : Reuss Voigt Hill
#
# Bulk Modulus (GPa) = 22.48618 70.32009 46.40313
# Shear Modulus (GPa) = 20.59008 33.65918 27.12463
#
# Velocity S-wave (km/s) = 3.17045 4.05363 3.63894
# Velocity P-wave (km/s) = 4.93759 7.49923 6.34895
#
# Compressibility (1/GPa) = 0.04447175
#
# Stress axis : x y z
#
# Youngs Moduli (GPa) = 55.75062 18.31832 48.66912
#
# Poissons Ratio (x) = 0.45277 0.50963
# Poissons Ratio (y) = 1.37799 -0.52987
# Poissons Ratio (z) = 0.58379 -0.19943
#
# Static dielectric constant tensor:
#      x y z
#    x 1.756940 0.000000 0.028870 
#    y 0.000000 1.783280 0.000000 
#    z 0.028870 0.000000 1.822480 
# 
# From -- ./inp_files/11801.got.cif
#   From: 2010.05.17/outbox.cif.g08.bks.cpg/sg14_6_cif.got.tgz:11801.got - 2010.06.03 17:49:19.
