data_PCOD9252838
_publ_section_title
;
Structure prediction by ZEFSAII (Michael W. Deem and Ramdas Pophale) SiO2 
 PCOD9252838
Probable space group: P 21/C
;
_chemical_formula_sum "Si O2"
_cell_formula_units_Z 20
_cell_length_a 22.307596
_cell_length_b 9.465774
_cell_length_c 8.171904
_cell_angle_alpha 90.000000
_cell_angle_beta 149.009837
_cell_angle_gamma 90.000000
_cell_volume 888.479427
_symmetry_space_group_name_H-M "P 21/C"
_symmetry_group_IT_number 14
_symmetry_cell_setting 'monoclinic'
loop_
_space_group_symop_operation_xyz
x,y,z
-x,1/2+y,1/2-z
-x,-y,-z
x,1/2-y,1/2+z
loop_
_atom_site_type_symbol
_atom_site_label
_atom_site_fract_x
_atom_site_fract_y
_atom_site_fract_z
Si Si1 0.632362 0.457959 0.783560
Si Si2 0.208054 0.304956 0.709194
Si Si3 0.729568 0.270735 0.305334
Si Si4 0.965206 0.108509 0.774293
Si Si5 0.203405 0.464008 0.351204
O O1 0.500000 0.500000 0.500000
O O2 0.654537 0.366071 0.674534
O O3 0.711947 0.595251 0.992039
O O4 0.679478 0.353183 0.034233
O O5 0.201470 0.373648 0.514329
O O6 0.251865 0.144576 0.828849
O O7 0.078519 0.309208 0.480314
O O8 0.861200 0.212630 0.587077
O O9 0.731007 0.391854 0.448713
O O10 0.916920 0.019199 0.507688
O O11 0.000000 0.000000 0.000000
#
# Coordination Sequence:
#
# PCOD9252838 Si02
#       5
#     4   4   4   4   4
#     4  11  26  49  72 101 143 188 247 287 354 428
#     4  11  26  41  68 107 141 190 234 292 358 424
#     4  11  25  48  72 104 140 191 236 301 360 416
#     4  12  24  41  72 105 149 183 234 297 361 435
#     4  11  26  43  67 104 148 183 236 290 365 430
#
# _framework density 22.510369000000001
#
# number of rings (size 3 to 8) (size 9 to 14) (size 15 to 20)
#    0.000    0.800    4.000    1.800   11.200    3.200 
#    0.000    2.000    0.000    0.000    0.000    0.000 
#    0.000    0.000    0.000    0.000    0.000    0.000 
#
# Total GULP energy -111841.300616 kJ/mol
# GULP energy per Si atom -5592.065031 kJ/mol
# Density = 2.245913 g / cm^3
# Si number density = 22.510369 Si / 1000 Ang^3
#
#
#
# Elastic Constant Matrix: (Units=GPa)
#
#
# Indices 1 2 3 4 5 6 
#
# 1 54.5131 45.1520 16.1661 0.0000 5.1862 0.0000
# 2 45.1520 165.6458 54.0184 0.0000 10.4550 0.0000
# 3 16.1661 54.0184 36.2304 0.0000 12.8303 0.0000
# 4 0.0000 0.0000 0.0000 30.1813 0.0000 -13.8599
# 5 5.1862 10.4550 12.8303 0.0000 40.0185 0.0000
# 6 0.0000 0.0000 0.0000 -13.8599 0.0000 46.5223
#
#
#
# Elastic Compliance Matrix: (Units=1/GPa)
#
#
# Indices 1 2 3 4 5 6 
#
# 1 0.023799 -0.005999 -0.001284 0.000000 -0.001105 0.000000
# 2 -0.005999 0.013562 -0.018687 0.000000 0.003225 0.000000
# 3 -0.001284 -0.018687 0.061195 0.000000 -0.014571 0.000000
# 4 0.000000 0.000000 0.000000 0.038385 0.000000 0.011436
# 5 -0.001105 0.003225 -0.014571 0.000000 0.028961 0.000000
# 6 0.000000 0.000000 0.000000 0.011436 0.000000 0.024902
#
#
# Mechanical properties :
#
#
# Convention : Reuss Voigt Hill
#
# Bulk Modulus (GPa) = 21.45084 54.11804 37.78444
# Shear Modulus (GPa) = 19.35877 32.74795 26.05336
#
# Velocity S-wave (km/s) = 2.93575 3.81831 3.40574
# Velocity P-wave (km/s) = 4.58710 6.59795 5.68218
#
# Compressibility (1/GPa) = 0.04661821
#
# Stress axis : x y z
#
# Youngs Moduli (GPa) = 42.01925 73.73338 16.34115
#
# Poissons Ratio (x) = 0.44230 0.02098
# Poissons Ratio (y) = 0.25206 0.30536
# Poissons Ratio (z) = 0.05394 1.37783
#
# Static dielectric constant tensor:
#      x y z
#    x 2.026790 0.000000 -0.249100 
#    y 0.000000 1.843240 0.000000 
#    z -0.249100 0.000000 2.012630 
# 
# From -- ./inp_files/11795.got.cif
#   From: 2010.05.17/outbox.cif.g08.bks.cpg/sg14_6_cif.got.tgz:11795.got - 2010.06.03 17:49:19.
