data_PCOD9252807
_publ_section_title
;
Structure prediction by ZEFSAII (Michael W. Deem and Ramdas Pophale) SiO2 
 PCOD9252807
Probable space group: P 21/C
;
_chemical_formula_sum "Si O2"
_cell_formula_units_Z 24
_cell_length_a 13.914503
_cell_length_b 9.517599
_cell_length_c 8.197708
_cell_angle_alpha 90.000000
_cell_angle_beta 105.772702
_cell_angle_gamma 90.000000
_cell_volume 1044.767173
_symmetry_space_group_name_H-M "P 21/C"
_symmetry_group_IT_number 14
_symmetry_cell_setting 'monoclinic'
loop_
_space_group_symop_operation_xyz
x,y,z
-x,1/2+y,1/2-z
-x,-y,-z
x,1/2-y,1/2+z
loop_
_atom_site_type_symbol
_atom_site_label
_atom_site_fract_x
_atom_site_fract_y
_atom_site_fract_z
Si Si1 0.679922 0.544321 0.588720
Si Si2 0.598382 0.695433 0.230527
Si Si3 0.627310 0.298255 0.771178
Si Si4 0.905549 0.896488 0.645264
Si Si5 0.097454 0.075221 0.747712
Si Si6 0.301149 0.537466 0.888622
O O1 0.644121 0.616017 0.406673
O O2 0.656762 0.663310 0.713762
O O3 0.622788 0.403909 0.614624
O O4 0.797558 0.515169 0.641083
O O5 0.483434 0.724930 0.212558
O O6 0.615785 0.584498 0.091994
O O7 0.678296 0.155432 0.737602
O O8 0.689017 0.381831 0.936094
O O9 0.912741 0.732734 0.689791
O O10 0.898325 0.915509 0.446837
O O11 0.805325 0.962457 0.674693
O O12 0.003331 0.979460 0.749396
#
# Coordination Sequence:
#
# PCOD9252807 Si02
#       6
#     4   4   4   4   4   4
#     4  12  23  43  68  99 138 179 222 283 336 406
#     4  12  24  43  69  99 137 185 228 277 341 397
#     4  12  25  43  67 100 140 181 232 277 332 405
#     4  11  26  47  73 102 135 175 226 280 342 405
#     4  11  25  47  70 104 134 176 225 280 342 403
#     4  12  25  45  67 102 137 181 229 285 337 401
#
# _framework density 22.971627000000002
#
# number of rings (size 3 to 8) (size 9 to 14) (size 15 to 20)
#    0.000    0.333    3.333    6.000    2.333    0.667 
#    0.000    0.000    0.000    0.000    0.000    0.000 
#    0.000    0.000    0.000    0.000    0.000    0.000 
#
# Total GULP energy -134608.726892 kJ/mol
# GULP energy per Si atom -5608.696954 kJ/mol
# Density = 2.291934 g / cm^3
# Si number density = 22.971627 Si / 1000 Ang^3
#
#
#
# Elastic Constant Matrix: (Units=GPa)
#
#
# Indices 1 2 3 4 5 6 
#
# 1 101.2980 12.3400 6.9950 0.0000 2.4954 0.0000
# 2 12.3400 58.6430 4.3123 0.0000 -10.4903 0.0000
# 3 6.9950 4.3123 52.9349 0.0000 0.1916 0.0000
# 4 0.0000 0.0000 0.0000 42.2532 0.0000 -3.9211
# 5 2.4954 -10.4903 0.1916 0.0000 30.7857 0.0000
# 6 0.0000 0.0000 0.0000 -3.9211 0.0000 27.9952
#
#
#
# Elastic Compliance Matrix: (Units=1/GPa)
#
#
# Indices 1 2 3 4 5 6 
#
# 1 0.010281 -0.002370 -0.001160 0.000000 -0.001634 0.000000
# 2 -0.002370 0.018826 -0.001244 0.000000 0.006615 0.000000
# 3 -0.001160 -0.001244 0.019147 0.000000 -0.000449 0.000000
# 4 0.000000 0.000000 0.000000 0.023979 0.000000 0.003358
# 5 -0.001634 0.006615 -0.000449 0.000000 0.034872 0.000000
# 6 0.000000 0.000000 0.000000 0.003358 0.000000 0.036191
#
#
# Mechanical properties :
#
#
# Convention : Reuss Voigt Hill
#
# Bulk Modulus (GPa) = 25.83599 28.90781 27.37190
# Shear Modulus (GPa) = 30.16667 32.82206 31.49437
#
# Velocity S-wave (km/s) = 3.62776 3.78406 3.70673
# Velocity P-wave (km/s) = 5.36832 5.63059 5.50102
#
# Compressibility (1/GPa) = 0.03870570
#
# Stress axis : x y z
#
# Youngs Moduli (GPa) = 97.26735 53.11825 52.22652
#
# Poissons Ratio (x) = 0.12591 0.06056
# Poissons Ratio (y) = 0.23056 0.06499
# Poissons Ratio (z) = 0.11279 0.06610
#
# Static dielectric constant tensor:
#      x y z
#    x 1.802440 0.000000 -0.032870 
#    y 0.000000 1.812950 0.000000 
#    z -0.032870 0.000000 1.926610 
# 
# From -- ./inp_files/15155.got.cif
#   From: 2010.05.17/outbox.cif.g08.bks.cpg/sg14_8_cif.got.tgz:15155.got - 2010.06.03 17:49:19.
