data_PCOD9252143
_publ_section_title
;
Structure prediction by ZEFSAII (Michael W. Deem and Ramdas Pophale) SiO2 
 PCOD9252143
Probable space group: P 21/C
;
_chemical_formula_sum "Si O2"
_cell_formula_units_Z 20
_cell_length_a 5.762300
_cell_length_b 22.852335
_cell_length_c 9.106410
_cell_angle_alpha 90.000000
_cell_angle_beta 130.440388
_cell_angle_gamma 90.000000
_cell_volume 912.650872
_symmetry_space_group_name_H-M "P 21/C"
_symmetry_group_IT_number 14
_symmetry_cell_setting 'monoclinic'
loop_
_space_group_symop_operation_xyz
x,y,z
-x,1/2+y,1/2-z
-x,-y,-z
x,1/2-y,1/2+z
loop_
_atom_site_type_symbol
_atom_site_label
_atom_site_fract_x
_atom_site_fract_y
_atom_site_fract_z
Si Si1 0.054434 0.116919 0.180026
Si Si2 0.068132 0.384699 0.354203
Si Si3 0.617036 0.298932 0.634212
Si Si4 0.374858 0.686650 0.029850
Si Si5 0.125863 0.498389 0.883513
O O1 0.910841 0.178193 0.170391
O O2 0.410161 0.131511 0.347209
O O3 0.999726 0.061444 0.259899
O O4 0.946872 0.106443 0.970125
O O5 0.034017 0.446597 0.261249
O O6 0.389418 0.353312 0.515158
O O7 0.892669 0.338973 0.179097
O O8 0.493478 0.240085 0.511054
O O9 0.696427 0.289793 0.837028
O O10 0.500000 0.500000 0.000000
O O11 0.000000 0.500000 0.000000
#
# Coordination Sequence:
#
# PCOD9252143 Si02
#       5
#     4   4   4   4   4
#     4  11  25  44  70 100 139 182 238 288 357 421
#     4  11  25  44  70 100 139 183 236 290 355 421
#     4  11  25  40  69 100 135 185 230 295 347 427
#     4  11  23  44  65 101 140 179 235 287 357 418
#     4  12  27  47  76 104 144 189 237 296 358 423
#
# _framework density 21.914186000000001
#
# number of rings (size 3 to 8) (size 9 to 14) (size 15 to 20)
#    0.000    0.800    2.000    4.200    5.600    8.800 
#    0.000    0.000    0.000    0.000    0.000    0.000 
#    0.000    0.000    0.000    0.000    0.000    0.000 
#
# Total GULP energy -111545.397669 kJ/mol
# GULP energy per Si atom -5577.269883 kJ/mol
# Density = 2.186431 g / cm^3
# Si number density = 21.914186 Si / 1000 Ang^3
#
#
#
# Elastic Constant Matrix: (Units=GPa)
#
#
# Indices 1 2 3 4 5 6 
#
# 1 62.2242 15.7246 55.1177 0.0000 -36.7448 0.0000
# 2 15.7246 118.9181 47.8505 0.0000 -27.3658 0.0000
# 3 55.1177 47.8505 154.0042 0.0000 -40.8623 0.0000
# 4 0.0000 0.0000 0.0000 34.9657 0.0000 -7.5061
# 5 -36.7448 -27.3658 -40.8623 0.0000 53.8717 0.0000
# 6 0.0000 0.0000 0.0000 -7.5061 0.0000 30.9986
#
#
#
# Elastic Compliance Matrix: (Units=1/GPa)
#
#
# Indices 1 2 3 4 5 6 
#
# 1 0.032983 0.002978 -0.007961 0.000000 0.017971 0.000000
# 2 0.002978 0.010365 -0.002942 0.000000 0.005064 0.000000
# 3 -0.007961 -0.002942 0.010541 0.000000 0.001070 0.000000
# 4 0.000000 0.000000 0.000000 0.030168 0.000000 0.007305
# 5 0.017971 0.005064 0.001070 0.000000 0.034204 0.000000
# 6 0.000000 0.000000 0.000000 0.007305 0.000000 0.034028
#
#
# Mechanical properties :
#
#
# Convention : Reuss Voigt Hill
#
# Bulk Modulus (GPa) = 26.29089 63.61469 44.95279
# Shear Modulus (GPa) = 27.65185 38.39745 33.02465
#
# Velocity S-wave (km/s) = 3.55607 4.19044 3.88622
# Velocity P-wave (km/s) = 5.37439 7.24604 6.37923
#
# Compressibility (1/GPa) = 0.03803598
#
# Stress axis : x y z
#
# Youngs Moduli (GPa) = 30.31904 96.48053 94.86809
#
# Poissons Ratio (x) = -0.28729 0.75528
# Poissons Ratio (y) = -0.09028 0.27914
# Poissons Ratio (z) = 0.24138 0.28389
#
# Static dielectric constant tensor:
#      x y z
#    x 1.928150 0.000000 0.037310 
#    y 0.000000 1.773370 0.000000 
#    z 0.037310 0.000000 1.762820 
# 
# From -- ./inp_files/5814.got.cif
#   From: 2010.05.17/outbox.cif.g08.bks.cpg/sg14_3_cif.got.tgz:5814.got - 2010.06.03 17:49:19.
