data_PCOD9252557
_publ_section_title
;
Structure prediction by ZEFSAII (Michael W. Deem and Ramdas Pophale) SiO2 
 PCOD9252557
Probable space group: P 21/C
;
_chemical_formula_sum "Si O2"
_cell_formula_units_Z 28
_cell_length_a 6.543571
_cell_length_b 16.874069
_cell_length_c 14.336695
_cell_angle_alpha 90.000000
_cell_angle_beta 54.809101
_cell_angle_gamma 90.000000
_cell_volume 1293.693554
_symmetry_space_group_name_H-M "P 21/C"
_symmetry_group_IT_number 14
_symmetry_cell_setting 'monoclinic'
loop_
_space_group_symop_operation_xyz
x,y,z
-x,1/2+y,1/2-z
-x,-y,-z
x,1/2-y,1/2+z
loop_
_atom_site_type_symbol
_atom_site_label
_atom_site_fract_x
_atom_site_fract_y
_atom_site_fract_z
Si Si1 0.564876 0.160533 0.481550
Si Si2 0.536950 0.853416 0.707827
Si Si3 0.166562 0.824464 0.085449
Si Si4 0.018525 0.538020 0.097203
Si Si5 0.604821 0.815908 0.279103
Si Si6 0.735668 0.042875 0.086827
Si Si7 0.697892 0.418678 0.273739
O O1 0.469567 0.162646 0.400897
O O2 0.751330 0.234472 0.449687
O O3 0.369583 0.173049 0.616702
O O4 0.719802 0.079988 0.453843
O O5 0.796259 0.897443 0.663112
O O6 0.523029 0.771675 0.768648
O O7 0.317099 0.913145 0.800274
O O8 0.256150 0.851340 0.163421
O O9 0.868246 0.831706 0.160251
O O10 0.283815 0.886366 0.982532
O O11 0.944759 0.469551 0.189083
O O12 0.000000 0.500000 0.000000
O O13 0.403440 0.878337 0.293762
O O14 0.517026 0.978395 0.134429
O O15 0.000000 0.000000 0.000000
#
# Coordination Sequence:
#
# PCOD9252557 Si02
#       7
#     4   4   4   4   4   4   4
#     4  12  26  44  71 101 136 183 229 278 349 414
#     4  11  26  46  68 100 138 180 230 282 343 413
#     4  12  25  45  70  99 134 182 231 279 346 404
#     4  11  25  44  67 100 142 176 221 286 342 405
#     4  12  24  45  69 102 135 175 234 279 337 415
#     4  11  24  46  69  99 139 179 230 290 337 409
#     4  11  25  44  69 101 136 176 226 285 345 397
#
# _framework density 21.643454999999999
#
# number of rings (size 3 to 8) (size 9 to 14) (size 15 to 20)
#    0.000    0.571    7.143    0.429    4.000    0.571 
#    5.143    0.000    0.000    0.000    0.000    0.000 
#    0.000    0.000    0.000    0.000    0.000    0.000 
#
# Total GULP energy -156587.044675 kJ/mol
# GULP energy per Si atom -5592.394453 kJ/mol
# Density = 2.159419 g / cm^3
# Si number density = 21.643455 Si / 1000 Ang^3
#
#
#
# Elastic Constant Matrix: (Units=GPa)
#
#
# Indices 1 2 3 4 5 6 
#
# 1 25.1565 12.4671 1.5401 0.0000 9.7270 0.0000
# 2 12.4671 92.3746 25.7521 0.0000 -14.2173 0.0000
# 3 1.5401 25.7521 72.7497 0.0000 10.7341 0.0000
# 4 0.0000 0.0000 0.0000 38.4124 0.0000 -1.2298
# 5 9.7270 -14.2173 10.7341 0.0000 28.7742 0.0000
# 6 0.0000 0.0000 0.0000 -1.2298 0.0000 36.0682
#
#
#
# Elastic Compliance Matrix: (Units=1/GPa)
#
#
# Indices 1 2 3 4 5 6 
#
# 1 0.058302 -0.014892 0.008499 0.000000 -0.030237 0.000000
# 2 -0.014892 0.017825 -0.008505 0.000000 0.017014 0.000000
# 3 0.008499 -0.008505 0.018647 0.000000 -0.014031 0.000000
# 4 0.000000 0.000000 0.000000 0.026062 0.000000 0.000889
# 5 -0.030237 0.017014 -0.014031 0.000000 0.058616 0.000000
# 6 0.000000 0.000000 0.000000 0.000889 0.000000 0.027756
#
#
# Mechanical properties :
#
#
# Convention : Reuss Voigt Hill
#
# Bulk Modulus (GPa) = 15.38979 29.97770 22.68375
# Shear Modulus (GPa) = 19.33025 30.68574 25.00800
#
# Velocity S-wave (km/s) = 2.99176 3.76943 3.40288
# Velocity P-wave (km/s) = 4.36580 5.72936 5.09342
#
# Compressibility (1/GPa) = 0.06497814
#
# Stress axis : x y z
#
# Youngs Moduli (GPa) = 17.15200 56.10137 53.62876
#
# Poissons Ratio (x) = 0.83544 -0.45577
# Poissons Ratio (y) = 0.25542 0.45610
# Poissons Ratio (z) = -0.14577 0.47713
#
# Static dielectric constant tensor:
#      x y z
#    x 1.759330 0.000000 -0.005560 
#    y 0.000000 1.765490 0.000000 
#    z -0.005560 0.000000 1.791670 
# 
# From -- ./inp_files/37814.got.cif
#   From: 2010.05.17/outbox.cif.g08.bks.cpg/sg14_19_cif.got.tgz:37814.got - 2010.06.03 17:49:19.
