data_PCOD9252446
_publ_section_title
;
Structure prediction by ZEFSAII (Michael W. Deem and Ramdas Pophale) SiO2 
 PCOD9252446
Probable space group: P 21/C
;
_chemical_formula_sum "Si O2"
_cell_formula_units_Z 32
_cell_length_a 11.742158
_cell_length_b 14.842453
_cell_length_c 9.049298
_cell_angle_alpha 90.000000
_cell_angle_beta 110.716151
_cell_angle_gamma 90.000000
_cell_volume 1475.163035
_symmetry_space_group_name_H-M "P 21/C"
_symmetry_group_IT_number 14
_symmetry_cell_setting 'monoclinic'
loop_
_space_group_symop_operation_xyz
x,y,z
-x,1/2+y,1/2-z
-x,-y,-z
x,1/2-y,1/2+z
loop_
_atom_site_type_symbol
_atom_site_label
_atom_site_fract_x
_atom_site_fract_y
_atom_site_fract_z
Si Si1 0.501962 0.715732 0.765699
Si Si2 0.816303 0.496860 0.981968
Si Si3 0.021696 0.359516 0.062855
Si Si4 0.922551 0.816098 0.085361
Si Si5 0.178111 0.063008 0.187719
Si Si6 0.360143 0.553763 0.587554
Si Si7 0.320391 0.230909 0.396033
Si Si8 0.410606 0.920181 0.775059
O O1 0.395377 0.645938 0.685740
O O2 0.596317 0.710115 0.673186
O O3 0.452984 0.818075 0.760182
O O4 0.583378 0.691341 0.944040
O O5 0.852107 0.587998 0.912453
O O6 0.682110 0.460908 0.887852
O O7 0.846914 0.516576 0.167142
O O8 0.910581 0.422603 0.967497
O O9 0.014746 0.338834 0.232309
O O10 0.022168 0.270858 0.966185
O O11 0.783558 0.788663 0.069221
O O12 0.924479 0.894135 0.963892
O O13 0.256999 0.151134 0.274670
O O14 0.248898 0.994735 0.115035
O O15 0.472050 0.484161 0.660090
O O16 0.347273 0.573749 0.407436
#
# Coordination Sequence:
#
# PCOD9252446 Si02
#       8
#     4   4   4   4   4   4   4   4
#     4  12  24  39  64  97 140 177 216 264 331 403
#     4  11  26  44  66  97 133 172 217 281 338 386
#     4  11  24  46  69  95 129 166 225 285 331 386
#     4  12  22  43  73  99 126 170 227 278 331 390
#     4  12  24  41  70 103 127 174 221 273 333 399
#     4  11  25  41  67  99 140 176 220 267 328 405
#     4  12  21  38  65 102 129 167 221 270 321 392
#     4  11  24  44  63  97 137 181 215 266 334 402
#
# _framework density 21.692516999999999
#
# number of rings (size 3 to 8) (size 9 to 14) (size 15 to 20)
#    0.000    0.500    6.250    1.500    5.250    1.500 
#    4.500    0.000    0.000    0.000    0.000    0.000 
#    0.000    0.000    0.000    0.000    0.000    0.000 
#
# Total GULP energy -179037.728943 kJ/mol
# GULP energy per Si atom -5594.929029 kJ/mol
# Density = 2.164314 g / cm^3
# Si number density = 21.692517 Si / 1000 Ang^3
#
#
#
# Elastic Constant Matrix: (Units=GPa)
#
#
# Indices 1 2 3 4 5 6 
#
# 1 20.3396 8.3857 -7.6795 0.0000 -3.6924 0.0000
# 2 8.3857 96.8478 15.2419 0.0000 -2.6435 0.0000
# 3 -7.6795 15.2419 87.6904 0.0000 -21.3314 0.0000
# 4 0.0000 0.0000 0.0000 26.4549 0.0000 -3.8022
# 5 -3.6924 -2.6435 -21.3314 0.0000 13.5633 0.0000
# 6 0.0000 0.0000 0.0000 -3.8022 0.0000 39.3305
#
#
#
# Elastic Compliance Matrix: (Units=1/GPa)
#
#
# Indices 1 2 3 4 5 6 
#
# 1 0.067481 -0.007480 0.018341 0.000000 0.045759 0.000000
# 2 -0.007480 0.011460 -0.004210 0.000000 -0.006424 0.000000
# 3 0.018341 -0.004210 0.023901 0.000000 0.041762 0.000000
# 4 0.000000 0.000000 0.000000 0.038333 0.000000 0.003706
# 5 0.045759 -0.006424 0.041762 0.000000 0.150615 0.000000
# 6 0.000000 0.000000 0.000000 0.003706 0.000000 0.025784
#
#
# Mechanical properties :
#
#
# Convention : Reuss Voigt Hill
#
# Bulk Modulus (GPa) = 8.60999 26.30823 17.45911
# Shear Modulus (GPa) = 14.57785 28.46507 21.52146
#
# Velocity S-wave (km/s) = 2.59515 3.62637 3.15320
# Velocity P-wave (km/s) = 3.59965 5.44869 4.61766
#
# Compressibility (1/GPa) = 0.11614412
#
# Stress axis : x y z
#
# Youngs Moduli (GPa) = 14.81897 87.25727 41.83980
#
# Poissons Ratio (x) = 0.65272 -0.76739
# Poissons Ratio (y) = 0.11085 0.17613
# Poissons Ratio (z) = -0.27180 0.36732
#
# Static dielectric constant tensor:
#      x y z
#    x 1.790690 0.000000 -0.001280 
#    y 0.000000 1.773240 0.000000 
#    z -0.001280 0.000000 1.807410 
# 
# From -- ./inp_files/13362.got.cif
#   From: 2010.05.17/outbox.cif.g08.bks.cpg/sg14_7_cif.got.tgz:13362.got - 2010.06.03 17:49:19.
