data_PCOD9252294
_publ_section_title
;
Structure prediction by ZEFSAII (Michael W. Deem and Ramdas Pophale) SiO2 
 PCOD9252294
Probable space group: P 21/C
;
_chemical_formula_sum "Si O2"
_cell_formula_units_Z 24
_cell_length_a 11.564645
_cell_length_b 7.988057
_cell_length_c 11.556961
_cell_angle_alpha 90.000000
_cell_angle_beta 65.348963
_cell_angle_gamma 90.000000
_cell_volume 970.323299
_symmetry_space_group_name_H-M "P 21/C"
_symmetry_group_IT_number 14
_symmetry_cell_setting 'monoclinic'
loop_
_space_group_symop_operation_xyz
x,y,z
-x,1/2+y,1/2-z
-x,-y,-z
x,1/2-y,1/2+z
loop_
_atom_site_type_symbol
_atom_site_label
_atom_site_fract_x
_atom_site_fract_y
_atom_site_fract_z
Si Si1 0.529012 0.072149 0.861624
Si Si2 0.893244 0.550991 0.245440
Si Si3 0.632415 0.406227 0.922114
Si Si4 0.129363 0.063989 0.794312
Si Si5 0.757900 0.617106 0.529573
Si Si6 0.257746 0.498027 0.896966
O O1 0.599411 0.246526 0.858938
O O2 0.387347 0.091838 0.871558
O O3 0.619628 0.971299 0.737362
O O4 0.500000 0.000000 0.000000
O O5 0.896600 0.739918 0.201059
O O6 0.786236 0.548495 0.390162
O O7 0.852346 0.448194 0.148044
O O8 0.023191 0.515863 0.257446
O O9 0.733874 0.520155 0.815075
O O10 0.500000 0.500000 0.000000
O O11 0.698194 0.375912 0.020615
O O12 0.146138 0.026072 0.922686
O O13 0.776634 0.819496 0.529317
#
# Coordination Sequence:
#
# PCOD9252294 Si02
#       6
#     4   4   4   4   4   4
#     4  12  26  42  72 108 141 181 248 295 360 437
#     4  11  24  48  67 106 143 195 244 296 359 432
#     4  12  25  47  72 103 144 192 237 301 376 421
#     4  11  26  44  74 102 146 195 246 296 361 434
#     4  11  23  47  72 100 150 187 236 307 359 423
#     4  11  25  44  70 104 144 189 236 298 361 431
#
# _framework density 24.734024999999999
#
# number of rings (size 3 to 8) (size 9 to 14) (size 15 to 20)
#    0.000    0.667    5.000    1.500    7.000    0.667 
#    0.000    0.000    0.000    0.000    0.000    0.000 
#    0.000    0.000    0.000    0.000    0.000    0.000 
#
# Total GULP energy -134270.210739 kJ/mol
# GULP energy per Si atom -5594.592114 kJ/mol
# Density = 2.467773 g / cm^3
# Si number density = 24.734025 Si / 1000 Ang^3
#
#
#
# Elastic Constant Matrix: (Units=GPa)
#
#
# Indices 1 2 3 4 5 6 
#
# 1 167.6914 29.5426 27.3972 0.0000 37.2776 0.0000
# 2 29.5426 39.6699 -1.2297 0.0000 3.4147 0.0000
# 3 27.3972 -1.2297 70.2799 0.0000 33.6074 0.0000
# 4 0.0000 0.0000 0.0000 22.8165 0.0000 3.3127
# 5 37.2776 3.4147 33.6074 0.0000 49.1671 0.0000
# 6 0.0000 0.0000 0.0000 3.3127 0.0000 42.5987
#
#
#
# Elastic Compliance Matrix: (Units=1/GPa)
#
#
# Indices 1 2 3 4 5 6 
#
# 1 0.008292 -0.005737 -0.000768 0.000000 -0.005363 0.000000
# 2 -0.005737 0.029503 0.002455 0.000000 0.000623 0.000000
# 3 -0.000768 0.002455 0.021354 0.000000 -0.014184 0.000000
# 4 0.000000 0.000000 0.000000 0.044328 0.000000 -0.003447
# 5 -0.005363 0.000623 -0.014184 0.000000 0.034057 0.000000
# 6 0.000000 0.000000 0.000000 -0.003447 0.000000 0.023743
#
#
# Mechanical properties :
#
#
# Convention : Reuss Voigt Hill
#
# Bulk Modulus (GPa) = 19.58933 43.22906 31.40919
# Shear Modulus (GPa) = 26.82484 37.71186 32.26835
#
# Velocity S-wave (km/s) = 3.29680 3.90897 3.61586
# Velocity P-wave (km/s) = 4.73593 6.15540 5.49172
#
# Compressibility (1/GPa) = 0.05104821
#
# Stress axis : x y z
#
# Youngs Moduli (GPa) = 120.60129 33.89484 46.82942
#
# Poissons Ratio (x) = 0.19446 0.03597
# Poissons Ratio (y) = 0.69191 -0.11496
# Poissons Ratio (z) = 0.09264 -0.08321
#
# Static dielectric constant tensor:
#      x y z
#    x 1.782120 0.000000 -0.074800 
#    y 0.000000 1.968530 0.000000 
#    z -0.074800 0.000000 1.906130 
# 
# From -- ./inp_files/28016.got.cif
#   From: 2010.05.17/outbox.cif.g08.bks.cpg/sg14_15_cif.got.tgz:28016.got - 2010.06.03 17:49:19.
