data_PCOD9252273
_publ_section_title
;
Structure prediction by ZEFSAII (Michael W. Deem and Ramdas Pophale) SiO2 
 PCOD9252273
Probable space group: P 21/C
;
_chemical_formula_sum "Si O2"
_cell_formula_units_Z 24
_cell_length_a 21.380655
_cell_length_b 9.810530
_cell_length_c 15.252338
_cell_angle_alpha 90.000000
_cell_angle_beta 162.342314
_cell_angle_gamma 90.000000
_cell_volume 970.430486
_symmetry_space_group_name_H-M "P 21/C"
_symmetry_group_IT_number 14
_symmetry_cell_setting 'monoclinic'
loop_
_space_group_symop_operation_xyz
x,y,z
-x,1/2+y,1/2-z
-x,-y,-z
x,1/2-y,1/2+z
loop_
_atom_site_type_symbol
_atom_site_label
_atom_site_fract_x
_atom_site_fract_y
_atom_site_fract_z
Si Si1 0.882866 0.796372 0.957816
Si Si2 0.755997 0.879558 0.598707
Si Si3 0.545690 0.160627 0.551231
Si Si4 0.491070 0.637870 0.202182
Si Si5 0.927033 0.014058 0.304373
Si Si6 0.046209 0.787118 0.353412
O O1 0.871715 0.864637 0.847483
O O2 0.647525 0.758442 0.667107
O O3 0.037562 0.670561 0.166311
O O4 0.951069 0.860667 0.140871
O O5 0.559069 0.776888 0.340419
O O6 0.888839 0.813926 0.696699
O O7 0.679654 0.034850 0.487184
O O8 0.569350 0.177983 0.478033
O O9 0.500000 0.000000 0.500000
O O10 0.745708 0.202649 0.871709
O O11 0.702296 0.547813 0.485548
O O12 0.086038 0.917610 0.466553
O O13 0.000000 0.000000 0.500000
#
# Coordination Sequence:
#
# PCOD9252273 Si02
#       6
#     4   4   4   4   4   4
#     4  12  24  46  73 106 141 192 243 292 378 427
#     4  11  25  47  72 108 144 198 242 301 371 436
#     4  12  25  48  71 102 147 186 240 303 358 430
#     4  11  24  46  73 105 149 186 241 304 361 433
#     4  11  23  46  72 104 148 187 239 303 361 433
#     4  11  27  47  72 106 146 189 242 304 359 445
#
# _framework density 24.731290999999999
#
# number of rings (size 3 to 8) (size 9 to 14) (size 15 to 20)
#    0.000    0.667    8.333    1.000    2.333    1.333 
#    6.000    0.000    0.000    0.000    0.000    0.000 
#    0.000    0.000    0.000    0.000    0.000    0.000 
#
# Total GULP energy -134120.976089 kJ/mol
# GULP energy per Si atom -5588.374004 kJ/mol
# Density = 2.467500 g / cm^3
# Si number density = 24.731291 Si / 1000 Ang^3
#
#
#
# Elastic Constant Matrix: (Units=GPa)
#
#
# Indices 1 2 3 4 5 6 
#
# 1 62.4932 15.7638 31.6842 0.0000 -21.0967 0.0000
# 2 15.7638 63.7048 23.7734 0.0000 -13.6242 0.0000
# 3 31.6842 23.7734 127.0633 0.0000 -12.7333 0.0000
# 4 0.0000 0.0000 0.0000 46.7819 0.0000 9.5188
# 5 -21.0967 -13.6242 -12.7333 0.0000 40.6492 0.0000
# 6 0.0000 0.0000 0.0000 9.5188 0.0000 27.2308
#
#
#
# Elastic Compliance Matrix: (Units=1/GPa)
#
#
# Indices 1 2 3 4 5 6 
#
# 1 0.021721 -0.001829 -0.004136 0.000000 0.009365 0.000000
# 2 -0.001829 0.017996 -0.002480 0.000000 0.004306 0.000000
# 3 -0.004136 -0.002480 0.009361 0.000000 -0.000045 0.000000
# 4 0.000000 0.000000 0.000000 0.023013 0.000000 -0.008044
# 5 0.009365 0.004306 -0.000045 0.000000 0.030890 0.000000
# 6 0.000000 0.000000 0.000000 -0.008044 0.000000 0.039535
#
#
# Mechanical properties :
#
#
# Convention : Reuss Voigt Hill
#
# Bulk Modulus (GPa) = 31.06555 43.96712 37.51634
# Shear Modulus (GPa) = 29.38862 35.06838 32.22850
#
# Velocity S-wave (km/s) = 3.45094 3.76969 3.61383
# Velocity P-wave (km/s) = 5.33546 6.06333 5.71100
#
# Compressibility (1/GPa) = 0.03219000
#
# Stress axis : x y z
#
# Youngs Moduli (GPa) = 46.03785 55.56752 106.82898
#
# Poissons Ratio (x) = 0.10162 0.44182
# Poissons Ratio (y) = 0.08419 0.26489
# Poissons Ratio (z) = 0.19040 0.13778
#
# Static dielectric constant tensor:
#      x y z
#    x 3.399160 0.000000 0.371990 
#    y 0.000000 1.848690 0.000000 
#    z 0.371990 0.000000 2.013600 
# 
# From -- ./inp_files/50461.got.cif
#   From: 2010.05.17/outbox.cif.g08.bks.cpg/sg14_26_cif.got.tgz:50461.got - 2010.06.03 17:49:19.
