data_PCOD9252058
_publ_section_title
;
Structure prediction by ZEFSAII (Michael W. Deem and Ramdas Pophale) SiO2 
 PCOD9252058
Probable space group: P 21/C
;
_chemical_formula_sum "Si O2"
_cell_formula_units_Z 20
_cell_length_a 12.275490
_cell_length_b 7.198581
_cell_length_c 12.572755
_cell_angle_alpha 90.000000
_cell_angle_beta 43.636542
_cell_angle_gamma 90.000000
_cell_volume 766.684039
_symmetry_space_group_name_H-M "P 21/C"
_symmetry_group_IT_number 14
_symmetry_cell_setting 'monoclinic'
loop_
_space_group_symop_operation_xyz
x,y,z
-x,1/2+y,1/2-z
-x,-y,-z
x,1/2-y,1/2+z
loop_
_atom_site_type_symbol
_atom_site_label
_atom_site_fract_x
_atom_site_fract_y
_atom_site_fract_z
Si Si1 0.763400 0.346439 0.876066
Si Si2 0.363072 0.996263 0.937847
Si Si3 0.172621 0.998426 0.435155
Si Si4 0.418279 0.815113 0.681763
Si Si5 0.925739 0.872167 0.962095
O O1 0.809666 0.449502 0.952034
O O2 0.664125 0.440771 0.850465
O O3 0.930210 0.289337 0.706829
O O4 0.638039 0.182136 0.987153
O O5 0.443476 0.940291 0.769145
O O6 0.428643 0.185511 0.939609
O O7 0.177789 0.005423 0.042748
O O8 0.198702 0.219033 0.408774
O O9 0.286532 0.846400 0.301672
O O10 0.000000 0.000000 0.500000
O O11 0.000000 0.000000 0.000000
#
# Coordination Sequence:
#
# PCOD9252058 Si02
#       5
#     4   4   4   4   4
#     4  11  23  44  68 103 140 183 243 293 362 436
#     4  11  24  43  70 100 146 190 238 303 361 434
#     4  11  23  42  68  99 141 187 237 302 358 430
#     4  11  23  46  67 103 146 189 245 301 366 433
#     4  12  22  43  70 101 143 189 243 298 359 435
#
# _framework density 26.086365000000001
#
# number of rings (size 3 to 8) (size 9 to 14) (size 15 to 20)
#    0.000    0.800    4.000    4.200    0.000    0.000 
#    0.000    9.000    0.000    0.000    0.000    0.000 
#    0.000    0.000    0.000    0.000    0.000    0.000 
#
# Total GULP energy -111668.839373 kJ/mol
# GULP energy per Si atom -5583.441969 kJ/mol
# Density = 2.602699 g / cm^3
# Si number density = 26.086365 Si / 1000 Ang^3
#
#
#
# Elastic Constant Matrix: (Units=GPa)
#
#
# Indices 1 2 3 4 5 6 
#
# 1 177.7998 38.7842 48.5821 0.0000 14.5507 0.0000
# 2 38.7842 90.3344 19.5877 0.0000 10.6046 0.0000
# 3 48.5821 19.5877 61.9218 0.0000 2.7532 0.0000
# 4 0.0000 0.0000 0.0000 31.6355 0.0000 -13.7469
# 5 14.5507 10.6046 2.7532 0.0000 39.0742 0.0000
# 6 0.0000 0.0000 0.0000 -13.7469 0.0000 61.3768
#
#
#
# Elastic Compliance Matrix: (Units=1/GPa)
#
#
# Indices 1 2 3 4 5 6 
#
# 1 0.007652 -0.001903 -0.005314 0.000000 -0.001959 0.000000
# 2 -0.001903 0.012712 -0.002414 0.000000 -0.002571 0.000000
# 3 -0.005314 -0.002414 0.021031 0.000000 0.001152 0.000000
# 4 0.000000 0.000000 0.000000 0.035018 0.000000 0.007843
# 5 -0.001959 -0.002571 0.001152 0.000000 0.026938 0.000000
# 6 0.000000 0.000000 0.000000 0.007843 0.000000 0.018049
#
#
# Mechanical properties :
#
#
# Convention : Reuss Voigt Hill
#
# Bulk Modulus (GPa) = 45.18170 60.44045 52.81108
# Shear Modulus (GPa) = 33.77435 41.29077 37.53256
#
# Velocity S-wave (km/s) = 3.60212 3.98282 3.79724
# Velocity P-wave (km/s) = 5.88710 6.66109 6.28602
#
# Compressibility (1/GPa) = 0.02213285
#
# Stress axis : x y z
#
# Youngs Moduli (GPa) = 130.68854 78.66409 47.54836
#
# Poissons Ratio (x) = 0.14970 0.25269
# Poissons Ratio (y) = 0.24870 0.11478
# Poissons Ratio (z) = 0.69452 0.18989
#
# Static dielectric constant tensor:
#      x y z
#    x 2.165160 0.000000 0.068620 
#    y 0.000000 2.432270 0.000000 
#    z 0.068620 0.000000 2.209270 
# 
# From -- ./inp_files/27875.got.cif
#   From: 2010.05.17/outbox.cif.g08.bks.cpg/sg14_14_cif.got.tgz:27875.got - 2010.06.03 17:49:19.
