data_PCOD9252464
_publ_section_title
;
Structure prediction by ZEFSAII (Michael W. Deem and Ramdas Pophale) SiO2 
 PCOD9252464
Probable space group: P 21/C
;
_chemical_formula_sum "Si O2"
_cell_formula_units_Z 28
_cell_length_a 5.108013
_cell_length_b 20.025768
_cell_length_c 12.546662
_cell_angle_alpha 90.000000
_cell_angle_beta 120.057528
_cell_angle_gamma 90.000000
_cell_volume 1110.830911
_symmetry_space_group_name_H-M "P 21/C"
_symmetry_group_IT_number 14
_symmetry_cell_setting 'monoclinic'
loop_
_space_group_symop_operation_xyz
x,y,z
-x,1/2+y,1/2-z
-x,-y,-z
x,1/2-y,1/2+z
loop_
_atom_site_type_symbol
_atom_site_label
_atom_site_fract_x
_atom_site_fract_y
_atom_site_fract_z
Si Si1 0.189043 0.540898 0.209841
Si Si2 0.379500 0.972038 0.362459
Si Si3 0.419883 0.859051 0.209116
Si Si4 0.270324 0.278057 0.749214
Si Si5 0.394592 0.576938 0.480894
Si Si6 0.049802 0.823419 0.614519
Si Si7 0.182181 0.302231 0.495169
O O1 0.483792 0.521105 0.201919
O O2 0.220627 0.573719 0.332469
O O3 0.980397 0.477298 0.191408
O O4 0.018217 0.597087 0.104818
O O5 0.500000 0.000000 0.500000
O O6 0.445130 0.900237 0.323358
O O7 0.677841 0.802300 0.246405
O O8 0.341756 0.911680 0.096742
O O9 0.117316 0.815918 0.133234
O O10 0.014512 0.298975 0.778851
O O11 0.171498 0.312092 0.618817
O O12 0.602445 0.307967 0.847454
O O13 0.500000 0.500000 0.500000
O O14 0.586985 0.644307 0.501414
O O15 0.795137 0.777995 0.506289
#
# Coordination Sequence:
#
# PCOD9252464 Si02
#       7
#     4   4   4   4   4   4   4
#     4  12  26  47  77 110 145 200 252 306 380 452
#     4  12  29  51  73 109 156 200 256 309 384 461
#     4  11  26  46  73 112 151 198 252 313 388 446
#     4  11  24  44  70 103 150 191 240 307 375 446
#     4  12  23  43  77 107 152 186 246 316 373 446
#     4  11  24  44  69 105 143 188 247 298 373 440
#     4  11  25  44  70 108 146 194 248 310 370 445
#
# _framework density 25.206356
#
# number of rings (size 3 to 8) (size 9 to 14) (size 15 to 20)
#    0.000    0.571    4.286    3.000    4.000    1.143 
#    5.143    0.000    0.000    0.000    0.000    0.000 
#    0.000    0.000    0.000    0.000    0.000    0.000 
#
# Total GULP energy -155896.320546 kJ/mol
# GULP energy per Si atom -5567.725734 kJ/mol
# Density = 2.514899 g / cm^3
# Si number density = 25.206356 Si / 1000 Ang^3
#
#
#
# Elastic Constant Matrix: (Units=GPa)
#
#
# Indices 1 2 3 4 5 6 
#
# 1 52.9916 20.0568 13.0135 0.0000 -13.4340 0.0000
# 2 20.0568 111.3679 -3.7808 0.0000 -4.8873 0.0000
# 3 13.0135 -3.7808 102.6399 0.0000 -16.6765 0.0000
# 4 0.0000 0.0000 0.0000 46.6777 0.0000 5.1193
# 5 -13.4340 -4.8873 -16.6765 0.0000 31.4684 0.0000
# 6 0.0000 0.0000 0.0000 5.1193 0.0000 28.7217
#
#
#
# Elastic Compliance Matrix: (Units=1/GPa)
#
#
# Indices 1 2 3 4 5 6 
#
# 1 0.022819 -0.003805 -0.001692 0.000000 0.008254 0.000000
# 2 -0.003805 0.009711 0.000899 0.000000 0.000360 0.000000
# 3 -0.001692 0.000899 0.010828 0.000000 0.005155 0.000000
# 4 0.000000 0.000000 0.000000 0.021851 0.000000 -0.003895
# 5 0.008254 0.000360 0.005155 0.000000 0.038090 0.000000
# 6 0.000000 0.000000 0.000000 -0.003895 0.000000 0.035511
#
#
# Mechanical properties :
#
#
# Convention : Reuss Voigt Hill
#
# Bulk Modulus (GPa) = 29.27322 36.17537 32.72429
# Shear Modulus (GPa) = 31.36899 37.22090 34.29495
#
# Velocity S-wave (km/s) = 3.53156 3.84689 3.69259
# Velocity P-wave (km/s) = 5.31675 5.84074 5.58489
#
# Compressibility (1/GPa) = 0.03416092
#
# Stress axis : x y z
#
# Youngs Moduli (GPa) = 43.82306 102.97826 92.35232
#
# Poissons Ratio (x) = 0.39182 0.15629
# Poissons Ratio (y) = 0.16674 -0.08299
# Poissons Ratio (z) = 0.07416 -0.09254
#
# Static dielectric constant tensor:
#      x y z
#    x 1.679450 0.000000 -0.719400 
#    y 0.000000 1.750640 0.000000 
#    z -0.719400 0.000000 0.728490 
# 
# From -- ./inp_files/21595.got.cif
#   From: 2010.05.17/outbox.cif.g08.bks.cpg/sg14_11_cif.got.tgz:21595.got - 2010.06.03 17:49:19.
