data_PCOD9252995
_publ_section_title
;
Structure prediction by ZEFSAII (Michael W. Deem and Ramdas Pophale) SiO2 
 PCOD9252995
Probable space group: P 21/C
;
_chemical_formula_sum "Si O2"
_cell_formula_units_Z 16
_cell_length_a 9.189026
_cell_length_b 9.900259
_cell_length_c 7.080122
_cell_angle_alpha 90.000000
_cell_angle_beta 65.018992
_cell_angle_gamma 90.000000
_cell_volume 583.847720
_symmetry_space_group_name_H-M "P 21/C"
_symmetry_group_IT_number 14
_symmetry_cell_setting 'monoclinic'
loop_
_space_group_symop_operation_xyz
x,y,z
-x,1/2+y,1/2-z
-x,-y,-z
x,1/2-y,1/2+z
loop_
_atom_site_type_symbol
_atom_site_label
_atom_site_fract_x
_atom_site_fract_y
_atom_site_fract_z
Si Si1 0.724377 0.526910 0.698612
Si Si2 0.114018 0.175741 0.382448
Si Si3 0.644130 0.457403 0.178733
Si Si4 0.870513 0.168503 0.814005
O O1 0.808671 0.674511 0.638874
O O2 0.546137 0.539288 0.707520
O O3 0.825644 0.421084 0.518661
O O4 0.687966 0.477207 0.933298
O O5 0.264198 0.079995 0.266023
O O6 0.019396 0.112077 0.611329
O O7 0.963946 0.196925 0.325388
O O8 0.718531 0.331288 0.255347
#
# Coordination Sequence:
#
# PCOD9252995 Si02
#       4
#     4   4   4   4
#     4  11  27  52  78 112 159 202 262 322 385 463
#     4  12  26  46  78 114 154 200 260 320 388 450
#     4  11  27  52  78 112 159 202 262 322 385 463
#     4  12  27  46  74 112 156 204 251 328 371 476
#
# _framework density 27.404405000000001
#
# number of rings (size 3 to 8) (size 9 to 14) (size 15 to 20)
#    0.000    0.500    2.500    3.750    3.500    2.000 
#    9.000    0.000    0.000    0.000    0.000    0.000 
#    0.000    0.000    0.000    0.000    0.000    0.000 
#
# Total GULP energy -89474.370439 kJ/mol
# GULP energy per Si atom -5592.148152 kJ/mol
# Density = 2.734203 g / cm^3
# Si number density = 27.404405 Si / 1000 Ang^3
#
#
#
# Elastic Constant Matrix: (Units=GPa)
#
#
# Indices 1 2 3 4 5 6 
#
# 1 273.5758 74.8911 66.3406 0.0000 -18.6240 0.0000
# 2 74.8911 146.0705 63.8756 0.0000 0.1669 0.0000
# 3 66.3406 63.8756 198.2595 0.0000 -9.8801 0.0000
# 4 0.0000 0.0000 0.0000 36.9483 0.0000 4.0940
# 5 -18.6240 0.1669 -9.8801 0.0000 51.4208 0.0000
# 6 0.0000 0.0000 0.0000 4.0940 0.0000 51.8660
#
#
#
# Elastic Compliance Matrix: (Units=1/GPa)
#
#
# Indices 1 2 3 4 5 6 
#
# 1 0.004484 -0.001952 -0.000798 0.000000 0.001477 0.000000
# 2 -0.001952 0.008832 -0.002251 0.000000 -0.001168 0.000000
# 3 -0.000798 -0.002251 0.006080 0.000000 0.000887 0.000000
# 4 0.000000 0.000000 0.000000 0.027304 0.000000 -0.002155
# 5 0.001477 -0.001168 0.000887 0.000000 0.020156 0.000000
# 6 0.000000 0.000000 0.000000 -0.002155 0.000000 0.019451
#
#
# Mechanical properties :
#
#
# Convention : Reuss Voigt Hill
#
# Bulk Modulus (GPa) = 106.43342 114.23562 110.33452
# Shear Modulus (GPa) = 50.28221 55.56692 52.92456
#
# Velocity S-wave (km/s) = 4.28813 4.50784 4.39936
# Velocity P-wave (km/s) = 7.96491 8.29879 8.13356
#
# Compressibility (1/GPa) = 0.00939555
#
# Stress axis : x y z
#
# Youngs Moduli (GPa) = 223.03752 113.22303 164.46756
#
# Poissons Ratio (x) = 0.22095 0.13123
# Poissons Ratio (y) = 0.43526 0.37018
# Poissons Ratio (z) = 0.17797 0.25484
#
# Static dielectric constant tensor:
#      x y z
#    x 2.129540 0.000000 0.197130 
#    y 0.000000 2.286050 0.000000 
#    z 0.197130 0.000000 2.253230 
# 
# From -- ./inp_files/7803.got.cif
#   From: 2010.05.17/outbox.cif.g08.bks.cpg/sg14_4_cif.got.tgz:7803.got - 2010.06.03 17:49:19.
