data_PCOD9252318
_publ_section_title
;
Structure prediction by ZEFSAII (Michael W. Deem and Ramdas Pophale) SiO2 
 PCOD9252318
Probable space group: P 21/C
;
_chemical_formula_sum "Si O2"
_cell_formula_units_Z 24
_cell_length_a 13.901074
_cell_length_b 7.953607
_cell_length_c 9.588564
_cell_angle_alpha 90.000000
_cell_angle_beta 102.209699
_cell_angle_gamma 90.000000
_cell_volume 1036.166507
_symmetry_space_group_name_H-M "P 21/C"
_symmetry_group_IT_number 14
_symmetry_cell_setting 'monoclinic'
loop_
_space_group_symop_operation_xyz
x,y,z
-x,1/2+y,1/2-z
-x,-y,-z
x,1/2-y,1/2+z
loop_
_atom_site_type_symbol
_atom_site_label
_atom_site_fract_x
_atom_site_fract_y
_atom_site_fract_z
Si Si1 0.447018 0.477375 0.129973
Si Si2 0.831316 0.209992 0.776566
Si Si3 0.243208 0.466896 0.402542
Si Si4 0.370457 0.650750 0.648471
Si Si5 0.253604 0.198169 0.616413
Si Si6 0.099200 0.925646 0.469324
O O1 0.532019 0.437056 0.266082
O O2 0.391123 0.651037 0.143863
O O3 0.366131 0.330026 0.103794
O O4 0.500000 0.500000 0.000000
O O5 0.819695 0.387747 0.690741
O O6 0.722139 0.138352 0.773118
O O7 0.878371 0.254946 0.938925
O O8 0.897257 0.099588 0.694740
O O9 0.337144 0.568985 0.491849
O O10 0.210579 0.364210 0.530139
O O11 0.256241 0.328321 0.284067
O O12 0.188652 0.048179 0.534600
O O13 0.000000 0.000000 0.500000
#
# Coordination Sequence:
#
# PCOD9252318 Si02
#       6
#     4   4   4   4   4   4
#     4  12  26  39  68 103 143 188 241 291 360 432
#     4  11  23  49  73 104 146 190 233 312 364 431
#     4  11  24  44  69  97 143 191 232 297 362 422
#     4  12  24  45  70 103 146 195 241 292 369 429
#     4  11  26  44  66 105 144 185 245 301 357 430
#     4  11  25  47  76 105 141 191 247 295 373 436
#
# _framework density 23.162300999999999
#
# number of rings (size 3 to 8) (size 9 to 14) (size 15 to 20)
#    0.000    0.667    5.000    3.000    7.000    3.333 
#    0.000    1.667    0.000    0.000    0.000    0.000 
#    0.000    0.000    0.000    0.000    0.000    0.000 
#
# Total GULP energy -134160.363254 kJ/mol
# GULP energy per Si atom -5590.015136 kJ/mol
# Density = 2.310958 g / cm^3
# Si number density = 23.162301 Si / 1000 Ang^3
#
#
#
# Elastic Constant Matrix: (Units=GPa)
#
#
# Indices 1 2 3 4 5 6 
#
# 1 78.4583 -11.3135 -2.1099 0.0000 -27.2524 0.0000
# 2 -11.3135 52.5223 11.6351 0.0000 -13.4754 0.0000
# 3 -2.1099 11.6351 82.6371 0.0000 -18.0412 0.0000
# 4 0.0000 0.0000 0.0000 47.6002 0.0000 -8.0475
# 5 -27.2524 -13.4754 -18.0412 0.0000 28.7671 0.0000
# 6 0.0000 0.0000 0.0000 -8.0475 0.0000 24.0936
#
#
#
# Elastic Compliance Matrix: (Units=1/GPa)
#
#
# Indices 1 2 3 4 5 6 
#
# 1 0.027960 0.014094 0.006898 0.000000 0.037416 0.000000
# 2 0.014094 0.028812 0.002508 0.000000 0.028421 0.000000
# 3 0.006898 0.002508 0.015766 0.000000 0.017597 0.000000
# 4 0.000000 0.000000 0.000000 0.022266 0.000000 0.007437
# 5 0.037416 0.028421 0.017597 0.000000 0.094557 0.000000
# 6 0.000000 0.000000 0.000000 0.007437 0.000000 0.043989
#
#
# Mechanical properties :
#
#
# Convention : Reuss Voigt Hill
#
# Bulk Modulus (GPa) = 8.36556 23.33790 15.85173
# Shear Modulus (GPa) = 22.10491 34.45258 28.27874
#
# Velocity S-wave (km/s) = 3.09260 3.86092 3.49792
# Velocity P-wave (km/s) = 4.04621 5.47479 4.81379
#
# Compressibility (1/GPa) = 0.11953770
#
# Stress axis : x y z
#
# Youngs Moduli (GPa) = 35.76570 34.70808 63.42815
#
# Poissons Ratio (x) = -0.48918 -0.43753
# Poissons Ratio (y) = -0.50409 -0.15908
# Poissons Ratio (z) = -0.24671 -0.08705
#
# Static dielectric constant tensor:
#      x y z
#    x 1.827270 0.000000 -0.029260 
#    y 0.000000 1.961910 0.000000 
#    z -0.029260 0.000000 1.875850 
# 
# From -- ./inp_files/15143.got.cif
#   From: 2010.05.17/outbox.cif.g08.bks.cpg/sg14_8_cif.got.tgz:15143.got - 2010.06.03 17:49:19.
