data_PCOD9252153
_publ_section_title
;
Structure prediction by ZEFSAII (Michael W. Deem and Ramdas Pophale) SiO2 
 PCOD9252153
Probable space group: P 21/C
;
_chemical_formula_sum "Si O2"
_cell_formula_units_Z 24
_cell_length_a 13.892779
_cell_length_b 10.543351
_cell_length_c 14.094408
_cell_angle_alpha 90.000000
_cell_angle_beta 29.934468
_cell_angle_gamma 90.000000
_cell_volume 1030.203798
_symmetry_space_group_name_H-M "P 21/C"
_symmetry_group_IT_number 14
_symmetry_cell_setting 'monoclinic'
loop_
_space_group_symop_operation_xyz
x,y,z
-x,1/2+y,1/2-z
-x,-y,-z
x,1/2-y,1/2+z
loop_
_atom_site_type_symbol
_atom_site_label
_atom_site_fract_x
_atom_site_fract_y
_atom_site_fract_z
Si Si1 0.830398 0.362541 0.524908
Si Si2 0.848359 0.487627 0.846423
Si Si3 0.129293 0.757040 0.307331
Si Si4 0.459753 0.662416 0.403174
Si Si5 0.853221 0.536588 0.042433
Si Si6 0.555994 0.548008 0.847771
O O1 0.849832 0.270139 0.598472
O O2 0.671929 0.330297 0.579832
O O3 0.752246 0.490959 0.641795
O O4 0.028712 0.399060 0.303538
O O5 0.856442 0.370663 0.767053
O O6 0.908033 0.455079 0.902496
O O7 0.622972 0.514982 0.054842
O O8 0.929178 0.822432 0.452647
O O9 0.302867 0.846592 0.121785
O O10 0.627917 0.556830 0.258861
O O11 0.551084 0.801667 0.341951
O O12 0.000000 0.500000 0.000000
O O13 0.500000 0.500000 0.000000
#
# Coordination Sequence:
#
# PCOD9252153 Si02
#       6
#     4   4   4   4   4   4
#     4  12  23  43  72  96 138 183 233 298 344 417
#     4  11  24  44  68 102 136 182 238 289 341 417
#     4  11  26  45  69 104 133 186 237 282 356 417
#     4  11  25  45  69 102 138 180 232 288 350 417
#     4  12  28  46  68 103 147 184 228 293 357 416
#     4  11  23  44  68 101 135 180 239 285 349 423
#
# _framework density 23.296362999999999
#
# number of rings (size 3 to 8) (size 9 to 14) (size 15 to 20)
#    0.000    0.667    6.667    1.500    7.000    0.667 
#    6.000    0.000    0.000    0.000    0.000    0.000 
#    0.000    0.000    0.000    0.000    0.000    0.000 
#
# Total GULP energy -133978.297042 kJ/mol
# GULP energy per Si atom -5582.429043 kJ/mol
# Density = 2.324334 g / cm^3
# Si number density = 23.296363 Si / 1000 Ang^3
#
#
#
# Elastic Constant Matrix: (Units=GPa)
#
#
# Indices 1 2 3 4 5 6 
#
# 1 140.4551 19.6969 33.2071 0.0000 35.2112 0.0000
# 2 19.6969 39.5980 15.2278 0.0000 10.3838 0.0000
# 3 33.2071 15.2278 131.1714 0.0000 6.9047 0.0000
# 4 0.0000 0.0000 0.0000 41.2282 0.0000 2.8257
# 5 35.2112 10.3838 6.9047 0.0000 39.3321 0.0000
# 6 0.0000 0.0000 0.0000 2.8257 0.0000 30.3369
#
#
#
# Elastic Compliance Matrix: (Units=1/GPa)
#
#
# Indices 1 2 3 4 5 6 
#
# 1 0.009835 -0.002111 -0.001828 0.000000 -0.007926 0.000000
# 2 -0.002111 0.028643 -0.002515 0.000000 -0.005231 0.000000
# 3 -0.001828 -0.002515 0.008334 0.000000 0.000837 0.000000
# 4 0.000000 0.000000 0.000000 0.024411 0.000000 -0.002274
# 5 -0.007926 -0.005231 0.000837 0.000000 0.033754 0.000000
# 6 0.000000 0.000000 0.000000 -0.002274 0.000000 0.033175
#
#
# Mechanical properties :
#
#
# Convention : Reuss Voigt Hill
#
# Bulk Modulus (GPa) = 29.49476 49.72092 39.60784
# Shear Modulus (GPa) = 30.79555 38.38563 34.59059
#
# Velocity S-wave (km/s) = 3.63974 4.06360 3.85750
# Velocity P-wave (km/s) = 5.50925 6.58834 6.07281
#
# Compressibility (1/GPa) = 0.03390432
#
# Stress axis : x y z
#
# Youngs Moduli (GPa) = 101.67892 34.91288 119.98720
#
# Poissons Ratio (x) = 0.07369 0.21928
# Poissons Ratio (y) = 0.21462 0.30182
# Poissons Ratio (z) = 0.18582 0.08782
#
# Static dielectric constant tensor:
#      x y z
#    x 2.107910 0.000000 -0.101280 
#    y 0.000000 1.959120 0.000000 
#    z -0.101280 0.000000 1.940910 
# 
# From -- ./inp_files/47054.got.cif
#   From: 2010.05.17/outbox.cif.g08.bks.cpg/sg14_24_cif.got.tgz:47054.got - 2010.06.03 17:49:19.
