data_PCOD9252482
_publ_section_title
;
Structure prediction by ZEFSAII (Michael W. Deem and Ramdas Pophale) SiO2 
 PCOD9252482
Probable space group: P 21/C
;
_chemical_formula_sum "Si O2"
_cell_formula_units_Z 28
_cell_length_a 5.392142
_cell_length_b 20.756011
_cell_length_c 10.149322
_cell_angle_alpha 90.000000
_cell_angle_beta 74.809330
_cell_angle_gamma 90.000000
_cell_volume 1096.216132
_symmetry_space_group_name_H-M "P 21/C"
_symmetry_group_IT_number 14
_symmetry_cell_setting 'monoclinic'
loop_
_space_group_symop_operation_xyz
x,y,z
-x,1/2+y,1/2-z
-x,-y,-z
x,1/2-y,1/2+z
loop_
_atom_site_type_symbol
_atom_site_label
_atom_site_fract_x
_atom_site_fract_y
_atom_site_fract_z
Si Si1 0.963747 0.651258 0.278387
Si Si2 0.007155 0.145117 0.932236
Si Si3 0.882268 0.514764 0.205129
Si Si4 0.597393 0.309870 0.987655
Si Si5 0.383308 0.256084 0.271038
Si Si6 0.298911 0.057441 0.539285
Si Si7 0.480096 0.937928 0.097252
O O1 0.046623 0.672652 0.413008
O O2 0.930432 0.574211 0.294334
O O3 0.702131 0.687309 0.276261
O O4 0.156203 0.668444 0.132023
O O5 0.125750 0.199868 0.819606
O O6 0.256357 0.099054 0.917379
O O7 0.748787 0.109366 0.920518
O O8 0.627720 0.473054 0.257878
O O9 0.106232 0.462664 0.180405
O O10 0.871282 0.551758 0.068799
O O11 0.587080 0.286388 0.140534
O O12 0.423288 0.373550 0.021410
O O13 0.477018 0.256164 0.906799
O O14 0.500000 0.000000 0.500000
O O15 0.500000 0.000000 0.000000
#
# Coordination Sequence:
#
# PCOD9252482 Si02
#       7
#     4   4   4   4   4   4   4
#     4  12  27  47  77 111 154 214 260 338 390 481
#     4  12  30  52  81 116 167 208 268 331 403 480
#     4  11  25  44  74 110 154 194 263 320 406 469
#     4  12  28  48  80 103 160 204 276 326 406 473
#     4  12  29  51  72 117 154 220 263 334 397 489
#     4  11  24  44  72 110 148 203 255 334 400 480
#     4  12  28  48  81 118 156 208 261 329 402 480
#
# _framework density 25.542407999999998
#
# number of rings (size 3 to 8) (size 9 to 14) (size 15 to 20)
#    0.000    0.286    5.714    1.286   12.000    0.000 
#    0.000    0.000    0.000    0.000    0.000    0.000 
#    0.000    0.000    0.000    0.000    0.000    0.000 
#
# Total GULP energy -156667.987387 kJ/mol
# GULP energy per Si atom -5595.285264 kJ/mol
# Density = 2.548427 g / cm^3
# Si number density = 25.542408 Si / 1000 Ang^3
#
#
#
# Elastic Constant Matrix: (Units=GPa)
#
#
# Indices 1 2 3 4 5 6 
#
# 1 90.4703 44.6564 25.6146 0.0000 -12.6729 0.0000
# 2 44.6564 115.4463 60.3373 0.0000 -23.7705 0.0000
# 3 25.6146 60.3373 128.5905 0.0000 -6.6842 0.0000
# 4 0.0000 0.0000 0.0000 33.9579 0.0000 -11.2737
# 5 -12.6729 -23.7705 -6.6842 0.0000 35.1740 0.0000
# 6 0.0000 0.0000 0.0000 -11.2737 0.0000 63.1426
#
#
#
# Elastic Compliance Matrix: (Units=1/GPa)
#
#
# Indices 1 2 3 4 5 6 
#
# 1 0.013754 -0.004759 -0.000421 0.000000 0.001660 0.000000
# 2 -0.004759 0.014996 -0.005707 0.000000 0.007335 0.000000
# 3 -0.000421 -0.005707 0.010433 0.000000 -0.002026 0.000000
# 4 0.000000 0.000000 0.000000 0.031304 0.000000 0.005589
# 5 0.001660 0.007335 -0.002026 0.000000 0.033600 0.000000
# 6 0.000000 0.000000 0.000000 0.005589 0.000000 0.016835
#
#
# Mechanical properties :
#
#
# Convention : Reuss Voigt Hill
#
# Bulk Modulus (GPa) = 57.43871 66.19154 61.81513
# Shear Modulus (GPa) = 33.67055 40.04816 36.85936
#
# Velocity S-wave (km/s) = 3.63467 3.96398 3.80289
# Velocity P-wave (km/s) = 6.33647 6.84992 6.59819
#
# Compressibility (1/GPa) = 0.01740986
#
# Stress axis : x y z
#
# Youngs Moduli (GPa) = 72.70730 66.68490 95.84944
#
# Poissons Ratio (x) = 0.31733 0.04031
# Poissons Ratio (y) = 0.34599 0.54703
# Poissons Ratio (z) = 0.03058 0.38058
#
# Static dielectric constant tensor:
#      x y z
#    x 2.017080 0.000000 -0.003010 
#    y 0.000000 2.052750 0.000000 
#    z -0.003010 0.000000 2.101950 
# 
# From -- ./inp_files/21705.got.cif
#   From: 2010.05.17/outbox.cif.g08.bks.cpg/sg14_11_cif.got.tgz:21705.got - 2010.06.03 17:49:19.
