data_PCOD9252134
_publ_section_title
;
Structure prediction by ZEFSAII (Michael W. Deem and Ramdas Pophale) SiO2 
 PCOD9252134
Probable space group: P 21/C
;
_chemical_formula_sum "Si O2"
_cell_formula_units_Z 24
_cell_length_a 17.688542
_cell_length_b 10.451650
_cell_length_c 14.908230
_cell_angle_alpha 90.000000
_cell_angle_beta 158.547673
_cell_angle_gamma 90.000000
_cell_volume 1007.998621
_symmetry_space_group_name_H-M "P 21/C"
_symmetry_group_IT_number 14
_symmetry_cell_setting 'monoclinic'
loop_
_space_group_symop_operation_xyz
x,y,z
-x,1/2+y,1/2-z
-x,-y,-z
x,1/2-y,1/2+z
loop_
_atom_site_type_symbol
_atom_site_label
_atom_site_fract_x
_atom_site_fract_y
_atom_site_fract_z
Si Si1 0.217712 0.808847 0.957870
Si Si2 0.777852 0.989796 0.705771
Si Si3 0.009009 0.397656 0.086820
Si Si4 0.969501 0.047493 0.734604
Si Si5 0.427071 0.221069 0.017219
Si Si6 0.333969 0.765457 0.885504
O O1 0.029389 0.702445 0.745127
O O2 0.610024 0.243739 0.289652
O O3 0.155302 0.943670 0.934412
O O4 0.359776 0.614005 0.925568
O O5 0.820636 0.994326 0.646394
O O6 0.669236 0.859347 0.609564
O O7 0.119772 0.720175 0.093822
O O8 0.000000 0.000000 0.000000
O O9 0.245442 0.359778 0.361998
O O10 0.302649 0.676914 0.450106
O O11 0.904791 0.454362 0.059679
O O12 0.000000 0.500000 0.000000
O O13 0.503652 0.172957 0.004203
#
# Coordination Sequence:
#
# PCOD9252134 Si02
#       6
#     4   4   4   4   4   4
#     4  11  25  46  73 110 142 193 239 296 362 428
#     4  11  23  43  74 103 140 190 233 296 363 419
#     4  12  25  47  73 101 145 191 233 301 364 422
#     4  11  24  46  76 104 150 186 239 298 362 422
#     4  12  26  45  75 105 142 185 246 294 354 439
#     4  11  24  47  69 107 142 188 236 294 366 424
#
# _framework density 23.809557000000002
#
# number of rings (size 3 to 8) (size 9 to 14) (size 15 to 20)
#    0.000    0.667    5.000    2.500    0.000    6.000 
#    0.000    0.000    0.000    0.000    0.000    0.000 
#    0.000    0.000    0.000    0.000    0.000    0.000 
#
# Total GULP energy -134008.971069 kJ/mol
# GULP energy per Si atom -5583.707128 kJ/mol
# Density = 2.375537 g / cm^3
# Si number density = 23.809557 Si / 1000 Ang^3
#
#
#
# Elastic Constant Matrix: (Units=GPa)
#
#
# Indices 1 2 3 4 5 6 
#
# 1 184.5481 5.5029 30.7196 0.0000 17.4950 0.0000
# 2 5.5029 79.9735 27.9345 0.0000 4.0142 0.0000
# 3 30.7196 27.9345 71.9378 0.0000 -0.5318 0.0000
# 4 0.0000 0.0000 0.0000 13.3259 0.0000 -9.6144
# 5 17.4950 4.0142 -0.5318 0.0000 22.3519 0.0000
# 6 0.0000 0.0000 0.0000 -9.6144 0.0000 26.6134
#
#
#
# Elastic Compliance Matrix: (Units=1/GPa)
#
#
# Indices 1 2 3 4 5 6 
#
# 1 0.006411 0.000917 -0.003133 0.000000 -0.005257 0.000000
# 2 0.000917 0.014766 -0.006152 0.000000 -0.003516 0.000000
# 3 -0.003133 -0.006152 0.017657 0.000000 0.003977 0.000000
# 4 0.000000 0.000000 0.000000 0.101496 0.000000 0.036667
# 5 -0.005257 -0.003516 0.003977 0.000000 0.049580 0.000000
# 6 0.000000 0.000000 0.000000 0.036667 0.000000 0.050821
#
#
# Mechanical properties :
#
#
# Convention : Reuss Voigt Hill
#
# Bulk Modulus (GPa) = 45.24950 51.64149 48.44549
# Shear Modulus (GPa) = 18.87989 30.61174 24.74581
#
# Velocity S-wave (km/s) = 2.81900 3.58954 3.22735
# Velocity P-wave (km/s) = 5.44442 6.23829 5.85482
#
# Compressibility (1/GPa) = 0.02209969
#
# Stress axis : x y z
#
# Youngs Moduli (GPa) = 155.97846 67.72213 56.63547
#
# Poissons Ratio (x) = -0.06210 0.17742
# Poissons Ratio (y) = -0.14303 0.34839
# Poissons Ratio (z) = 0.48863 0.41659
#
# Static dielectric constant tensor:
#      x y z
#    x 1.865020 0.000000 0.012760 
#    y 0.000000 1.955380 0.000000 
#    z 0.012760 0.000000 1.965060 
# 
# From -- ./inp_files/60623.got.cif
#   From: 2010.05.17/outbox.cif.g08.bks.cpg/sg14_31_cif.got.tgz:60623.got - 2010.06.03 17:49:19.
