data_PCOD9252709
_publ_section_title
;
Structure prediction by ZEFSAII (Michael W. Deem and Ramdas Pophale) SiO2 
 PCOD9252709
Probable space group: P 21/C
;
_chemical_formula_sum "Si O2"
_cell_formula_units_Z 24
_cell_length_a 12.630783
_cell_length_b 9.813252
_cell_length_c 18.575182
_cell_angle_alpha 90.000000
_cell_angle_beta 30.259446
_cell_angle_gamma 90.000000
_cell_volume 1160.205135
_symmetry_space_group_name_H-M "P 21/C"
_symmetry_group_IT_number 14
_symmetry_cell_setting 'monoclinic'
loop_
_space_group_symop_operation_xyz
x,y,z
-x,1/2+y,1/2-z
-x,-y,-z
x,1/2-y,1/2+z
loop_
_atom_site_type_symbol
_atom_site_label
_atom_site_fract_x
_atom_site_fract_y
_atom_site_fract_z
Si Si1 0.650106 0.429674 0.279418
Si Si2 0.571821 0.788322 0.489714
Si Si3 0.339125 0.052955 0.831808
Si Si4 0.060498 0.705921 0.461873
Si Si5 0.915695 0.831271 0.693334
Si Si6 0.631293 0.076144 0.527869
O O1 0.534932 0.334168 0.404869
O O2 0.481474 0.470982 0.317803
O O3 0.830786 0.338536 0.135132
O O4 0.755496 0.558375 0.255049
O O5 0.798575 0.747320 0.325744
O O6 0.436775 0.830984 0.499206
O O7 0.588595 0.920746 0.529960
O O8 0.489930 0.109100 0.680454
O O9 0.229497 0.915481 0.867238
O O10 0.145447 0.155484 0.960006
O O11 0.982114 0.733601 0.588830
O O12 0.126604 0.902574 0.596365
#
# Coordination Sequence:
#
# PCOD9252709 Si02
#       6
#     4   4   4   4   4   4
#     4  12  27  43  75 105 138 176 235 285 334 408
#     4  11  27  48  68 102 142 179 227 281 351 404
#     4  11  25  45  74 100 137 185 225 288 341 398
#     4  11  25  44  71 104 136 179 231 278 346 406
#     4  12  27  43  72 104 136 181 231 283 337 411
#     4  11  25  47  72  97 142 185 221 288 345 400
#
# _framework density 20.685995999999999
#
# number of rings (size 3 to 8) (size 9 to 14) (size 15 to 20)
#    0.000    0.667    5.000    1.000    9.333    1.333 
#    0.000    0.000    0.000    0.000    0.000    0.000 
#    0.000    0.000    0.000    0.000    0.000    0.000 
#
# Total GULP energy -134359.807480 kJ/mol
# GULP energy per Si atom -5598.325312 kJ/mol
# Density = 2.063891 g / cm^3
# Si number density = 20.685996 Si / 1000 Ang^3
#
#
#
# Elastic Constant Matrix: (Units=GPa)
#
#
# Indices 1 2 3 4 5 6 
#
# 1 80.3891 11.8999 24.8078 0.0000 -28.7984 0.0000
# 2 11.8999 21.1437 11.5899 0.0000 -8.8009 0.0000
# 3 24.8078 11.5899 106.8157 0.0000 1.7883 0.0000
# 4 0.0000 0.0000 0.0000 41.6054 0.0000 6.6701
# 5 -28.7984 -8.8009 1.7883 0.0000 36.4299 0.0000
# 6 0.0000 0.0000 0.0000 6.6701 0.0000 4.4653
#
#
#
# Elastic Compliance Matrix: (Units=1/GPa)
#
#
# Indices 1 2 3 4 5 6 
#
# 1 0.019624 -0.002210 -0.004572 0.000000 0.015204 0.000000
# 2 -0.002210 0.056863 -0.005862 0.000000 0.012278 0.000000
# 3 -0.004572 -0.005862 0.011153 0.000000 -0.005578 0.000000
# 4 0.000000 0.000000 0.000000 0.031604 0.000000 -0.047208
# 5 0.015204 0.012278 -0.005578 0.000000 0.042709 0.000000
# 6 0.000000 0.000000 0.000000 -0.047208 0.000000 0.294469
#
#
# Mechanical properties :
#
#
# Convention : Reuss Voigt Hill
#
# Bulk Modulus (GPa) = 16.03805 33.88263 24.96034
# Shear Modulus (GPa) = 9.95035 27.17019 18.56027
#
# Velocity S-wave (km/s) = 2.19559 3.62810 2.99864
# Velocity P-wave (km/s) = 3.76795 5.82802 4.90731
#
# Compressibility (1/GPa) = 0.06235173
#
# Stress axis : x y z
#
# Youngs Moduli (GPa) = 50.95726 17.58608 89.65930
#
# Poissons Ratio (x) = 0.03886 0.40997
# Poissons Ratio (y) = 0.11261 0.52560
# Poissons Ratio (z) = 0.23300 0.10309
#
# Static dielectric constant tensor:
#      x y z
#    x 1.700150 0.000000 -0.005200 
#    y 0.000000 1.720810 0.000000 
#    z -0.005200 0.000000 1.712600 
# 
# From -- ./inp_files/57654.got.cif
#   From: 2010.05.17/outbox.cif.g08.bks.cpg/sg14_29_cif.got.tgz:57654.got - 2010.06.03 17:49:19.
