data_PCOD9252067
_publ_section_title
;
Structure prediction by ZEFSAII (Michael W. Deem and Ramdas Pophale) SiO2 
 PCOD9252067
Probable space group: P 21/C
;
_chemical_formula_sum "Si O2"
_cell_formula_units_Z 24
_cell_length_a 25.190914
_cell_length_b 7.275399
_cell_length_c 12.355155
_cell_angle_alpha 90.000000
_cell_angle_beta 27.253163
_cell_angle_gamma 90.000000
_cell_volume 1036.910780
_symmetry_space_group_name_H-M "P 21/C"
_symmetry_group_IT_number 14
_symmetry_cell_setting 'monoclinic'
loop_
_space_group_symop_operation_xyz
x,y,z
-x,1/2+y,1/2-z
-x,-y,-z
x,1/2-y,1/2+z
loop_
_atom_site_type_symbol
_atom_site_label
_atom_site_fract_x
_atom_site_fract_y
_atom_site_fract_z
Si Si1 0.798905 0.642577 0.347259
Si Si2 0.374637 0.172235 0.504576
Si Si3 0.624429 0.085194 0.303130
Si Si4 0.865382 0.385425 0.055393
Si Si5 0.391497 0.926758 0.046591
Si Si6 0.039612 0.403873 0.319048
O O1 0.720475 0.773689 0.412915
O O2 0.717391 0.490151 0.550594
O O3 0.862928 0.756766 0.323532
O O4 0.888250 0.539280 0.105894
O O5 0.344948 0.002764 0.635499
O O6 0.389357 0.352697 0.554094
O O7 0.495193 0.132628 0.225280
O O8 0.500000 0.000000 0.500000
O O9 0.613861 0.304497 0.335344
O O10 0.909305 0.457438 0.860811
O O11 0.930510 0.201238 0.966828
O O12 0.726944 0.375421 0.300213
O O13 0.000000 0.500000 0.500000
#
# Coordination Sequence:
#
# PCOD9252067 Si02
#       6
#     4   4   4   4   4   4
#     4  11  24  46  71 103 141 182 232 289 356 421
#     4  11  23  45  67 107 144 185 228 290 345 429
#     4  12  24  43  72 105 142 187 231 284 354 429
#     4  11  27  48  69 103 142 178 241 295 346 425
#     4  11  23  42  70 100 143 183 227 287 350 410
#     4  12  28  47  74 102 134 190 238 296 359 411
#
# _framework density 23.145672999999999
#
# number of rings (size 3 to 8) (size 9 to 14) (size 15 to 20)
#    0.000    0.667    3.333    4.500    7.000    0.667 
#    3.000    0.000    0.000    0.000    0.000    0.000 
#    0.000    0.000    0.000    0.000    0.000    0.000 
#
# Total GULP energy -134436.510535 kJ/mol
# GULP energy per Si atom -5601.521272 kJ/mol
# Density = 2.309299 g / cm^3
# Si number density = 23.145673 Si / 1000 Ang^3
#
#
#
# Elastic Constant Matrix: (Units=GPa)
#
#
# Indices 1 2 3 4 5 6 
#
# 1 51.1539 -2.0129 14.0288 0.0000 11.5380 0.0000
# 2 -2.0129 70.2775 6.0224 0.0000 8.1042 0.0000
# 3 14.0288 6.0224 86.7376 0.0000 24.3229 0.0000
# 4 0.0000 0.0000 0.0000 36.5107 0.0000 11.0065
# 5 11.5380 8.1042 24.3229 0.0000 43.7026 0.0000
# 6 0.0000 0.0000 0.0000 11.0065 0.0000 57.0333
#
#
#
# Elastic Compliance Matrix: (Units=1/GPa)
#
#
# Indices 1 2 3 4 5 6 
#
# 1 0.021255 0.001333 -0.002236 0.000000 -0.004614 0.000000
# 2 0.001333 0.014630 -0.000441 0.000000 -0.002820 0.000000
# 3 -0.002236 -0.000441 0.013903 0.000000 -0.007065 0.000000
# 4 0.000000 0.000000 0.000000 0.029081 0.000000 -0.005612
# 5 -0.004614 -0.002820 -0.007065 0.000000 0.028555 0.000000
# 6 0.000000 0.000000 0.000000 -0.005612 0.000000 0.018617
#
#
# Mechanical properties :
#
#
# Convention : Reuss Voigt Hill
#
# Bulk Modulus (GPa) = 21.23181 27.13840 24.18510
# Shear Modulus (GPa) = 34.61880 40.12472 37.37176
#
# Velocity S-wave (km/s) = 3.87161 4.16814 4.02261
# Velocity P-wave (km/s) = 5.40175 5.90889 5.66100
#
# Compressibility (1/GPa) = 0.04709914
#
# Stress axis : x y z
#
# Youngs Moduli (GPa) = 47.04703 68.35096 71.92884
#
# Poissons Ratio (x) = -0.09108 0.16086
# Poissons Ratio (y) = -0.06269 0.03170
# Poissons Ratio (z) = 0.10522 0.03012
#
# Static dielectric constant tensor:
#      x y z
#    x 1.898540 0.000000 -0.030480 
#    y 0.000000 1.941090 0.000000 
#    z -0.030480 0.000000 1.909600 
# 
# From -- ./inp_files/35675.got.cif
#   From: 2010.05.17/outbox.cif.g08.bks.cpg/sg14_18_cif.got.tgz:35675.got - 2010.06.03 17:49:19.
