data_PCOD9252040
_publ_section_title
;
Structure prediction by ZEFSAII (Michael W. Deem and Ramdas Pophale) SiO2 
 PCOD9252040
Probable space group: P 21/C
;
_chemical_formula_sum "Si O2"
_cell_formula_units_Z 32
_cell_length_a 27.971083
_cell_length_b 5.492382
_cell_length_c 9.199606
_cell_angle_alpha 90.000000
_cell_angle_beta 99.434100
_cell_angle_gamma 90.000000
_cell_volume 1394.200495
_symmetry_space_group_name_H-M "P 21/C"
_symmetry_group_IT_number 14
_symmetry_cell_setting 'monoclinic'
loop_
_space_group_symop_operation_xyz
x,y,z
-x,1/2+y,1/2-z
-x,-y,-z
x,1/2-y,1/2+z
loop_
_atom_site_type_symbol
_atom_site_label
_atom_site_fract_x
_atom_site_fract_y
_atom_site_fract_z
Si Si1 0.565481 0.445717 0.875829
Si Si2 0.667897 0.435930 0.918795
Si Si3 0.091925 0.013605 0.690448
Si Si4 0.471859 0.204206 0.893300
Si Si5 0.057885 0.989930 0.010866
Si Si6 0.300560 0.246065 0.316271
Si Si7 0.752432 0.355511 0.382542
Si Si8 0.797481 0.999558 0.173737
O O1 0.616286 0.306957 0.912785
O O2 0.516920 0.297765 0.819664
O O3 0.569030 0.617319 0.737576
O O4 0.551334 0.595761 0.012287
O O5 0.676111 0.532093 0.759598
O O6 0.667596 0.653563 0.035430
O O7 0.718720 0.304697 0.972897
O O8 0.078446 0.761181 0.596935
O O9 0.149563 0.048899 0.741387
O O10 0.070632 0.994627 0.844581
O O11 0.075460 0.258700 0.597424
O O12 0.500000 0.000000 0.000000
O O13 0.000000 0.000000 0.000000
O O14 0.245516 0.303385 0.336690
O O15 0.288794 0.037696 0.194093
O O16 0.776472 0.213286 0.263652
O O17 0.796441 0.449628 0.501975
#
# Coordination Sequence:
#
# PCOD9252040 Si02
#       8
#     4   4   4   4   4   4   4   4
#     4  11  24  42  64  92 118 161 210 261 322 400
#     4  11  24  40  66  91 123 166 213 258 330 399
#     4  12  27  44  78 110 145 203 252 302 380 441
#     4  11  23  43  64  88 122 157 202 269 322 373
#     4  12  26  50  74 111 153 196 252 317 373 440
#     4  11  23  42  62  92 128 167 206 267 323 383
#     4  11  23  43  63  93 133 171 210 276 327 388
#     4  11  25  41  67  94 136 170 227 273 330 408
#
# _framework density 22.952224000000001
#
# number of rings (size 3 to 8) (size 9 to 14) (size 15 to 20)
#    0.000    0.750    3.750    3.375    3.500    2.000 
#    0.000    0.000    0.000    0.000    0.000    0.000 
#    0.000    0.000    0.000    0.000    0.000    0.000 
#
# Total GULP energy -178582.864979 kJ/mol
# GULP energy per Si atom -5580.714531 kJ/mol
# Density = 2.289998 g / cm^3
# Si number density = 22.952224 Si / 1000 Ang^3
#
#
#
# Elastic Constant Matrix: (Units=GPa)
#
#
# Indices 1 2 3 4 5 6 
#
# 1 85.9797 2.6122 5.0073 0.0000 9.5017 0.0000
# 2 2.6122 68.7025 23.4470 0.0000 -9.1814 0.0000
# 3 5.0073 23.4470 99.2055 0.0000 -12.4822 0.0000
# 4 0.0000 0.0000 0.0000 40.4644 0.0000 4.6190
# 5 9.5017 -9.1814 -12.4822 0.0000 23.7449 0.0000
# 6 0.0000 0.0000 0.0000 4.6190 0.0000 21.2636
#
#
#
# Elastic Compliance Matrix: (Units=1/GPa)
#
#
# Indices 1 2 3 4 5 6 
#
# 1 0.012376 -0.000862 -0.001163 0.000000 -0.005897 0.000000
# 2 -0.000862 0.016344 -0.003192 0.000000 0.004987 0.000000
# 3 -0.001163 -0.003192 0.011561 0.000000 0.005309 0.000000
# 4 0.000000 0.000000 0.000000 0.025341 0.000000 -0.005505
# 5 -0.005897 0.004987 0.005309 0.000000 0.049193 0.000000
# 6 0.000000 0.000000 0.000000 -0.005505 0.000000 0.048225
#
#
# Mechanical properties :
#
#
# Convention : Reuss Voigt Hill
#
# Bulk Modulus (GPa) = 33.50300 35.11341 34.30821
# Shear Modulus (GPa) = 27.25942 31.94933 29.60437
#
# Velocity S-wave (km/s) = 3.44998 3.73499 3.59531
# Velocity P-wave (km/s) = 5.52253 5.82511 5.67584
#
# Compressibility (1/GPa) = 0.02984807
#
# Stress axis : x y z
#
# Youngs Moduli (GPa) = 80.79995 61.18438 86.49663
#
# Poissons Ratio (x) = 0.05272 0.10059
# Poissons Ratio (y) = 0.06963 0.27609
# Poissons Ratio (z) = 0.09397 0.19530
#
# Static dielectric constant tensor:
#      x y z
#    x 1.776440 0.000000 -0.039980 
#    y 0.000000 2.126730 0.000000 
#    z -0.039980 0.000000 1.944910 
# 
# From -- ./inp_files/19895.got.cif
#   From: 2010.05.17/outbox.cif.g08.bks.cpg/sg14_10_cif.got.tgz:19895.got - 2010.06.03 17:49:19.
