data_PCOD9252484
_publ_section_title
;
Structure prediction by ZEFSAII (Michael W. Deem and Ramdas Pophale) SiO2 
 PCOD9252484
Probable space group: P 21/C
;
_chemical_formula_sum "Si O2"
_cell_formula_units_Z 32
_cell_length_a 7.251972
_cell_length_b 8.659021
_cell_length_c 27.010481
_cell_angle_alpha 90.000000
_cell_angle_beta 48.738476
_cell_angle_gamma 90.000000
_cell_volume 1274.987498
_symmetry_space_group_name_H-M "P 21/C"
_symmetry_group_IT_number 14
_symmetry_cell_setting 'monoclinic'
loop_
_space_group_symop_operation_xyz
x,y,z
-x,1/2+y,1/2-z
-x,-y,-z
x,1/2-y,1/2+z
loop_
_atom_site_type_symbol
_atom_site_label
_atom_site_fract_x
_atom_site_fract_y
_atom_site_fract_z
Si Si1 0.286546 0.241633 0.389987
Si Si2 0.818251 0.889088 0.325679
Si Si3 0.460738 0.030575 0.785821
Si Si4 0.077620 0.965801 0.369508
Si Si5 0.342589 0.761127 0.880473
Si Si6 0.206327 0.882114 0.011744
Si Si7 0.461179 0.664293 0.561925
Si Si8 0.970510 0.967983 0.809207
O O1 0.456452 0.306650 0.316002
O O2 0.125647 0.099347 0.400362
O O3 0.431877 0.223413 0.415172
O O4 0.085055 0.377573 0.431740
O O5 0.210801 0.490274 0.298864
O O6 0.913618 0.713895 0.317607
O O7 0.848484 0.971397 0.373314
O O8 0.976609 0.972655 0.255537
O O9 0.691002 0.026640 0.708971
O O10 0.464432 0.892969 0.825157
O O11 0.108697 0.806932 0.393583
O O12 0.276568 0.815483 0.946484
O O13 0.546023 0.628113 0.852342
O O14 0.317604 0.052708 0.994228
O O15 0.331597 0.786838 0.034242
O O16 0.257772 0.558830 0.626127
#
# Coordination Sequence:
#
# PCOD9252484 Si02
#       8
#     4   4   4   4   4   4   4   4
#     4  12  26  45  73 103 140 184 236 290 350 421
#     4  12  26  45  70 106 144 186 233 288 367 419
#     4  12  24  46  73 104 142 182 236 294 357 420
#     4  12  28  44  69 104 147 182 229 293 360 425
#     4  12  25  46  70 100 140 188 231 292 351 423
#     4  11  25  44  72 102 136 185 240 290 344 415
#     4  11  24  44  73 104 131 181 245 291 341 411
#     4  12  25  42  74 104 143 186 232 298 356 429
#
# _framework density 25.098286000000002
#
# number of rings (size 3 to 8) (size 9 to 14) (size 15 to 20)
#    0.000    0.250    6.250    2.625    3.500    2.500 
#    0.000    1.250    0.000    0.000    0.000    0.000 
#    0.000    0.000    0.000    0.000    0.000    0.000 
#
# Total GULP energy -179454.439469 kJ/mol
# GULP energy per Si atom -5607.951233 kJ/mol
# Density = 2.504116 g / cm^3
# Si number density = 25.098286 Si / 1000 Ang^3
#
#
#
# Elastic Constant Matrix: (Units=GPa)
#
#
# Indices 1 2 3 4 5 6 
#
# 1 138.2318 14.1056 47.5189 0.0000 39.5897 0.0000
# 2 14.1056 58.3917 26.6786 0.0000 21.2359 0.0000
# 3 47.5189 26.6786 83.5417 0.0000 35.3811 0.0000
# 4 0.0000 0.0000 0.0000 19.8197 0.0000 5.7296
# 5 39.5897 21.2359 35.3811 0.0000 63.4678 0.0000
# 6 0.0000 0.0000 0.0000 5.7296 0.0000 38.9806
#
#
#
# Elastic Compliance Matrix: (Units=1/GPa)
#
#
# Indices 1 2 3 4 5 6 
#
# 1 0.009723 0.001028 -0.004116 0.000000 -0.004114 0.000000
# 2 0.001028 0.021014 -0.005297 0.000000 -0.004720 0.000000
# 3 -0.004116 -0.005297 0.018543 0.000000 -0.005997 0.000000
# 4 0.000000 0.000000 0.000000 0.052694 0.000000 -0.007745
# 5 -0.004114 -0.004720 -0.005997 0.000000 0.023245 0.000000
# 6 0.000000 0.000000 0.000000 -0.007745 0.000000 0.026792
#
#
# Mechanical properties :
#
#
# Convention : Reuss Voigt Hill
#
# Bulk Modulus (GPa) = 30.75991 50.75239 40.75615
# Shear Modulus (GPa) = 27.83719 37.24443 32.54081
#
# Velocity S-wave (km/s) = 3.33397 3.85638 3.60465
# Velocity P-wave (km/s) = 5.20604 6.33200 5.79642
#
# Compressibility (1/GPa) = 0.03250985
#
# Stress axis : x y z
#
# Youngs Moduli (GPa) = 102.85328 47.58775 53.92958
#
# Poissons Ratio (x) = -0.04893 0.22199
# Poissons Ratio (y) = -0.10575 0.28564
# Poissons Ratio (z) = 0.42337 0.25205
#
# Static dielectric constant tensor:
#      x y z
#    x 1.995200 0.000000 -0.002930 
#    y 0.000000 2.007420 0.000000 
#    z -0.002930 0.000000 1.955980 
# 
# From -- ./inp_files/72065.got.cif
#   From: 2010.05.17/outbox.cif.g08.bks.cpg/sg14_37_cif.got.tgz:72065.got - 2010.06.03 17:49:19.
