data_PCOD9252028
_publ_section_title
;
Structure prediction by ZEFSAII (Michael W. Deem and Ramdas Pophale) SiO2 
 PCOD9252028
Probable space group: P 21/C
;
_chemical_formula_sum "Si O2"
_cell_formula_units_Z 16
_cell_length_a 14.973145
_cell_length_b 7.377627
_cell_length_c 6.856133
_cell_angle_alpha 90.000000
_cell_angle_beta 62.748404
_cell_angle_gamma 90.000000
_cell_volume 673.306586
_symmetry_space_group_name_H-M "P 21/C"
_symmetry_group_IT_number 14
_symmetry_cell_setting 'monoclinic'
loop_
_space_group_symop_operation_xyz
x,y,z
-x,1/2+y,1/2-z
-x,-y,-z
x,1/2-y,1/2+z
loop_
_atom_site_type_symbol
_atom_site_label
_atom_site_fract_x
_atom_site_fract_y
_atom_site_fract_z
Si Si1 0.634407 0.007303 0.430208
Si Si2 0.865592 0.007302 0.199025
Si Si3 0.460673 0.892134 0.851930
Si Si4 0.960674 0.107867 0.726723
O O1 0.750000 0.982085 0.363427
O O2 0.595557 0.207643 0.533675
O O3 0.614577 0.002855 0.218816
O O4 0.559894 0.872956 0.617305
O O5 0.904444 0.207642 0.224790
O O6 0.885424 0.002856 0.947970
O O7 0.940105 0.627045 0.737095
O O8 0.500000 0.000000 0.000000
O O9 0.000000 0.000000 0.500000
#
# Coordination Sequence:
#
# PCOD9252028 Si02
#       4
#     4   4   4   4
#     4  11  24  44  71  98 135 179 217 274 337 389
#     4  11  24  44  71  98 135 179 217 274 337 389
#     4  11  23  41  70  99 132 173 227 271 325 404
#     4  11  23  41  70  99 132 173 227 271 325 404
#
# _framework density 23.763321999999999
#
# number of rings (size 3 to 8) (size 9 to 14) (size 15 to 20)
#    0.000    1.000    5.000    1.500    0.000    2.000 
#    0.000   12.500    0.000    0.000    0.000    0.000 
#    0.000    0.000    0.000    0.000    0.000    0.000 
#
# Total GULP energy -89504.096259 kJ/mol
# GULP energy per Si atom -5594.006016 kJ/mol
# Density = 2.370924 g / cm^3
# Si number density = 23.763322 Si / 1000 Ang^3
#
#
#
# Elastic Constant Matrix: (Units=GPa)
#
#
# Indices 1 2 3 4 5 6 
#
# 1 104.7007 -2.6539 42.5596 0.0000 -28.5565 0.0000
# 2 -2.6539 61.0450 0.5328 0.0000 5.6416 0.0000
# 3 42.5596 0.5328 87.1621 0.0000 -2.4733 0.0000
# 4 0.0000 0.0000 0.0000 38.0616 0.0000 3.9042
# 5 -28.5565 5.6416 -2.4733 0.0000 69.1590 0.0000
# 6 0.0000 0.0000 0.0000 3.9042 0.0000 35.8562
#
#
#
# Elastic Compliance Matrix: (Units=1/GPa)
#
#
# Indices 1 2 3 4 5 6 
#
# 1 0.013682 0.000152 -0.006528 0.000000 0.005404 0.000000
# 2 0.000152 0.016509 -0.000212 0.000000 -0.001291 0.000000
# 3 -0.006528 -0.000212 0.014601 0.000000 -0.002156 0.000000
# 4 0.000000 0.000000 0.000000 0.026570 0.000000 -0.002893
# 5 0.005404 -0.001291 -0.002156 0.000000 0.016719 0.000000
# 6 0.000000 0.000000 0.000000 -0.002893 0.000000 0.028204
#
#
# Mechanical properties :
#
#
# Convention : Reuss Voigt Hill
#
# Bulk Modulus (GPa) = 31.62928 37.08720 34.35824
# Shear Modulus (GPa) = 35.71422 42.78000 39.24711
#
# Velocity S-wave (km/s) = 3.88095 4.24754 4.06838
# Velocity P-wave (km/s) = 5.78112 6.30050 6.04639
#
# Compressibility (1/GPa) = 0.03161627
#
# Stress axis : x y z
#
# Youngs Moduli (GPa) = 73.08613 60.57238 68.48982
#
# Poissons Ratio (x) = -0.00923 0.44713
# Poissons Ratio (y) = -0.01114 0.01452
# Poissons Ratio (z) = 0.47714 0.01284
#
# Static dielectric constant tensor:
#      x y z
#    x 1.901800 0.000000 0.060030 
#    y 0.000000 1.971960 0.000000 
#    z 0.060030 0.000000 1.935710 
# 
# From -- ./inp_files/11505.got.cif
#   From: 2010.05.17/outbox.cif.g08.bks.cpg/sg14_6_cif.got.tgz:11505.got - 2010.06.03 17:49:19.
