data_PCOD9252207
_publ_section_title
;
Structure prediction by ZEFSAII (Michael W. Deem and Ramdas Pophale) SiO2 
 PCOD9252207
Probable space group: P 21/C
;
_chemical_formula_sum "Si O2"
_cell_formula_units_Z 28
_cell_length_a 8.842981
_cell_length_b 23.882416
_cell_length_c 7.971715
_cell_angle_alpha 90.000000
_cell_angle_beta 46.414457
_cell_angle_gamma 90.000000
_cell_volume 1219.480015
_symmetry_space_group_name_H-M "P 21/C"
_symmetry_group_IT_number 14
_symmetry_cell_setting 'monoclinic'
loop_
_space_group_symop_operation_xyz
x,y,z
-x,1/2+y,1/2-z
-x,-y,-z
x,1/2-y,1/2+z
loop_
_atom_site_type_symbol
_atom_site_label
_atom_site_fract_x
_atom_site_fract_y
_atom_site_fract_z
Si Si1 0.079125 0.309701 0.352177
Si Si2 0.803791 0.268265 0.288859
Si Si3 0.198467 0.955037 0.144510
Si Si4 0.482585 0.136050 0.967293
Si Si5 0.098139 0.072152 0.326923
Si Si6 0.464015 0.836406 0.446674
Si Si7 0.139866 0.913304 0.831090
O O1 0.950011 0.309556 0.281201
O O2 0.965521 0.258502 0.533267
O O3 0.027651 0.366423 0.488804
O O4 0.326084 0.307764 0.146825
O O5 0.599536 0.305069 0.405801
O O6 0.706740 0.212578 0.449298
O O7 0.007209 0.935866 0.411958
O O8 0.379479 0.911095 0.047674
O O9 0.150829 0.954461 0.981684
O O10 0.238946 0.018085 0.175034
O O11 0.244239 0.126725 0.205632
O O12 0.490025 0.131640 0.760571
O O13 0.926098 0.070188 0.307696
O O14 0.359948 0.880491 0.651769
#
# Coordination Sequence:
#
# PCOD9252207 Si02
#       7
#     4   4   4   4   4   4   4
#     4  11  24  42  65 100 138 181 224 280 352 410
#     4  11  25  42  66 101 138 178 232 281 341 429
#     4  11  25  46  70 105 138 186 239 284 352 422
#     4  12  23  45  68 101 142 185 228 293 347 411
#     4  11  25  46  74 100 145 183 232 297 351 406
#     4  11  25  42  68 101 139 181 229 282 347 417
#     4  11  23  45  69 101 140 180 230 287 343 415
#
# _framework density 22.960605000000001
#
# number of rings (size 3 to 8) (size 9 to 14) (size 15 to 20)
#    0.000    0.857    5.714    0.857    2.000    2.286 
#    0.000    0.714    0.000    0.000    0.000    0.000 
#    0.000    0.000    0.000    0.000    0.000    0.000 
#
# Total GULP energy -156292.838032 kJ/mol
# GULP energy per Si atom -5581.887073 kJ/mol
# Density = 2.290835 g / cm^3
# Si number density = 22.960605 Si / 1000 Ang^3
#
#
#
# Elastic Constant Matrix: (Units=GPa)
#
#
# Indices 1 2 3 4 5 6 
#
# 1 63.4700 -1.2090 22.5736 0.0000 -5.9229 0.0000
# 2 -1.2090 44.4678 8.6317 0.0000 0.6333 0.0000
# 3 22.5736 8.6317 58.2738 0.0000 -14.2861 0.0000
# 4 0.0000 0.0000 0.0000 33.0730 0.0000 -7.6808
# 5 -5.9229 0.6333 -14.2861 0.0000 27.6800 0.0000
# 6 0.0000 0.0000 0.0000 -7.6808 0.0000 28.7138
#
#
#
# Elastic Compliance Matrix: (Units=1/GPa)
#
#
# Indices 1 2 3 4 5 6 
#
# 1 0.018435 0.001938 -0.007410 0.000000 0.000076 0.000000
# 2 0.001938 0.023527 -0.004884 0.000000 -0.002644 0.000000
# 3 -0.007410 -0.004884 0.023347 0.000000 0.010576 0.000000
# 4 0.000000 0.000000 0.000000 0.032239 0.000000 0.008624
# 5 0.000076 -0.002644 0.010576 0.000000 0.041662 0.000000
# 6 0.000000 0.000000 0.000000 0.008624 0.000000 0.037133
#
#
# Mechanical properties :
#
#
# Convention : Reuss Voigt Hill
#
# Bulk Modulus (GPa) = 22.42258 25.13379 23.77819
# Shear Modulus (GPa) = 23.59394 26.97437 25.28415
#
# Velocity S-wave (km/s) = 3.20907 3.43127 3.32203
# Velocity P-wave (km/s) = 4.84951 5.16415 5.00930
#
# Compressibility (1/GPa) = 0.04459790
#
# Stress axis : x y z
#
# Youngs Moduli (GPa) = 54.24537 42.50516 42.83244
#
# Poissons Ratio (x) = -0.08239 0.31737
# Poissons Ratio (y) = -0.10515 0.20919
# Poissons Ratio (z) = 0.40193 0.20759
#
# Static dielectric constant tensor:
#      x y z
#    x 1.937140 0.000000 0.036280 
#    y 0.000000 1.872920 0.000000 
#    z 0.036280 0.000000 1.841790 
# 
# From -- ./inp_files/11002.got.cif
#   From: 2010.05.17/outbox.cif.g08.bks.cpg/sg14_6_cif.got.tgz:11002.got - 2010.06.03 17:49:19.
