data_PCOD9252827
_publ_section_title
;
Structure prediction by ZEFSAII (Michael W. Deem and Ramdas Pophale) SiO2 
 PCOD9252827
Probable space group: P 21/C
;
_chemical_formula_sum "Si O2"
_cell_formula_units_Z 20
_cell_length_a 7.955932
_cell_length_b 14.862059
_cell_length_c 8.026401
_cell_angle_alpha 90.000000
_cell_angle_beta 127.868545
_cell_angle_gamma 90.000000
_cell_volume 749.203305
_symmetry_space_group_name_H-M "P 21/C"
_symmetry_group_IT_number 14
_symmetry_cell_setting 'monoclinic'
loop_
_space_group_symop_operation_xyz
x,y,z
-x,1/2+y,1/2-z
-x,-y,-z
x,1/2-y,1/2+z
loop_
_atom_site_type_symbol
_atom_site_label
_atom_site_fract_x
_atom_site_fract_y
_atom_site_fract_z
Si Si1 0.238602 0.999191 0.716837
Si Si2 0.257086 0.162623 0.545739
Si Si3 0.147730 0.422038 0.519991
Si Si4 0.553320 0.322743 0.768373
Si Si5 0.971112 0.272178 0.590803
O O1 0.354148 0.066979 0.656148
O O2 0.230654 0.040056 0.895479
O O3 0.669338 0.100979 0.230678
O O4 0.000000 0.000000 0.500000
O O5 0.425681 0.240457 0.606589
O O6 0.138961 0.194990 0.643968
O O7 0.068463 0.166590 0.295781
O O8 0.363572 0.381784 0.737516
O O9 0.000000 0.500000 0.500000
O O10 0.989259 0.336075 0.437219
O O11 0.742311 0.271282 0.978380
#
# Coordination Sequence:
#
# PCOD9252827 Si02
#       5
#     4   4   4   4   4
#     4  12  25  52  80 114 161 210 264 327 399 476
#     4  11  25  49  75 116 158 201 269 332 389 472
#     4  11  27  50  77 118 157 204 270 333 389 480
#     4  11  27  47  85 111 157 218 260 325 407 465
#     4  11  25  47  75 112 159 201 263 326 395 468
#
# _framework density 26.695022000000002
#
# number of rings (size 3 to 8) (size 9 to 14) (size 15 to 20)
#    0.000    0.800    2.000    4.200    2.800    4.800 
#    0.000    5.000    0.000    0.000    0.000    0.000 
#    0.000    0.000    0.000    0.000    0.000    0.000 
#
# Total GULP energy -111755.410230 kJ/mol
# GULP energy per Si atom -5587.770512 kJ/mol
# Density = 2.663426 g / cm^3
# Si number density = 26.695022 Si / 1000 Ang^3
#
#
#
# Elastic Constant Matrix: (Units=GPa)
#
#
# Indices 1 2 3 4 5 6 
#
# 1 136.9494 66.5939 56.1225 0.0000 22.9124 0.0000
# 2 66.5939 194.5785 50.9256 0.0000 13.2501 0.0000
# 3 56.1225 50.9256 138.0888 0.0000 16.4406 0.0000
# 4 0.0000 0.0000 0.0000 38.6145 0.0000 13.4740
# 5 22.9124 13.2501 16.4406 0.0000 38.0348 0.0000
# 6 0.0000 0.0000 0.0000 13.4740 0.0000 75.2754
#
#
#
# Elastic Compliance Matrix: (Units=1/GPa)
#
#
# Indices 1 2 3 4 5 6 
#
# 1 0.010374 -0.002538 -0.002785 0.000000 -0.004161 0.000000
# 2 -0.002538 0.006356 -0.001298 0.000000 -0.000124 0.000000
# 3 -0.002785 -0.001298 0.009065 0.000000 -0.001789 0.000000
# 4 0.000000 0.000000 0.000000 0.027622 0.000000 -0.004944
# 5 -0.004161 -0.000124 -0.001789 0.000000 0.029615 0.000000
# 6 0.000000 0.000000 0.000000 -0.004944 0.000000 0.014170
#
#
# Mechanical properties :
#
#
# Convention : Reuss Voigt Hill
#
# Bulk Modulus (GPa) = 79.65741 90.76676 85.21208
# Shear Modulus (GPa) = 43.61985 50.11660 46.86822
#
# Velocity S-wave (km/s) = 4.04667 4.33757 4.19464
# Velocity P-wave (km/s) = 7.19296 7.69163 7.44647
#
# Compressibility (1/GPa) = 0.01255376
#
# Stress axis : x y z
#
# Youngs Moduli (GPa) = 96.39932 157.32942 110.31472
#
# Poissons Ratio (x) = 0.39933 0.30718
# Poissons Ratio (y) = 0.24468 0.14315
# Poissons Ratio (z) = 0.26843 0.20416
#
# Static dielectric constant tensor:
#      x y z
#    x 2.175470 0.000000 -0.047630 
#    y 0.000000 2.183330 0.000000 
#    z -0.047630 0.000000 2.115670 
# 
# From -- ./inp_files/5433.got.cif
#   From: 2010.05.17/outbox.cif.g08.bks.cpg/sg14_3_cif.got.tgz:5433.got - 2010.06.03 17:49:19.
