data_PCOD9252746
_publ_section_title
;
Structure prediction by ZEFSAII (Michael W. Deem and Ramdas Pophale) SiO2 
 PCOD9252746
Probable space group: P 21/C
;
_chemical_formula_sum "Si O2"
_cell_formula_units_Z 20
_cell_length_a 11.909369
_cell_length_b 5.026153
_cell_length_c 13.686915
_cell_angle_alpha 90.000000
_cell_angle_beta 68.311623
_cell_angle_gamma 90.000000
_cell_volume 761.277091
_symmetry_space_group_name_H-M "P 21/C"
_symmetry_group_IT_number 14
_symmetry_cell_setting 'monoclinic'
loop_
_space_group_symop_operation_xyz
x,y,z
-x,1/2+y,1/2-z
-x,-y,-z
x,1/2-y,1/2+z
loop_
_atom_site_type_symbol
_atom_site_label
_atom_site_fract_x
_atom_site_fract_y
_atom_site_fract_z
Si Si1 0.092366 0.931322 0.121691
Si Si2 0.399724 0.371421 0.177933
Si Si3 0.149590 0.363429 0.803165
Si Si4 0.782618 0.565664 0.002532
Si Si5 0.538929 0.862714 0.109642
O O1 0.099763 0.941657 0.236579
O O2 0.121556 0.217003 0.066341
O O3 0.190251 0.715915 0.054473
O O4 0.960168 0.830682 0.135200
O O5 0.261751 0.285065 0.216102
O O6 0.429002 0.374075 0.284821
O O7 0.426567 0.665288 0.133547
O O8 0.199604 0.483263 0.887245
O O9 0.507983 0.842798 0.898945
O O10 0.654604 0.712691 0.028031
#
# Coordination Sequence:
#
# PCOD9252746 Si02
#       5
#     4   4   4   4   4
#     4  12  26  44  68 102 133 178 229 269 328 405
#     4   9  19  36  64  92 127 173 213 266 333 383
#     4  11  26  46  69  98 139 178 221 280 331 391
#     4  11  25  45  71  99 136 176 220 278 336 391
#     4   9  18  37  63  95 126 167 220 265 324 400
#
# _framework density 26.271640999999999
#
# number of rings (size 3 to 8) (size 9 to 14) (size 15 to 20)
#    0.000    1.600    0.000    3.600    0.000   12.800 
#    0.000    6.000    0.000    0.000    0.000    0.000 
#    0.000    0.000    0.000    0.000    0.000    0.000 
#
# Total GULP energy -112233.442378 kJ/mol
# GULP energy per Si atom -5611.672119 kJ/mol
# Density = 2.621185 g / cm^3
# Si number density = 26.271641 Si / 1000 Ang^3
#
#
#
# Elastic Constant Matrix: (Units=GPa)
#
#
# Indices 1 2 3 4 5 6 
#
# 1 95.2305 -22.3001 6.6382 0.0000 3.5063 0.0000
# 2 -22.3001 82.6171 15.1246 0.0000 9.9812 0.0000
# 3 6.6382 15.1246 103.2376 0.0000 5.2524 0.0000
# 4 0.0000 0.0000 0.0000 51.0098 0.0000 -3.5295
# 5 3.5063 9.9812 5.2524 0.0000 40.7609 0.0000
# 6 0.0000 0.0000 0.0000 -3.5295 0.0000 17.4342
#
#
#
# Elastic Compliance Matrix: (Units=1/GPa)
#
#
# Indices 1 2 3 4 5 6 
#
# 1 0.011467 0.003514 -0.001166 0.000000 -0.001697 0.000000
# 2 0.003514 0.013847 -0.002080 0.000000 -0.003425 0.000000
# 3 -0.001166 -0.002080 0.010101 0.000000 -0.000692 0.000000
# 4 0.000000 0.000000 0.000000 0.019883 0.000000 0.004025
# 5 -0.001697 -0.003425 -0.000692 0.000000 0.025607 0.000000
# 6 0.000000 0.000000 0.000000 0.004025 0.000000 0.058174
#
#
# Mechanical properties :
#
#
# Convention : Reuss Voigt Hill
#
# Bulk Modulus (GPa) = 27.81572 31.11228 29.46400
# Shear Modulus (GPa) = 33.21651 40.61579 36.91615
#
# Velocity S-wave (km/s) = 3.55963 3.93618 3.75263
# Velocity P-wave (km/s) = 5.24455 5.70318 5.47867
#
# Compressibility (1/GPa) = 0.03595090
#
# Stress axis : x y z
#
# Youngs Moduli (GPa) = 87.20393 72.21746 98.99681
#
# Poissons Ratio (x) = -0.25375 0.11541
# Poissons Ratio (y) = -0.30641 0.20594
# Poissons Ratio (z) = 0.10166 0.15024
#
# Static dielectric constant tensor:
#      x y z
#    x 2.009460 0.000000 0.020790 
#    y 0.000000 1.955310 0.000000 
#    z 0.020790 0.000000 2.100870 
# 
# From -- ./inp_files/42560.got.cif
#   From: 2010.05.17/outbox.cif.g08.bks.cpg/sg14_22_cif.got.tgz:42560.got - 2010.06.03 17:49:19.
