data_PCOD9252735
_publ_section_title
;
Structure prediction by ZEFSAII (Michael W. Deem and Ramdas Pophale) SiO2 
 PCOD9252735
Probable space group: P 21/C
;
_chemical_formula_sum "Si O2"
_cell_formula_units_Z 20
_cell_length_a 19.671207
_cell_length_b 7.546896
_cell_length_c 14.485711
_cell_angle_alpha 90.000000
_cell_angle_beta 156.158592
_cell_angle_gamma 90.000000
_cell_volume 869.245430
_symmetry_space_group_name_H-M "P 21/C"
_symmetry_group_IT_number 14
_symmetry_cell_setting 'monoclinic'
loop_
_space_group_symop_operation_xyz
x,y,z
-x,1/2+y,1/2-z
-x,-y,-z
x,1/2-y,1/2+z
loop_
_atom_site_type_symbol
_atom_site_label
_atom_site_fract_x
_atom_site_fract_y
_atom_site_fract_z
Si Si1 0.064581 0.977564 0.183963
Si Si2 0.337131 0.882973 0.773765
Si Si3 0.611578 0.289952 0.977204
Si Si4 0.651487 0.428816 0.359213
Si Si5 0.036141 0.133035 0.333200
O O1 0.967314 0.816687 0.115002
O O2 0.257288 0.917265 0.412149
O O3 0.049711 0.138112 0.238232
O O4 0.000000 0.000000 0.000000
O O5 0.373684 0.732436 0.743392
O O6 0.185870 0.007551 0.552920
O O7 0.297426 0.781259 0.819088
O O8 0.500000 0.000000 0.000000
O O9 0.444099 0.397374 0.793380
O O10 0.575475 0.130057 0.862940
O O11 0.850408 0.446035 0.620908
#
# Coordination Sequence:
#
# PCOD9252735 Si02
#       5
#     4   4   4   4   4
#     4  11  26  46  75 106 143 200 247 304 377 429
#     4  12  26  44  70 111 144 194 241 304 373 430
#     4  11  25  45  70 105 141 186 250 294 373 438
#     4  11  25  47  71 102 144 192 243 301 368 439
#     4  11  25  49  71 107 151 188 254 302 363 451
#
# _framework density 23.008462000000002
#
# number of rings (size 3 to 8) (size 9 to 14) (size 15 to 20)
#    0.000    0.800    4.000    3.000    5.600    3.200 
#    0.000    0.000    0.000    0.000    0.000    0.000 
#    0.000    0.000    0.000    0.000    0.000    0.000 
#
# Total GULP energy -111937.113937 kJ/mol
# GULP energy per Si atom -5596.855697 kJ/mol
# Density = 2.295609 g / cm^3
# Si number density = 23.008462 Si / 1000 Ang^3
#
#
#
# Elastic Constant Matrix: (Units=GPa)
#
#
# Indices 1 2 3 4 5 6 
#
# 1 131.7568 49.7967 45.0149 0.0000 -39.0921 0.0000
# 2 49.7967 70.1554 52.1378 0.0000 -15.9677 0.0000
# 3 45.0149 52.1378 133.1983 0.0000 -14.0642 0.0000
# 4 0.0000 0.0000 0.0000 40.4376 0.0000 -0.3618
# 5 -39.0921 -15.9677 -14.0642 0.0000 46.4490 0.0000
# 6 0.0000 0.0000 0.0000 -0.3618 0.0000 56.1309
#
#
#
# Elastic Compliance Matrix: (Units=1/GPa)
#
#
# Indices 1 2 3 4 5 6 
#
# 1 0.012828 -0.006558 -0.000895 0.000000 0.008271 0.000000
# 2 -0.006558 0.024488 -0.007296 0.000000 0.000690 0.000000
# 3 -0.000895 -0.007296 0.010663 0.000000 -0.000033 0.000000
# 4 0.000000 0.000000 0.000000 0.024731 0.000000 0.000159
# 5 0.008271 0.000690 -0.000033 0.000000 0.028717 0.000000
# 6 0.000000 0.000000 0.000000 0.000159 0.000000 0.017817
#
#
# Mechanical properties :
#
#
# Convention : Reuss Voigt Hill
#
# Bulk Modulus (GPa) = 54.11090 69.88993 62.00042
# Shear Modulus (GPa) = 32.27854 41.14759 36.71306
#
# Velocity S-wave (km/s) = 3.74959 4.23350 3.99887
# Velocity P-wave (km/s) = 6.50498 7.37146 6.95173
#
# Compressibility (1/GPa) = 0.01848057
#
# Stress axis : x y z
#
# Youngs Moduli (GPa) = 77.95509 40.83585 93.78539
#
# Poissons Ratio (x) = 0.26779 0.08395
# Poissons Ratio (y) = 0.51120 0.68430
# Poissons Ratio (z) = 0.06978 0.29795
#
# Static dielectric constant tensor:
#      x y z
#    x 1.872770 0.000000 0.006000 
#    y 0.000000 1.925690 0.000000 
#    z 0.006000 0.000000 1.871980 
# 
# From -- ./inp_files/49961.got.cif
#   From: 2010.05.17/outbox.cif.g08.bks.cpg/sg14_25_cif.got.tgz:49961.got - 2010.06.03 17:49:19.
