data_PCOD9252020
_publ_section_title
;
Structure prediction by ZEFSAII (Michael W. Deem and Ramdas Pophale) SiO2 
 PCOD9252020
Probable space group: P 21/C
;
_chemical_formula_sum "Si O2"
_cell_formula_units_Z 24
_cell_length_a 17.462362
_cell_length_b 7.236217
_cell_length_c 15.043605
_cell_angle_alpha 90.000000
_cell_angle_beta 148.028115
_cell_angle_gamma 90.000000
_cell_volume 1006.549107
_symmetry_space_group_name_H-M "P 21/C"
_symmetry_group_IT_number 14
_symmetry_cell_setting 'monoclinic'
loop_
_space_group_symop_operation_xyz
x,y,z
-x,1/2+y,1/2-z
-x,-y,-z
x,1/2-y,1/2+z
loop_
_atom_site_type_symbol
_atom_site_label
_atom_site_fract_x
_atom_site_fract_y
_atom_site_fract_z
Si Si1 0.185741 0.733166 0.952907
Si Si2 0.076768 0.447610 0.228110
Si Si3 0.701084 0.614711 0.019260
Si Si4 0.600768 0.090587 0.702500
Si Si5 0.422953 0.157068 0.801278
Si Si6 0.708039 0.384918 0.681415
O O1 0.096057 0.903315 0.825412
O O2 0.084837 0.627910 0.924894
O O3 0.323944 0.817611 0.137708
O O4 0.225047 0.586661 0.914543
O O5 0.184349 0.275616 0.351109
O O6 0.136855 0.555926 0.202011
O O7 0.628901 0.624270 0.849935
O O8 0.569414 0.634843 0.958434
O O9 0.658403 0.970117 0.207633
O O10 0.609825 0.871162 0.712901
O O11 0.680919 0.186477 0.699361
O O12 0.591187 0.108792 0.985440
#
# Coordination Sequence:
#
# PCOD9252020 Si02
#       6
#     4   4   4   4   4   4
#     4  12  26  45  71 102 135 186 234 286 340 417
#     4  12  26  47  68  99 143 183 232 281 349 413
#     4  12  23  43  72 100 136 183 235 284 335 415
#     4  12  24  42  72 106 135 182 235 285 346 404
#     4  11  23  41  68 107 136 176 233 283 343 402
#     4  11  25  43  67 105 146 178 222 295 347 401
#
# _framework density 23.843844000000001
#
# number of rings (size 3 to 8) (size 9 to 14) (size 15 to 20)
#    0.000    0.333    5.000    5.500    0.000    2.000 
#    0.000    0.833    0.000    0.000    0.000    0.000 
#    0.000    0.000    0.000    0.000    0.000    0.000 
#
# Total GULP energy -134487.597320 kJ/mol
# GULP energy per Si atom -5603.649888 kJ/mol
# Density = 2.378957 g / cm^3
# Si number density = 23.843844 Si / 1000 Ang^3
#
#
#
# Elastic Constant Matrix: (Units=GPa)
#
#
# Indices 1 2 3 4 5 6 
#
# 1 87.9304 15.7067 18.1090 0.0000 19.6394 0.0000
# 2 15.7067 156.1652 38.9492 0.0000 13.6874 0.0000
# 3 18.1090 38.9492 69.8842 0.0000 19.0931 0.0000
# 4 0.0000 0.0000 0.0000 40.3310 0.0000 3.0915
# 5 19.6394 13.6874 19.0931 0.0000 42.0385 0.0000
# 6 0.0000 0.0000 0.0000 3.0915 0.0000 36.4956
#
#
#
# Elastic Compliance Matrix: (Units=1/GPa)
#
#
# Indices 1 2 3 4 5 6 
#
# 1 0.012948 -0.000424 -0.001717 0.000000 -0.005131 0.000000
# 2 -0.000424 0.007465 -0.003928 0.000000 -0.000448 0.000000
# 3 -0.001717 -0.003928 0.018695 0.000000 -0.006410 0.000000
# 4 0.000000 0.000000 0.000000 0.024957 0.000000 -0.002114
# 5 -0.005131 -0.000448 -0.006410 0.000000 0.029242 0.000000
# 6 0.000000 0.000000 0.000000 -0.002114 0.000000 0.027580
#
#
# Mechanical properties :
#
#
# Convention : Reuss Voigt Hill
#
# Bulk Modulus (GPa) = 37.07923 51.05663 44.06793
# Shear Modulus (GPa) = 35.20752 39.85402 37.53077
#
# Velocity S-wave (km/s) = 3.84681 4.09278 3.97170
# Velocity P-wave (km/s) = 5.94266 6.61770 6.28924
#
# Compressibility (1/GPa) = 0.02696928
#
# Stress axis : x y z
#
# Youngs Moduli (GPa) = 77.23165 133.95534 53.49070
#
# Poissons Ratio (x) = 0.05685 0.09183
# Poissons Ratio (y) = 0.03277 0.21012
# Poissons Ratio (z) = 0.13259 0.52620
#
# Static dielectric constant tensor:
#      x y z
#    x 1.945990 0.000000 -0.028230 
#    y 0.000000 1.878730 0.000000 
#    z -0.028230 0.000000 1.873020 
# 
# From -- ./inp_files/48666.got.cif
#   From: 2010.05.17/outbox.cif.g08.bks.cpg/sg14_25_cif.got.tgz:48666.got - 2010.06.03 17:49:19.
