data_PCOD9252793
_publ_section_title
;
Structure prediction by ZEFSAII (Michael W. Deem and Ramdas Pophale) SiO2 
 PCOD9252793
Probable space group: P 21/C
;
_chemical_formula_sum "Si O2"
_cell_formula_units_Z 20
_cell_length_a 15.338374
_cell_length_b 8.300957
_cell_length_c 10.198743
_cell_angle_alpha 90.000000
_cell_angle_beta 35.191397
_cell_angle_gamma 90.000000
_cell_volume 748.359025
_symmetry_space_group_name_H-M "P 21/C"
_symmetry_group_IT_number 14
_symmetry_cell_setting 'monoclinic'
loop_
_space_group_symop_operation_xyz
x,y,z
-x,1/2+y,1/2-z
-x,-y,-z
x,1/2-y,1/2+z
loop_
_atom_site_type_symbol
_atom_site_label
_atom_site_fract_x
_atom_site_fract_y
_atom_site_fract_z
Si Si1 0.211301 0.578976 0.722139
Si Si2 0.884483 0.271712 0.904751
Si Si3 0.292281 0.485851 0.054227
Si Si4 0.485042 0.271867 0.648921
Si Si5 0.823156 0.760445 0.116323
O O1 0.183830 0.629441 0.604338
O O2 0.390669 0.590169 0.529460
O O3 0.149730 0.405648 0.838693
O O4 0.142366 0.713191 0.907284
O O5 0.058341 0.273595 0.647561
O O6 0.794310 0.427821 0.959157
O O7 0.391102 0.333274 0.888578
O O8 0.412225 0.615267 0.959200
O O9 0.168961 0.418366 0.304870
O O10 0.350546 0.242076 0.715100
#
# Coordination Sequence:
#
# PCOD9252793 Si02
#       5
#     4   4   4   4   4
#     4  11  26  49  76 109 151 196 244 306 364 443
#     4  11  27  48  73 110 154 190 246 302 373 435
#     4  11  25  47  71 108 147 194 244 312 358 446
#     4  11  25  46  75 104 148 192 253 297 373 428
#     4  12  25  46  76 107 148 195 248 302 370 433
#
# _framework density 26.725141000000001
#
# number of rings (size 3 to 8) (size 9 to 14) (size 15 to 20)
#    0.000    0.800    2.000    3.600    8.400    3.200 
#   14.400    0.000    0.000    0.000    0.000    0.000 
#    0.000    0.000    0.000    0.000    0.000    0.000 
#
# Total GULP energy -112099.162348 kJ/mol
# GULP energy per Si atom -5604.958117 kJ/mol
# Density = 2.666431 g / cm^3
# Si number density = 26.725141 Si / 1000 Ang^3
#
#
#
# Elastic Constant Matrix: (Units=GPa)
#
#
# Indices 1 2 3 4 5 6 
#
# 1 100.5276 35.1043 32.8008 0.0000 -24.3958 0.0000
# 2 35.1043 110.7455 22.1824 0.0000 -3.5193 0.0000
# 3 32.8008 22.1824 109.9317 0.0000 -15.6277 0.0000
# 4 0.0000 0.0000 0.0000 41.5996 0.0000 3.0137
# 5 -24.3958 -3.5193 -15.6277 0.0000 35.9140 0.0000
# 6 0.0000 0.0000 0.0000 3.0137 0.0000 26.5053
#
#
#
# Elastic Compliance Matrix: (Units=1/GPa)
#
#
# Indices 1 2 3 4 5 6 
#
# 1 0.013954 -0.003712 -0.002258 0.000000 0.008132 0.000000
# 2 -0.003712 0.010398 -0.001284 0.000000 -0.002061 0.000000
# 3 -0.002258 -0.001284 0.010439 0.000000 0.002883 0.000000
# 4 0.000000 0.000000 0.000000 0.024238 0.000000 -0.002756
# 5 0.008132 -0.002061 0.002883 0.000000 0.034421 0.000000
# 6 0.000000 0.000000 0.000000 -0.002756 0.000000 0.038042
#
#
# Mechanical properties :
#
#
# Convention : Reuss Voigt Hill
#
# Bulk Modulus (GPa) = 49.30270 55.70889 52.50580
# Shear Modulus (GPa) = 32.73058 36.21160 34.47109
#
# Velocity S-wave (km/s) = 3.50338 3.68498 3.59533
# Velocity P-wave (km/s) = 5.90365 6.24466 6.07655
#
# Compressibility (1/GPa) = 0.02028286
#
# Stress axis : x y z
#
# Youngs Moduli (GPa) = 71.66207 96.17156 95.79285
#
# Poissons Ratio (x) = 0.35704 0.21634
# Poissons Ratio (y) = 0.26605 0.12295
# Poissons Ratio (z) = 0.16184 0.12344
#
# Static dielectric constant tensor:
#      x y z
#    x 2.095920 0.000000 0.021730 
#    y 0.000000 2.119440 0.000000 
#    z 0.021730 0.000000 2.034380 
# 
# From -- ./inp_files/27958.got.cif
#   From: 2010.05.17/outbox.cif.g08.bks.cpg/sg14_14_cif.got.tgz:27958.got - 2010.06.03 17:49:19.
