data_PCOD9252005
_publ_section_title
;
Structure prediction by ZEFSAII (Michael W. Deem and Ramdas Pophale) SiO2 
 PCOD9252005
Probable space group: P 21/C
;
_chemical_formula_sum "Si O2"
_cell_formula_units_Z 28
_cell_length_a 6.498916
_cell_length_b 12.683323
_cell_length_c 18.485742
_cell_angle_alpha 90.000000
_cell_angle_beta 65.656185
_cell_angle_gamma 90.000000
_cell_volume 1388.261699
_symmetry_space_group_name_H-M "P 21/C"
_symmetry_group_IT_number 14
_symmetry_cell_setting 'monoclinic'
loop_
_space_group_symop_operation_xyz
x,y,z
-x,1/2+y,1/2-z
-x,-y,-z
x,1/2-y,1/2+z
loop_
_atom_site_type_symbol
_atom_site_label
_atom_site_fract_x
_atom_site_fract_y
_atom_site_fract_z
Si Si1 0.720973 0.301465 0.308997
Si Si2 0.204642 0.208229 0.228385
Si Si3 0.625224 0.611848 0.147877
Si Si4 0.767693 0.886607 0.924014
Si Si5 0.988391 0.784175 0.495010
Si Si6 0.610016 0.130517 0.662823
Si Si7 0.734506 0.111796 0.959666
O O1 0.578454 0.193551 0.335049
O O2 0.670499 0.353514 0.238829
O O3 0.659840 0.370392 0.387437
O O4 0.984438 0.276160 0.277071
O O5 0.278404 0.141087 0.286929
O O6 0.147397 0.134827 0.168728
O O7 0.406360 0.288126 0.178087
O O8 0.550975 0.490857 0.156741
O O9 0.821661 0.637700 0.061508
O O10 0.844933 0.791067 0.963099
O O11 0.850678 0.997720 0.943680
O O12 0.495805 0.891694 0.961403
O O13 0.178309 0.839532 0.418502
O O14 0.111806 0.706434 0.534115
#
# Coordination Sequence:
#
# PCOD9252005 Si02
#       7
#     4   4   4   4   4   4   4
#     4  11  23  45  64  91 131 163 213 261 307 383
#     4  11  23  45  64  91 131 163 213 261 307 383
#     4  11  25  42  66  96 128 168 209 260 319 373
#     4  11  23  41  65  91 124 168 210 260 314 365
#     4  12  22  44  64  94 132 158 214 264 306 384
#     4  11  25  42  66  96 128 168 209 260 319 373
#     4  11  23  41  65  91 124 168 210 260 314 365
#
# _framework density 20.169104999999998
#
# number of rings (size 3 to 8) (size 9 to 14) (size 15 to 20)
#    0.000    0.857    5.714    1.714    0.000    2.286 
#    0.000    1.429    0.000    0.000    0.000    0.000 
#    0.000    0.000    0.000    0.000    0.000    0.000 
#
# Total GULP energy -156539.447767 kJ/mol
# GULP energy per Si atom -5590.694563 kJ/mol
# Density = 2.012320 g / cm^3
# Si number density = 20.169105 Si / 1000 Ang^3
#
#
#
# Elastic Constant Matrix: (Units=GPa)
#
#
# Indices 1 2 3 4 5 6 
#
# 1 35.0663 -0.4085 2.1113 0.0000 2.9866 0.0000
# 2 -0.4085 69.7328 16.9177 0.0000 -5.2608 0.0000
# 3 2.1113 16.9177 94.1988 0.0000 -3.5814 0.0000
# 4 0.0000 0.0000 0.0000 21.6495 0.0000 -1.5005
# 5 2.9866 -5.2608 -3.5814 0.0000 30.2351 0.0000
# 6 0.0000 0.0000 0.0000 -1.5005 0.0000 11.5703
#
#
#
# Elastic Compliance Matrix: (Units=1/GPa)
#
#
# Indices 1 2 3 4 5 6 
#
# 1 0.028814 0.000138 -0.000781 0.000000 -0.002915 0.000000
# 2 0.000138 0.015155 -0.002637 0.000000 0.002311 0.000000
# 3 -0.000781 -0.002637 0.011143 0.000000 0.000938 0.000000
# 4 0.000000 0.000000 0.000000 0.046609 0.000000 0.006045
# 5 -0.002915 0.002311 0.000938 0.000000 0.033875 0.000000
# 6 0.000000 0.000000 0.000000 0.006045 0.000000 0.087212
#
#
# Mechanical properties :
#
#
# Convention : Reuss Voigt Hill
#
# Bulk Modulus (GPa) = 20.59640 26.24877 23.42258
# Shear Modulus (GPa) = 20.36218 24.71615 22.53916
#
# Velocity S-wave (km/s) = 3.18082 3.50443 3.34654
# Velocity P-wave (km/s) = 4.87075 5.42378 5.15469
#
# Compressibility (1/GPa) = 0.04855218
#
# Stress axis : x y z
#
# Youngs Moduli (GPa) = 34.70492 65.98315 89.74533
#
# Poissons Ratio (x) = -0.00914 0.07014
# Poissons Ratio (y) = -0.00481 0.23667
# Poissons Ratio (z) = 0.02712 0.17400
#
# Static dielectric constant tensor:
#      x y z
#    x 1.687860 0.000000 0.005550 
#    y 0.000000 1.689500 0.000000 
#    z 0.005550 0.000000 1.702020 
# 
# From -- ./inp_files/61307.got.cif
#   From: 2010.05.17/outbox.cif.g08.bks.cpg/sg14_31_cif.got.tgz:61307.got - 2010.06.03 17:49:19.
