data_PCOD9252312
_publ_section_title
;
Structure prediction by ZEFSAII (Michael W. Deem and Ramdas Pophale) SiO2 
 PCOD9252312
Probable space group: P 21/C
;
_chemical_formula_sum "Si O2"
_cell_formula_units_Z 32
_cell_length_a 8.674772
_cell_length_b 19.939673
_cell_length_c 13.525974
_cell_angle_alpha 90.000000
_cell_angle_beta 33.375695
_cell_angle_gamma 90.000000
_cell_volume 1287.085066
_symmetry_space_group_name_H-M "P 21/C"
_symmetry_group_IT_number 14
_symmetry_cell_setting 'monoclinic'
loop_
_space_group_symop_operation_xyz
x,y,z
-x,1/2+y,1/2-z
-x,-y,-z
x,1/2-y,1/2+z
loop_
_atom_site_type_symbol
_atom_site_label
_atom_site_fract_x
_atom_site_fract_y
_atom_site_fract_z
Si Si1 0.909826 0.369726 0.014299
Si Si2 0.571529 0.283215 0.355836
Si Si3 0.000548 0.134998 0.883244
Si Si4 0.320660 0.553634 0.154512
Si Si5 0.974643 0.724489 0.234903
Si Si6 0.574622 0.954467 0.238855
Si Si7 0.767010 0.502288 0.424481
Si Si8 0.480148 0.346597 0.808469
O O1 0.733470 0.336431 0.200162
O O2 0.751236 0.438767 0.074812
O O3 0.918740 0.321880 0.912877
O O4 0.222441 0.378758 0.888174
O O5 0.799570 0.242787 0.300407
O O6 0.425964 0.231108 0.358392
O O7 0.315235 0.304751 0.564276
O O8 0.075905 0.201905 0.784822
O O9 0.895647 0.072497 0.871526
O O10 0.268429 0.109048 0.799248
O O11 0.754986 0.149386 0.093444
O O12 0.294805 0.517376 0.274263
O O13 0.473304 0.619960 0.108288
O O14 0.021163 0.552926 0.263555
O O15 0.500000 0.500000 0.000000
O O16 0.650865 0.968252 0.087568
O O17 0.500000 0.500000 0.500000
#
# Coordination Sequence:
#
# PCOD9252312 Si02
#       8
#     4   4   4   4   4   4   4   4
#     4  12  29  46  73 108 144 195 242 302 361 434
#     4  12  28  46  71 106 143 189 241 303 362 428
#     4  11  23  48  75  98 146 195 236 301 367 425
#     4  11  26  46  72 104 143 192 237 295 363 429
#     4  12  27  47  73 105 145 190 248 297 365 431
#     4  11  25  48  72 103 146 187 240 295 363 426
#     4  11  25  45  73 109 142 189 243 297 360 432
#     4  12  25  49  71 101 150 188 240 302 362 429
#
# _framework density 24.862382
#
# number of rings (size 3 to 8) (size 9 to 14) (size 15 to 20)
#    0.000    0.500    5.000    2.250   12.250    1.500 
#    0.000    0.000    0.000    0.000    0.000    0.000 
#    0.000    0.000    0.000    0.000    0.000    0.000 
#
# Total GULP energy -179182.706426 kJ/mol
# GULP energy per Si atom -5599.459576 kJ/mol
# Density = 2.480579 g / cm^3
# Si number density = 24.862382 Si / 1000 Ang^3
#
#
#
# Elastic Constant Matrix: (Units=GPa)
#
#
# Indices 1 2 3 4 5 6 
#
# 1 109.8933 0.9422 20.8135 0.0000 -11.8069 0.0000
# 2 0.9422 57.4097 -11.0362 0.0000 10.8802 0.0000
# 3 20.8135 -11.0362 104.9336 0.0000 8.7333 0.0000
# 4 0.0000 0.0000 0.0000 24.8244 0.0000 -3.6858
# 5 -11.8069 10.8802 8.7333 0.0000 41.3952 0.0000
# 6 0.0000 0.0000 0.0000 -3.6858 0.0000 31.6617
#
#
#
# Elastic Compliance Matrix: (Units=1/GPa)
#
#
# Indices 1 2 3 4 5 6 
#
# 1 0.009969 -0.001332 -0.002426 0.000000 0.003705 0.000000
# 2 -0.001332 0.019108 0.002772 0.000000 -0.005987 0.000000
# 3 -0.002426 0.002772 0.010607 0.000000 -0.003658 0.000000
# 4 0.000000 0.000000 0.000000 0.040991 0.000000 0.004772
# 5 0.003705 -0.005987 -0.003658 0.000000 0.027560 0.000000
# 6 0.000000 0.000000 0.000000 0.004772 0.000000 0.032139
#
#
# Mechanical properties :
#
#
# Convention : Reuss Voigt Hill
#
# Bulk Modulus (GPa) = 26.51651 32.63063 29.57357
# Shear Modulus (GPa) = 32.27546 37.01073 34.64309
#
# Velocity S-wave (km/s) = 3.60691 3.86245 3.73687
# Velocity P-wave (km/s) = 5.29480 5.74843 5.52627
#
# Compressibility (1/GPa) = 0.03771236
#
# Stress axis : x y z
#
# Youngs Moduli (GPa) = 100.31428 52.33382 94.27732
#
# Poissons Ratio (x) = 0.06972 0.22869
# Poissons Ratio (y) = 0.13363 -0.26135
# Poissons Ratio (z) = 0.24334 -0.14508
#
# Static dielectric constant tensor:
#      x y z
#    x 2.007080 0.000000 -0.042200 
#    y 0.000000 2.042470 0.000000 
#    z -0.042200 0.000000 1.866850 
# 
# From -- ./inp_files/42183.got.cif
#   From: 2010.05.17/outbox.cif.g08.bks.cpg/sg14_22_cif.got.tgz:42183.got - 2010.06.03 17:49:19.
