data_PCOD9252763
_publ_section_title
;
Structure prediction by ZEFSAII (Michael W. Deem and Ramdas Pophale) SiO2 
 PCOD9252763
Probable space group: P 21/C
;
_chemical_formula_sum "Si O2"
_cell_formula_units_Z 16
_cell_length_a 9.124383
_cell_length_b 5.008369
_cell_length_c 17.321319
_cell_angle_alpha 90.000000
_cell_angle_beta 131.459254
_cell_angle_gamma 90.000000
_cell_volume 593.212070
_symmetry_space_group_name_H-M "P 21/C"
_symmetry_group_IT_number 14
_symmetry_cell_setting 'monoclinic'
loop_
_space_group_symop_operation_xyz
x,y,z
-x,1/2+y,1/2-z
-x,-y,-z
x,1/2-y,1/2+z
loop_
_atom_site_type_symbol
_atom_site_label
_atom_site_fract_x
_atom_site_fract_y
_atom_site_fract_z
Si Si1 0.483266 0.872636 0.873992
Si Si2 0.743041 0.245002 0.858783
Si Si3 0.852677 0.889954 0.524095
Si Si4 0.904938 0.268751 0.681070
O O1 0.382538 0.744564 0.762345
O O2 0.297979 0.905913 0.864408
O O3 0.614863 0.102415 0.879801
O O4 0.644168 0.714516 0.979002
O O5 0.969101 0.180248 0.916792
O O6 0.794546 0.530139 0.916168
O O7 0.908253 0.137042 0.597908
O O8 0.059030 0.500267 0.755089
#
# Coordination Sequence:
#
# PCOD9252763 Si02
#       4
#     4   4   4   4
#     4  12  25  48  81 115 161 213 273 336 413 486
#     4  11  25  45  78 116 157 206 279 334 405 488
#     4  11  26  48  77 116 158 217 268 342 409 484
#     4  12  30  51  80 118 171 217 271 336 412 495
#
# _framework density 26.971800999999999
#
# number of rings (size 3 to 8) (size 9 to 14) (size 15 to 20)
#    0.000    0.500    5.000    1.500    7.000    5.000 
#    0.000    0.000    0.000    0.000    0.000    0.000 
#    0.000    0.000    0.000    0.000    0.000    0.000 
#
# Total GULP energy -89339.486503 kJ/mol
# GULP energy per Si atom -5583.717906 kJ/mol
# Density = 2.691041 g / cm^3
# Si number density = 26.971801 Si / 1000 Ang^3
#
#
#
# Elastic Constant Matrix: (Units=GPa)
#
#
# Indices 1 2 3 4 5 6 
#
# 1 148.0929 45.5887 64.8431 0.0000 9.8454 0.0000
# 2 45.5887 107.5915 68.9571 0.0000 -2.3602 0.0000
# 3 64.8431 68.9571 170.8823 0.0000 22.4740 0.0000
# 4 0.0000 0.0000 0.0000 51.0825 0.0000 -12.3458
# 5 9.8454 -2.3602 22.4740 0.0000 58.6425 0.0000
# 6 0.0000 0.0000 0.0000 -12.3458 0.0000 45.4948
#
#
#
# Elastic Compliance Matrix: (Units=1/GPa)
#
#
# Indices 1 2 3 4 5 6 
#
# 1 0.008443 -0.002147 -0.002253 0.000000 -0.000640 0.000000
# 2 -0.002147 0.013463 -0.004988 0.000000 0.002814 0.000000
# 3 -0.002253 -0.004988 0.009158 0.000000 -0.003332 0.000000
# 4 0.000000 0.000000 0.000000 0.020950 0.000000 0.005685
# 5 -0.000640 0.002814 -0.003332 0.000000 0.018550 0.000000
# 6 0.000000 0.000000 0.000000 0.005685 0.000000 0.023523
#
#
# Mechanical properties :
#
#
# Convention : Reuss Voigt Hill
#
# Bulk Modulus (GPa) = 81.38754 87.26049 84.32402
# Shear Modulus (GPa) = 42.74987 47.52248 45.13617
#
# Velocity S-wave (km/s) = 3.98550 4.20209 4.09523
# Velocity P-wave (km/s) = 7.17074 7.48105 7.32754
#
# Compressibility (1/GPa) = 0.01228689
#
# Stress axis : x y z
#
# Youngs Moduli (GPa) = 118.44724 74.27784 109.19522
#
# Poissons Ratio (x) = 0.15951 0.24600
# Poissons Ratio (y) = 0.25436 0.54466
# Poissons Ratio (z) = 0.26684 0.37050
#
# Static dielectric constant tensor:
#      x y z
#    x 2.269330 0.000000 0.014080 
#    y 0.000000 2.195870 0.000000 
#    z 0.014080 0.000000 2.069640 
# 
# From -- ./inp_files/38370.got.cif
#   From: 2010.05.17/outbox.cif.g08.bks.cpg/sg14_20_cif.got.tgz:38370.got - 2010.06.03 17:49:19.
