data_PCOD9252400
_publ_section_title
;
Structure prediction by ZEFSAII (Michael W. Deem and Ramdas Pophale) SiO2 
 PCOD9252400
Probable space group: P 21/C
;
_chemical_formula_sum "Si O2"
_cell_formula_units_Z 32
_cell_length_a 20.027966
_cell_length_b 6.209687
_cell_length_c 24.400417
_cell_angle_alpha 90.000000
_cell_angle_beta 150.117971
_cell_angle_gamma 90.000000
_cell_volume 1511.893881
_symmetry_space_group_name_H-M "P 21/C"
_symmetry_group_IT_number 14
_symmetry_cell_setting 'monoclinic'
loop_
_space_group_symop_operation_xyz
x,y,z
-x,1/2+y,1/2-z
-x,-y,-z
x,1/2-y,1/2+z
loop_
_atom_site_type_symbol
_atom_site_label
_atom_site_fract_x
_atom_site_fract_y
_atom_site_fract_z
Si Si1 0.232637 0.756064 0.917949
Si Si2 0.840317 0.388218 0.014680
Si Si3 0.405069 0.407127 0.979609
Si Si4 0.510215 0.517381 0.399238
Si Si5 0.552939 0.517355 0.772024
Si Si6 0.024427 0.097432 0.077368
Si Si7 0.917005 0.285595 0.797055
Si Si8 0.732070 0.856630 0.207399
O O1 0.184545 0.732533 0.945649
O O2 0.330927 0.565936 0.968057
O O3 0.115082 0.751344 0.789629
O O4 0.333255 0.957020 0.985728
O O5 0.895604 0.230202 0.006873
O O6 0.957729 0.557299 0.108428
O O7 0.704686 0.504909 0.900748
O O8 0.291099 0.281583 0.863826
O O9 0.500000 0.500000 0.000000
O O10 0.496857 0.254759 0.081757
O O11 0.462747 0.491904 0.304068
O O12 0.411605 0.376941 0.366421
O O13 0.501744 0.767875 0.750035
O O14 0.155659 0.250234 0.173929
O O15 0.053316 0.917958 0.144036
O O16 0.000000 0.000000 0.000000
O O17 0.787994 0.410954 0.729507
#
# Coordination Sequence:
#
# PCOD9252400 Si02
#       8
#     4   4   4   4   4   4   4   4
#     4  12  24  47  72 108 146 194 249 314 397 464
#     4  11  29  47  71 109 146 196 256 315 390 468
#     4  12  23  40  69 106 148 188 249 313 390 467
#     4  12  26  42  76 105 153 189 253 324 387 464
#     4  12  29  53  77 113 156 205 263 318 400 472
#     4  11  28  48  72 101 145 201 258 311 388 471
#     4  11  26  45  72 102 147 190 244 316 382 463
#     4  11  24  43  67 108 137 193 243 309 388 455
#
# _framework density 21.165507000000002
#
# number of rings (size 3 to 8) (size 9 to 14) (size 15 to 20)
#    0.000    0.500    5.000    1.875    7.000    2.000 
#    0.000    0.000    0.000    0.000    0.000    0.000 
#    0.000    0.000    0.000    0.000    0.000    0.000 
#
# Total GULP energy -178639.930785 kJ/mol
# GULP energy per Si atom -5582.497837 kJ/mol
# Density = 2.111733 g / cm^3
# Si number density = 21.165507 Si / 1000 Ang^3
#
#
#
# Elastic Constant Matrix: (Units=GPa)
#
#
# Indices 1 2 3 4 5 6 
#
# 1 79.3130 18.9582 14.7759 0.0000 0.2467 0.0000
# 2 18.9582 46.7559 -16.0232 0.0000 12.3776 0.0000
# 3 14.7759 -16.0232 63.0903 0.0000 -0.6499 0.0000
# 4 0.0000 0.0000 0.0000 25.8910 0.0000 -11.4416
# 5 0.2467 12.3776 -0.6499 0.0000 34.5019 0.0000
# 6 0.0000 0.0000 0.0000 -11.4416 0.0000 18.8207
#
#
#
# Elastic Compliance Matrix: (Units=1/GPa)
#
#
# Indices 1 2 3 4 5 6 
#
# 1 0.015982 -0.009403 -0.006099 0.000000 0.003144 0.000000
# 2 -0.009403 0.031599 0.010113 0.000000 -0.011078 0.000000
# 3 -0.006099 0.010113 0.019814 0.000000 -0.003211 0.000000
# 4 0.000000 0.000000 0.000000 0.052811 0.000000 0.032105
# 5 0.003144 -0.011078 -0.003211 0.000000 0.032875 0.000000
# 6 0.000000 0.000000 0.000000 0.032105 0.000000 0.072651
#
#
# Mechanical properties :
#
#
# Convention : Reuss Voigt Hill
#
# Bulk Modulus (GPa) = 17.66203 24.95345 21.30774
# Shear Modulus (GPa) = 19.57856 27.27260 23.42558
#
# Velocity S-wave (km/s) = 3.04472 3.59352 3.33044
# Velocity P-wave (km/s) = 4.55228 5.38824 4.98780
#
# Compressibility (1/GPa) = 0.05661865
#
# Stress axis : x y z
#
# Youngs Moduli (GPa) = 62.56966 31.64682 50.46935
#
# Poissons Ratio (x) = 0.29756 0.30780
# Poissons Ratio (y) = 0.58832 -0.51041
# Poissons Ratio (z) = 0.38159 -0.32005
#
# Static dielectric constant tensor:
#      x y z
#    x 1.737230 0.000000 0.032120 
#    y 0.000000 1.645340 0.000000 
#    z 0.032120 0.000000 1.783010 
# 
# From -- ./inp_files/74554.got.cif
#   From: 2010.05.17/outbox.cif.g08.bks.cpg/sg14_38_cif.got.tgz:74554.got - 2010.06.03 17:49:19.
