data_PCOD9252898
_publ_section_title
;
Structure prediction by ZEFSAII (Michael W. Deem and Ramdas Pophale) SiO2 
 PCOD9252898
Probable space group: P 21/C
;
_chemical_formula_sum "Si O2"
_cell_formula_units_Z 24
_cell_length_a 24.571604
_cell_length_b 4.754698
_cell_length_c 24.273733
_cell_angle_alpha 90.000000
_cell_angle_beta 20.129736
_cell_angle_gamma 90.000000
_cell_volume 975.971288
_symmetry_space_group_name_H-M "P 21/C"
_symmetry_group_IT_number 14
_symmetry_cell_setting 'monoclinic'
loop_
_space_group_symop_operation_xyz
x,y,z
-x,1/2+y,1/2-z
-x,-y,-z
x,1/2-y,1/2+z
loop_
_atom_site_type_symbol
_atom_site_label
_atom_site_fract_x
_atom_site_fract_y
_atom_site_fract_z
Si Si1 0.605516 0.525041 0.656033
Si Si2 0.607589 0.231681 0.828132
Si Si3 0.267778 0.271783 0.346872
Si Si4 0.916160 0.692915 0.303577
Si Si5 0.921774 0.507047 0.680910
Si Si6 0.731144 0.998536 0.825886
O O1 0.551566 0.204154 0.707117
O O2 0.672908 0.625253 0.650377
O O3 0.740466 0.588012 0.483357
O O4 0.628180 0.559745 0.797080
O O5 0.683389 0.138658 0.813649
O O6 0.701833 0.055434 0.692261
O O7 0.425226 0.144198 0.000800
O O8 0.088843 0.368541 0.507991
O O9 0.931638 0.837969 0.230095
O O10 0.031877 0.428529 0.201420
O O11 0.799023 0.249565 0.798438
O O12 0.860180 0.749911 0.698389
#
# Coordination Sequence:
#
# PCOD9252898 Si02
#       6
#     4   4   4   4   4   4
#     4  12  28  46  70 105 138 181 232 278 342 405
#     4  11  26  47  72  98 144 176 229 290 340 404
#     4  12  26  46  69 105 137 181 227 288 338 405
#     4  12  26  48  70 100 143 182 221 284 340 409
#     4  12  26  44  73 103 137 182 231 275 347 408
#     4  11  26  47  70 105 133 184 230 280 349 409
#
# _framework density 24.590886999999999
#
# number of rings (size 3 to 8) (size 9 to 14) (size 15 to 20)
#    0.000    0.333    1.667    6.000    9.333    6.667 
#    0.000    0.000    0.000    0.000    0.000    0.000 
#    0.000    0.000    0.000    0.000    0.000    0.000 
#
# Total GULP energy -134729.810151 kJ/mol
# GULP energy per Si atom -5613.742090 kJ/mol
# Density = 2.453492 g / cm^3
# Si number density = 24.590887 Si / 1000 Ang^3
#
#
#
# Elastic Constant Matrix: (Units=GPa)
#
#
# Indices 1 2 3 4 5 6 
#
# 1 52.2028 10.6314 17.8856 0.0000 -12.4252 0.0000
# 2 10.6314 100.5461 11.3805 0.0000 -13.7367 0.0000
# 3 17.8856 11.3805 82.9048 0.0000 -12.2025 0.0000
# 4 0.0000 0.0000 0.0000 -21.5617 0.0000 29.6250
# 5 -12.4252 -13.7367 -12.2025 0.0000 29.9005 0.0000
# 6 0.0000 0.0000 0.0000 29.6250 0.0000 31.7776
#
#
#
# Elastic Compliance Matrix: (Units=1/GPa)
#
#
# Indices 1 2 3 4 5 6 
#
# 1 0.022339 -0.000946 -0.003604 0.000000 0.007378 0.000000
# 2 -0.000946 0.010700 -0.000637 0.000000 0.004263 0.000000
# 3 -0.003604 -0.000637 0.013473 0.000000 0.003708 0.000000
# 4 0.000000 0.000000 0.000000 -0.020333 0.000000 0.018956
# 5 0.007378 0.004263 0.003708 0.000000 0.039982 0.000000
# 6 0.000000 0.000000 0.000000 0.018956 0.000000 0.013797
#
#
# Mechanical properties :
#
#
# Convention : Reuss Voigt Hill
#
# Bulk Modulus (GPa) = 27.67163 35.04986 31.36074
# Shear Modulus (GPa) = 48.83876 21.07369 34.95623
#
# Velocity S-wave (km/s) = 4.46135 2.93058 3.77438
# Velocity P-wave (km/s) = 6.14942 5.07299 5.63696
#
# Compressibility (1/GPa) = 0.03613810
#
# Stress axis : x y z
#
# Youngs Moduli (GPa) = 44.76376 93.45597 74.22409
#
# Poissons Ratio (x) = 0.08843 0.26747
# Poissons Ratio (y) = 0.04236 0.04730
# Poissons Ratio (z) = 0.16131 0.05956
#
# Static dielectric constant tensor:
#      x y z
#    x 1.954110 0.000000 0.003260 
#    y 0.000000 1.870510 0.000000 
#    z 0.003260 0.000000 1.912010 
# 
# From -- ./inp_files/74777.got.cif
#   From: 2010.05.17/outbox.cif.g08.bks.cpg/sg14_38_cif.got.tgz:74777.got - 2010.06.03 17:49:19.
