data_PCOD9252288
_publ_section_title
;
Structure prediction by ZEFSAII (Michael W. Deem and Ramdas Pophale) SiO2 
 PCOD9252288
Probable space group: P 21/C
;
_chemical_formula_sum "Si O2"
_cell_formula_units_Z 20
_cell_length_a 7.564644
_cell_length_b 8.799869
_cell_length_c 16.534066
_cell_angle_alpha 90.000000
_cell_angle_beta 130.690120
_cell_angle_gamma 90.000000
_cell_volume 834.554952
_symmetry_space_group_name_H-M "P 21/C"
_symmetry_group_IT_number 14
_symmetry_cell_setting 'monoclinic'
loop_
_space_group_symop_operation_xyz
x,y,z
-x,1/2+y,1/2-z
-x,-y,-z
x,1/2-y,1/2+z
loop_
_atom_site_type_symbol
_atom_site_label
_atom_site_fract_x
_atom_site_fract_y
_atom_site_fract_z
Si Si1 0.852359 0.442205 0.666050
Si Si2 0.764487 0.709655 0.318634
Si Si3 0.011529 0.993454 0.615997
Si Si4 0.679653 0.958224 0.956470
Si Si5 0.705609 0.312328 0.914133
O O1 0.989044 0.481058 0.788273
O O2 0.587900 0.403454 0.612797
O O3 0.808957 0.564391 0.580985
O O4 0.010887 0.318834 0.669643
O O5 0.776354 0.888129 0.339355
O O6 0.778953 0.620052 0.406595
O O7 0.539934 0.660175 0.202115
O O8 0.785272 0.069319 0.507440
O O9 0.095897 0.842213 0.595014
O O10 0.684173 0.140121 0.940624
#
# Coordination Sequence:
#
# PCOD9252288 Si02
#       5
#     4   4   4   4   4
#     4  11  24  43  70 103 137 183 239 275 340 434
#     4  12  23  46  73 101 139 188 227 287 354 411
#     4  11  25  45  70 107 141 178 236 292 348 414
#     4  11  24  47  72  99 141 188 232 282 350 421
#     4  11  23  47  70 101 145 177 228 294 351 408
#
# _framework density 23.964867999999999
#
# number of rings (size 3 to 8) (size 9 to 14) (size 15 to 20)
#    0.000    0.800    6.000    0.600    0.000    2.400 
#    7.200    0.000    0.000    0.000    0.000    0.000 
#    0.000    0.000    0.000    0.000    0.000    0.000 
#
# Total GULP energy -111761.922945 kJ/mol
# GULP energy per Si atom -5588.096147 kJ/mol
# Density = 2.391032 g / cm^3
# Si number density = 23.964868 Si / 1000 Ang^3
#
#
#
# Elastic Constant Matrix: (Units=GPa)
#
#
# Indices 1 2 3 4 5 6 
#
# 1 102.1226 50.3723 39.4626 0.0000 -14.5177 0.0000
# 2 50.3723 50.9515 19.0726 0.0000 -2.7970 0.0000
# 3 39.4626 19.0726 199.4648 0.0000 -18.8093 0.0000
# 4 0.0000 0.0000 0.0000 22.9337 0.0000 -4.1418
# 5 -14.5177 -2.7970 -18.8093 0.0000 54.1564 0.0000
# 6 0.0000 0.0000 0.0000 -4.1418 0.0000 8.4919
#
#
#
# Elastic Compliance Matrix: (Units=1/GPa)
#
#
# Indices 1 2 3 4 5 6 
#
# 1 0.020720 -0.019574 -0.001860 0.000000 0.003897 0.000000
# 2 -0.019574 0.038855 -0.000153 0.000000 -0.003294 0.000000
# 3 -0.001860 -0.000153 0.005529 0.000000 0.001414 0.000000
# 4 0.000000 0.000000 0.000000 0.047816 0.000000 0.023321
# 5 0.003897 -0.003294 0.001414 0.000000 0.019831 0.000000
# 6 0.000000 0.000000 0.000000 0.023321 0.000000 0.129134
#
#
# Mechanical properties :
#
#
# Convention : Reuss Voigt Hill
#
# Bulk Modulus (GPa) = 45.60162 63.37263 54.48713
# Shear Modulus (GPa) = 16.00666 33.35848 24.68257
#
# Velocity S-wave (km/s) = 2.58722 3.73496 3.21276
# Velocity P-wave (km/s) = 5.29101 6.71575 6.04550
#
# Compressibility (1/GPa) = 0.02192904
#
# Stress axis : x y z
#
# Youngs Moduli (GPa) = 48.26236 25.73684 180.85128
#
# Poissons Ratio (x) = 0.50378 0.33640
# Poissons Ratio (y) = 0.94470 0.02771
# Poissons Ratio (z) = 0.08977 0.00394
#
# Static dielectric constant tensor:
#      x y z
#    x 1.884340 0.000000 -0.000270 
#    y 0.000000 1.928150 0.000000 
#    z -0.000270 0.000000 1.974600 
# 
# From -- ./inp_files/54969.got.cif
#   From: 2010.05.17/outbox.cif.g08.bks.cpg/sg14_28_cif.got.tgz:54969.got - 2010.06.03 17:49:19.
