data_PCOD9252566
_publ_section_title
;
Structure prediction by ZEFSAII (Michael W. Deem and Ramdas Pophale) SiO2 
 PCOD9252566
Probable space group: P 21/C
;
_chemical_formula_sum "Si O2"
_cell_formula_units_Z 28
_cell_length_a 8.728672
_cell_length_b 14.980550
_cell_length_c 13.966972
_cell_angle_alpha 90.000000
_cell_angle_beta 140.108726
_cell_angle_gamma 90.000000
_cell_volume 1171.282455
_symmetry_space_group_name_H-M "P 21/C"
_symmetry_group_IT_number 14
_symmetry_cell_setting 'monoclinic'
loop_
_space_group_symop_operation_xyz
x,y,z
-x,1/2+y,1/2-z
-x,-y,-z
x,1/2-y,1/2+z
loop_
_atom_site_type_symbol
_atom_site_label
_atom_site_fract_x
_atom_site_fract_y
_atom_site_fract_z
Si Si1 0.144283 0.529619 0.849401
Si Si2 0.628793 0.783466 0.271108
Si Si3 0.658362 0.432115 0.256344
Si Si4 0.628160 0.094970 0.344200
Si Si5 0.036187 0.291279 0.431500
Si Si6 0.346619 0.365115 0.424105
Si Si7 0.156199 0.621663 0.249946
O O1 0.322363 0.554881 0.848900
O O2 0.882457 0.571046 0.700624
O O3 0.083227 0.424492 0.826002
O O4 0.238363 0.567472 0.994615
O O5 0.533614 0.863794 0.291904
O O6 0.462687 0.696217 0.198659
O O7 0.887248 0.759082 0.436412
O O8 0.638398 0.810777 0.166198
O O9 0.597859 0.527952 0.270670
O O10 0.904461 0.381797 0.396476
O O11 0.787826 0.079852 0.327148
O O12 0.272327 0.310410 0.483045
O O13 0.880250 0.226807 0.288293
O O14 0.613693 0.397917 0.574392
#
# Coordination Sequence:
#
# PCOD9252566 Si02
#       7
#     4   4   4   4   4   4   4
#     4  11  26  45  75 105 143 191 241 295 367 427
#     4  12  26  46  72 105 147 187 240 300 363 422
#     4  11  26  47  70 109 145 182 252 293 355 430
#     4  12  25  44  77 106 145 194 240 298 359 430
#     4  11  24  46  71 100 146 189 238 298 356 431
#     4  11  26  44  70 103 146 186 237 299 360 428
#     4  12  24  48  72 107 142 193 241 297 363 429
#
# _framework density 23.905422000000002
#
# number of rings (size 3 to 8) (size 9 to 14) (size 15 to 20)
#    0.000    0.571    2.857    3.857    8.000    0.571 
#    0.000    0.000    0.000    0.000    0.000    0.000 
#    0.000    0.000    0.000    0.000    0.000    0.000 
#
# Total GULP energy -156696.730357 kJ/mol
# GULP energy per Si atom -5596.311798 kJ/mol
# Density = 2.385101 g / cm^3
# Si number density = 23.905422 Si / 1000 Ang^3
#
#
#
# Elastic Constant Matrix: (Units=GPa)
#
#
# Indices 1 2 3 4 5 6 
#
# 1 84.4301 24.8131 9.3077 0.0000 -4.9206 0.0000
# 2 24.8131 72.0930 1.6428 0.0000 4.4698 0.0000
# 3 9.3077 1.6428 94.2578 0.0000 -2.7703 0.0000
# 4 0.0000 0.0000 0.0000 34.2456 0.0000 12.0433
# 5 -4.9206 4.4698 -2.7703 0.0000 29.1992 0.0000
# 6 0.0000 0.0000 0.0000 12.0433 0.0000 25.1501
#
#
#
# Elastic Compliance Matrix: (Units=1/GPa)
#
#
# Indices 1 2 3 4 5 6 
#
# 1 0.013560 -0.004821 -0.001169 0.000000 0.002912 0.000000
# 2 -0.004821 0.015727 0.000108 0.000000 -0.003210 0.000000
# 3 -0.001169 0.000108 0.010746 0.000000 0.000806 0.000000
# 4 0.000000 0.000000 0.000000 0.035114 0.000000 -0.016815
# 5 0.002912 -0.003210 0.000806 0.000000 0.035306 0.000000
# 6 0.000000 0.000000 0.000000 -0.016815 0.000000 0.047813
#
#
# Mechanical properties :
#
#
# Convention : Reuss Voigt Hill
#
# Bulk Modulus (GPa) = 35.37620 35.81203 35.59412
# Shear Modulus (GPa) = 27.86233 32.05346 29.95789
#
# Velocity S-wave (km/s) = 3.41768 3.66573 3.54387
# Velocity P-wave (km/s) = 5.51403 5.73846 5.62737
#
# Compressibility (1/GPa) = 0.02826759
#
# Stress axis : x y z
#
# Youngs Moduli (GPa) = 73.74875 63.58580 93.05371
#
# Poissons Ratio (x) = 0.30654 0.10881
# Poissons Ratio (y) = 0.35553 -0.01001
# Poissons Ratio (z) = 0.08624 -0.00684
#
# Static dielectric constant tensor:
#      x y z
#    x 1.872060 0.000000 0.050590 
#    y 0.000000 1.939960 0.000000 
#    z 0.050590 0.000000 1.917490 
# 
# From -- ./inp_files/41406.got.cif
#   From: 2010.05.17/outbox.cif.g08.bks.cpg/sg14_21_cif.got.tgz:41406.got - 2010.06.03 17:49:19.
