data_PCOD9252371
_publ_section_title
;
Structure prediction by ZEFSAII (Michael W. Deem and Ramdas Pophale) SiO2 
 PCOD9252371
Probable space group: P 21/C
;
_chemical_formula_sum "Si O2"
_cell_formula_units_Z 26
_cell_length_a 20.248277
_cell_length_b 7.881149
_cell_length_c 8.710045
_cell_angle_alpha 90.000000
_cell_angle_beta 44.567095
_cell_angle_gamma 90.000000
_cell_volume 975.386479
_symmetry_space_group_name_H-M "P 21/C"
_symmetry_group_IT_number 14
_symmetry_cell_setting 'monoclinic'
loop_
_space_group_symop_operation_xyz
x,y,z
-x,1/2+y,1/2-z
-x,-y,-z
x,1/2-y,1/2+z
loop_
_atom_site_type_symbol
_atom_site_label
_atom_site_fract_x
_atom_site_fract_y
_atom_site_fract_z
Si Si1 0.151808 0.735983 0.332945
Si Si2 0.536719 0.225043 0.405961
Si Si3 0.732201 0.088575 0.092520
Si Si4 0.108314 0.404402 0.034560
Si Si5 0.000000 0.500000 0.500000
Si Si6 0.225074 0.280066 0.109565
Si Si7 0.418845 0.074041 0.339621
O O1 0.186962 0.626001 0.417900
O O2 0.086236 0.627970 0.330148
O O3 0.108570 0.918763 0.445661
O O4 0.245196 0.785557 0.085146
O O5 0.630273 0.142052 0.320754
O O6 0.490546 0.099719 0.360060
O O7 0.568301 0.396069 0.265540
O O8 0.457259 0.286116 0.654414
O O9 0.741775 0.903370 0.003133
O O10 0.130514 0.252517 0.872391
O O11 0.020000 0.402526 0.294620
O O12 0.196873 0.380265 0.002789
O O13 0.310841 0.372893 0.051264
#
# Coordination Sequence:
#
# PCOD9252371 Si02
#       7
#     4   4   4   4   2   4   4
#     4  11  25  48  73 107 146 192 249 311 387 454
#     4  11  24  42  69 106 151 198 252 303 367 440
#     4  11  24  44  73 107 147 199 247 309 379 452
#     4  11  27  48  75 111 148 196 249 316 378 459
#     4  12  28  48  80 106 144 194 250 320 384 458
#     4  11  26  44  73 110 152 199 253 307 383 444
#     4  11  24  42  67 106 153 198 249 310 361 446
#
# _framework density 26.656101
#
# number of rings (size 3 to 8) (size 9 to 14) (size 15 to 20)
#    0.000    0.923    1.538    3.692    4.308    9.846 
#    0.000    3.077    0.000    0.000    0.000    0.000 
#    0.000    0.000    0.000    0.000    0.000    0.000 
#
# Total GULP energy -145368.703233 kJ/mol
# GULP energy per Si atom -5591.103971 kJ/mol
# Density = 2.659543 g / cm^3
# Si number density = 26.656101 Si / 1000 Ang^3
#
#
#
# Elastic Constant Matrix: (Units=GPa)
#
#
# Indices 1 2 3 4 5 6 
#
# 1 98.2647 25.6073 -28.6250 0.0000 4.3160 0.0000
# 2 25.6073 129.8535 3.6906 0.0000 -0.1655 0.0000
# 3 -28.6250 3.6906 90.9666 0.0000 10.1179 0.0000
# 4 0.0000 0.0000 0.0000 37.1596 0.0000 11.3258
# 5 4.3160 -0.1655 10.1179 0.0000 23.7062 0.0000
# 6 0.0000 0.0000 0.0000 11.3258 0.0000 46.9168
#
#
#
# Elastic Compliance Matrix: (Units=1/GPa)
#
#
# Indices 1 2 3 4 5 6 
#
# 1 0.012321 -0.002561 0.004444 0.000000 -0.004158 0.000000
# 2 -0.002561 0.008243 -0.001258 0.000000 0.001061 0.000000
# 3 0.004444 -0.001258 0.013158 0.000000 -0.006434 0.000000
# 4 0.000000 0.000000 0.000000 0.029048 0.000000 -0.007012
# 5 -0.004158 0.001061 -0.006434 0.000000 0.045693 0.000000
# 6 0.000000 0.000000 0.000000 -0.007012 0.000000 0.023007
#
#
# Mechanical properties :
#
#
# Convention : Reuss Voigt Hill
#
# Bulk Modulus (GPa) = 28.59615 35.60342 32.09978
# Shear Modulus (GPa) = 35.24106 42.78398 39.01252
#
# Velocity S-wave (km/s) = 3.63996 4.01064 3.82979
# Velocity P-wave (km/s) = 5.33075 5.90191 5.62358
#
# Compressibility (1/GPa) = 0.03496975
#
# Stress axis : x y z
#
# Youngs Moduli (GPa) = 81.16166 121.31209 75.99957
#
# Poissons Ratio (x) = 0.31072 -0.33770
# Poissons Ratio (y) = 0.20788 0.09564
# Poissons Ratio (z) = -0.36064 0.15266
#
# Static dielectric constant tensor:
#      x y z
#    x 1.960470 0.000000 -0.001100 
#    y 0.000000 2.224960 0.000000 
#    z -0.001100 0.000000 2.150180 
# 
# From -- ./inp_files/18593.got.cif
#   From: 2010.05.17/outbox.cif.g08.bks.cpg/sg14_10_cif.got.tgz:18593.got - 2010.06.03 17:49:19.
