data_PCOD9252183
_publ_section_title
;
Structure prediction by ZEFSAII (Michael W. Deem and Ramdas Pophale) SiO2 
 PCOD9252183
Probable space group: P 21/C
;
_chemical_formula_sum "Si O2"
_cell_formula_units_Z 20
_cell_length_a 9.866930
_cell_length_b 10.669260
_cell_length_c 18.430019
_cell_angle_alpha 90.000000
_cell_angle_beta 25.696298
_cell_angle_gamma 90.000000
_cell_volume 841.263927
_symmetry_space_group_name_H-M "P 21/C"
_symmetry_group_IT_number 14
_symmetry_cell_setting 'monoclinic'
loop_
_space_group_symop_operation_xyz
x,y,z
-x,1/2+y,1/2-z
-x,-y,-z
x,1/2-y,1/2+z
loop_
_atom_site_type_symbol
_atom_site_label
_atom_site_fract_x
_atom_site_fract_y
_atom_site_fract_z
Si Si1 0.785267 0.674364 0.358904
Si Si2 0.665064 0.557897 0.144760
Si Si3 0.415146 0.596933 0.104494
Si Si4 0.255524 0.808286 0.019404
Si Si5 0.679817 0.666848 0.705956
O O1 0.581045 0.772067 0.503162
O O2 0.527956 0.613192 0.428591
O O3 0.036221 0.601348 0.286514
O O4 0.022562 0.749249 0.191151
O O5 0.557698 0.564619 0.113187
O O6 0.437589 0.449076 0.284659
O O7 0.672346 0.699050 0.170077
O O8 0.000000 0.500000 0.000000
O O9 0.500000 0.500000 0.000000
O O10 0.019169 0.862527 0.074511
O O11 0.442108 0.697942 0.887382
#
# Coordination Sequence:
#
# PCOD9252183 Si02
#       5
#     4   4   4   4   4
#     4   9  20  40  68 101 137 175 232 289 350 412
#     4  12  27  46  72 103 147 188 233 297 352 422
#     4  11  24  44  72 100 140 184 235 295 354 413
#     4   9  18  39  69 101 139 184 225 285 359 416
#     4  11  23  44  72 101 144 188 234 279 365 416
#
# _framework density 23.773752999999999
#
# number of rings (size 3 to 8) (size 9 to 14) (size 15 to 20)
#    0.000    1.600    2.000    3.600    5.600    0.800 
#    0.000   11.000    0.000    0.000    0.000    0.000 
#    0.000    0.000    0.000    0.000    0.000    0.000 
#
# Total GULP energy -111629.281964 kJ/mol
# GULP energy per Si atom -5581.464098 kJ/mol
# Density = 2.371964 g / cm^3
# Si number density = 23.773753 Si / 1000 Ang^3
#
#
#
# Elastic Constant Matrix: (Units=GPa)
#
#
# Indices 1 2 3 4 5 6 
#
# 1 165.7352 84.7678 62.9160 0.0000 -66.3900 0.0000
# 2 84.7678 132.1873 38.2036 0.0000 -19.1626 0.0000
# 3 62.9160 38.2036 107.4213 0.0000 -51.9655 0.0000
# 4 0.0000 0.0000 0.0000 39.3420 0.0000 -3.9411
# 5 -66.3900 -19.1626 -51.9655 0.0000 59.1030 0.0000
# 6 0.0000 0.0000 0.0000 -3.9411 0.0000 29.5296
#
#
#
# Elastic Compliance Matrix: (Units=1/GPa)
#
#
# Indices 1 2 3 4 5 6 
#
# 1 0.017020 -0.008851 0.001809 0.000000 0.017840 0.000000
# 2 -0.008851 0.013036 -0.003858 0.000000 -0.009108 0.000000
# 3 0.001809 -0.003858 0.017401 0.000000 0.016081 0.000000
# 4 0.000000 0.000000 0.000000 0.025763 0.000000 0.003438
# 5 0.017840 -0.009108 0.016081 0.000000 0.048145 0.000000
# 6 0.000000 0.000000 0.000000 0.003438 0.000000 0.034323
#
#
# Mechanical properties :
#
#
# Convention : Reuss Voigt Hill
#
# Bulk Modulus (GPa) = 38.97653 86.34652 62.66152
# Shear Modulus (GPa) = 26.87602 40.22535 33.55068
#
# Velocity S-wave (km/s) = 3.36593 4.11786 3.76073
# Velocity P-wave (km/s) = 5.61572 7.68167 6.72846
#
# Compressibility (1/GPa) = 0.02565647
#
# Stress axis : x y z
#
# Youngs Moduli (GPa) = 58.75364 76.71206 57.46886
#
# Poissons Ratio (x) = 0.67900 -0.10398
# Poissons Ratio (y) = 0.52005 0.22172
# Poissons Ratio (z) = -0.10630 0.29596
#
# Static dielectric constant tensor:
#      x y z
#    x 1.969270 0.000000 0.005550 
#    y 0.000000 2.004270 0.000000 
#    z 0.005550 0.000000 1.927540 
# 
# From -- ./inp_files/7860.got.cif
#   From: 2010.05.17/outbox.cif.g08.bks.cpg/sg14_4_cif.got.tgz:7860.got - 2010.06.03 17:49:19.
