data_PCOD9252301
_publ_section_title
;
Structure prediction by ZEFSAII (Michael W. Deem and Ramdas Pophale) SiO2 
 PCOD9252301
Probable space group: P 21/C
;
_chemical_formula_sum "Si O2"
_cell_formula_units_Z 20
_cell_length_a 13.790369
_cell_length_b 6.542299
_cell_length_c 16.932516
_cell_angle_alpha 90.000000
_cell_angle_beta 149.747433
_cell_angle_gamma 90.000000
_cell_volume 769.656361
_symmetry_space_group_name_H-M "P 21/C"
_symmetry_group_IT_number 14
_symmetry_cell_setting 'monoclinic'
loop_
_space_group_symop_operation_xyz
x,y,z
-x,1/2+y,1/2-z
-x,-y,-z
x,1/2-y,1/2+z
loop_
_atom_site_type_symbol
_atom_site_label
_atom_site_fract_x
_atom_site_fract_y
_atom_site_fract_z
Si Si1 0.426009 0.553451 0.638660
Si Si2 0.394281 0.666051 0.979386
Si Si3 0.071112 0.811928 0.996652
Si Si4 0.734735 0.874253 0.488742
Si Si5 0.862984 0.060419 0.306437
O O1 0.498743 0.710636 0.623432
O O2 0.229975 0.624402 0.545027
O O3 0.583707 0.538146 0.818195
O O4 0.900883 0.682050 0.835872
O O5 0.300935 0.842128 0.861492
O O6 0.500000 0.500000 0.000000
O O7 0.243932 0.528050 0.923500
O O8 0.159026 0.651630 0.121551
O O9 0.000000 0.000000 0.000000
O O10 0.636560 0.661242 0.443185
O O11 0.937989 0.849923 0.589459
#
# Coordination Sequence:
#
# PCOD9252301 Si02
#       5
#     4   4   4   4   4
#     4  12  25  48  78 112 159 213 265 338 410 490
#     4  12  29  50  74 117 167 210 279 337 404 484
#     4  11  23  47  79 116 157 207 264 331 419 497
#     4  12  25  48  79 112 160 213 269 333 416 487
#     4  11  26  44  79 117 154 206 271 332 409 491
#
# _framework density 25.985621999999999
#
# number of rings (size 3 to 8) (size 9 to 14) (size 15 to 20)
#    0.000    0.400    6.000    1.200    2.800    4.000 
#    0.000    0.000    0.000    0.000    0.000    0.000 
#    0.000    0.000    0.000    0.000    0.000    0.000 
#
# Total GULP energy -112132.794349 kJ/mol
# GULP energy per Si atom -5606.639717 kJ/mol
# Density = 2.592648 g / cm^3
# Si number density = 25.985622 Si / 1000 Ang^3
#
#
#
# Elastic Constant Matrix: (Units=GPa)
#
#
# Indices 1 2 3 4 5 6 
#
# 1 133.1174 48.9012 46.9137 0.0000 7.3934 0.0000
# 2 48.9012 139.4662 45.6193 0.0000 -7.4096 0.0000
# 3 46.9137 45.6193 82.6490 0.0000 3.6393 0.0000
# 4 0.0000 0.0000 0.0000 46.3590 0.0000 -12.9362
# 5 7.3934 -7.4096 3.6393 0.0000 42.2880 0.0000
# 6 0.0000 0.0000 0.0000 -12.9362 0.0000 69.6279
#
#
#
# Elastic Compliance Matrix: (Units=1/GPa)
#
#
# Indices 1 2 3 4 5 6 
#
# 1 0.009941 -0.002144 -0.004383 0.000000 -0.001737 0.000000
# 2 -0.002144 0.009377 -0.004063 0.000000 0.002368 0.000000
# 3 -0.004383 -0.004063 0.016891 0.000000 -0.001399 0.000000
# 4 0.000000 0.000000 0.000000 0.022750 0.000000 0.004227
# 5 -0.001737 0.002368 -0.001399 0.000000 0.024486 0.000000
# 6 0.000000 0.000000 0.000000 0.004227 0.000000 0.015147
#
#
# Mechanical properties :
#
#
# Convention : Reuss Voigt Hill
#
# Bulk Modulus (GPa) = 66.53607 70.90013 68.71810
# Shear Modulus (GPa) = 40.06993 45.90820 42.98907
#
# Velocity S-wave (km/s) = 3.93110 4.20775 4.07177
# Velocity P-wave (km/s) = 6.80185 7.13796 6.97193
#
# Compressibility (1/GPa) = 0.01502944
#
# Stress axis : x y z
#
# Youngs Moduli (GPa) = 100.59472 106.64679 59.20248
#
# Poissons Ratio (x) = 0.22868 0.25946
# Poissons Ratio (y) = 0.21570 0.24052
# Poissons Ratio (z) = 0.44087 0.43328
#
# Static dielectric constant tensor:
#      x y z
#    x 1.989180 0.000000 -0.000910 
#    y 0.000000 2.098860 0.000000 
#    z -0.000910 0.000000 2.042120 
# 
# From -- ./inp_files/23432.got.cif
#   From: 2010.05.17/outbox.cif.g08.bks.cpg/sg14_12_cif.got.tgz:23432.got - 2010.06.03 17:49:19.
