data_PCOD9252700
_publ_section_title
;
Structure prediction by ZEFSAII (Michael W. Deem and Ramdas Pophale) SiO2 
 PCOD9252700
Probable space group: P 21/C
;
_chemical_formula_sum "Si O2"
_cell_formula_units_Z 30
_cell_length_a 14.399405
_cell_length_b 8.443951
_cell_length_c 20.423718
_cell_angle_alpha 90.000000
_cell_angle_beta 31.431370
_cell_angle_gamma 90.000000
_cell_volume 1294.971219
_symmetry_space_group_name_H-M "P 21/C"
_symmetry_group_IT_number 14
_symmetry_cell_setting 'monoclinic'
loop_
_space_group_symop_operation_xyz
x,y,z
-x,1/2+y,1/2-z
-x,-y,-z
x,1/2-y,1/2+z
loop_
_atom_site_type_symbol
_atom_site_label
_atom_site_fract_x
_atom_site_fract_y
_atom_site_fract_z
Si Si1 0.094975 0.782476 0.611286
Si Si2 0.795034 0.266126 0.225502
Si Si3 0.316134 0.017458 0.414117
Si Si4 0.000000 0.000000 0.500000
Si Si5 0.297501 0.023881 0.866250
Si Si6 0.154061 0.517091 0.676694
Si Si7 0.622132 0.805144 0.045403
Si Si8 0.089864 0.094279 0.873496
O O1 0.127038 0.623063 0.629573
O O2 0.018434 0.912702 0.705596
O O3 0.931277 0.746875 0.659971
O O4 0.273360 0.845645 0.470200
O O5 0.895481 0.365595 0.109198
O O6 0.818818 0.363883 0.278887
O O7 0.585224 0.270807 0.337896
O O8 0.858704 0.080003 0.186361
O O9 0.281262 0.141551 0.493586
O O10 0.178075 0.025810 0.438374
O O11 0.515924 0.045776 0.269611
O O12 0.336960 0.097763 0.912712
O O13 0.228375 0.133454 0.847716
O O14 0.117216 0.920741 0.979816
O O15 0.306408 0.393861 0.562050
#
# Coordination Sequence:
#
# PCOD9252700 Si02
#       8
#     4   4   4   2   4   4   4   4
#     4  12  27  49  75 108 147 207 248 319 374 449
#     4  12  26  50  76 110 153 202 250 319 375 448
#     4  12  27  48  77 112 152 193 250 322 377 445
#     4  12  26  44  78 112 150 190 252 308 382 440
#     4  11  25  43  78 108 153 186 247 313 379 443
#     4  12  27  49  73 107 152 201 258 305 375 454
#     4  12  26  48  74 111 153 197 255 311 376 455
#     4  11  26  49  76 112 147 200 250 315 383 445
#
# _framework density 23.166537999999999
#
# number of rings (size 3 to 8) (size 9 to 14) (size 15 to 20)
#    0.000    0.267    5.333    2.800    7.467    0.000 
#    7.200    1.333    0.000    0.000    0.000    0.000 
#    0.000    0.000    0.000    0.000    0.000    0.000 
#
# Total GULP energy -167115.163538 kJ/mol
# GULP energy per Si atom -5570.505451 kJ/mol
# Density = 2.311381 g / cm^3
# Si number density = 23.166538 Si / 1000 Ang^3
#
#
#
# Elastic Constant Matrix: (Units=GPa)
#
#
# Indices 1 2 3 4 5 6 
#
# 1 66.8165 9.9418 25.3093 0.0000 -14.3111 0.0000
# 2 9.9418 74.9340 40.4871 0.0000 13.4224 0.0000
# 3 25.3093 40.4871 129.1280 0.0000 -17.4376 0.0000
# 4 0.0000 0.0000 0.0000 17.9218 0.0000 8.7725
# 5 -14.3111 13.4224 -17.4376 0.0000 32.0694 0.0000
# 6 0.0000 0.0000 0.0000 8.7725 0.0000 41.6729
#
#
#
# Elastic Compliance Matrix: (Units=1/GPa)
#
#
# Indices 1 2 3 4 5 6 
#
# 1 0.017770 -0.003160 -0.001341 0.000000 0.008523 0.000000
# 2 -0.003160 0.020470 -0.007713 0.000000 -0.014171 0.000000
# 3 -0.001341 -0.007713 0.011635 0.000000 0.008956 0.000000
# 4 0.000000 0.000000 0.000000 0.062208 0.000000 -0.013095
# 5 0.008523 -0.014171 0.008956 0.000000 0.045787 0.000000
# 6 0.000000 0.000000 0.000000 -0.013095 0.000000 0.026753
#
#
# Mechanical properties :
#
#
# Convention : Reuss Voigt Hill
#
# Bulk Modulus (GPa) = 39.29627 46.92833 43.11230
# Shear Modulus (GPa) = 22.98517 31.34218 27.16367
#
# Velocity S-wave (km/s) = 3.15329 3.68218 3.42795
# Velocity P-wave (km/s) = 5.50064 6.19507 5.85815
#
# Compressibility (1/GPa) = 0.02544771
#
# Stress axis : x y z
#
# Youngs Moduli (GPa) = 56.27437 48.85266 85.94940
#
# Poissons Ratio (x) = 0.15435 0.11529
# Poissons Ratio (y) = 0.17780 0.66289
# Poissons Ratio (z) = 0.07548 0.37678
#
# Static dielectric constant tensor:
#      x y z
#    x 1.909800 0.000000 0.086140 
#    y 0.000000 1.975210 0.000000 
#    z 0.086140 0.000000 1.868450 
# 
# From -- ./inp_files/68350.got.cif
#   From: 2010.05.17/outbox.cif.g08.bks.cpg/sg14_35_cif.got.tgz:68350.got - 2010.06.03 17:49:19.
