data_PCOD9252112
_publ_section_title
;
Structure prediction by ZEFSAII (Michael W. Deem and Ramdas Pophale) SiO2 
 PCOD9252112
Probable space group: P 21/C
;
_chemical_formula_sum "Si O2"
_cell_formula_units_Z 24
_cell_length_a 8.504277
_cell_length_b 14.282732
_cell_length_c 17.081542
_cell_angle_alpha 90.000000
_cell_angle_beta 34.398477
_cell_angle_gamma 90.000000
_cell_volume 1172.146733
_symmetry_space_group_name_H-M "P 21/C"
_symmetry_group_IT_number 14
_symmetry_cell_setting 'monoclinic'
loop_
_space_group_symop_operation_xyz
x,y,z
-x,1/2+y,1/2-z
-x,-y,-z
x,1/2-y,1/2+z
loop_
_atom_site_type_symbol
_atom_site_label
_atom_site_fract_x
_atom_site_fract_y
_atom_site_fract_z
Si Si1 0.152569 0.726901 0.099592
Si Si2 0.278309 0.574722 0.624209
Si Si3 0.456985 0.222440 0.707324
Si Si4 0.723144 0.046475 0.350948
Si Si5 0.734034 0.395591 0.674904
Si Si6 0.358086 0.423011 0.380708
O O1 0.261412 0.827488 0.085346
O O2 0.187518 0.645945 0.149118
O O3 0.830625 0.737884 0.208820
O O4 0.333417 0.700828 0.949236
O O5 0.500000 0.500000 0.500000
O O6 0.383134 0.593899 0.669037
O O7 0.982137 0.524343 0.741686
O O8 0.601687 0.298176 0.704292
O O9 0.384706 0.133518 0.789624
O O10 0.625780 0.067025 0.302454
O O11 0.500000 0.000000 0.500000
O O12 0.667694 0.468652 0.632617
O O13 0.070443 0.392083 0.540318
#
# Coordination Sequence:
#
# PCOD9252112 Si02
#       6
#     4   4   4   4   4   4
#     4  12  25  44  67 101 137 177 231 283 338 412
#     4  12  24  44  73  99 134 188 228 274 343 413
#     4  12  25  44  70  99 136 179 225 281 342 399
#     4  12  26  44  69 103 140 174 228 287 344 397
#     4  11  23  44  68  97 137 178 222 279 338 407
#     4  11  23  43  69  97 134 179 228 273 339 409
#
# _framework density 20.475252999999999
#
# number of rings (size 3 to 8) (size 9 to 14) (size 15 to 20)
#    0.000    0.333    3.333    7.000    0.000    1.333 
#    6.000    3.333    0.000    0.000    0.000    0.000 
#    0.000    0.000    0.000    0.000    0.000    0.000 
#
# Total GULP energy -134356.507623 kJ/mol
# GULP energy per Si atom -5598.187818 kJ/mol
# Density = 2.042865 g / cm^3
# Si number density = 20.475253 Si / 1000 Ang^3
#
#
#
# Elastic Constant Matrix: (Units=GPa)
#
#
# Indices 1 2 3 4 5 6 
#
# 1 69.6170 -5.7535 -11.4088 0.0000 11.7625 0.0000
# 2 -5.7535 83.1967 -9.6194 0.0000 9.2147 0.0000
# 3 -11.4088 -9.6194 51.0531 0.0000 13.5376 0.0000
# 4 0.0000 0.0000 0.0000 30.8608 0.0000 8.0386
# 5 11.7625 9.2147 13.5376 0.0000 25.9757 0.0000
# 6 0.0000 0.0000 0.0000 8.0386 0.0000 44.3151
#
#
#
# Elastic Compliance Matrix: (Units=1/GPa)
#
#
# Indices 1 2 3 4 5 6 
#
# 1 0.018508 0.003858 0.008642 0.000000 -0.014253 0.000000
# 2 0.003858 0.014102 0.006160 0.000000 -0.009960 0.000000
# 3 0.008642 0.006160 0.028193 0.000000 -0.020792 0.000000
# 4 0.000000 0.000000 0.000000 0.034011 0.000000 -0.006169
# 5 -0.014253 -0.009960 -0.020792 0.000000 0.059321 0.000000
# 6 0.000000 0.000000 0.000000 -0.006169 0.000000 0.023685
#
#
# Mechanical properties :
#
#
# Convention : Reuss Voigt Hill
#
# Bulk Modulus (GPa) = 10.19126 16.70037 13.44581
# Shear Modulus (GPa) = 28.86741 35.60691 32.23716
#
# Velocity S-wave (km/s) = 3.75889 4.17468 3.97223
# Velocity P-wave (km/s) = 4.88131 5.60458 5.25541
#
# Compressibility (1/GPa) = 0.09812334
#
# Stress axis : x y z
#
# Youngs Moduli (GPa) = 54.03154 70.91241 35.47003
#
# Poissons Ratio (x) = -0.27357 -0.30654
# Poissons Ratio (y) = -0.20844 -0.21850
# Poissons Ratio (z) = -0.46696 -0.43684
#
# Static dielectric constant tensor:
#      x y z
#    x 1.723680 0.000000 0.013440 
#    y 0.000000 1.771360 0.000000 
#    z 0.013440 0.000000 1.699890 
# 
# From -- ./inp_files/55895.got.cif
#   From: 2010.05.17/outbox.cif.g08.bks.cpg/sg14_28_cif.got.tgz:55895.got - 2010.06.03 17:49:19.
