data_PCOD9252951
_publ_section_title
;
Structure prediction by ZEFSAII (Michael W. Deem and Ramdas Pophale) SiO2 
 PCOD9252951
Probable space group: P 21/C
;
_chemical_formula_sum "Si O2"
_cell_formula_units_Z 20
_cell_length_a 16.432928
_cell_length_b 9.855475
_cell_length_c 9.986518
_cell_angle_alpha 90.000000
_cell_angle_beta 146.282697
_cell_angle_gamma 90.000000
_cell_volume 897.789298
_symmetry_space_group_name_H-M "P 21/C"
_symmetry_group_IT_number 14
_symmetry_cell_setting 'monoclinic'
loop_
_space_group_symop_operation_xyz
x,y,z
-x,1/2+y,1/2-z
-x,-y,-z
x,1/2-y,1/2+z
loop_
_atom_site_type_symbol
_atom_site_label
_atom_site_fract_x
_atom_site_fract_y
_atom_site_fract_z
Si Si1 0.146284 0.673695 0.130872
Si Si2 0.559714 0.349966 0.567901
Si Si3 0.831939 0.015322 0.815979
Si Si4 0.605329 0.712221 0.920085
Si Si5 0.833757 0.567726 0.629079
O O1 0.265826 0.641700 0.180796
O O2 0.189219 0.824875 0.231710
O O3 0.156940 0.565361 0.265291
O O4 0.982423 0.655728 0.850709
O O5 0.500000 0.500000 0.500000
O O6 0.476546 0.250380 0.554995
O O7 0.516338 0.310613 0.358201
O O8 0.714448 0.916545 0.584175
O O9 0.818893 0.976195 0.955177
O O10 0.000000 0.000000 0.000000
O O11 0.703139 0.839028 0.005034
#
# Coordination Sequence:
#
# PCOD9252951 Si02
#       5
#     4   4   4   4   4
#     4  11  28  45  76 103 148 193 246 298 370 434
#     4  12  29  47  76 110 152 193 238 306 373 430
#     4  12  28  43  77 109 143 192 248 309 362 425
#     4  12  27  51  75 110 151 192 247 305 364 441
#     4  11  26  50  73 109 144 192 259 299 352 452
#
# _framework density 22.276938999999999
#
# number of rings (size 3 to 8) (size 9 to 14) (size 15 to 20)
#    0.000    0.400    6.000    0.000   11.200    0.800 
#    0.000    0.000    0.000    0.000    0.000    0.000 
#    0.000    0.000    0.000    0.000    0.000    0.000 
#
# Total GULP energy -111961.485319 kJ/mol
# GULP energy per Si atom -5598.074266 kJ/mol
# Density = 2.222624 g / cm^3
# Si number density = 22.276939 Si / 1000 Ang^3
#
#
#
# Elastic Constant Matrix: (Units=GPa)
#
#
# Indices 1 2 3 4 5 6 
#
# 1 97.4507 26.3029 35.4395 0.0000 11.1667 0.0000
# 2 26.3029 108.8082 11.5900 0.0000 -11.6863 0.0000
# 3 35.4395 11.5900 76.5228 0.0000 2.7521 0.0000
# 4 0.0000 0.0000 0.0000 30.8307 0.0000 13.4381
# 5 11.1667 -11.6863 2.7521 0.0000 43.0746 0.0000
# 6 0.0000 0.0000 0.0000 13.4381 0.0000 31.3893
#
#
#
# Elastic Compliance Matrix: (Units=1/GPa)
#
#
# Indices 1 2 3 4 5 6 
#
# 1 0.013637 -0.003121 -0.005698 0.000000 -0.004018 0.000000
# 2 -0.003121 0.010363 -0.000255 0.000000 0.003637 0.000000
# 3 -0.005698 -0.000255 0.015731 0.000000 0.000403 0.000000
# 4 0.000000 0.000000 0.000000 0.039876 0.000000 -0.017071
# 5 -0.004018 0.003637 0.000403 0.000000 0.025218 0.000000
# 6 0.000000 0.000000 0.000000 -0.017071 0.000000 0.039166
#
#
# Mechanical properties :
#
#
# Convention : Reuss Voigt Hill
#
# Bulk Modulus (GPa) = 46.33465 47.71628 47.02546
# Shear Modulus (GPa) = 29.52752 35.02220 32.27486
#
# Velocity S-wave (km/s) = 3.64466 3.96931 3.81044
# Velocity P-wave (km/s) = 6.20934 6.51715 6.36511
#
# Compressibility (1/GPa) = 0.02158212
#
# Stress axis : x y z
#
# Youngs Moduli (GPa) = 73.33179 96.49992 63.56829
#
# Poissons Ratio (x) = 0.30118 0.36223
# Poissons Ratio (y) = 0.22887 0.01620
# Poissons Ratio (z) = 0.41786 0.02460
#
# Static dielectric constant tensor:
#      x y z
#    x 1.817270 0.000000 0.018010 
#    y 0.000000 1.633470 0.000000 
#    z 0.018010 0.000000 1.804670 
# 
# From -- ./inp_files/33703.got.cif
#   From: 2010.05.17/outbox.cif.g08.bks.cpg/sg14_17_cif.got.tgz:33703.got - 2010.06.03 17:49:19.
