data_PCOD9252433
_publ_section_title
;
Structure prediction by ZEFSAII (Michael W. Deem and Ramdas Pophale) SiO2 
 PCOD9252433
Probable space group: P 21/C
;
_chemical_formula_sum "Si O2"
_cell_formula_units_Z 30
_cell_length_a 11.832837
_cell_length_b 10.439290
_cell_length_c 21.800954
_cell_angle_alpha 90.000000
_cell_angle_beta 27.311961
_cell_angle_gamma 90.000000
_cell_volume 1235.639918
_symmetry_space_group_name_H-M "P 21/C"
_symmetry_group_IT_number 14
_symmetry_cell_setting 'monoclinic'
loop_
_space_group_symop_operation_xyz
x,y,z
-x,1/2+y,1/2-z
-x,-y,-z
x,1/2-y,1/2+z
loop_
_atom_site_type_symbol
_atom_site_label
_atom_site_fract_x
_atom_site_fract_y
_atom_site_fract_z
Si Si1 0.983510 0.958998 0.868036
Si Si2 0.119859 0.077121 0.284353
Si Si3 0.000000 0.000000 0.000000
Si Si4 0.956375 0.357587 0.993287
Si Si5 0.294274 0.797762 0.212733
Si Si6 0.230303 0.051651 0.638651
Si Si7 0.637083 0.673499 0.444062
Si Si8 0.417851 0.179614 0.807039
O O1 0.124417 0.823274 0.808093
O O2 0.754600 0.931676 0.932969
O O3 0.156751 0.050654 0.744754
O O4 0.940760 0.011301 0.955545
O O5 0.343808 0.138086 0.136922
O O6 0.993197 0.146063 0.402156
O O7 0.184892 0.936890 0.278435
O O8 0.931983 0.048051 0.320508
O O9 0.703834 0.955956 0.152956
O O10 0.181687 0.269820 0.907913
O O11 0.685539 0.307484 0.144950
O O12 0.000000 0.500000 0.000000
O O13 0.521463 0.793773 0.150756
O O14 0.376846 0.799027 0.101713
O O15 0.213919 0.194265 0.620964
O O16 0.500000 0.000000 0.500000
#
# Coordination Sequence:
#
# PCOD9252433 Si02
#       8
#     4   4   2   4   4   4   4   4
#     4  11  25  44  72 108 147 194 258 320 396 477
#     4  11  27  46  71 112 153 203 261 329 398 468
#     4  12  28  48  78 114 152 206 266 334 402 484
#     4  12  30  52  80 118 161 211 271 338 406 487
#     4  12  23  47  76 102 152 204 257 321 405 477
#     4  11  24  43  73 107 142 196 259 319 392 479
#     4  11  24  46  71 107 146 199 255 319 392 474
#     4  12  30  50  81 113 160 212 270 336 406 492
#
# _framework density 24.278918000000001
#
# number of rings (size 3 to 8) (size 9 to 14) (size 15 to 20)
#    0.000    0.533    5.333    1.200    9.333    0.000 
#    0.000    0.000    0.000    0.000    0.000    0.000 
#    0.000    0.000    0.000    0.000    0.000    0.000 
#
# Total GULP energy -167149.913916 kJ/mol
# GULP energy per Si atom -5571.663797 kJ/mol
# Density = 2.422366 g / cm^3
# Si number density = 24.278918 Si / 1000 Ang^3
#
#
#
# Elastic Constant Matrix: (Units=GPa)
#
#
# Indices 1 2 3 4 5 6 
#
# 1 81.4213 5.6712 53.9971 0.0000 14.9359 0.0000
# 2 5.6712 41.1985 39.5692 0.0000 -5.3816 0.0000
# 3 53.9971 39.5692 174.7011 0.0000 17.9027 0.0000
# 4 0.0000 0.0000 0.0000 29.5769 0.0000 -12.7630
# 5 14.9359 -5.3816 17.9027 0.0000 55.8715 0.0000
# 6 0.0000 0.0000 0.0000 -12.7630 0.0000 26.2224
#
#
#
# Elastic Compliance Matrix: (Units=1/GPa)
#
#
# Indices 1 2 3 4 5 6 
#
# 1 0.016050 0.002580 -0.005305 0.000000 -0.002342 0.000000
# 2 0.002580 0.033107 -0.008843 0.000000 0.005333 0.000000
# 3 -0.005305 -0.008843 0.009625 0.000000 -0.002517 0.000000
# 4 0.000000 0.000000 0.000000 0.042799 0.000000 0.020831
# 5 -0.002342 0.005333 -0.002517 0.000000 0.019845 0.000000
# 6 0.000000 0.000000 0.000000 0.020831 0.000000 0.048274
#
#
# Mechanical properties :
#
#
# Convention : Reuss Voigt Hill
#
# Bulk Modulus (GPa) = 28.05341 55.08842 41.57091
# Shear Modulus (GPa) = 24.42395 35.53972 29.98183
#
# Velocity S-wave (km/s) = 3.17515 3.83013 3.51791
# Velocity P-wave (km/s) = 5.00218 6.50376 5.80176
#
# Compressibility (1/GPa) = 0.03564629
#
# Stress axis : x y z
#
# Youngs Moduli (GPa) = 62.30531 30.20510 103.90085
#
# Poissons Ratio (x) = -0.07793 0.55121
# Poissons Ratio (y) = -0.16075 0.91874
# Poissons Ratio (z) = 0.33054 0.26709
#
# Static dielectric constant tensor:
#      x y z
#    x 0.937850 0.000000 -0.765500 
#    y 0.000000 2.119640 0.000000 
#    z -0.765500 0.000000 1.404560 
# 
# From -- ./inp_files/67411.got.cif
#   From: 2010.05.17/outbox.cif.g08.bks.cpg/sg14_34_cif.got.tgz:67411.got - 2010.06.03 17:49:19.
