data_PCOD9252858
_publ_section_title
;
Structure prediction by ZEFSAII (Michael W. Deem and Ramdas Pophale) SiO2 
 PCOD9252858
Probable space group: P 21/C
;
_chemical_formula_sum "Si O2"
_cell_formula_units_Z 16
_cell_length_a 9.763177
_cell_length_b 9.111406
_cell_length_c 8.977255
_cell_angle_alpha 90.000000
_cell_angle_beta 50.790189
_cell_angle_gamma 90.000000
_cell_volume 618.771148
_symmetry_space_group_name_H-M "P 21/C"
_symmetry_group_IT_number 14
_symmetry_cell_setting 'monoclinic'
loop_
_space_group_symop_operation_xyz
x,y,z
-x,1/2+y,1/2-z
-x,-y,-z
x,1/2-y,1/2+z
loop_
_atom_site_type_symbol
_atom_site_label
_atom_site_fract_x
_atom_site_fract_y
_atom_site_fract_z
Si Si1 0.350143 0.099689 0.170500
Si Si2 0.500188 0.360938 0.892777
Si Si3 0.887844 0.256563 0.021106
Si Si4 0.010944 0.452078 0.187089
O O1 0.398226 0.112425 0.309466
O O2 0.174322 0.022905 0.236077
O O3 0.379117 0.251266 0.069079
O O4 0.500000 0.000000 0.000000
O O5 0.695962 0.296917 0.714551
O O6 0.500000 0.500000 0.000000
O O7 0.981593 0.124538 0.866181
O O8 0.868152 0.402767 0.926864
O O9 0.014165 0.314975 0.067780
#
# Coordination Sequence:
#
# PCOD9252858 Si02
#       4
#     4   4   4   4
#     4  12  24  46  75 115 148 198 266 320 385 467
#     4  12  26  47  81 111 152 204 259 326 388 458
#     4  11  25  50  73 112 152 204 251 321 384 469
#     4  11  27  49  76 110 160 199 261 318 391 470
#
# _framework density 25.857700999999999
#
# number of rings (size 3 to 8) (size 9 to 14) (size 15 to 20)
#    0.000    0.500    5.000    1.500    3.500    5.000 
#    0.000    0.000    0.000    0.000    0.000    0.000 
#    0.000    0.000    0.000    0.000    0.000    0.000 
#
# Total GULP energy -89539.499198 kJ/mol
# GULP energy per Si atom -5596.218700 kJ/mol
# Density = 2.579885 g / cm^3
# Si number density = 25.857701 Si / 1000 Ang^3
#
#
#
# Elastic Constant Matrix: (Units=GPa)
#
#
# Indices 1 2 3 4 5 6 
#
# 1 118.9174 58.3493 67.7373 0.0000 -6.4011 0.0000
# 2 58.3493 151.7184 97.2216 0.0000 23.4793 0.0000
# 3 67.7373 97.2216 163.8217 0.0000 21.1676 0.0000
# 4 0.0000 0.0000 0.0000 107.8455 0.0000 -4.7059
# 5 -6.4011 23.4793 21.1676 0.0000 57.2280 0.0000
# 6 0.0000 0.0000 0.0000 -4.7059 0.0000 38.5930
#
#
#
# Elastic Compliance Matrix: (Units=1/GPa)
#
#
# Indices 1 2 3 4 5 6 
#
# 1 0.012224 -0.002820 -0.003893 0.000000 0.003964 0.000000
# 2 -0.002820 0.011540 -0.005282 0.000000 -0.003096 0.000000
# 3 -0.003893 -0.005282 0.011158 0.000000 -0.002395 0.000000
# 4 0.000000 0.000000 0.000000 0.009322 0.000000 0.001137
# 5 0.003964 -0.003096 -0.002395 0.000000 0.020074 0.000000
# 6 0.000000 0.000000 0.000000 0.001137 0.000000 0.026050
#
#
# Mechanical properties :
#
#
# Convention : Reuss Voigt Hill
#
# Bulk Modulus (GPa) = 91.48125 97.89710 94.68917
# Shear Modulus (GPa) = 42.37219 54.80990 48.59104
#
# Velocity S-wave (km/s) = 4.05244 4.60899 4.33964
# Velocity P-wave (km/s) = 7.57310 8.14038 7.86186
#
# Compressibility (1/GPa) = 0.01093120
#
# Stress axis : x y z
#
# Youngs Moduli (GPa) = 81.80780 86.65693 89.61987
#
# Poissons Ratio (x) = 0.24437 0.34889
# Poissons Ratio (y) = 0.23070 0.47340
# Poissons Ratio (z) = 0.31848 0.45775
#
# Static dielectric constant tensor:
#      x y z
#    x 2.846910 0.000000 -0.320270 
#    y 0.000000 1.953430 0.000000 
#    z -0.320270 0.000000 2.265260 
# 
# From -- ./inp_files/11495.got.cif
#   From: 2010.05.17/outbox.cif.g08.bks.cpg/sg14_6_cif.got.tgz:11495.got - 2010.06.03 17:49:19.
