data_PCOD9252842
_publ_section_title
;
Structure prediction by ZEFSAII (Michael W. Deem and Ramdas Pophale) SiO2 
 PCOD9252842
Probable space group: P 21/C
;
_chemical_formula_sum "Si O2"
_cell_formula_units_Z 10
_cell_length_a 5.234661
_cell_length_b 8.334396
_cell_length_c 10.206449
_cell_angle_alpha 90.000000
_cell_angle_beta 132.658729
_cell_angle_gamma 90.000000
_cell_volume 327.463348
_symmetry_space_group_name_H-M "P 21/C"
_symmetry_group_IT_number 14
_symmetry_cell_setting 'monoclinic'
loop_
_space_group_symop_operation_xyz
x,y,z
-x,1/2+y,1/2-z
-x,-y,-z
x,1/2-y,1/2+z
loop_
_atom_site_type_symbol
_atom_site_label
_atom_site_fract_x
_atom_site_fract_y
_atom_site_fract_z
Si Si1 0.500000 0.000000 0.000000
Si Si2 0.307062 0.950249 0.224758
Si Si3 0.154591 0.333199 0.892704
O O1 0.635517 0.971140 0.893302
O O2 0.415346 0.196391 0.933120
O O3 0.654697 0.938869 0.432380
O O4 0.161635 0.771566 0.167192
O O5 0.041761 0.051714 0.230727
#
# Coordination Sequence:
#
# PCOD9252842 Si02
#       3
#     2   4   4
#     4  12  24  46  74 110 146 192 252 316 366 440
#     4  11  26  48  77 109 150 198 253 309 377 449
#     4  11  25  48  75 107 150 201 248 309 380 454
#
# _framework density 30.537769999999998
#
# number of rings (size 3 to 8) (size 9 to 14) (size 15 to 20)
#    0.000    0.800    0.000    6.000    0.000    3.200 
#    0.000   28.000    0.000    2.400    0.000    0.000 
#    0.000    0.000    0.000    0.000    0.000    0.000 
#
# Total GULP energy -55922.018603 kJ/mol
# GULP energy per Si atom -5592.201860 kJ/mol
# Density = 3.046826 g / cm^3
# Si number density = 30.537770 Si / 1000 Ang^3
#
#
#
# Elastic Constant Matrix: (Units=GPa)
#
#
# Indices 1 2 3 4 5 6 
#
# 1 193.1568 56.7575 50.2948 0.0000 -56.6916 0.0000
# 2 56.7575 193.9017 82.4321 0.0000 -17.0181 0.0000
# 3 50.2948 82.4321 248.3304 0.0000 -44.3011 0.0000
# 4 0.0000 0.0000 0.0000 90.3740 0.0000 24.6520
# 5 -56.6916 -17.0181 -44.3011 0.0000 47.5684 0.0000
# 6 0.0000 0.0000 0.0000 24.6520 0.0000 74.0208
#
#
#
# Elastic Compliance Matrix: (Units=1/GPa)
#
#
# Indices 1 2 3 4 5 6 
#
# 1 0.008532 -0.001911 0.000718 0.000000 0.010153 0.000000
# 2 -0.001911 0.006438 -0.002093 0.000000 -0.001924 0.000000
# 3 0.000718 -0.002093 0.005511 0.000000 0.005239 0.000000
# 4 0.000000 0.000000 0.000000 0.012171 0.000000 -0.004053
# 5 0.010153 -0.001924 0.005239 0.000000 0.037313 0.000000
# 6 0.000000 0.000000 0.000000 -0.004053 0.000000 0.014860
#
#
# Mechanical properties :
#
#
# Convention : Reuss Voigt Hill
#
# Bulk Modulus (GPa) = 71.90751 112.70639 92.30695
# Shear Modulus (GPa) = 52.06560 72.11963 62.09262
#
# Velocity S-wave (km/s) = 4.13359 4.86496 4.51411
# Velocity P-wave (km/s) = 6.81031 8.27915 7.58039
#
# Compressibility (1/GPa) = 0.01390675
#
# Stress axis : x y z
#
# Youngs Moduli (GPa) = 117.21009 155.33516 181.45742
#
# Poissons Ratio (x) = 0.29691 -0.13024
# Poissons Ratio (y) = 0.22403 0.37981
# Poissons Ratio (z) = -0.08412 0.32513
#
# Static dielectric constant tensor:
#      x y z
#    x 1.642560 0.000000 -0.204910 
#    y 0.000000 2.120860 0.000000 
#    z -0.204910 0.000000 2.124470 
# 
# From -- ./inp_files/4638.got.cif
#   From: 2010.05.17/outbox.cif.g08.bks.cpg/sg14_3_cif.got.tgz:4638.got - 2010.06.03 17:49:19.
