data_PCOD9252891
_publ_section_title
;
Structure prediction by ZEFSAII (Michael W. Deem and Ramdas Pophale) SiO2 
 PCOD9252891
Probable space group: P 21/C
;
_chemical_formula_sum "Si O2"
_cell_formula_units_Z 18
_cell_length_a 4.838519
_cell_length_b 17.870646
_cell_length_c 8.284753
_cell_angle_alpha 90.000000
_cell_angle_beta 61.632866
_cell_angle_gamma 90.000000
_cell_volume 630.341755
_symmetry_space_group_name_H-M "P 21/C"
_symmetry_group_IT_number 14
_symmetry_cell_setting 'monoclinic'
loop_
_space_group_symop_operation_xyz
x,y,z
-x,1/2+y,1/2-z
-x,-y,-z
x,1/2-y,1/2+z
loop_
_atom_site_type_symbol
_atom_site_label
_atom_site_fract_x
_atom_site_fract_y
_atom_site_fract_z
Si Si1 0.500000 0.500000 0.500000
Si Si2 0.117962 0.319020 0.240351
Si Si3 0.857823 0.077286 0.260734
Si Si4 0.596706 0.051349 0.671336
Si Si5 0.714259 0.225630 0.146905
O O1 0.295688 0.559268 0.675730
O O2 0.804056 0.560252 0.406369
O O3 0.337188 0.390634 0.184424
O O4 0.367946 0.251060 0.199887
O O5 0.919255 0.298015 0.138162
O O6 0.881816 0.313264 0.453012
O O7 0.826105 0.049992 0.454980
O O8 0.744300 0.162832 0.277439
O O9 0.600680 0.026533 0.235064
#
# Coordination Sequence:
#
# PCOD9252891 Si02
#       5
#     2   4   4   4   4
#     4  12  24  44  76 104 140 192 238 310 350 448
#     4  12  27  48  74 107 149 195 246 303 369 439
#     4  11  26  46  71 106 146 188 244 301 364 433
#     4  11  26  46  71 106 146 188 244 301 364 433
#     4  12  27  48  74 107 149 195 246 303 369 439
#
# _framework density 28.555934000000001
#
# number of rings (size 3 to 8) (size 9 to 14) (size 15 to 20)
#    0.000    0.444    2.222    5.333    6.222    0.000 
#    0.000    0.000    0.000    0.000    0.000    0.000 
#    0.000    0.000    0.000    0.000    0.000    0.000 
#
# Total GULP energy -100651.264063 kJ/mol
# GULP energy per Si atom -5591.736892 kJ/mol
# Density = 2.849094 g / cm^3
# Si number density = 28.555934 Si / 1000 Ang^3
#
#
#
# Elastic Constant Matrix: (Units=GPa)
#
#
# Indices 1 2 3 4 5 6 
#
# 1 117.2506 7.0169 14.8810 0.0000 -10.6546 0.0000
# 2 7.0169 92.3989 -4.7382 0.0000 -0.6690 0.0000
# 3 14.8810 -4.7382 155.0868 0.0000 -32.6596 0.0000
# 4 0.0000 0.0000 0.0000 49.5366 0.0000 18.0552
# 5 -10.6546 -0.6690 -32.6596 0.0000 33.0560 0.0000
# 6 0.0000 0.0000 0.0000 18.0552 0.0000 54.9008
#
#
#
# Elastic Compliance Matrix: (Units=1/GPa)
#
#
# Indices 1 2 3 4 5 6 
#
# 1 0.008839 -0.000671 -0.000343 0.000000 0.002497 0.000000
# 2 -0.000671 0.010903 0.000503 0.000000 0.000502 0.000000
# 3 -0.000343 0.000503 0.008176 0.000000 0.007978 0.000000
# 4 0.000000 0.000000 0.000000 0.022936 0.000000 -0.007543
# 5 0.002497 0.000502 0.007978 0.000000 0.038949 0.000000
# 6 0.000000 0.000000 0.000000 -0.007543 0.000000 0.020695
#
#
# Mechanical properties :
#
#
# Convention : Reuss Voigt Hill
#
# Bulk Modulus (GPa) = 37.17805 44.33949 40.75877
# Shear Modulus (GPa) = 41.49847 50.67044 46.08446
#
# Velocity S-wave (km/s) = 3.81627 4.21697 4.02161
# Velocity P-wave (km/s) = 5.69791 6.26669 5.98905
#
# Compressibility (1/GPa) = 0.02689759
#
# Stress axis : x y z
#
# Youngs Moduli (GPa) = 113.13134 91.71778 122.30387
#
# Poissons Ratio (x) = 0.06152 0.04193
# Poissons Ratio (y) = 0.07588 -0.06153
# Poissons Ratio (z) = 0.03879 -0.04614
#
# Static dielectric constant tensor:
#      x y z
#    x 1.667510 0.000000 -0.407600 
#    y 0.000000 2.309390 0.000000 
#    z -0.407600 0.000000 1.605040 
# 
# From -- ./inp_files/5403.got.cif
#   From: 2010.05.17/outbox.cif.g08.bks.cpg/sg14_3_cif.got.tgz:5403.got - 2010.06.03 17:49:19.
