data_PCOD9252800
_publ_section_title
;
Structure prediction by ZEFSAII (Michael W. Deem and Ramdas Pophale) SiO2 
 PCOD9252800
Probable space group: P 21/C
;
_chemical_formula_sum "Si O2"
_cell_formula_units_Z 32
_cell_length_a 14.907649
_cell_length_b 8.363055
_cell_length_c 12.125573
_cell_angle_alpha 90.000000
_cell_angle_beta 86.333620
_cell_angle_gamma 90.000000
_cell_volume 1508.643432
_symmetry_space_group_name_H-M "P 21/C"
_symmetry_group_IT_number 14
_symmetry_cell_setting 'monoclinic'
loop_
_space_group_symop_operation_xyz
x,y,z
-x,1/2+y,1/2-z
-x,-y,-z
x,1/2-y,1/2+z
loop_
_atom_site_type_symbol
_atom_site_label
_atom_site_fract_x
_atom_site_fract_y
_atom_site_fract_z
Si Si1 0.115196 0.322244 0.034917
Si Si2 0.550643 0.939197 0.385567
Si Si3 0.099257 0.494799 0.686249
Si Si4 0.042381 0.857620 0.629106
Si Si5 0.301574 0.530707 0.735852
Si Si6 0.316382 0.155630 0.453053
Si Si7 0.409746 0.689286 0.305715
Si Si8 0.606425 0.520673 0.502752
O O1 0.110850 0.495930 0.097140
O O2 0.210304 0.316826 0.965997
O O3 0.109774 0.153543 0.100291
O O4 0.027695 0.330919 0.964934
O O5 0.648536 0.906315 0.430898
O O6 0.494958 0.789875 0.342710
O O7 0.500000 0.000000 0.500000
O O8 0.556434 0.058446 0.283107
O O9 0.080052 0.678625 0.649599
O O10 0.195266 0.507919 0.738928
O O11 0.018292 0.432282 0.768723
O O12 0.336896 0.709435 0.745279
O O13 0.344914 0.471418 0.618304
O O14 0.336769 0.450576 0.845270
O O15 0.370905 0.318562 0.434865
O O16 0.363320 0.621165 0.419611
O O17 0.500000 0.500000 0.500000
#
# Coordination Sequence:
#
# PCOD9252800 Si02
#       8
#     4   4   4   4   4   4   4   4
#     4  11  25  49  74 110 150 192 247 299 378 450
#     4  12  27  47  73 103 143 193 243 308 372 438
#     4  12  24  48  75 110 147 194 243 302 372 457
#     4  11  25  46  79 109 150 191 241 307 379 446
#     4  12  28  48  70 109 149 190 250 310 366 452
#     4  12  27  47  75 103 151 195 245 309 375 444
#     4  12  28  45  72 103 142 189 250 304 372 438
#     4  12  27  46  73 105 143 196 248 300 369 438
#
# _framework density 21.211110999999999
#
# number of rings (size 3 to 8) (size 9 to 14) (size 15 to 20)
#    0.000    0.250    6.250    1.875    5.250    0.000 
#    2.250    0.000    0.000    0.000    0.000    0.000 
#    0.000    0.000    0.000    0.000    0.000    0.000 
#
# Total GULP energy -178692.611116 kJ/mol
# GULP energy per Si atom -5584.144097 kJ/mol
# Density = 2.116283 g / cm^3
# Si number density = 21.211111 Si / 1000 Ang^3
#
#
#
# Elastic Constant Matrix: (Units=GPa)
#
#
# Indices 1 2 3 4 5 6 
#
# 1 80.8541 33.3424 14.4896 0.0000 8.5470 0.0000
# 2 33.3424 153.4445 52.7708 0.0000 5.5042 0.0000
# 3 14.4896 52.7708 90.7417 0.0000 6.2840 0.0000
# 4 0.0000 0.0000 0.0000 42.1459 0.0000 -5.4158
# 5 8.5470 5.5042 6.2840 0.0000 33.3899 0.0000
# 6 0.0000 0.0000 0.0000 -5.4158 0.0000 19.9544
#
#
#
# Elastic Compliance Matrix: (Units=1/GPa)
#
#
# Indices 1 2 3 4 5 6 
#
# 1 0.013904 -0.002776 -0.000396 0.000000 -0.003027 0.000000
# 2 -0.002776 0.008708 -0.004631 0.000000 0.000147 0.000000
# 3 -0.000396 -0.004631 0.013898 0.000000 -0.001751 0.000000
# 4 0.000000 0.000000 0.000000 0.024585 0.000000 0.006673
# 5 -0.003027 0.000147 -0.001751 0.000000 0.031029 0.000000
# 6 0.000000 0.000000 0.000000 0.006673 0.000000 0.051925
#
#
# Mechanical properties :
#
#
# Convention : Reuss Voigt Hill
#
# Bulk Modulus (GPa) = 47.83996 58.47175 53.15585
# Shear Modulus (GPa) = 30.00800 34.06053 32.03426
#
# Velocity S-wave (km/s) = 3.76537 4.01157 3.89042
# Velocity P-wave (km/s) = 6.44261 7.00595 6.73018
#
# Compressibility (1/GPa) = 0.02090303
#
# Stress axis : x y z
#
# Youngs Moduli (GPa) = 71.92259 114.84219 71.95409
#
# Poissons Ratio (x) = 0.31886 0.02848
# Poissons Ratio (y) = 0.19969 0.33320
# Poissons Ratio (z) = 0.02847 0.53180
#
# Static dielectric constant tensor:
#      x y z
#    x 1.756780 0.000000 -0.009630 
#    y 0.000000 1.795110 0.000000 
#    z -0.009630 0.000000 1.787410 
# 
# From -- ./inp_files/31824.got.cif
#   From: 2010.05.17/outbox.cif.g08.bks.cpg/sg14_16_cif.got.tgz:31824.got - 2010.06.03 17:49:19.
