data_PCOD9252941
_publ_section_title
;
Structure prediction by ZEFSAII (Michael W. Deem and Ramdas Pophale) SiO2 
 PCOD9252941
Probable space group: P 21/C
;
_chemical_formula_sum "Si O2"
_cell_formula_units_Z 28
_cell_length_a 9.807833
_cell_length_b 22.984873
_cell_length_c 9.337395
_cell_angle_alpha 90.000000
_cell_angle_beta 148.662869
_cell_angle_gamma 90.000000
_cell_volume 1094.724894
_symmetry_space_group_name_H-M "P 21/C"
_symmetry_group_IT_number 14
_symmetry_cell_setting 'monoclinic'
loop_
_space_group_symop_operation_xyz
x,y,z
-x,1/2+y,1/2-z
-x,-y,-z
x,1/2-y,1/2+z
loop_
_atom_site_type_symbol
_atom_site_label
_atom_site_fract_x
_atom_site_fract_y
_atom_site_fract_z
Si Si1 0.494882 0.975110 0.653350
Si Si2 0.820511 0.673598 0.869237
Si Si3 0.609583 0.759926 0.898194
Si Si4 0.604601 0.082545 0.949293
Si Si5 0.186228 0.837740 0.069972
Si Si6 0.125324 0.559490 0.043161
Si Si7 0.623306 0.857422 0.690101
O O1 0.391362 0.867058 0.366606
O O2 0.500000 0.000000 0.500000
O O3 0.582434 0.025476 0.837576
O O4 0.673514 0.918336 0.811778
O O5 0.705156 0.711071 0.632180
O O6 0.625189 0.628283 0.769393
O O7 0.830728 0.722205 0.007912
O O8 0.006222 0.624339 0.960655
O O9 0.528191 0.811226 0.719377
O O10 0.347282 0.721567 0.687483
O O11 0.837418 0.121086 0.091358
O O12 0.619472 0.066610 0.127729
O O13 0.894911 0.834420 0.868929
O O14 0.213864 0.545224 0.963137
O O15 0.000000 0.500000 0.000000
#
# Coordination Sequence:
#
# PCOD9252941 Si02
#       7
#     4   4   4   4   4   4   4
#     4  12  27  49  77 120 167 218 285 348 424 511
#     4  11  26  51  79 118 162 217 282 351 428 508
#     4  11  26  51  80 116 163 214 279 351 426 506
#     4  11  26  49  75 113 169 214 280 344 422 506
#     4  11  28  50  78 118 164 216 274 346 420 501
#     4  12  28  47  83 117 168 228 280 351 431 515
#     4  12  28  49  79 121 165 214 276 345 424 501
#
# _framework density 25.577200000000001
#
# number of rings (size 3 to 8) (size 9 to 14) (size 15 to 20)
#    0.000    0.571    4.286    1.286   10.000    4.000 
#    0.000    0.000    0.000    0.000    0.000    0.000 
#    0.000    0.000    0.000    0.000    0.000    0.000 
#
# Total GULP energy -156431.811879 kJ/mol
# GULP energy per Si atom -5586.850424 kJ/mol
# Density = 2.551899 g / cm^3
# Si number density = 25.577200 Si / 1000 Ang^3
#
#
#
# Elastic Constant Matrix: (Units=GPa)
#
#
# Indices 1 2 3 4 5 6 
#
# 1 163.5807 64.5445 27.0719 0.0000 0.4409 0.0000
# 2 64.5445 189.4307 21.0169 0.0000 -2.0917 0.0000
# 3 27.0719 21.0169 64.8001 0.0000 -2.5476 0.0000
# 4 0.0000 0.0000 0.0000 33.7734 0.0000 -2.3537
# 5 0.4409 -2.0917 -2.5476 0.0000 28.2247 0.0000
# 6 0.0000 0.0000 0.0000 -2.3537 0.0000 66.6001
#
#
#
# Elastic Compliance Matrix: (Units=1/GPa)
#
#
# Indices 1 2 3 4 5 6 
#
# 1 0.007401 -0.002263 -0.002377 0.000000 -0.000498 0.000000
# 2 -0.002263 0.006170 -0.001040 0.000000 0.000399 0.000000
# 3 -0.002377 -0.001040 0.016821 0.000000 0.001478 0.000000
# 4 0.000000 0.000000 0.000000 0.029682 0.000000 0.001049
# 5 -0.000498 0.000399 0.001478 0.000000 0.035601 0.000000
# 6 0.000000 0.000000 0.000000 0.001049 0.000000 0.015052
#
#
# Mechanical properties :
#
#
# Convention : Reuss Voigt Hill
#
# Bulk Modulus (GPa) = 52.54797 71.45315 62.00056
# Shear Modulus (GPa) = 38.93119 46.06485 42.49802
#
# Velocity S-wave (km/s) = 3.90565 4.24844 4.08064
# Velocity P-wave (km/s) = 6.39752 7.21544 6.81875
#
# Compressibility (1/GPa) = 0.01903023
#
# Stress axis : x y z
#
# Youngs Moduli (GPa) = 135.11502 162.07502 59.45058
#
# Poissons Ratio (x) = 0.36686 0.14134
# Poissons Ratio (y) = 0.30583 0.06182
# Poissons Ratio (z) = 0.32123 0.16853
#
# Static dielectric constant tensor:
#      x y z
#    x 2.075930 0.000000 0.035930 
#    y 0.000000 2.069310 0.000000 
#    z 0.035930 0.000000 2.074380 
# 
# From -- ./inp_files/26848.got.cif
#   From: 2010.05.17/outbox.cif.g08.bks.cpg/sg14_14_cif.got.tgz:26848.got - 2010.06.03 17:49:19.
