data_PCOD9252668
_publ_section_title
;
Structure prediction by ZEFSAII (Michael W. Deem and Ramdas Pophale) SiO2 
 PCOD9252668
Probable space group: P 21/C
;
_chemical_formula_sum "Si O2"
_cell_formula_units_Z 16
_cell_length_a 16.149616
_cell_length_b 7.555775
_cell_length_c 13.310431
_cell_angle_alpha 90.000000
_cell_angle_beta 155.729028
_cell_angle_gamma 90.000000
_cell_volume 667.622078
_symmetry_space_group_name_H-M "P 21/C"
_symmetry_group_IT_number 14
_symmetry_cell_setting 'monoclinic'
loop_
_space_group_symop_operation_xyz
x,y,z
-x,1/2+y,1/2-z
-x,-y,-z
x,1/2-y,1/2+z
loop_
_atom_site_type_symbol
_atom_site_label
_atom_site_fract_x
_atom_site_fract_y
_atom_site_fract_z
Si Si1 0.872590 0.482039 0.759118
Si Si2 0.372590 0.482039 0.759118
Si Si3 0.454995 0.394656 0.246018
Si Si4 0.954995 0.394656 0.246018
O O1 0.631751 0.492695 0.504462
O O2 0.914556 0.288678 0.757330
O O3 0.946882 0.618809 0.756577
O O4 0.000000 0.500000 0.000000
O O5 0.446882 0.618809 0.756578
O O6 0.414556 0.288678 0.757330
O O7 0.131751 0.492695 0.504461
O O8 0.500000 0.500000 0.000000
O O9 0.250000 0.500000 0.000000
#
# Coordination Sequence:
#
# PCOD9252668 Si02
#       4
#     4   4   4   4
#     4  11  26  47  76 107 145 195 238 301 363 425
#     4  11  26  47  76 107 145 195 238 301 363 425
#     4  11  24  50  71 108 146 188 247 296 354 441
#     4  11  24  50  71 108 146 188 247 296 354 441
#
# _framework density 23.965653
#
# number of rings (size 3 to 8) (size 9 to 14) (size 15 to 20)
#    0.000    1.000    5.000    0.000    0.000   10.000 
#    0.000    0.000    0.000    0.000    0.000    0.000 
#    0.000    0.000    0.000    0.000    0.000    0.000 
#
# Total GULP energy -89561.711954 kJ/mol
# GULP energy per Si atom -5597.606997 kJ/mol
# Density = 2.391111 g / cm^3
# Si number density = 23.965653 Si / 1000 Ang^3
#
#
#
# Elastic Constant Matrix: (Units=GPa)
#
#
# Indices 1 2 3 4 5 6 
#
# 1 58.7416 47.7248 91.0922 0.0000 0.1415 0.0000
# 2 47.7248 150.6876 87.4830 0.0000 -1.2900 0.0000
# 3 91.0922 87.4830 313.2002 0.0000 -10.8548 0.0000
# 4 0.0000 0.0000 0.0000 31.6542 0.0000 7.8553
# 5 0.1415 -1.2900 -10.8548 0.0000 62.8530 0.0000
# 6 0.0000 0.0000 0.0000 7.8553 0.0000 46.8044
#
#
#
# Elastic Compliance Matrix: (Units=1/GPa)
#
#
# Indices 1 2 3 4 5 6 
#
# 1 0.035495 -0.006241 -0.008639 0.000000 -0.001700 0.000000
# 2 -0.006241 0.009021 -0.000702 0.000000 0.000078 0.000000
# 3 -0.008639 -0.000702 0.005937 0.000000 0.001030 0.000000
# 4 0.000000 0.000000 0.000000 0.032964 0.000000 -0.005532
# 5 -0.001700 0.000078 0.001030 0.000000 0.016094 0.000000
# 6 0.000000 0.000000 0.000000 -0.005532 0.000000 0.022294
#
#
# Mechanical properties :
#
#
# Convention : Reuss Voigt Hill
#
# Bulk Modulus (GPa) = 51.84145 108.35883 80.10014
# Shear Modulus (GPa) = 31.36766 48.01760 39.69263
#
# Velocity S-wave (km/s) = 3.62174 4.48102 4.07410
# Velocity P-wave (km/s) = 6.25842 8.49029 7.45831
#
# Compressibility (1/GPa) = 0.01928958
#
# Stress axis : x y z
#
# Youngs Moduli (GPa) = 28.17259 110.85272 168.42586
#
# Poissons Ratio (x) = 0.69181 1.45509
# Poissons Ratio (y) = 0.17582 0.11823
# Poissons Ratio (z) = 0.24339 0.07781
#
# Static dielectric constant tensor:
#      x y z
#    x 1.933680 0.000000 0.072700 
#    y 0.000000 1.987820 0.000000 
#    z 0.072700 0.000000 1.950110 
# 
# From -- ./inp_files/49957.got.cif
#   From: 2010.05.17/outbox.cif.g08.bks.cpg/sg14_25_cif.got.tgz:49957.got - 2010.06.03 17:49:19.
