data_PCOD9252934
_publ_section_title
;
Structure prediction by ZEFSAII (Michael W. Deem and Ramdas Pophale) SiO2 
 PCOD9252934
Probable space group: P 21/C
;
_chemical_formula_sum "Si O2"
_cell_formula_units_Z 20
_cell_length_a 15.919564
_cell_length_b 8.919050
_cell_length_c 11.293739
_cell_angle_alpha 90.000000
_cell_angle_beta 28.823830
_cell_angle_gamma 90.000000
_cell_volume 773.109393
_symmetry_space_group_name_H-M "P 21/C"
_symmetry_group_IT_number 14
_symmetry_cell_setting 'monoclinic'
loop_
_space_group_symop_operation_xyz
x,y,z
-x,1/2+y,1/2-z
-x,-y,-z
x,1/2-y,1/2+z
loop_
_atom_site_type_symbol
_atom_site_label
_atom_site_fract_x
_atom_site_fract_y
_atom_site_fract_z
Si Si1 0.369037 0.360949 0.172939
Si Si2 0.728493 0.437898 0.410316
Si Si3 0.980893 0.461421 0.387612
Si Si4 0.082825 0.890478 0.553432
Si Si5 0.471744 0.223230 0.798874
O O1 0.414070 0.257606 0.231262
O O2 0.500000 0.500000 0.000000
O O3 0.237488 0.905004 0.268729
O O4 0.370801 0.289277 0.039071
O O5 0.911995 0.513823 0.221278
O O6 0.666293 0.290366 0.556961
O O7 0.568629 0.548852 0.632495
O O8 0.810901 0.560986 0.571038
O O9 0.125579 0.530472 0.123908
O O10 0.000000 0.500000 0.500000
O O11 0.964021 0.284922 0.386621
#
# Coordination Sequence:
#
# PCOD9252934 Si02
#       5
#     4   4   4   4   4
#     4  12  26  51  77 118 161 210 270 337 410 491
#     4  11  26  48  80 113 162 210 270 339 408 492
#     4  12  28  48  84 113 163 214 272 338 412 490
#     4  11  27  51  75 118 162 213 277 332 408 493
#     4  12  25  49  81 115 164 212 272 339 414 491
#
# _framework density 25.869561999999998
#
# number of rings (size 3 to 8) (size 9 to 14) (size 15 to 20)
#    0.000    0.400    4.000    2.400    8.400    0.800 
#    7.200    0.000    0.000    0.000    0.000    0.000 
#    0.000    0.000    0.000    0.000    0.000    0.000 
#
# Total GULP energy -111839.428074 kJ/mol
# GULP energy per Si atom -5591.971404 kJ/mol
# Density = 2.581068 g / cm^3
# Si number density = 25.869562 Si / 1000 Ang^3
#
#
#
# Elastic Constant Matrix: (Units=GPa)
#
#
# Indices 1 2 3 4 5 6 
#
# 1 77.1011 49.1621 54.2245 0.0000 27.7791 0.0000
# 2 49.1621 107.4410 70.5036 0.0000 12.9815 0.0000
# 3 54.2245 70.5036 182.6964 0.0000 53.3312 0.0000
# 4 0.0000 0.0000 0.0000 58.6306 0.0000 4.7030
# 5 27.7791 12.9815 53.3312 0.0000 63.2044 0.0000
# 6 0.0000 0.0000 0.0000 4.7030 0.0000 42.9755
#
#
#
# Elastic Compliance Matrix: (Units=1/GPa)
#
#
# Indices 1 2 3 4 5 6 
#
# 1 0.021500 -0.008201 -0.001260 0.000000 -0.006702 0.000000
# 2 -0.008201 0.015783 -0.004992 0.000000 0.004575 0.000000
# 3 -0.001260 -0.004992 0.009703 0.000000 -0.006608 0.000000
# 4 0.000000 0.000000 0.000000 0.017207 0.000000 -0.001883
# 5 -0.006702 0.004575 -0.006608 0.000000 0.023404 0.000000
# 6 0.000000 0.000000 0.000000 -0.001883 0.000000 0.023475
#
#
# Mechanical properties :
#
#
# Convention : Reuss Voigt Hill
#
# Bulk Modulus (GPa) = 55.31142 79.44656 67.37899
# Shear Modulus (GPa) = 34.24515 45.85197 40.04856
#
# Velocity S-wave (km/s) = 3.64230 4.21459 3.93885
# Velocity P-wave (km/s) = 6.25426 7.37976 6.84020
#
# Compressibility (1/GPa) = 0.01807945
#
# Stress axis : x y z
#
# Youngs Moduli (GPa) = 46.51110 63.35798 103.06003
#
# Poissons Ratio (x) = 0.51962 0.12985
# Poissons Ratio (y) = 0.38146 0.51451
# Poissons Ratio (z) = 0.05860 0.31630
#
# Static dielectric constant tensor:
#      x y z
#    x 2.179040 0.000000 0.234260 
#    y 0.000000 1.960950 0.000000 
#    z 0.234260 0.000000 1.641180 
# 
# From -- ./inp_files/31205.got.cif
#   From: 2010.05.17/outbox.cif.g08.bks.cpg/sg14_16_cif.got.tgz:31205.got - 2010.06.03 17:49:19.
