data_PCOD9252649
_publ_section_title
;
Structure prediction by ZEFSAII (Michael W. Deem and Ramdas Pophale) SiO2 
 PCOD9252649
Probable space group: P 21/C
;
_chemical_formula_sum "Si O2"
_cell_formula_units_Z 16
_cell_length_a 5.021048
_cell_length_b 12.501677
_cell_length_c 9.677223
_cell_angle_alpha 90.000000
_cell_angle_beta 92.387229
_cell_angle_gamma 90.000000
_cell_volume 606.926814
_symmetry_space_group_name_H-M "P 21/C"
_symmetry_group_IT_number 14
_symmetry_cell_setting 'monoclinic'
loop_
_space_group_symop_operation_xyz
x,y,z
-x,1/2+y,1/2-z
-x,-y,-z
x,1/2-y,1/2+z
loop_
_atom_site_type_symbol
_atom_site_label
_atom_site_fract_x
_atom_site_fract_y
_atom_site_fract_z
Si Si1 0.489594 0.677043 0.715735
Si Si2 0.224477 0.040129 0.252109
Si Si3 0.835170 0.759273 0.953516
Si Si4 0.747880 0.124609 0.385307
O O1 0.326270 0.569260 0.688216
O O2 0.654465 0.679857 0.859297
O O3 0.688211 0.706253 0.593272
O O4 0.288552 0.776495 0.721804
O O5 0.170578 0.131269 0.136210
O O6 0.456382 0.073258 0.365663
O O7 0.954691 0.038226 0.332871
O O8 0.104038 0.692242 0.991771
#
# Coordination Sequence:
#
# PCOD9252649 Si02
#       4
#     4   4   4   4
#     4  11  27  48  75 105 147 187 239 294 354 424
#     4  11  27  46  76 107 139 194 237 287 363 423
#     4  11  24  49  70 107 146 187 234 300 347 422
#     4  11  25  47  69 109 143 182 239 298 344 420
#
# _framework density 26.362323
#
# number of rings (size 3 to 8) (size 9 to 14) (size 15 to 20)
#    0.000    1.000    5.000    0.750   10.500    3.000 
#    0.000    0.000    0.000    0.000    0.000    0.000 
#    0.000    0.000    0.000    0.000    0.000    0.000 
#
# Total GULP energy -89485.151090 kJ/mol
# GULP energy per Si atom -5592.821943 kJ/mol
# Density = 2.630232 g / cm^3
# Si number density = 26.362323 Si / 1000 Ang^3
#
#
#
# Elastic Constant Matrix: (Units=GPa)
#
#
# Indices 1 2 3 4 5 6 
#
# 1 122.9680 6.1529 44.9046 0.0000 25.2357 0.0000
# 2 6.1529 102.3884 -7.6731 0.0000 -3.2194 0.0000
# 3 44.9046 -7.6731 124.9950 0.0000 1.5885 0.0000
# 4 0.0000 0.0000 0.0000 28.8893 0.0000 -0.4732
# 5 25.2357 -3.2194 1.5885 0.0000 47.2659 0.0000
# 6 0.0000 0.0000 0.0000 -0.4732 0.0000 28.1184
#
#
#
# Elastic Compliance Matrix: (Units=1/GPa)
#
#
# Indices 1 2 3 4 5 6 
#
# 1 0.010768 -0.001116 -0.003865 0.000000 -0.005695 0.000000
# 2 -0.001116 0.009947 0.000996 0.000000 0.001240 0.000000
# 3 -0.003865 0.000996 0.009427 0.000000 0.001814 0.000000
# 4 0.000000 0.000000 0.000000 0.034624 0.000000 0.000583
# 5 -0.005695 0.001240 0.001814 0.000000 0.024221 0.000000
# 6 0.000000 0.000000 0.000000 0.000583 0.000000 0.035574
#
#
# Mechanical properties :
#
#
# Convention : Reuss Voigt Hill
#
# Bulk Modulus (GPa) = 45.09996 48.56890 46.83443
# Shear Modulus (GPa) = 35.73429 41.31919 38.52674
#
# Velocity S-wave (km/s) = 3.68571 3.96328 3.82702
# Velocity P-wave (km/s) = 5.93780 6.27751 6.11002
#
# Compressibility (1/GPa) = 0.02217297
#
# Stress axis : x y z
#
# Youngs Moduli (GPa) = 92.86737 100.52895 106.08131
#
# Poissons Ratio (x) = 0.11217 0.40996
# Poissons Ratio (y) = 0.10362 -0.10563
# Poissons Ratio (z) = 0.35889 -0.10010
#
# Static dielectric constant tensor:
#      x y z
#    x 2.124420 0.000000 -0.023800 
#    y 0.000000 2.063010 0.000000 
#    z -0.023800 0.000000 2.057470 
# 
# From -- ./inp_files/5146.got.cif
#   From: 2010.05.17/outbox.cif.g08.bks.cpg/sg14_3_cif.got.tgz:5146.got - 2010.06.03 17:49:19.
