data_PCOD9252492
_publ_section_title
;
Structure prediction by ZEFSAII (Michael W. Deem and Ramdas Pophale) SiO2 
 PCOD9252492
Probable space group: P 21/C
;
_chemical_formula_sum "Si O2"
_cell_formula_units_Z 20
_cell_length_a 17.555048
_cell_length_b 7.386961
_cell_length_c 18.640784
_cell_angle_alpha 90.000000
_cell_angle_beta 159.826462
_cell_angle_gamma 90.000000
_cell_volume 833.644270
_symmetry_space_group_name_H-M "P 21/C"
_symmetry_group_IT_number 14
_symmetry_cell_setting 'monoclinic'
loop_
_space_group_symop_operation_xyz
x,y,z
-x,1/2+y,1/2-z
-x,-y,-z
x,1/2-y,1/2+z
loop_
_atom_site_type_symbol
_atom_site_label
_atom_site_fract_x
_atom_site_fract_y
_atom_site_fract_z
Si Si1 0.025287 0.363796 0.658740
Si Si2 0.835993 0.842041 0.562616
Si Si3 0.398497 0.459203 0.726248
Si Si4 0.615148 0.153974 0.554573
Si Si5 0.121877 0.995427 0.683733
O O1 0.155996 0.551265 0.763397
O O2 0.779723 0.387126 0.409683
O O3 0.162134 0.203464 0.741772
O O4 0.017072 0.322552 0.736271
O O5 0.728703 0.652293 0.446180
O O6 0.625276 0.961948 0.397908
O O7 0.963873 0.925948 0.608685
O O8 0.463011 0.331396 0.849586
O O9 0.681113 0.348743 0.643425
O O10 0.500000 0.000000 0.500000
O O11 0.000000 0.000000 0.500000
#
# Coordination Sequence:
#
# PCOD9252492 Si02
#       5
#     4   4   4   4   4
#     4  11  25  48  73 103 150 190 246 311 371 442
#     4  11  25  43  74 108 144 191 249 308 371 445
#     4  11  24  44  75 104 146 192 250 306 377 444
#     4  11  27  47  70 104 148 197 246 303 371 445
#     4  12  27  46  75 108 150 196 247 308 375 441
#
# _framework density 23.991049
#
# number of rings (size 3 to 8) (size 9 to 14) (size 15 to 20)
#    0.000    0.800    2.000    3.600   11.200    4.000 
#    0.000    0.000    0.000    0.000    0.000    0.000 
#    0.000    0.000    0.000    0.000    0.000    0.000 
#
# Total GULP energy -111953.896603 kJ/mol
# GULP energy per Si atom -5597.694830 kJ/mol
# Density = 2.393644 g / cm^3
# Si number density = 23.991049 Si / 1000 Ang^3
#
#
#
# Elastic Constant Matrix: (Units=GPa)
#
#
# Indices 1 2 3 4 5 6 
#
# 1 76.0928 19.4272 40.4036 0.0000 -12.1232 0.0000
# 2 19.4272 145.8468 52.9567 0.0000 -14.1798 0.0000
# 3 40.4036 52.9567 121.0379 0.0000 -10.5334 0.0000
# 4 0.0000 0.0000 0.0000 52.6151 0.0000 3.6967
# 5 -12.1232 -14.1798 -10.5334 0.0000 42.9967 0.0000
# 6 0.0000 0.0000 0.0000 3.6967 0.0000 39.8408
#
#
#
# Elastic Compliance Matrix: (Units=1/GPa)
#
#
# Indices 1 2 3 4 5 6 
#
# 1 0.016435 0.000028 -0.005206 0.000000 0.003368 0.000000
# 2 0.000028 0.008299 -0.003476 0.000000 0.001893 0.000000
# 3 -0.005206 -0.003476 0.011539 0.000000 0.000213 0.000000
# 4 0.000000 0.000000 0.000000 0.019131 0.000000 -0.001775
# 5 0.003368 0.001893 0.000213 0.000000 0.024884 0.000000
# 6 0.000000 0.000000 0.000000 -0.001775 0.000000 0.025265
#
#
# Mechanical properties :
#
#
# Convention : Reuss Voigt Hill
#
# Bulk Modulus (GPa) = 52.72264 63.17250 57.94757
# Shear Modulus (GPa) = 38.70577 42.43653 40.57115
#
# Velocity S-wave (km/s) = 4.02100 4.21033 4.11675
# Velocity P-wave (km/s) = 6.60164 7.07281 6.84128
#
# Compressibility (1/GPa) = 0.01896718
#
# Stress axis : x y z
#
# Youngs Moduli (GPa) = 60.84490 120.49941 86.66488
#
# Poissons Ratio (x) = -0.00342 0.45114
# Poissons Ratio (y) = -0.00173 0.30121
# Poissons Ratio (z) = 0.31673 0.41881
#
# Static dielectric constant tensor:
#      x y z
#    x 1.954880 0.000000 0.050290 
#    y 0.000000 1.947910 0.000000 
#    z 0.050290 0.000000 1.896650 
# 
# From -- ./inp_files/60391.got.cif
#   From: 2010.05.17/outbox.cif.g08.bks.cpg/sg14_31_cif.got.tgz:60391.got - 2010.06.03 17:49:19.
