data_PCOD9252481
_publ_section_title
;
Structure prediction by ZEFSAII (Michael W. Deem and Ramdas Pophale) SiO2 
 PCOD9252481
Probable space group: P 21/C
;
_chemical_formula_sum "Si O2"
_cell_formula_units_Z 32
_cell_length_a 11.475268
_cell_length_b 14.085990
_cell_length_c 8.779732
_cell_angle_alpha 90.000000
_cell_angle_beta 99.115692
_cell_angle_gamma 90.000000
_cell_volume 1401.237009
_symmetry_space_group_name_H-M "P 21/C"
_symmetry_group_IT_number 14
_symmetry_cell_setting 'monoclinic'
loop_
_space_group_symop_operation_xyz
x,y,z
-x,1/2+y,1/2-z
-x,-y,-z
x,1/2-y,1/2+z
loop_
_atom_site_type_symbol
_atom_site_label
_atom_site_fract_x
_atom_site_fract_y
_atom_site_fract_z
Si Si1 0.606833 0.731916 0.317101
Si Si2 0.495071 0.447225 0.835292
Si Si3 0.392556 0.872897 0.225098
Si Si4 0.001222 0.590161 0.611058
Si Si5 0.825970 0.082311 0.600784
Si Si6 0.253026 0.558904 0.226016
Si Si7 0.196196 0.801732 0.968327
Si Si8 0.259783 0.139961 0.874675
O O1 0.587984 0.643815 0.196422
O O2 0.486993 0.795597 0.307549
O O3 0.653013 0.682235 0.479799
O O4 0.705533 0.801846 0.269006
O O5 0.463871 0.530671 0.709208
O O6 0.622279 0.408209 0.814845
O O7 0.500000 0.500000 0.000000
O O8 0.290940 0.915833 0.316406
O O9 0.322344 0.826184 0.071196
O O10 0.058396 0.556116 0.781233
O O11 0.097487 0.659038 0.559410
O O12 0.000000 0.500000 0.500000
O O13 0.876860 0.642558 0.603932
O O14 0.813426 0.026350 0.440711
O O15 0.828441 0.192390 0.556921
O O16 0.193117 0.642589 0.308090
O O17 0.273396 0.471467 0.342820
#
# Coordination Sequence:
#
# PCOD9252481 Si02
#       8
#     4   4   4   4   4   4   4   4
#     4  12  28  47  73 107 156 193 244 310 374 453
#     4  12  24  41  71 107 156 194 237 298 376 455
#     4  11  24  44  72 108 145 192 242 301 375 439
#     4  11  26  52  71 101 146 194 246 308 366 435
#     4  11  25  44  76 105 138 189 250 300 362 440
#     4  12  24  44  74 110 140 191 247 298 373 441
#     4  11  24  46  74 107 140 184 252 310 358 431
#     4  12  29  48  69 107 146 201 243 303 380 439
#
# _framework density 22.836963999999998
#
# number of rings (size 3 to 8) (size 9 to 14) (size 15 to 20)
#    0.000    0.500    3.750    4.500    7.000    1.500 
#    0.000    0.000    0.000    0.000    0.000    0.000 
#    0.000    0.000    0.000    0.000    0.000    0.000 
#
# Total GULP energy -178925.563647 kJ/mol
# GULP energy per Si atom -5591.423864 kJ/mol
# Density = 2.278499 g / cm^3
# Si number density = 22.836964 Si / 1000 Ang^3
#
#
#
# Elastic Constant Matrix: (Units=GPa)
#
#
# Indices 1 2 3 4 5 6 
#
# 1 80.5225 3.6759 16.7510 0.0000 6.2893 0.0000
# 2 3.6759 79.3281 -2.0652 0.0000 12.5864 0.0000
# 3 16.7510 -2.0652 83.3311 0.0000 17.2142 0.0000
# 4 0.0000 0.0000 0.0000 32.4728 0.0000 -9.5635
# 5 6.2893 12.5864 17.2142 0.0000 39.5602 0.0000
# 6 0.0000 0.0000 0.0000 -9.5635 0.0000 22.9780
#
#
#
# Elastic Compliance Matrix: (Units=1/GPa)
#
#
# Indices 1 2 3 4 5 6 
#
# 1 0.013020 -0.000536 -0.002459 0.000000 -0.000829 0.000000
# 2 -0.000536 0.013432 0.001435 0.000000 -0.004812 0.000000
# 3 -0.002459 0.001435 0.013783 0.000000 -0.006063 0.000000
# 4 0.000000 0.000000 0.000000 0.035097 0.000000 0.014608
# 5 -0.000829 -0.004812 -0.006063 0.000000 0.029579 0.000000
# 6 0.000000 0.000000 0.000000 0.014608 0.000000 0.049600
#
#
# Mechanical properties :
#
#
# Convention : Reuss Voigt Hill
#
# Bulk Modulus (GPa) = 26.94429 31.10058 29.02244
# Shear Modulus (GPa) = 29.41153 33.99019 31.70086
#
# Velocity S-wave (km/s) = 3.59261 3.86214 3.72981
# Velocity P-wave (km/s) = 5.38826 5.79105 5.59328
#
# Compressibility (1/GPa) = 0.03711361
#
# Stress axis : x y z
#
# Youngs Moduli (GPa) = 76.80670 74.45126 72.55498
#
# Poissons Ratio (x) = 0.03989 0.17842
# Poissons Ratio (y) = 0.04115 -0.10410
# Poissons Ratio (z) = 0.18888 -0.10682
#
# Static dielectric constant tensor:
#      x y z
#    x 1.958580 0.000000 -0.012440 
#    y 0.000000 1.808180 0.000000 
#    z -0.012440 0.000000 1.964690 
# 
# From -- ./inp_files/13335.got.cif
#   From: 2010.05.17/outbox.cif.g08.bks.cpg/sg14_7_cif.got.tgz:13335.got - 2010.06.03 17:49:19.
