data_PCOD9252059
_publ_section_title
;
Structure prediction by ZEFSAII (Michael W. Deem and Ramdas Pophale) SiO2 
 PCOD9252059
Probable space group: P 21/C
;
_chemical_formula_sum "Si O2"
_cell_formula_units_Z 28
_cell_length_a 13.125590
_cell_length_b 9.489421
_cell_length_c 13.481194
_cell_angle_alpha 90.000000
_cell_angle_beta 55.063998
_cell_angle_gamma 90.000000
_cell_volume 1376.545881
_symmetry_space_group_name_H-M "P 21/C"
_symmetry_group_IT_number 14
_symmetry_cell_setting 'monoclinic'
loop_
_space_group_symop_operation_xyz
x,y,z
-x,1/2+y,1/2-z
-x,-y,-z
x,1/2-y,1/2+z
loop_
_atom_site_type_symbol
_atom_site_label
_atom_site_fract_x
_atom_site_fract_y
_atom_site_fract_z
Si Si1 0.772451 0.703395 0.201468
Si Si2 0.324320 0.051196 0.858070
Si Si3 0.390465 0.944431 0.287637
Si Si4 0.791468 0.751088 0.413407
Si Si5 0.008691 0.348481 0.051024
Si Si6 0.634599 0.471082 0.972010
Si Si7 0.253409 0.799218 0.769726
O O1 0.682239 0.833845 0.227306
O O2 0.704068 0.568541 0.191720
O O3 0.804047 0.685373 0.298101
O O4 0.902713 0.735664 0.074589
O O5 0.466145 0.012480 0.802423
O O6 0.254566 0.916351 0.855088
O O7 0.259640 0.131016 0.984964
O O8 0.361857 0.811390 0.234591
O O9 0.370631 0.906658 0.414423
O O10 0.911372 0.830115 0.392698
O O11 0.692652 0.875628 0.457666
O O12 0.874996 0.285021 0.149173
O O13 0.000000 0.500000 0.000000
O O14 0.284221 0.622552 0.149350
O O15 0.500000 0.500000 0.000000
#
# Coordination Sequence:
#
# PCOD9252059 Si02
#       7
#     4   4   4   4   4   4   4
#     4  11  23  45  68  95 141 184 227 300 364 409
#     4  11  23  42  69 105 136 182 236 294 357 437
#     4  12  23  43  71 101 148 179 232 307 362 425
#     4  11  24  43  69  98 142 190 229 302 365 417
#     4  11  24  48  66  96 146 181 236 294 356 426
#     4  12  22  43  71 102 141 190 236 293 375 431
#     4  12  25  41  73 107 132 193 247 285 358 445
#
# _framework density 20.340767
#
# number of rings (size 3 to 8) (size 9 to 14) (size 15 to 20)
#    0.000    0.571    7.143    1.714    0.000    6.286 
#    2.571    0.000    0.000    0.000    0.000    0.000 
#    0.000    0.000    0.000    0.000    0.000    0.000 
#
# Total GULP energy -156311.162643 kJ/mol
# GULP energy per Si atom -5582.541523 kJ/mol
# Density = 2.029447 g / cm^3
# Si number density = 20.340767 Si / 1000 Ang^3
#
#
#
# Elastic Constant Matrix: (Units=GPa)
#
#
# Indices 1 2 3 4 5 6 
#
# 1 140.8073 38.0545 51.0858 0.0000 4.4218 0.0000
# 2 38.0545 65.5491 4.0099 0.0000 -4.0149 0.0000
# 3 51.0858 4.0099 83.9377 0.0000 10.4391 0.0000
# 4 0.0000 0.0000 0.0000 30.3935 0.0000 0.3110
# 5 4.4218 -4.0149 10.4391 0.0000 39.2385 0.0000
# 6 0.0000 0.0000 0.0000 0.3110 0.0000 32.7749
#
#
#
# Elastic Compliance Matrix: (Units=1/GPa)
#
#
# Indices 1 2 3 4 5 6 
#
# 1 0.011074 -0.006045 -0.006432 0.000000 -0.000155 0.000000
# 2 -0.006045 0.018727 0.002546 0.000000 0.001920 0.000000
# 3 -0.006432 0.002546 0.016117 0.000000 -0.003303 0.000000
# 4 0.000000 0.000000 0.000000 0.032905 0.000000 -0.000312
# 5 -0.000155 0.001920 -0.003303 0.000000 0.026578 0.000000
# 6 0.000000 0.000000 0.000000 -0.000312 0.000000 0.030514
#
#
# Mechanical properties :
#
#
# Convention : Reuss Voigt Hill
#
# Bulk Modulus (GPa) = 38.37879 52.95496 45.66688
# Shear Modulus (GPa) = 30.40206 33.62431 32.01319
#
# Velocity S-wave (km/s) = 3.87025 4.07018 3.97147
# Velocity P-wave (km/s) = 6.23543 6.94111 6.59771
#
# Compressibility (1/GPa) = 0.02605606
#
# Stress axis : x y z
#
# Youngs Moduli (GPa) = 90.30177 53.39864 62.04570
#
# Poissons Ratio (x) = 0.32280 0.39906
# Poissons Ratio (y) = 0.54588 -0.15795
# Poissons Ratio (z) = 0.58079 -0.13594
#
# Static dielectric constant tensor:
#      x y z
#    x 1.754010 0.000000 0.014930 
#    y 0.000000 1.736880 0.000000 
#    z 0.014930 0.000000 1.745550 
# 
# From -- ./inp_files/43305.got.cif
#   From: 2010.05.17/outbox.cif.g08.bks.cpg/sg14_22_cif.got.tgz:43305.got - 2010.06.03 17:49:19.
