data_PCOD9252202
_publ_section_title
;
Structure prediction by ZEFSAII (Michael W. Deem and Ramdas Pophale) SiO2 
 PCOD9252202
Probable space group: P 21/C
;
_chemical_formula_sum "Si O2"
_cell_formula_units_Z 22
_cell_length_a 9.856380
_cell_length_b 8.116400
_cell_length_c 17.608066
_cell_angle_alpha 90.000000
_cell_angle_beta 142.984694
_cell_angle_gamma 90.000000
_cell_volume 848.026612
_symmetry_space_group_name_H-M "P 21/C"
_symmetry_group_IT_number 14
_symmetry_cell_setting 'monoclinic'
loop_
_space_group_symop_operation_xyz
x,y,z
-x,1/2+y,1/2-z
-x,-y,-z
x,1/2-y,1/2+z
loop_
_atom_site_type_symbol
_atom_site_label
_atom_site_fract_x
_atom_site_fract_y
_atom_site_fract_z
Si Si1 0.554581 0.015779 0.692095
Si Si2 0.000000 0.500000 0.500000
Si Si3 0.330102 0.341622 0.524129
Si Si4 0.851741 0.812599 0.711958
Si Si5 0.810886 0.027332 0.246263
Si Si6 0.194903 0.724690 0.103701
O O1 0.420929 0.180608 0.610562
O O2 0.722171 0.084619 0.834267
O O3 0.698333 0.945679 0.686656
O O4 0.386159 0.876664 0.647146
O O5 0.130880 0.437214 0.475934
O O6 0.988963 0.700549 0.466795
O O7 0.274905 0.267860 0.417304
O O8 0.543622 0.462781 0.618925
O O9 0.898760 0.655920 0.784542
O O10 0.074896 0.885426 0.774329
O O11 0.867185 0.123043 0.349316
#
# Coordination Sequence:
#
# PCOD9252202 Si02
#       6
#     4   2   4   4   4   4
#     4  11  24  45  73  99 145 182 240 293 357 428
#     4  12  24  44  68 100 144 174 240 292 348 426
#     4  11  25  45  71 106 138 189 237 295 359 424
#     4  12  24  46  71 107 140 189 235 302 356 427
#     4  11  24  45  71 102 145 183 242 288 366 416
#     4  11  23  45  66 104 135 190 232 288 360 422
#
# _framework density 25.942582999999999
#
# number of rings (size 3 to 8) (size 9 to 14) (size 15 to 20)
#    0.000    0.727    1.818    7.636    0.000    0.727 
#    3.273    0.000    0.000    0.000    0.000    0.000 
#    0.000    0.000    0.000    0.000    0.000    0.000 
#
# Total GULP energy -122994.033665 kJ/mol
# GULP energy per Si atom -5590.637894 kJ/mol
# Density = 2.588354 g / cm^3
# Si number density = 25.942583 Si / 1000 Ang^3
#
#
#
# Elastic Constant Matrix: (Units=GPa)
#
#
# Indices 1 2 3 4 5 6 
#
# 1 209.6358 75.1328 24.3463 0.0000 12.1935 0.0000
# 2 75.1328 106.7534 23.8389 0.0000 -2.6107 0.0000
# 3 24.3463 23.8389 43.3743 0.0000 -27.2026 0.0000
# 4 0.0000 0.0000 0.0000 47.3128 0.0000 -0.7574
# 5 12.1935 -2.6107 -27.2026 0.0000 42.0589 0.0000
# 6 0.0000 0.0000 0.0000 -0.7574 0.0000 80.6566
#
#
#
# Elastic Compliance Matrix: (Units=1/GPa)
#
#
# Indices 1 2 3 4 5 6 
#
# 1 0.007180 -0.003952 -0.005582 0.000000 -0.005937 0.000000
# 2 -0.003952 0.013596 -0.006740 0.000000 -0.002370 0.000000
# 3 -0.005582 -0.006740 0.051559 0.000000 0.034547 0.000000
# 4 0.000000 0.000000 0.000000 0.021139 0.000000 0.000198
# 5 -0.005937 -0.002370 0.034547 0.000000 0.047694 0.000000
# 6 0.000000 0.000000 0.000000 0.000198 0.000000 0.012400
#
#
# Mechanical properties :
#
#
# Convention : Reuss Voigt Hill
#
# Bulk Modulus (GPa) = 25.13369 67.37772 46.25570
# Shear Modulus (GPa) = 25.07773 49.76869 37.42321
#
# Velocity S-wave (km/s) = 3.11249 4.38473 3.80220
# Velocity P-wave (km/s) = 4.75668 7.18767 6.09462
#
# Compressibility (1/GPa) = 0.03978723
#
# Stress axis : x y z
#
# Youngs Moduli (GPa) = 139.27253 73.55013 19.39514
#
# Poissons Ratio (x) = 0.29068 0.10826
# Poissons Ratio (y) = 0.55043 0.13073
# Poissons Ratio (z) = 0.77736 0.49576
#
# Static dielectric constant tensor:
#      x y z
#    x 2.027310 0.000000 0.052820 
#    y 0.000000 2.055380 0.000000 
#    z 0.052820 0.000000 2.368170 
# 
# From -- ./inp_files/54989.got.cif
#   From: 2010.05.17/outbox.cif.g08.bks.cpg/sg14_28_cif.got.tgz:54989.got - 2010.06.03 17:49:19.
