data_PCOD9252822
_publ_section_title
;
Structure prediction by ZEFSAII (Michael W. Deem and Ramdas Pophale) SiO2 
 PCOD9252822
Probable space group: P 21/C
;
_chemical_formula_sum "Si O2"
_cell_formula_units_Z 20
_cell_length_a 13.326870
_cell_length_b 12.629220
_cell_length_c 14.146968
_cell_angle_alpha 90.000000
_cell_angle_beta 19.066561
_cell_angle_gamma 90.000000
_cell_volume 777.808103
_symmetry_space_group_name_H-M "P 21/C"
_symmetry_group_IT_number 14
_symmetry_cell_setting 'monoclinic'
loop_
_space_group_symop_operation_xyz
x,y,z
-x,1/2+y,1/2-z
-x,-y,-z
x,1/2-y,1/2+z
loop_
_atom_site_type_symbol
_atom_site_label
_atom_site_fract_x
_atom_site_fract_y
_atom_site_fract_z
Si Si1 0.583955 0.742048 0.246259
Si Si2 0.139962 0.559210 0.593324
Si Si3 0.545275 0.646272 0.603434
Si Si4 0.919641 0.377487 0.075786
Si Si5 0.504739 0.982400 0.384403
O O1 0.298253 0.663072 0.492673
O O2 0.676602 0.767364 0.054728
O O3 0.513768 0.857245 0.353251
O O4 0.163954 0.845323 0.458195
O O5 0.548257 0.355333 0.423943
O O6 0.782144 0.534564 0.915536
O O7 0.212399 0.541290 0.417604
O O8 0.134556 0.310874 0.949535
O O9 0.317099 0.464383 0.489416
O O10 0.000000 0.500000 0.000000
O O11 0.500000 0.000000 0.500000
#
# Coordination Sequence:
#
# PCOD9252822 Si02
#       5
#     4   4   4   4   4
#     4  11  28  47  81 111 158 209 248 319 397 441
#     4  11  25  47  74 105 156 199 253 319 375 455
#     4  11  26  47  71 114 153 192 263 319 372 456
#     4  12  26  48  78 112 147 205 262 309 378 462
#     4  11  27  48  73 114 152 198 261 314 378 461
#
# _framework density 25.713283000000001
#
# number of rings (size 3 to 8) (size 9 to 14) (size 15 to 20)
#    0.000    0.800    2.000    3.600    5.600    8.000 
#    0.000    0.000    0.000    0.000    0.000    0.000 
#    0.000    0.000    0.000    0.000    0.000    0.000 
#
# Total GULP energy -111439.365825 kJ/mol
# GULP energy per Si atom -5571.968291 kJ/mol
# Density = 2.565476 g / cm^3
# Si number density = 25.713283 Si / 1000 Ang^3
#
#
#
# Elastic Constant Matrix: (Units=GPa)
#
#
# Indices 1 2 3 4 5 6 
#
# 1 133.0316 57.2761 38.7460 0.0000 -21.9128 0.0000
# 2 57.2761 163.2456 40.4562 0.0000 -24.5416 0.0000
# 3 38.7460 40.4562 69.5764 0.0000 -18.2705 0.0000
# 4 0.0000 0.0000 0.0000 31.3872 0.0000 -14.2278
# 5 -21.9128 -24.5416 -18.2705 0.0000 53.6189 0.0000
# 6 0.0000 0.0000 0.0000 -14.2278 0.0000 31.4815
#
#
#
# Elastic Compliance Matrix: (Units=1/GPa)
#
#
# Indices 1 2 3 4 5 6 
#
# 1 0.009865 -0.002282 -0.003715 0.000000 0.001721 0.000000
# 2 -0.002282 0.007894 -0.002873 0.000000 0.001702 0.000000
# 3 -0.003715 -0.002873 0.019075 0.000000 0.003667 0.000000
# 4 0.000000 0.000000 0.000000 0.040069 0.000000 0.018109
# 5 0.001721 0.001702 0.003667 0.000000 0.021382 0.000000
# 6 0.000000 0.000000 0.000000 0.018109 0.000000 0.039949
#
#
# Mechanical properties :
#
#
# Convention : Reuss Voigt Hill
#
# Bulk Modulus (GPa) = 52.36901 70.97889 61.67395
# Shear Modulus (GPa) = 30.80022 38.58919 34.69470
#
# Velocity S-wave (km/s) = 3.46473 3.87815 3.67725
# Velocity P-wave (km/s) = 6.03461 6.90777 6.48590
#
# Compressibility (1/GPa) = 0.01909526
#
# Stress axis : x y z
#
# Youngs Moduli (GPa) = 101.36925 126.67770 52.42589
#
# Poissons Ratio (x) = 0.28905 0.19475
# Poissons Ratio (y) = 0.23130 0.15059
# Poissons Ratio (z) = 0.37657 0.36388
#
# Static dielectric constant tensor:
#      x y z
#    x 1.985950 0.000000 0.165530 
#    y 0.000000 1.949090 0.000000 
#    z 0.165530 0.000000 2.122830 
# 
# From -- ./inp_files/59346.got.cif
#   From: 2010.05.17/outbox.cif.g08.bks.cpg/sg14_30_cif.got.tgz:59346.got - 2010.06.03 17:49:19.
