data_PCOD9252298
_publ_section_title
;
Structure prediction by ZEFSAII (Michael W. Deem and Ramdas Pophale) SiO2 
 PCOD9252298
Probable space group: P 21/C
;
_chemical_formula_sum "Si O2"
_cell_formula_units_Z 28
_cell_length_a 8.387889
_cell_length_b 9.078084
_cell_length_c 19.172478
_cell_angle_alpha 90.000000
_cell_angle_beta 56.785331
_cell_angle_gamma 90.000000
_cell_volume 1221.393176
_symmetry_space_group_name_H-M "P 21/C"
_symmetry_group_IT_number 14
_symmetry_cell_setting 'monoclinic'
loop_
_space_group_symop_operation_xyz
x,y,z
-x,1/2+y,1/2-z
-x,-y,-z
x,1/2-y,1/2+z
loop_
_atom_site_type_symbol
_atom_site_label
_atom_site_fract_x
_atom_site_fract_y
_atom_site_fract_z
Si Si1 0.985035 0.435840 0.815146
Si Si2 0.964888 0.013307 0.155627
Si Si3 0.608275 0.131504 0.589351
Si Si4 0.671078 0.757305 0.224570
Si Si5 0.306325 0.815202 0.063800
Si Si6 0.008046 0.816844 0.424508
Si Si7 0.398538 0.197508 0.411930
O O1 0.842345 0.306036 0.870971
O O2 0.955940 0.475392 0.741662
O O3 0.196873 0.372125 0.776483
O O4 0.956785 0.570897 0.874630
O O5 0.178250 0.959157 0.085840
O O6 0.812829 0.890552 0.170228
O O7 0.925117 0.166477 0.127743
O O8 0.472872 0.185011 0.683318
O O9 0.612056 0.249848 0.527031
O O10 0.822308 0.119711 0.568821
O O11 0.547175 0.969309 0.578482
O O12 0.572053 0.705174 0.177662
O O13 0.475171 0.817601 0.079028
O O14 0.822423 0.786030 0.515286
#
# Coordination Sequence:
#
# PCOD9252298 Si02
#       7
#     4   4   4   4   4   4   4
#     4  11  23  47  74 101 139 186 233 283 350 420
#     4  11  27  45  70 108 143 181 236 294 357 407
#     4  12  26  45  74 105 139 186 239 288 355 422
#     4  11  27  45  72 103 141 179 237 290 350 419
#     4  11  26  46  73 103 141 183 234 292 348 423
#     4  12  25  45  74  99 143 190 231 294 346 427
#     4  12  26  46  73 104 138 189 238 283 356 426
#
# _framework density 22.92464
#
# number of rings (size 3 to 8) (size 9 to 14) (size 15 to 20)
#    0.000    0.571    2.857    5.143   10.000    2.857 
#    0.000    0.000    0.000    0.000    0.000    0.000 
#    0.000    0.000    0.000    0.000    0.000    0.000 
#
# Total GULP energy -156983.228622 kJ/mol
# GULP energy per Si atom -5606.543879 kJ/mol
# Density = 2.287246 g / cm^3
# Si number density = 22.924640 Si / 1000 Ang^3
#
#
#
# Elastic Constant Matrix: (Units=GPa)
#
#
# Indices 1 2 3 4 5 6 
#
# 1 60.5038 -8.6814 4.6987 0.0000 -3.7528 0.0000
# 2 -8.6814 49.9857 -8.8222 0.0000 4.6657 0.0000
# 3 4.6987 -8.8222 91.1922 0.0000 -6.4457 0.0000
# 4 0.0000 0.0000 0.0000 40.1403 0.0000 2.7575
# 5 -3.7528 4.6657 -6.4457 0.0000 38.5192 0.0000
# 6 0.0000 0.0000 0.0000 2.7575 0.0000 15.8013
#
#
#
# Elastic Compliance Matrix: (Units=1/GPa)
#
#
# Indices 1 2 3 4 5 6 
#
# 1 0.017040 0.002751 -0.000524 0.000000 0.001239 0.000000
# 2 0.002751 0.020977 0.001748 0.000000 -0.001980 0.000000
# 3 -0.000524 0.001748 0.011277 0.000000 0.001624 0.000000
# 4 0.000000 0.000000 0.000000 0.025215 0.000000 -0.004400
# 5 0.001239 -0.001980 0.001624 0.000000 0.026593 0.000000
# 6 0.000000 0.000000 0.000000 -0.004400 0.000000 0.064054
#
#
# Mechanical properties :
#
#
# Convention : Reuss Voigt Hill
#
# Bulk Modulus (GPa) = 17.46931 19.56354 18.51643
# Shear Modulus (GPa) = 28.36274 33.19128 30.77701
#
# Velocity S-wave (km/s) = 3.52122 3.80918 3.66803
# Velocity P-wave (km/s) = 4.91619 5.28194 5.10234
#
# Compressibility (1/GPa) = 0.05724325
#
# Stress axis : x y z
#
# Youngs Moduli (GPa) = 58.68459 47.67159 88.67814
#
# Poissons Ratio (x) = -0.13116 0.04649
# Poissons Ratio (y) = -0.16146 -0.15498
# Poissons Ratio (z) = 0.03077 -0.08331
#
# Static dielectric constant tensor:
#      x y z
#    x 1.835220 0.000000 -0.029920 
#    y 0.000000 1.823380 0.000000 
#    z -0.029920 0.000000 1.809180 
# 
# From -- ./inp_files/64991.got.cif
#   From: 2010.05.17/outbox.cif.g08.bks.cpg/sg14_33_cif.got.tgz:64991.got - 2010.06.03 17:49:19.
