data_PCOD9252568
_publ_section_title
;
Structure prediction by ZEFSAII (Michael W. Deem and Ramdas Pophale) SiO2 
 PCOD9252568
Probable space group: P 21/C
;
_chemical_formula_sum "Si O2"
_cell_formula_units_Z 26
_cell_length_a 14.273837
_cell_length_b 5.581847
_cell_length_c 13.416274
_cell_angle_alpha 90.000000
_cell_angle_beta 105.976438
_cell_angle_gamma 90.000000
_cell_volume 1027.645653
_symmetry_space_group_name_H-M "P 21/C"
_symmetry_group_IT_number 14
_symmetry_cell_setting 'monoclinic'
loop_
_space_group_symop_operation_xyz
x,y,z
-x,1/2+y,1/2-z
-x,-y,-z
x,1/2-y,1/2+z
loop_
_atom_site_type_symbol
_atom_site_label
_atom_site_fract_x
_atom_site_fract_y
_atom_site_fract_z
Si Si1 0.876989 0.435741 0.541853
Si Si2 0.314022 0.855854 0.500657
Si Si3 0.000000 0.000000 0.500000
Si Si4 0.783596 0.727189 0.878083
Si Si5 0.094306 0.918878 0.728237
Si Si6 0.552907 0.337616 0.788496
Si Si7 0.719506 0.378969 0.228586
O O1 0.763305 0.364767 0.527646
O O2 0.920767 0.215654 0.494560
O O3 0.875392 0.666392 0.468675
O O4 0.927630 0.466474 0.662922
O O5 0.413131 0.797040 0.586997
O O6 0.319176 0.952786 0.390369
O O7 0.266768 0.053613 0.559001
O O8 0.992676 0.049694 0.373971
O O9 0.831241 0.615229 0.794568
O O10 0.713694 0.928784 0.814872
O O11 0.166017 0.688171 0.745404
O O12 0.505392 0.599207 0.762124
O O13 0.649736 0.331868 0.747060
#
# Coordination Sequence:
#
# PCOD9252568 Si02
#       7
#     4   4   2   4   4   4   4
#     4  11  25  44  72 104 142 194 247 299 372 450
#     4  11  24  46  71 104 146 197 250 300 373 460
#     4  12  22  50  64 104 156 176 234 316 372 420
#     4  12  19  46  74 102 134 198 246 313 352 456
#     4  11  25  43  72 103 139 195 244 294 374 443
#     4  12  26  46  74 112 156 198 251 322 387 450
#     4  11  24  46  71 103 146 195 252 297 376 459
#
# _framework density 25.300552
#
# number of rings (size 3 to 8) (size 9 to 14) (size 15 to 20)
#    0.000    0.615    6.154    1.846    0.000    3.077 
#    5.538    0.000    0.000    0.000    0.000    0.000 
#    0.000    0.000    0.000    0.000    0.000    0.000 
#
# Total GULP energy -145076.865767 kJ/mol
# GULP energy per Si atom -5579.879453 kJ/mol
# Density = 2.524297 g / cm^3
# Si number density = 25.300552 Si / 1000 Ang^3
#
#
#
# Elastic Constant Matrix: (Units=GPa)
#
#
# Indices 1 2 3 4 5 6 
#
# 1 48.5714 9.2762 6.1992 0.0000 8.8330 0.0000
# 2 9.2762 65.0472 27.2414 0.0000 1.6236 0.0000
# 3 6.1992 27.2414 217.3054 0.0000 6.1217 0.0000
# 4 0.0000 0.0000 0.0000 34.3718 0.0000 6.3118
# 5 8.8330 1.6236 6.1217 0.0000 46.4543 0.0000
# 6 0.0000 0.0000 0.0000 6.3118 0.0000 43.0272
#
#
#
# Elastic Compliance Matrix: (Units=1/GPa)
#
#
# Indices 1 2 3 4 5 6 
#
# 1 0.021908 -0.002965 -0.000139 0.000000 -0.004044 0.000000
# 2 -0.002965 0.016631 -0.002007 0.000000 0.000247 0.000000
# 3 -0.000139 -0.002007 0.004873 0.000000 -0.000545 0.000000
# 4 0.000000 0.000000 0.000000 0.029899 0.000000 -0.004386
# 5 -0.004044 0.000247 -0.000545 0.000000 0.022359 0.000000
# 6 0.000000 0.000000 0.000000 -0.004386 0.000000 0.023885
#
#
# Mechanical properties :
#
#
# Convention : Reuss Voigt Hill
#
# Bulk Modulus (GPa) = 30.13120 46.26194 38.19657
# Shear Modulus (GPa) = 35.50156 43.98450 39.74303
#
# Velocity S-wave (km/s) = 3.74999 4.17403 3.96768
# Velocity P-wave (km/s) = 5.53941 6.44629 6.00998
#
# Compressibility (1/GPa) = 0.03318819
#
# Stress axis : x y z
#
# Youngs Moduli (GPa) = 45.64622 60.12980 205.22152
#
# Poissons Ratio (x) = 0.17828 0.02860
# Poissons Ratio (y) = 0.13534 0.41192
# Poissons Ratio (z) = 0.00636 0.12069
#
# Static dielectric constant tensor:
#      x y z
#    x 1.831520 0.000000 -0.086930 
#    y 0.000000 1.851820 0.000000 
#    z -0.086930 0.000000 1.873570 
# 
# From -- ./inp_files/47867.got.cif
#   From: 2010.05.17/outbox.cif.g08.bks.cpg/sg14_24_cif.got.tgz:47867.got - 2010.06.03 17:49:19.
