data_PCOD9252533
_publ_section_title
;
Structure prediction by ZEFSAII (Michael W. Deem and Ramdas Pophale) SiO2 
 PCOD9252533
Probable space group: P 21/C
;
_chemical_formula_sum "Si O2"
_cell_formula_units_Z 28
_cell_length_a 8.560031
_cell_length_b 13.824472
_cell_length_c 14.529728
_cell_angle_alpha 90.000000
_cell_angle_beta 135.246674
_cell_angle_gamma 90.000000
_cell_volume 1210.566210
_symmetry_space_group_name_H-M "P 21/C"
_symmetry_group_IT_number 14
_symmetry_cell_setting 'monoclinic'
loop_
_space_group_symop_operation_xyz
x,y,z
-x,1/2+y,1/2-z
-x,-y,-z
x,1/2-y,1/2+z
loop_
_atom_site_type_symbol
_atom_site_label
_atom_site_fract_x
_atom_site_fract_y
_atom_site_fract_z
Si Si1 0.035073 0.712921 0.176249
Si Si2 0.719995 0.046593 0.634698
Si Si3 0.538323 0.470726 0.370693
Si Si4 0.433268 0.810376 0.273763
Si Si5 0.024798 0.998263 0.619019
Si Si6 0.941161 0.391343 0.631387
Si Si7 0.806803 0.663716 0.445499
O O1 0.255244 0.723798 0.205941
O O2 0.936564 0.609046 0.107376
O O3 0.061696 0.695487 0.295778
O O4 0.902853 0.806566 0.085795
O O5 0.878496 0.973295 0.760746
O O6 0.871193 0.072575 0.610131
O O7 0.500000 0.000000 0.500000
O O8 0.630808 0.133074 0.659964
O O9 0.576880 0.389571 0.309255
O O10 0.274706 0.488196 0.261039
O O11 0.655535 0.570086 0.391011
O O12 0.690596 0.433325 0.519099
O O13 0.666244 0.757914 0.361774
O O14 0.000000 0.000000 0.500000
O O15 0.020653 0.357558 0.563794
#
# Coordination Sequence:
#
# PCOD9252533 Si02
#       7
#     4   4   4   4   4   4   4
#     4  11  25  45  67 113 147 192 260 320 375 472
#     4  11  24  45  72 108 148 200 254 315 391 459
#     4  12  24  49  79 111 152 212 258 319 397 465
#     4  12  24  45  72 110 147 195 257 321 376 463
#     4  11  25  47  76 108 156 204 256 318 392 463
#     4  11  25  47  75 108 153 206 259 318 396 457
#     4  12  24  48  78 109 157 203 263 323 391 471
#
# _framework density 23.129674000000001
#
# number of rings (size 3 to 8) (size 9 to 14) (size 15 to 20)
#    0.000    0.571    4.286    4.714    0.000    4.571 
#    7.714    0.000    0.000    0.000    0.000    0.000 
#    0.000    0.000    0.000    0.000    0.000    0.000 
#
# Total GULP energy -156328.081463 kJ/mol
# GULP energy per Si atom -5583.145767 kJ/mol
# Density = 2.307703 g / cm^3
# Si number density = 23.129674 Si / 1000 Ang^3
#
#
#
# Elastic Constant Matrix: (Units=GPa)
#
#
# Indices 1 2 3 4 5 6 
#
# 1 81.8911 19.1348 46.2852 0.0000 5.9778 0.0000
# 2 19.1348 89.2956 42.6130 0.0000 -6.3025 0.0000
# 3 46.2852 42.6130 133.7277 0.0000 12.0847 0.0000
# 4 0.0000 0.0000 0.0000 36.7669 0.0000 2.9114
# 5 5.9778 -6.3025 12.0847 0.0000 41.6469 0.0000
# 6 0.0000 0.0000 0.0000 2.9114 0.0000 37.3307
#
#
#
# Elastic Compliance Matrix: (Units=1/GPa)
#
#
# Indices 1 2 3 4 5 6 
#
# 1 0.015274 -0.001009 -0.004881 0.000000 -0.000929 0.000000
# 2 -0.001009 0.013733 -0.004341 0.000000 0.003483 0.000000
# 3 -0.004881 -0.004341 0.010831 0.000000 -0.003099 0.000000
# 4 0.000000 0.000000 0.000000 0.027367 0.000000 -0.002134
# 5 -0.000929 0.003483 -0.003099 0.000000 0.025571 0.000000
# 6 0.000000 0.000000 0.000000 -0.002134 0.000000 0.026954
#
#
# Mechanical properties :
#
#
# Convention : Reuss Voigt Hill
#
# Bulk Modulus (GPa) = 51.61585 57.88672 54.75129
# Shear Modulus (GPa) = 34.09465 36.27433 35.18449
#
# Velocity S-wave (km/s) = 3.84352 3.96448 3.90447
# Velocity P-wave (km/s) = 6.48546 6.78509 6.63697
#
# Compressibility (1/GPa) = 0.01937389
#
# Stress axis : x y z
#
# Youngs Moduli (GPa) = 65.47208 72.81941 92.33005
#
# Poissons Ratio (x) = 0.07349 0.45066
# Poissons Ratio (y) = 0.06608 0.40084
# Poissons Ratio (z) = 0.31956 0.31614
#
# Static dielectric constant tensor:
#      x y z
#    x 1.866880 0.000000 0.017500 
#    y 0.000000 1.859340 0.000000 
#    z 0.017500 0.000000 1.986160 
# 
# From -- ./inp_files/41444.got.cif
#   From: 2010.05.17/outbox.cif.g08.bks.cpg/sg14_21_cif.got.tgz:41444.got - 2010.06.03 17:49:19.
