data_PCOD9252116
_publ_section_title
;
Structure prediction by ZEFSAII (Michael W. Deem and Ramdas Pophale) SiO2 
 PCOD9252116
Probable space group: P 21/C
;
_chemical_formula_sum "Si O2"
_cell_formula_units_Z 28
_cell_length_a 14.954958
_cell_length_b 5.938706
_cell_length_c 18.350059
_cell_angle_alpha 90.000000
_cell_angle_beta 128.553841
_cell_angle_gamma 90.000000
_cell_volume 1274.482633
_symmetry_space_group_name_H-M "P 21/C"
_symmetry_group_IT_number 14
_symmetry_cell_setting 'monoclinic'
loop_
_space_group_symop_operation_xyz
x,y,z
-x,1/2+y,1/2-z
-x,-y,-z
x,1/2-y,1/2+z
loop_
_atom_site_type_symbol
_atom_site_label
_atom_site_fract_x
_atom_site_fract_y
_atom_site_fract_z
Si Si1 0.559378 0.244578 0.263050
Si Si2 0.557510 0.310622 0.481721
Si Si3 0.954063 0.629112 0.546748
Si Si4 0.628638 0.026273 0.653286
Si Si5 0.944382 0.460042 0.124314
Si Si6 0.883845 0.609685 0.254573
Si Si7 0.747267 0.367341 0.468013
O O1 0.498501 0.492806 0.254945
O O2 0.593537 0.292049 0.196452
O O3 0.676270 0.247454 0.368762
O O4 0.500000 0.500000 0.500000
O O5 0.613279 0.132624 0.565498
O O6 0.654500 0.418948 0.481844
O O7 0.462300 0.177111 0.387362
O O8 0.818447 0.582456 0.479602
O O9 0.000000 0.500000 0.500000
O O10 0.026476 0.540769 0.653506
O O11 0.964901 0.891863 0.563380
O O12 0.758254 0.938788 0.721554
O O13 0.896517 0.568521 0.174664
O O14 0.066995 0.356964 0.206761
O O15 0.846790 0.285281 0.052041
#
# Coordination Sequence:
#
# PCOD9252116 Si02
#       7
#     4   4   4   4   4   4   4
#     4  12  27  50  73 110 156 205 253 309 384 462
#     4  11  24  42  69 108 141 194 249 310 376 446
#     4  11  26  46  69 105 144 189 253 309 390 449
#     4  11  25  43  70 104 146 187 256 304 373 452
#     4  11  24  44  74 103 147 193 248 316 378 455
#     4  11  23  43  70 106 138 192 249 301 372 447
#     4  11  25  45  73 104 150 199 244 314 383 453
#
# _framework density 21.9697
#
# number of rings (size 3 to 8) (size 9 to 14) (size 15 to 20)
#    0.000    0.857    4.286    1.714    4.000    3.429 
#    2.571    0.000    0.000    0.000    0.000    0.000 
#    0.000    0.000    0.000    0.000    0.000    0.000 
#
# Total GULP energy -156235.004787 kJ/mol
# GULP energy per Si atom -5579.821600 kJ/mol
# Density = 2.191970 g / cm^3
# Si number density = 21.969700 Si / 1000 Ang^3
#
#
#
# Elastic Constant Matrix: (Units=GPa)
#
#
# Indices 1 2 3 4 5 6 
#
# 1 101.2947 19.3218 18.2169 0.0000 14.6981 0.0000
# 2 19.3218 55.0065 7.9990 0.0000 10.1054 0.0000
# 3 18.2169 7.9990 88.4831 0.0000 16.5661 0.0000
# 4 0.0000 0.0000 0.0000 36.8908 0.0000 -8.8600
# 5 14.6981 10.1054 16.5661 0.0000 40.8500 0.0000
# 6 0.0000 0.0000 0.0000 -8.8600 0.0000 26.0237
#
#
#
# Elastic Compliance Matrix: (Units=1/GPa)
#
#
# Indices 1 2 3 4 5 6 
#
# 1 0.011135 -0.003214 -0.001516 0.000000 -0.002597 0.000000
# 2 -0.003214 0.020041 -0.000474 0.000000 -0.003609 0.000000
# 3 -0.001516 -0.000474 0.012480 0.000000 -0.004398 0.000000
# 4 0.000000 0.000000 0.000000 0.029521 0.000000 0.010051
# 5 -0.002597 -0.003609 -0.004398 0.000000 0.028091 0.000000
# 6 0.000000 0.000000 0.000000 0.010051 0.000000 0.041848
#
#
# Mechanical properties :
#
#
# Convention : Reuss Voigt Hill
#
# Bulk Modulus (GPa) = 30.07750 37.31776 33.69763
# Shear Modulus (GPa) = 30.37575 34.03600 32.20588
#
# Velocity S-wave (km/s) = 3.72239 3.94029 3.83289
# Velocity P-wave (km/s) = 5.67407 6.14199 5.91266
#
# Compressibility (1/GPa) = 0.03324745
#
# Stress axis : x y z
#
# Youngs Moduli (GPa) = 89.81039 49.89893 80.12813
#
# Poissons Ratio (x) = 0.16036 0.12145
# Poissons Ratio (y) = 0.28863 0.03801
# Poissons Ratio (z) = 0.13613 0.02367
#
# Static dielectric constant tensor:
#      x y z
#    x 1.854560 0.000000 -0.042060 
#    y 0.000000 1.919280 0.000000 
#    z -0.042060 0.000000 1.800480 
# 
# From -- ./inp_files/67890.got.cif
#   From: 2010.05.17/outbox.cif.g08.bks.cpg/sg14_34_cif.got.tgz:67890.got - 2010.06.03 17:49:19.
