data_PCOD9252198
_publ_section_title
;
Structure prediction by ZEFSAII (Michael W. Deem and Ramdas Pophale) SiO2 
 PCOD9252198
Probable space group: P 21/C
;
_chemical_formula_sum "Si O2"
_cell_formula_units_Z 28
_cell_length_a 10.843289
_cell_length_b 10.343991
_cell_length_c 9.484612
_cell_angle_alpha 90.000000
_cell_angle_beta 109.347430
_cell_angle_gamma 90.000000
_cell_volume 1003.744273
_symmetry_space_group_name_H-M "P 21/C"
_symmetry_group_IT_number 14
_symmetry_cell_setting 'monoclinic'
loop_
_space_group_symop_operation_xyz
x,y,z
-x,1/2+y,1/2-z
-x,-y,-z
x,1/2-y,1/2+z
loop_
_atom_site_type_symbol
_atom_site_label
_atom_site_fract_x
_atom_site_fract_y
_atom_site_fract_z
Si Si1 0.808706 0.923463 0.538870
Si Si2 0.430994 0.009779 0.705233
Si Si3 0.364169 0.222004 0.904519
Si Si4 0.012352 0.146314 0.635362
Si Si5 0.641300 0.283709 0.604506
Si Si6 0.705565 0.002793 0.901829
Si Si7 0.108259 0.830665 0.138398
O O1 0.679048 0.005572 0.453736
O O2 0.751245 0.825724 0.632160
O O3 0.855628 0.868237 0.403297
O O4 0.934004 0.010362 0.619923
O O5 0.586219 0.998650 0.746202
O O6 0.399103 0.895869 0.802046
O O7 0.403660 0.145214 0.778282
O O8 0.501989 0.281406 0.013279
O O9 0.316231 0.114100 0.999348
O O10 0.926618 0.240538 0.505696
O O11 0.010078 0.186374 0.796836
O O12 0.683884 0.365466 0.483593
O O13 0.763842 0.213782 0.722989
O O14 0.849222 0.026023 0.894695
#
# Coordination Sequence:
#
# PCOD9252198 Si02
#       7
#     4   4   4   4   4   4   4
#     4  11  23  45  58  94 123 173 209 273 306 367
#     4   9  18  36  64  89 131 164 201 263 327 371
#     4   9  20  36  64  96 124 167 205 262 317 394
#     4  11  28  41  68  84 131 170 220 258 317 365
#     4   9  17  36  64  92 129 166 201 253 330 374
#     4   9  19  36  63  99 124 162 210 254 324 390
#     4  12  21  44  62  94 122 173 210 266 304 386
#
# _framework density 27.895548999999999
#
# number of rings (size 3 to 8) (size 9 to 14) (size 15 to 20)
#    0.000    2.000    2.857    2.571    2.000    1.143 
#    2.571    5.000    0.000    0.000    0.000    0.000 
#    0.000    0.000    0.000    0.000    0.000    0.000 
#
# Total GULP energy -156751.462552 kJ/mol
# GULP energy per Si atom -5598.266520 kJ/mol
# Density = 2.783206 g / cm^3
# Si number density = 27.895549 Si / 1000 Ang^3
#
#
#
# Elastic Constant Matrix: (Units=GPa)
#
#
# Indices 1 2 3 4 5 6 
#
# 1 154.6109 38.7313 31.2733 0.0000 -6.1300 0.0000
# 2 38.7313 53.3350 7.5896 0.0000 -11.0098 0.0000
# 3 31.2733 7.5896 61.2437 0.0000 -13.5207 0.0000
# 4 0.0000 0.0000 0.0000 35.1991 0.0000 -13.3811
# 5 -6.1300 -11.0098 -13.5207 0.0000 59.4842 0.0000
# 6 0.0000 0.0000 0.0000 -13.3811 0.0000 41.6517
#
#
#
# Elastic Compliance Matrix: (Units=1/GPa)
#
#
# Indices 1 2 3 4 5 6 
#
# 1 0.008729 -0.006005 -0.003958 0.000000 -0.001112 0.000000
# 2 -0.006005 0.023796 0.001003 0.000000 0.004014 0.000000
# 3 -0.003958 0.001003 0.019136 0.000000 0.004127 0.000000
# 4 0.000000 0.000000 0.000000 0.032362 0.000000 0.010397
# 5 -0.001112 0.004014 0.004127 0.000000 0.018378 0.000000
# 6 0.000000 0.000000 0.000000 0.010397 0.000000 0.027349
#
#
# Mechanical properties :
#
#
# Convention : Reuss Voigt Hill
#
# Bulk Modulus (GPa) = 29.63733 47.15313 38.39523
# Shear Modulus (GPa) = 31.46306 40.03999 35.75153
#
# Velocity S-wave (km/s) = 3.36205 3.79272 3.58386
# Velocity P-wave (km/s) = 5.07135 6.00997 5.56050
#
# Compressibility (1/GPa) = 0.03374123
#
# Stress axis : x y z
#
# Youngs Moduli (GPa) = 114.56400 42.02414 52.25633
#
# Poissons Ratio (x) = 0.25235 0.20686
# Poissons Ratio (y) = 0.68795 -0.05244
# Poissons Ratio (z) = 0.45350 -0.04217
#
# Static dielectric constant tensor:
#      x y z
#    x 2.166940 0.000000 -0.036420 
#    y 0.000000 2.241400 0.000000 
#    z -0.036420 0.000000 2.231850 
# 
# From -- ./inp_files/28688.got.cif
#   From: 2010.05.17/outbox.cif.g08.bks.cpg/sg14_15_cif.got.tgz:28688.got - 2010.06.03 17:49:19.
