data_PCOD9252724
_publ_section_title
;
Structure prediction by ZEFSAII (Michael W. Deem and Ramdas Pophale) SiO2 
 PCOD9252724
Probable space group: P 21/C
;
_chemical_formula_sum "Si O2"
_cell_formula_units_Z 28
_cell_length_a 8.027475
_cell_length_b 19.730205
_cell_length_c 13.588083
_cell_angle_alpha 90.000000
_cell_angle_beta 34.831358
_cell_angle_gamma 90.000000
_cell_volume 1229.217511
_symmetry_space_group_name_H-M "P 21/C"
_symmetry_group_IT_number 14
_symmetry_cell_setting 'monoclinic'
loop_
_space_group_symop_operation_xyz
x,y,z
-x,1/2+y,1/2-z
-x,-y,-z
x,1/2-y,1/2+z
loop_
_atom_site_type_symbol
_atom_site_label
_atom_site_fract_x
_atom_site_fract_y
_atom_site_fract_z
Si Si1 0.251706 0.582331 0.794954
Si Si2 0.383183 0.054199 0.306310
Si Si3 0.538777 0.388103 0.524057
Si Si4 0.259663 0.265014 0.541799
Si Si5 0.289607 0.824019 0.780775
Si Si6 0.953294 0.800398 0.185570
Si Si7 0.356956 0.792047 0.379734
O O1 0.425538 0.526067 0.774357
O O2 0.357696 0.576808 0.629656
O O3 0.306306 0.656353 0.815327
O O4 0.912574 0.567421 0.987103
O O5 0.631060 0.098322 0.240669
O O6 0.363434 0.077396 0.199633
O O7 0.369055 0.322591 0.563763
O O8 0.836452 0.363342 0.431447
O O9 0.523649 0.213468 0.393251
O O10 0.039650 0.214577 0.702809
O O11 0.051629 0.303754 0.563543
O O12 0.436786 0.781229 0.797179
O O13 0.627458 0.815902 0.311571
O O14 0.075581 0.731291 0.076851
#
# Coordination Sequence:
#
# PCOD9252724 Si02
#       7
#     4   4   4   4   4   4   4
#     4  11  25  45  67  96 136 179 223 275 336 403
#     4  11  25  45  67  96 136 179 223 275 336 403
#     4  12  23  42  68  98 133 178 222 274 337 402
#     4  12  22  38  65 102 132 167 225 278 333 395
#     4  12  22  39  66  95 131 169 219 277 330 391
#     4  12  22  38  65 102 132 167 225 278 333 395
#     4  12  22  39  66  95 131 169 219 277 330 391
#
# _framework density 22.778717
#
# number of rings (size 3 to 8) (size 9 to 14) (size 15 to 20)
#    0.000    0.286    5.714    4.714    0.000    0.000 
#    0.000    4.286    0.000    6.857    0.000    0.000 
#    0.000    0.000    0.000    0.000    0.000    0.000 
#
# Total GULP energy -155935.110787 kJ/mol
# GULP energy per Si atom -5569.111100 kJ/mol
# Density = 2.272687 g / cm^3
# Si number density = 22.778717 Si / 1000 Ang^3
#
#
#
# Elastic Constant Matrix: (Units=GPa)
#
#
# Indices 1 2 3 4 5 6 
#
# 1 68.1815 -5.8806 8.1577 0.0000 -6.0835 0.0000
# 2 -5.8806 50.9765 1.0501 0.0000 10.2884 0.0000
# 3 8.1577 1.0501 98.3014 0.0000 15.2910 0.0000
# 4 0.0000 0.0000 0.0000 24.4743 0.0000 3.8867
# 5 -6.0835 10.2884 15.2910 0.0000 30.4997 0.0000
# 6 0.0000 0.0000 0.0000 3.8867 0.0000 28.8729
#
#
#
# Elastic Compliance Matrix: (Units=1/GPa)
#
#
# Indices 1 2 3 4 5 6 
#
# 1 0.015302 0.001074 -0.001844 0.000000 0.003614 0.000000
# 2 0.001074 0.021208 0.000828 0.000000 -0.007355 0.000000
# 3 -0.001844 0.000828 0.011299 0.000000 -0.006312 0.000000
# 4 0.000000 0.000000 0.000000 0.041752 0.000000 -0.005620
# 5 0.003614 -0.007355 -0.006312 0.000000 0.039154 0.000000
# 6 0.000000 0.000000 0.000000 -0.005620 0.000000 0.035391
#
#
# Mechanical properties :
#
#
# Convention : Reuss Voigt Hill
#
# Bulk Modulus (GPa) = 20.86518 24.90152 22.88335
# Shear Modulus (GPa) = 27.78332 31.04485 29.41408
#
# Velocity S-wave (km/s) = 3.49622 3.69574 3.59736
# Velocity P-wave (km/s) = 5.04756 5.40064 5.22708
#
# Compressibility (1/GPa) = 0.04792673
#
# Stress axis : x y z
#
# Youngs Moduli (GPa) = 65.34914 47.15161 88.50541
#
# Poissons Ratio (x) = -0.05063 0.16317
# Poissons Ratio (y) = -0.07017 -0.07332
# Poissons Ratio (z) = 0.12048 -0.03906
#
# Static dielectric constant tensor:
#      x y z
#    x 1.914750 0.000000 0.131810 
#    y 0.000000 1.865410 0.000000 
#    z 0.131810 0.000000 2.057770 
# 
# From -- ./inp_files/42035.got.cif
#   From: 2010.05.17/outbox.cif.g08.bks.cpg/sg14_22_cif.got.tgz:42035.got - 2010.06.03 17:49:19.
