data_PCOD9252455
_publ_section_title
;
Structure prediction by ZEFSAII (Michael W. Deem and Ramdas Pophale) SiO2 
 PCOD9252455
Probable space group: P 21/C
;
_chemical_formula_sum "Si O2"
_cell_formula_units_Z 32
_cell_length_a 13.645359
_cell_length_b 9.164851
_cell_length_c 11.606095
_cell_angle_alpha 90.000000
_cell_angle_beta 80.215547
_cell_angle_gamma 90.000000
_cell_volume 1430.318888
_symmetry_space_group_name_H-M "P 21/C"
_symmetry_group_IT_number 14
_symmetry_cell_setting 'monoclinic'
loop_
_space_group_symop_operation_xyz
x,y,z
-x,1/2+y,1/2-z
-x,-y,-z
x,1/2-y,1/2+z
loop_
_atom_site_type_symbol
_atom_site_label
_atom_site_fract_x
_atom_site_fract_y
_atom_site_fract_z
Si Si1 0.451325 0.355925 0.960339
Si Si2 0.637981 0.196704 0.261722
Si Si3 0.185214 0.991705 0.696614
Si Si4 0.000790 0.111574 0.391230
Si Si5 0.901255 0.584757 0.549239
Si Si6 0.836944 0.837673 0.822351
Si Si7 0.326266 0.016887 0.300356
Si Si8 0.495991 0.395020 0.607748
O O1 0.535903 0.285898 0.857880
O O2 0.349770 0.407508 0.918132
O O3 0.500000 0.500000 0.000000
O O4 0.441052 0.247754 0.069806
O O5 0.695534 0.346326 0.216832
O O6 0.600635 0.139898 0.145083
O O7 0.707248 0.083598 0.316803
O O8 0.151369 0.002554 0.836228
O O9 0.168539 0.161517 0.664051
O O10 0.111899 0.892994 0.633530
O O11 0.055508 0.256864 0.424681
O O12 0.065972 0.091245 0.260635
O O13 0.000000 0.000000 0.500000
O O14 0.832377 0.598992 0.451273
O O15 0.000000 0.500000 0.500000
O O16 0.750100 0.887512 0.755366
O O17 0.433019 0.031410 0.219703
O O18 0.500000 0.500000 0.500000
#
# Coordination Sequence:
#
# PCOD9252455 Si02
#       8
#     4   4   4   4   4   4   4   4
#     4  11  24  45  68  95 135 181 220 276 337 398
#     4  11  26  43  64 104 131 173 231 272 334 405
#     4  11  26  44  69 100 139 178 224 284 338 410
#     4  11  24  47  69  95 138 182 224 279 341 403
#     4  11  24  44  71  96 133 179 225 279 337 400
#     4  11  26  43  68 105 135 179 232 273 348 404
#     4  11  26  42  69  99 134 175 226 278 331 406
#     4  11  24  44  68  94 135 176 223 274 332 392
#
# _framework density 22.372631999999999
#
# number of rings (size 3 to 8) (size 9 to 14) (size 15 to 20)
#    0.000    1.000    5.000    0.000    7.000    3.000 
#    0.000    0.000    0.000    0.000    0.000    0.000 
#    0.000    0.000    0.000    0.000    0.000    0.000 
#
# Total GULP energy -178514.177189 kJ/mol
# GULP energy per Si atom -5578.568037 kJ/mol
# Density = 2.232171 g / cm^3
# Si number density = 22.372632 Si / 1000 Ang^3
#
#
#
# Elastic Constant Matrix: (Units=GPa)
#
#
# Indices 1 2 3 4 5 6 
#
# 1 68.9629 7.4361 15.3867 0.0000 30.6228 0.0000
# 2 7.4361 57.5778 3.7190 0.0000 7.0951 0.0000
# 3 15.3867 3.7190 81.0459 0.0000 29.4582 0.0000
# 4 0.0000 0.0000 0.0000 25.3128 0.0000 0.1868
# 5 30.6228 7.0951 29.4582 0.0000 50.3347 0.0000
# 6 0.0000 0.0000 0.0000 0.1868 0.0000 27.2347
#
#
#
# Elastic Compliance Matrix: (Units=1/GPa)
#
#
# Indices 1 2 3 4 5 6 
#
# 1 0.019975 -0.001095 0.000786 0.000000 -0.012458 0.000000
# 2 -0.001095 0.017736 0.000077 0.000000 -0.001879 0.000000
# 3 0.000786 0.000077 0.015704 0.000000 -0.009680 0.000000
# 4 0.000000 0.000000 0.000000 0.039508 0.000000 -0.000271
# 5 -0.012458 -0.001879 -0.009680 0.000000 0.033377 0.000000
# 6 0.000000 0.000000 0.000000 -0.000271 0.000000 0.036720
#
#
# Mechanical properties :
#
#
# Convention : Reuss Voigt Hill
#
# Bulk Modulus (GPa) = 18.88532 28.96335 23.92433
# Shear Modulus (GPa) = 27.60383 32.64609 30.12496
#
# Velocity S-wave (km/s) = 3.51639 3.82409 3.67346
# Velocity P-wave (km/s) = 4.99462 5.69844 5.35810
#
# Compressibility (1/GPa) = 0.05295118
#
# Stress axis : x y z
#
# Youngs Moduli (GPa) = 50.06169 56.38317 63.67657
#
# Poissons Ratio (x) = 0.06176 -0.05007
# Poissons Ratio (y) = 0.05484 -0.00490
# Poissons Ratio (z) = -0.03936 -0.00434
#
# Static dielectric constant tensor:
#      x y z
#    x 1.839570 0.000000 -0.019250 
#    y 0.000000 1.533120 0.000000 
#    z -0.019250 0.000000 1.858860 
# 
# From -- ./inp_files/31594.got.cif
#   From: 2010.05.17/outbox.cif.g08.bks.cpg/sg14_16_cif.got.tgz:31594.got - 2010.06.03 17:49:19.
