data_PCOD9252584
_publ_section_title
;
Structure prediction by ZEFSAII (Michael W. Deem and Ramdas Pophale) SiO2 
 PCOD9252584
Probable space group: P 21/C
;
_chemical_formula_sum "Si O2"
_cell_formula_units_Z 16
_cell_length_a 6.913387
_cell_length_b 7.899795
_cell_length_c 14.281139
_cell_angle_alpha 90.000000
_cell_angle_beta 50.799639
_cell_angle_gamma 90.000000
_cell_volume 604.418709
_symmetry_space_group_name_H-M "P 21/C"
_symmetry_group_IT_number 14
_symmetry_cell_setting 'monoclinic'
loop_
_space_group_symop_operation_xyz
x,y,z
-x,1/2+y,1/2-z
-x,-y,-z
x,1/2-y,1/2+z
loop_
_atom_site_type_symbol
_atom_site_label
_atom_site_fract_x
_atom_site_fract_y
_atom_site_fract_z
Si Si1 0.258445 0.928219 0.461902
Si Si2 0.451789 0.956749 0.906719
Si Si3 0.989258 0.638255 0.219978
Si Si4 0.763595 0.979266 0.208379
O O1 0.332490 0.729458 0.430058
O O2 0.493541 0.010746 0.337882
O O3 0.207293 0.939636 0.589120
O O4 0.000000 0.000000 0.500000
O O5 0.733084 0.961212 0.783222
O O6 0.281367 0.060425 0.886741
O O7 0.500000 0.000000 0.000000
O O8 0.912652 0.822998 0.207804
O O9 0.069540 0.633991 0.304134
#
# Coordination Sequence:
#
# PCOD9252584 Si02
#       4
#     4   4   4   4
#     4  11  24  46  77 112 148 198 256 314 380 454
#     4  11  26  48  75 110 152 202 254 310 383 454
#     4  11  25  45  74 113 145 196 249 316 374 450
#     4  11  26  48  78 109 152 195 255 309 385 454
#
# _framework density 26.471715
#
# number of rings (size 3 to 8) (size 9 to 14) (size 15 to 20)
#    0.000    1.000    2.500    2.250    3.500    8.000 
#    4.500    0.000    0.000    0.000    0.000    0.000 
#    0.000    0.000    0.000    0.000    0.000    0.000 
#
# Total GULP energy -89379.590025 kJ/mol
# GULP energy per Si atom -5586.224377 kJ/mol
# Density = 2.641146 g / cm^3
# Si number density = 26.471715 Si / 1000 Ang^3
#
#
#
# Elastic Constant Matrix: (Units=GPa)
#
#
# Indices 1 2 3 4 5 6 
#
# 1 251.5221 76.4351 55.3877 0.0000 28.7581 0.0000
# 2 76.4351 54.5268 -19.4886 0.0000 9.3734 0.0000
# 3 55.3877 -19.4886 120.6238 0.0000 -10.2994 0.0000
# 4 0.0000 0.0000 0.0000 23.5765 0.0000 -8.5154
# 5 28.7581 9.3734 -10.2994 0.0000 59.0933 0.0000
# 6 0.0000 0.0000 0.0000 -8.5154 0.0000 46.7629
#
#
#
# Elastic Compliance Matrix: (Units=1/GPa)
#
#
# Indices 1 2 3 4 5 6 
#
# 1 0.013038 -0.020958 -0.009776 0.000000 -0.004724 0.000000
# 2 -0.020958 0.053548 0.018699 0.000000 0.004965 0.000000
# 3 -0.009776 0.018699 0.016194 0.000000 0.004614 0.000000
# 4 0.000000 0.000000 0.000000 0.045401 0.000000 0.008267
# 5 -0.004724 0.004965 0.004614 0.000000 0.019238 0.000000
# 6 0.000000 0.000000 0.000000 0.008267 0.000000 0.022890
#
#
# Mechanical properties :
#
#
# Convention : Reuss Voigt Hill
#
# Bulk Modulus (GPa) = 17.03304 72.37123 44.70213
# Shear Modulus (GPa) = 23.36998 46.84244 35.10621
#
# Velocity S-wave (km/s) = 2.97447 4.21114 3.64562
# Velocity P-wave (km/s) = 4.27142 7.14446 5.88593
#
# Compressibility (1/GPa) = 0.05870944
#
# Stress axis : x y z
#
# Youngs Moduli (GPa) = 76.70073 18.67482 61.75036
#
# Poissons Ratio (x) = 0.39139 0.60368
# Poissons Ratio (y) = 1.60750 -1.15466
# Poissons Ratio (z) = 0.74983 -0.34920
#
# Static dielectric constant tensor:
#      x y z
#    x 2.040450 0.000000 0.085460 
#    y 0.000000 3.587010 0.000000 
#    z 0.085460 0.000000 2.175580 
# 
# From -- ./inp_files/36667.got.cif
#   From: 2010.05.17/outbox.cif.g08.bks.cpg/sg14_19_cif.got.tgz:36667.got - 2010.06.03 17:49:19.
