data_PCOD9252967
_publ_section_title
;
Structure prediction by ZEFSAII (Michael W. Deem and Ramdas Pophale) SiO2 
 PCOD9252967
Probable space group: P 21/C
;
_chemical_formula_sum "Si O2"
_cell_formula_units_Z 20
_cell_length_a 5.197141
_cell_length_b 8.317048
_cell_length_c 18.290439
_cell_angle_alpha 90.000000
_cell_angle_beta 75.047741
_cell_angle_gamma 90.000000
_cell_volume 763.832998
_symmetry_space_group_name_H-M "P 21/C"
_symmetry_group_IT_number 14
_symmetry_cell_setting 'monoclinic'
loop_
_space_group_symop_operation_xyz
x,y,z
-x,1/2+y,1/2-z
-x,-y,-z
x,1/2-y,1/2+z
loop_
_atom_site_type_symbol
_atom_site_label
_atom_site_fract_x
_atom_site_fract_y
_atom_site_fract_z
Si Si1 0.885068 0.287225 0.914466
Si Si2 0.254910 0.793418 0.743208
Si Si3 0.450157 0.243672 0.563138
Si Si4 0.678989 0.497222 0.154177
Si Si5 0.914637 0.061240 0.104676
O O1 0.853021 0.278519 0.829767
O O2 0.081525 0.436306 0.912328
O O3 0.014043 0.116306 0.926013
O O4 0.608291 0.299101 0.977869
O O5 0.237364 0.633227 0.792055
O O6 0.554064 0.852957 0.706033
O O7 0.125835 0.927898 0.804794
O O8 0.161450 0.318158 0.572214
O O9 0.641648 0.376028 0.588636
O O10 0.465832 0.094286 0.618163
#
# Coordination Sequence:
#
# PCOD9252967 Si02
#       5
#     4   4   4   4   4
#     4  12  26  45  77 106 146 198 246 310 372 445
#     4  11  27  44  75 103 148 192 255 299 374 439
#     4  11  28  49  74 110 150 192 248 307 375 445
#     4  11  27  46  73 108 149 196 249 313 371 447
#     4  11  27  48  74 106 151 193 248 304 376 443
#
# _framework density 26.183734999999999
#
# number of rings (size 3 to 8) (size 9 to 14) (size 15 to 20)
#    0.000    0.800    0.000    4.200   25.200    0.800 
#    0.000    0.000    0.000    0.000    0.000    0.000 
#    0.000    0.000    0.000    0.000    0.000    0.000 
#
# Total GULP energy -112213.752260 kJ/mol
# GULP energy per Si atom -5610.687613 kJ/mol
# Density = 2.612414 g / cm^3
# Si number density = 26.183735 Si / 1000 Ang^3
#
#
#
# Elastic Constant Matrix: (Units=GPa)
#
#
# Indices 1 2 3 4 5 6 
#
# 1 77.9747 22.6654 26.1265 0.0000 -2.7148 0.0000
# 2 22.6654 96.0567 16.8832 0.0000 2.9928 0.0000
# 3 26.1265 16.8832 153.4445 0.0000 -3.3968 0.0000
# 4 0.0000 0.0000 0.0000 36.4829 0.0000 -9.0122
# 5 -2.7148 2.9928 -3.3968 0.0000 49.1828 0.0000
# 6 0.0000 0.0000 0.0000 -9.0122 0.0000 39.0707
#
#
#
# Elastic Compliance Matrix: (Units=1/GPa)
#
#
# Indices 1 2 3 4 5 6 
#
# 1 0.014450 -0.003066 -0.002104 0.000000 0.000839 0.000000
# 2 -0.003066 0.011292 -0.000741 0.000000 -0.000908 0.000000
# 3 -0.002104 -0.000741 0.006966 0.000000 0.000410 0.000000
# 4 0.000000 0.000000 0.000000 0.029066 0.000000 0.006705
# 5 0.000839 -0.000908 0.000410 0.000000 0.020462 0.000000
# 6 0.000000 0.000000 0.000000 0.006705 0.000000 0.027141
#
#
# Mechanical properties :
#
#
# Convention : Reuss Voigt Hill
#
# Bulk Modulus (GPa) = 47.87753 50.98067 49.42910
# Shear Modulus (GPa) = 39.01311 42.40067 40.70689
#
# Velocity S-wave (km/s) = 3.86421 4.02848 3.94720
# Velocity P-wave (km/s) = 6.18340 6.41489 6.30021
#
# Compressibility (1/GPa) = 0.02088662
#
# Stress axis : x y z
#
# Youngs Moduli (GPa) = 69.20325 88.55530 143.55652
#
# Poissons Ratio (x) = 0.27150 0.30211
# Poissons Ratio (y) = 0.21217 0.10631
# Poissons Ratio (z) = 0.14564 0.06558
#
# Static dielectric constant tensor:
#      x y z
#    x 2.035170 0.000000 0.015360 
#    y 0.000000 2.057130 0.000000 
#    z 0.015360 0.000000 2.007950 
# 
# From -- ./inp_files/52691.got.cif
#   From: 2010.05.17/outbox.cif.g08.bks.cpg/sg14_27_cif.got.tgz:52691.got - 2010.06.03 17:49:19.
