data_PCOD9252106
_publ_section_title
;
Structure prediction by ZEFSAII (Michael W. Deem and Ramdas Pophale) SiO2 
 PCOD9252106
Probable space group: P 21/C
;
_chemical_formula_sum "Si O2"
_cell_formula_units_Z 28
_cell_length_a 8.399957
_cell_length_b 13.356639
_cell_length_c 14.435810
_cell_angle_alpha 90.000000
_cell_angle_beta 121.240489
_cell_angle_gamma 90.000000
_cell_volume 1384.779081
_symmetry_space_group_name_H-M "P 21/C"
_symmetry_group_IT_number 14
_symmetry_cell_setting 'monoclinic'
loop_
_space_group_symop_operation_xyz
x,y,z
-x,1/2+y,1/2-z
-x,-y,-z
x,1/2-y,1/2+z
loop_
_atom_site_type_symbol
_atom_site_label
_atom_site_fract_x
_atom_site_fract_y
_atom_site_fract_z
Si Si1 0.854740 0.669771 0.799610
Si Si2 0.915695 0.895292 0.510150
Si Si3 0.194867 0.755180 0.182937
Si Si4 0.945966 0.041772 0.781768
Si Si5 0.526726 0.277312 0.388461
Si Si6 0.842322 0.159228 0.128366
Si Si7 0.361214 0.428367 0.905016
O O1 0.801203 0.645244 0.888076
O O2 0.675210 0.671694 0.679765
O O3 0.990627 0.585723 0.798503
O O4 0.974754 0.771964 0.835464
O O5 0.793918 0.897236 0.566252
O O6 0.081588 0.818728 0.581900
O O7 0.000000 0.000000 0.500000
O O8 0.082157 0.858601 0.165863
O O9 0.382780 0.779572 0.185773
O O10 0.218917 0.697899 0.287991
O O11 0.748728 0.987156 0.708048
O O12 0.091214 0.955885 0.853968
O O13 0.677143 0.320589 0.505904
O O14 0.476571 0.164622 0.402248
O O15 0.500000 0.500000 0.000000
#
# Coordination Sequence:
#
# PCOD9252106 Si02
#       7
#     4   4   4   4   4   4   4
#     4  11  23  43  68 100 136 176 232 281 343 418
#     4  12  22  44  74  99 133 186 229 289 347 406
#     4  11  24  44  69 103 136 182 237 283 350 418
#     4  11  23  45  66  95 143 186 220 287 355 411
#     4  12  26  43  67 104 137 181 235 289 343 420
#     4  11  23  48  67  95 141 185 223 291 351 412
#     4  12  23  40  69 103 132 179 238 286 339 407
#
# _framework density 20.219833000000001
#
# number of rings (size 3 to 8) (size 9 to 14) (size 15 to 20)
#    0.000    0.571    5.714    3.429    4.000    1.143 
#    0.000    0.000    0.000    0.000    0.000    0.000 
#    0.000    0.000    0.000    0.000    0.000    0.000 
#
# Total GULP energy -156404.768713 kJ/mol
# GULP energy per Si atom -5585.884597 kJ/mol
# Density = 2.017381 g / cm^3
# Si number density = 20.219833 Si / 1000 Ang^3
#
#
#
# Elastic Constant Matrix: (Units=GPa)
#
#
# Indices 1 2 3 4 5 6 
#
# 1 57.0087 16.8871 11.4943 0.0000 -12.0049 0.0000
# 2 16.8871 104.9967 38.1036 0.0000 -12.1377 0.0000
# 3 11.4943 38.1036 97.7320 0.0000 12.3124 0.0000
# 4 0.0000 0.0000 0.0000 32.7358 0.0000 4.6567
# 5 -12.0049 -12.1377 12.3124 0.0000 30.6896 0.0000
# 6 0.0000 0.0000 0.0000 4.6567 0.0000 34.7498
#
#
#
# Elastic Compliance Matrix: (Units=1/GPa)
#
#
# Indices 1 2 3 4 5 6 
#
# 1 0.020332 -0.001161 -0.003036 0.000000 0.008712 0.000000
# 2 -0.001161 0.012520 -0.005594 0.000000 0.006742 0.000000
# 3 -0.003036 -0.005594 0.013901 0.000000 -0.008977 0.000000
# 4 0.000000 0.000000 0.000000 0.031141 0.000000 -0.004173
# 5 0.008712 0.006742 -0.008977 0.000000 0.042260 0.000000
# 6 0.000000 0.000000 0.000000 -0.004173 0.000000 0.029336
#
#
# Mechanical properties :
#
#
# Convention : Reuss Voigt Hill
#
# Bulk Modulus (GPa) = 36.80463 43.63416 40.21939
# Shear Modulus (GPa) = 28.06924 32.51853 30.29389
#
# Velocity S-wave (km/s) = 3.72990 4.01465 3.87489
# Velocity P-wave (km/s) = 6.06558 6.56632 6.32091
#
# Compressibility (1/GPa) = 0.02717049
#
# Stress axis : x y z
#
# Youngs Moduli (GPa) = 49.18391 79.86969 71.93642
#
# Poissons Ratio (x) = 0.09274 0.21840
# Poissons Ratio (y) = 0.05711 0.40243
# Poissons Ratio (z) = 0.14933 0.44681
#
# Static dielectric constant tensor:
#      x y z
#    x 2.000300 0.000000 0.114270 
#    y 0.000000 1.738800 0.000000 
#    z 0.114270 0.000000 1.776160 
# 
# From -- ./inp_files/40399.got.cif
#   From: 2010.05.17/outbox.cif.g08.bks.cpg/sg14_21_cif.got.tgz:40399.got - 2010.06.03 17:49:19.
