data_PCOD9252353
_publ_section_title
;
Structure prediction by ZEFSAII (Michael W. Deem and Ramdas Pophale) SiO2 
 PCOD9252353
Probable space group: P 21/C
;
_chemical_formula_sum "Si O2"
_cell_formula_units_Z 24
_cell_length_a 17.856419
_cell_length_b 13.918312
_cell_length_c 12.301676
_cell_angle_alpha 90.000000
_cell_angle_beta 161.804808
_cell_angle_gamma 90.000000
_cell_volume 954.673571
_symmetry_space_group_name_H-M "P 21/C"
_symmetry_group_IT_number 14
_symmetry_cell_setting 'monoclinic'
loop_
_space_group_symop_operation_xyz
x,y,z
-x,1/2+y,1/2-z
-x,-y,-z
x,1/2-y,1/2+z
loop_
_atom_site_type_symbol
_atom_site_label
_atom_site_fract_x
_atom_site_fract_y
_atom_site_fract_z
Si Si1 0.014315 0.339733 0.346753
Si Si2 0.235669 0.495278 0.897219
Si Si3 0.674068 0.909252 0.260229
Si Si4 0.722586 0.256739 0.759420
Si Si5 0.587441 0.594029 0.256462
Si Si6 0.100957 0.322256 0.122188
O O1 0.205456 0.407575 0.548844
O O2 0.124348 0.282442 0.599188
O O3 0.790387 0.403213 0.075290
O O4 0.910019 0.263284 0.116556
O O5 0.000000 0.500000 0.500000
O O6 0.232175 0.418277 0.987783
O O7 0.473206 0.498830 0.151180
O O8 0.866786 0.900032 0.429361
O O9 0.514659 0.813951 0.034611
O O10 0.500000 0.000000 0.000000
O O11 0.634306 0.153366 0.599595
O O12 0.847051 0.315705 0.833041
O O13 0.706691 0.653068 0.520149
#
# Coordination Sequence:
#
# PCOD9252353 Si02
#       6
#     4   4   4   4   4   4
#     4  11  24  43  68  98 132 174 224 267 327 400
#     4  12  28  46  66 100 142 168 222 284 332 385
#     4  12  24  46  68  96 136 174 212 279 334 387
#     4  11  24  41  69  98 130 176 224 267 327 401
#     4  11  24  43  68  98 132 174 224 267 327 400
#     4  11  24  41  69  98 130 176 224 267 327 401
#
# _framework density 25.139482000000001
#
# number of rings (size 3 to 8) (size 9 to 14) (size 15 to 20)
#    0.000    0.667    6.667    0.000    4.667    2.667 
#    0.000    0.000    0.000    0.000    0.000    0.000 
#    0.000    0.000    0.000    0.000    0.000    0.000 
#
# Total GULP energy -134333.021129 kJ/mol
# GULP energy per Si atom -5597.209214 kJ/mol
# Density = 2.508226 g / cm^3
# Si number density = 25.139482 Si / 1000 Ang^3
#
#
#
# Elastic Constant Matrix: (Units=GPa)
#
#
# Indices 1 2 3 4 5 6 
#
# 1 77.6140 -14.6337 26.4813 0.0000 -7.2818 0.0000
# 2 -14.6337 22.8082 -15.5415 0.0000 -7.7038 0.0000
# 3 26.4813 -15.5415 72.5709 0.0000 -8.0213 0.0000
# 4 0.0000 0.0000 0.0000 28.3120 0.0000 -11.0188
# 5 -7.2818 -7.7038 -8.0213 0.0000 45.6853 0.0000
# 6 0.0000 0.0000 0.0000 -11.0188 0.0000 30.1071
#
#
#
# Elastic Compliance Matrix: (Units=1/GPa)
#
#
# Indices 1 2 3 4 5 6 
#
# 1 0.016142 0.009113 -0.003553 0.000000 0.003486 0.000000
# 2 0.009113 0.062292 0.011561 0.000000 0.013986 0.000000
# 3 -0.003553 0.011561 0.018055 0.000000 0.004553 0.000000
# 4 0.000000 0.000000 0.000000 0.041188 0.000000 0.015074
# 5 0.003486 0.013986 0.004553 0.000000 0.025602 0.000000
# 6 0.000000 0.000000 0.000000 0.015074 0.000000 0.038732
#
#
# Mechanical properties :
#
#
# Convention : Reuss Voigt Hill
#
# Bulk Modulus (GPa) = 7.64935 18.40058 13.02497
# Shear Modulus (GPa) = 23.65772 32.60000 28.12886
#
# Velocity S-wave (km/s) = 3.07100 3.60497 3.34864
# Velocity P-wave (km/s) = 3.95273 4.96619 4.48816
#
# Compressibility (1/GPa) = 0.13073005
#
# Stress axis : x y z
#
# Youngs Moduli (GPa) = 61.95093 16.05333 55.38499
#
# Poissons Ratio (x) = -0.14629 0.19681
# Poissons Ratio (y) = -0.56453 -0.64031
# Poissons Ratio (z) = 0.22014 -0.18559
#
# Static dielectric constant tensor:
#      x y z
#    x 2.025210 0.000000 -0.041610 
#    y 0.000000 2.071120 0.000000 
#    z -0.041610 0.000000 1.947060 
# 
# From -- ./inp_files/25942.got.cif
#   From: 2010.05.17/outbox.cif.g08.bks.cpg/sg14_13_cif.got.tgz:25942.got - 2010.06.03 17:49:19.
