data_PCOD9252845
_publ_section_title
;
Structure prediction by ZEFSAII (Michael W. Deem and Ramdas Pophale) SiO2 
 PCOD9252845
Probable space group: P 21/C
;
_chemical_formula_sum "Si O2"
_cell_formula_units_Z 20
_cell_length_a 7.366953
_cell_length_b 11.024827
_cell_length_c 16.876680
_cell_angle_alpha 90.000000
_cell_angle_beta 146.826535
_cell_angle_gamma 90.000000
_cell_volume 750.021050
_symmetry_space_group_name_H-M "P 21/C"
_symmetry_group_IT_number 14
_symmetry_cell_setting 'monoclinic'
loop_
_space_group_symop_operation_xyz
x,y,z
-x,1/2+y,1/2-z
-x,-y,-z
x,1/2-y,1/2+z
loop_
_atom_site_type_symbol
_atom_site_label
_atom_site_fract_x
_atom_site_fract_y
_atom_site_fract_z
Si Si1 0.413316 0.397219 0.314552
Si Si2 0.807063 0.392501 0.660422
Si Si3 0.119173 0.247460 0.913238
Si Si4 0.717233 0.004634 0.779776
Si Si5 0.852734 0.159984 0.481964
O O1 0.294942 0.474467 0.345441
O O2 0.634723 0.490312 0.342677
O O3 0.608550 0.274521 0.402597
O O4 0.103402 0.362263 0.145240
O O5 0.486085 0.307534 0.543213
O O6 0.050847 0.338067 0.816173
O O7 0.001285 0.415227 0.649983
O O8 0.046750 0.308704 0.971550
O O9 0.848644 0.138653 0.808676
O O10 0.383570 0.955877 0.617353
#
# Coordination Sequence:
#
# PCOD9252845 Si02
#       5
#     4   4   4   4   4
#     4  11  27  49  75 112 150 201 249 313 376 449
#     4  12  28  49  76 110 157 197 255 312 371 449
#     4  11  26  50  73 112 156 195 250 318 366 449
#     4  11  26  47  78 106 149 200 256 305 375 440
#     4  11  25  48  77 107 152 196 252 309 382 442
#
# _framework density 26.66592
#
# number of rings (size 3 to 8) (size 9 to 14) (size 15 to 20)
#    0.000    0.800    2.000    3.600    8.400    4.000 
#    0.000    0.000    0.000    0.000    0.000    0.000 
#    0.000    0.000    0.000    0.000    0.000    0.000 
#
# Total GULP energy -112388.784338 kJ/mol
# GULP energy per Si atom -5619.439217 kJ/mol
# Density = 2.660523 g / cm^3
# Si number density = 26.665920 Si / 1000 Ang^3
#
#
#
# Elastic Constant Matrix: (Units=GPa)
#
#
# Indices 1 2 3 4 5 6 
#
# 1 143.1090 41.6104 40.6570 0.0000 15.5631 0.0000
# 2 41.6104 124.1268 66.8869 0.0000 13.3972 0.0000
# 3 40.6570 66.8869 170.6972 0.0000 23.8864 0.0000
# 4 0.0000 0.0000 0.0000 56.9777 0.0000 0.1313
# 5 15.5631 13.3972 23.8864 0.0000 35.4730 0.0000
# 6 0.0000 0.0000 0.0000 0.1313 0.0000 35.4450
#
#
#
# Elastic Compliance Matrix: (Units=1/GPa)
#
#
# Indices 1 2 3 4 5 6 
#
# 1 0.008048 -0.002019 -0.000815 0.000000 -0.002219 0.000000
# 2 -0.002019 0.010772 -0.003638 0.000000 -0.000733 0.000000
# 3 -0.000815 -0.003638 0.007988 0.000000 -0.003648 0.000000
# 4 0.000000 0.000000 0.000000 0.017551 0.000000 -0.000065
# 5 -0.002219 -0.000733 -0.003648 0.000000 0.031897 0.000000
# 6 0.000000 0.000000 0.000000 -0.000065 0.000000 0.028213
#
#
# Mechanical properties :
#
#
# Convention : Reuss Voigt Hill
#
# Bulk Modulus (GPa) = 72.12476 81.80462 76.96469
# Shear Modulus (GPa) = 40.97200 44.83104 42.90152
#
# Velocity S-wave (km/s) = 3.92407 4.10471 4.01540
# Velocity P-wave (km/s) = 6.90198 7.29445 7.10093
#
# Compressibility (1/GPa) = 0.01386487
#
# Stress axis : x y z
#
# Youngs Moduli (GPa) = 124.25979 92.82981 125.18341
#
# Poissons Ratio (x) = 0.18742 0.10204
# Poissons Ratio (y) = 0.25088 0.45537
# Poissons Ratio (z) = 0.10128 0.33768
#
# Static dielectric constant tensor:
#      x y z
#    x 2.070040 0.000000 0.025370 
#    y 0.000000 2.043900 0.000000 
#    z 0.025370 0.000000 2.070180 
# 
# From -- ./inp_files/12318.got.cif
#   From: 2010.05.17/outbox.cif.g08.bks.cpg/sg14_7_cif.got.tgz:12318.got - 2010.06.03 17:49:19.
