data_PCOD9252943
_publ_section_title
;
Structure prediction by ZEFSAII (Michael W. Deem and Ramdas Pophale) SiO2 
 PCOD9252943
Probable space group: P 21/C
;
_chemical_formula_sum "Si O2"
_cell_formula_units_Z 20
_cell_length_a 13.071049
_cell_length_b 7.612903
_cell_length_c 8.884065
_cell_angle_alpha 90.000000
_cell_angle_beta 53.450353
_cell_angle_gamma 90.000000
_cell_volume 710.186604
_symmetry_space_group_name_H-M "P 21/C"
_symmetry_group_IT_number 14
_symmetry_cell_setting 'monoclinic'
loop_
_space_group_symop_operation_xyz
x,y,z
-x,1/2+y,1/2-z
-x,-y,-z
x,1/2-y,1/2+z
loop_
_atom_site_type_symbol
_atom_site_label
_atom_site_fract_x
_atom_site_fract_y
_atom_site_fract_z
Si Si1 0.932639 0.232871 0.542812
Si Si2 0.432185 0.868327 0.764401
Si Si3 0.688655 0.652319 0.850600
Si Si4 0.050785 0.415656 0.201746
Si Si5 0.672995 0.064888 0.824136
O O1 0.942445 0.396622 0.423867
O O2 0.036242 0.229050 0.582808
O O3 0.804467 0.171185 0.736223
O O4 0.958143 0.083922 0.395841
O O5 0.697447 0.642806 0.293277
O O6 0.377941 0.674705 0.773259
O O7 0.351395 0.019167 0.748257
O O8 0.418174 0.898968 0.953726
O O9 0.817406 0.598301 0.823974
O O10 0.571866 0.635917 0.070589
#
# Coordination Sequence:
#
# PCOD9252943 Si02
#       5
#     4   4   4   4   4
#     4  11  27  50  77 119 153 216 266 336 404 484
#     4  11  30  49  83 122 159 218 274 333 417 483
#     4  11  28  51  82 118 162 217 268 339 409 486
#     4  11  26  49  77 111 158 203 273 328 408 473
#     4  12  28  52  82 117 167 209 273 345 400 495
#
# _framework density 28.161612000000002
#
# number of rings (size 3 to 8) (size 9 to 14) (size 15 to 20)
#    0.000    0.800    0.000    4.200   16.800    0.800 
#    0.000    0.000    0.000    0.000    0.000    0.000 
#    0.000    0.000    0.000    0.000    0.000    0.000 
#
# Total GULP energy -112239.042299 kJ/mol
# GULP energy per Si atom -5611.952115 kJ/mol
# Density = 2.809752 g / cm^3
# Si number density = 28.161612 Si / 1000 Ang^3
#
#
#
# Elastic Constant Matrix: (Units=GPa)
#
#
# Indices 1 2 3 4 5 6 
#
# 1 145.4534 38.3978 39.6389 0.0000 8.9689 0.0000
# 2 38.3978 202.5398 46.0174 0.0000 23.7896 0.0000
# 3 39.6389 46.0174 106.5560 0.0000 0.3126 0.0000
# 4 0.0000 0.0000 0.0000 54.5819 0.0000 38.9359
# 5 8.9689 23.7896 0.3126 0.0000 56.3956 0.0000
# 6 0.0000 0.0000 0.0000 38.9359 0.0000 5.8516
#
#
#
# Elastic Compliance Matrix: (Units=1/GPa)
#
#
# Indices 1 2 3 4 5 6 
#
# 1 0.007841 -0.000797 -0.002570 0.000000 -0.000896 0.000000
# 2 -0.000797 0.005870 -0.002232 0.000000 -0.002337 0.000000
# 3 -0.002570 -0.002232 0.011301 0.000000 0.001287 0.000000
# 4 0.000000 0.000000 0.000000 -0.004890 0.000000 0.032538
# 5 -0.000896 -0.002337 0.001287 0.000000 0.018853 0.000000
# 6 0.000000 0.000000 0.000000 0.032538 0.000000 -0.045614
#
#
# Mechanical properties :
#
#
# Convention : Reuss Voigt Hill
#
# Bulk Modulus (GPa) = 72.38946 78.07304 75.23125
# Shear Modulus (GPa) = 545.64315 45.39884 295.52100
#
# Velocity S-wave (km/s) = 13.93466 4.01943 10.25502
# Velocity P-wave (km/s) = 16.87189 7.02314 12.92256
#
# Compressibility (1/GPa) = 0.01381416
#
# Stress axis : x y z
#
# Youngs Moduli (GPa) = 127.53186 170.35869 88.49009
#
# Poissons Ratio (x) = 0.13584 0.22741
# Poissons Ratio (y) = 0.10169 0.19747
# Poissons Ratio (z) = 0.32775 0.38016
#
# Static dielectric constant tensor:
#      x y z
#    x 2.227720 0.000000 -0.088730 
#    y 0.000000 2.330790 0.000000 
#    z -0.088730 0.000000 2.120460 
# 
# From -- ./inp_files/12169.got.cif
#   From: 2010.05.17/outbox.cif.g08.bks.cpg/sg14_7_cif.got.tgz:12169.got - 2010.06.03 17:49:19.
