data_PCOD9252176
_publ_section_title
;
Structure prediction by ZEFSAII (Michael W. Deem and Ramdas Pophale) SiO2 
 PCOD9252176
Probable space group: P 21/C
;
_chemical_formula_sum "Si O2"
_cell_formula_units_Z 30
_cell_length_a 8.462459
_cell_length_b 14.594647
_cell_length_c 11.465047
_cell_angle_alpha 90.000000
_cell_angle_beta 123.188424
_cell_angle_gamma 90.000000
_cell_volume 1185.022423
_symmetry_space_group_name_H-M "P 21/C"
_symmetry_group_IT_number 14
_symmetry_cell_setting 'monoclinic'
loop_
_space_group_symop_operation_xyz
x,y,z
-x,1/2+y,1/2-z
-x,-y,-z
x,1/2-y,1/2+z
loop_
_atom_site_type_symbol
_atom_site_label
_atom_site_fract_x
_atom_site_fract_y
_atom_site_fract_z
Si Si1 0.409530 0.784116 0.993287
Si Si2 0.013477 0.103399 0.628155
Si Si3 0.975547 0.211265 0.252670
Si Si4 0.000000 0.500000 0.500000
Si Si5 0.193700 0.070781 0.465952
Si Si6 0.313703 0.061974 0.933700
Si Si7 0.829643 0.335994 0.396044
Si Si8 0.411022 0.582607 0.888150
O O1 0.599924 0.834868 0.034652
O O2 0.342886 0.794942 0.100764
O O3 0.233795 0.829108 0.852396
O O4 0.404355 0.678482 0.954296
O O5 0.040168 0.093701 0.502227
O O6 0.183338 0.057238 0.766855
O O7 0.000442 0.207656 0.666682
O O8 0.836898 0.035724 0.585331
O O9 0.942447 0.268722 0.358969
O O10 0.140284 0.138429 0.339183
O O11 0.821916 0.536462 0.514320
O O12 0.966530 0.394404 0.531680
O O13 0.391371 0.093679 0.605732
O O14 0.500000 0.000000 0.000000
O O15 0.753601 0.417552 0.277114
O O16 0.500000 0.500000 0.000000
#
# Coordination Sequence:
#
# PCOD9252176 Si02
#       8
#     4   4   4   2   4   4   4   4
#     4  11  24  45  72 104 148 187 247 310 356 444
#     4  11  24  45  70 102 149 186 245 306 366 442
#     4  11  23  44  71 102 145 186 243 303 366 434
#     4  12  26  44  78 102 150 190 236 310 380 428
#     4  11  24  42  69 102 135 198 238 293 376 438
#     4  12  24  45  74 111 142 191 245 307 369 440
#     4  11  24  46  70 108 140 189 241 302 365 438
#     4  11  26  46  68 101 148 192 242 303 369 436
#
# _framework density 25.315978000000001
#
# number of rings (size 3 to 8) (size 9 to 14) (size 15 to 20)
#    0.000    0.800    2.667    4.800    0.000    1.067 
#    4.800    1.333    0.000    0.000    0.000    0.000 
#    0.000    0.000    0.000    0.000    0.000    0.000 
#
# Total GULP energy -167045.521952 kJ/mol
# GULP energy per Si atom -5568.184065 kJ/mol
# Density = 2.525836 g / cm^3
# Si number density = 25.315978 Si / 1000 Ang^3
#
#
#
# Elastic Constant Matrix: (Units=GPa)
#
#
# Indices 1 2 3 4 5 6 
#
# 1 53.5137 -0.0221 -24.4471 0.0000 -12.2892 0.0000
# 2 -0.0221 105.7557 -8.8253 0.0000 -13.5675 0.0000
# 3 -24.4471 -8.8253 32.6767 0.0000 1.1110 0.0000
# 4 0.0000 0.0000 0.0000 28.0338 0.0000 7.0539
# 5 -12.2892 -13.5675 1.1110 0.0000 56.1491 0.0000
# 6 0.0000 0.0000 0.0000 7.0539 0.0000 50.1382
#
#
#
# Elastic Compliance Matrix: (Units=1/GPa)
#
#
# Indices 1 2 3 4 5 6 
#
# 1 0.031236 0.002909 0.023914 0.000000 0.007066 0.000000
# 2 0.002909 0.010247 0.004841 0.000000 0.003017 0.000000
# 3 0.023914 0.004841 0.049618 0.000000 0.005422 0.000000
# 4 0.000000 0.000000 0.000000 0.036980 0.000000 -0.005203
# 5 0.007066 0.003017 0.005422 0.000000 0.019978 0.000000
# 6 0.000000 0.000000 0.000000 -0.005203 0.000000 0.020677
#
#
# Mechanical properties :
#
#
# Convention : Reuss Voigt Hill
#
# Bulk Modulus (GPa) = 6.47547 13.92858 10.20202
# Shear Modulus (GPa) = 31.87073 41.88026 36.87549
#
# Velocity S-wave (km/s) = 3.55197 4.07172 3.82070
# Velocity P-wave (km/s) = 4.40289 5.25538 4.84791
#
# Compressibility (1/GPa) = 0.15442891
#
# Stress axis : x y z
#
# Youngs Moduli (GPa) = 32.01466 97.58572 20.15418
#
# Poissons Ratio (x) = -0.28385 -0.48197
# Poissons Ratio (y) = -0.09312 -0.09757
# Poissons Ratio (z) = -0.76561 -0.47243
#
# Static dielectric constant tensor:
#      x y z
#    x 2.183700 0.000000 -0.170930 
#    y 0.000000 2.105750 0.000000 
#    z -0.170930 0.000000 1.980060 
# 
# From -- ./inp_files/25626.got.cif
#   From: 2010.05.17/outbox.cif.g08.bks.cpg/sg14_13_cif.got.tgz:25626.got - 2010.06.03 17:49:19.
