data_PCOD9252391
_publ_section_title
;
Structure prediction by ZEFSAII (Michael W. Deem and Ramdas Pophale) SiO2 
 PCOD9252391
Probable space group: P 21/C
;
_chemical_formula_sum "Si O2"
_cell_formula_units_Z 28
_cell_length_a 15.593582
_cell_length_b 8.148056
_cell_length_c 14.363290
_cell_angle_alpha 90.000000
_cell_angle_beta 141.283931
_cell_angle_gamma 90.000000
_cell_volume 1141.443478
_symmetry_space_group_name_H-M "P 21/C"
_symmetry_group_IT_number 14
_symmetry_cell_setting 'monoclinic'
loop_
_space_group_symop_operation_xyz
x,y,z
-x,1/2+y,1/2-z
-x,-y,-z
x,1/2-y,1/2+z
loop_
_atom_site_type_symbol
_atom_site_label
_atom_site_fract_x
_atom_site_fract_y
_atom_site_fract_z
Si Si1 0.682646 0.275708 0.398421
Si Si2 0.852003 0.828137 0.782174
Si Si3 0.106480 0.244005 0.965548
Si Si4 0.937034 0.413508 0.686107
Si Si5 0.391335 0.091122 0.695788
Si Si6 0.315685 0.906791 0.289013
Si Si7 0.571290 0.742195 0.585991
O O1 0.784463 0.340491 0.562668
O O2 0.532024 0.354047 0.268864
O O3 0.749924 0.334574 0.358815
O O4 0.658602 0.083633 0.380847
O O5 0.709488 0.729704 0.641515
O O6 0.966751 0.808794 0.803195
O O7 0.897621 0.786121 0.926564
O O8 0.201175 0.981300 0.260100
O O9 0.011650 0.392556 0.848243
O O10 0.070710 0.084651 0.874894
O O11 0.263658 0.288527 0.075170
O O12 0.426042 0.101466 0.835264
O O13 0.425244 0.775150 0.417115
O O14 0.398674 0.078147 0.339968
#
# Coordination Sequence:
#
# PCOD9252391 Si02
#       7
#     4   4   4   4   4   4   4
#     4  12  24  40  64  95 127 174 222 277 338 388
#     4   9  20  42  70  93 136 178 220 264 334 412
#     4  11  24  43  68  98 134 175 227 270 333 405
#     4  12  24  43  68 101 132 185 220 277 337 403
#     4  11  24  43  63  91 135 170 223 288 321 396
#     4   9  18  37  68  93 127 168 220 261 332 402
#     4   8  18  38  63  98 121 173 215 268 328 401
#
# _framework density 24.530343999999999
#
# number of rings (size 3 to 8) (size 9 to 14) (size 15 to 20)
#    0.857    0.857    1.429    3.000    2.000    2.857 
#    0.000    6.429    0.000    0.000    0.000    0.000 
#    0.000    0.000    0.000    0.000    0.000    0.000 
#
# Total GULP energy -156405.070521 kJ/mol
# GULP energy per Si atom -5585.895376 kJ/mol
# Density = 2.447451 g / cm^3
# Si number density = 24.530344 Si / 1000 Ang^3
#
#
#
# Elastic Constant Matrix: (Units=GPa)
#
#
# Indices 1 2 3 4 5 6 
#
# 1 53.7319 22.8442 17.1076 0.0000 6.2796 0.0000
# 2 22.8442 51.7316 7.5894 0.0000 2.8413 0.0000
# 3 17.1076 7.5894 124.1922 0.0000 0.2218 0.0000
# 4 0.0000 0.0000 0.0000 36.0246 0.0000 -8.3811
# 5 6.2796 2.8413 0.2218 0.0000 27.0669 0.0000
# 6 0.0000 0.0000 0.0000 -8.3811 0.0000 21.8780
#
#
#
# Elastic Compliance Matrix: (Units=1/GPa)
#
#
# Indices 1 2 3 4 5 6 
#
# 1 0.024295 -0.010079 -0.002723 0.000000 -0.004556 0.000000
# 2 -0.010079 0.023800 -0.000066 0.000000 -0.000159 0.000000
# 3 -0.002723 -0.000066 0.008430 0.000000 0.000569 0.000000
# 4 0.000000 0.000000 0.000000 0.030475 0.000000 0.011674
# 5 -0.004556 -0.000159 0.000569 0.000000 0.038015 0.000000
# 6 0.000000 0.000000 0.000000 0.011674 0.000000 0.050180
#
#
# Mechanical properties :
#
#
# Convention : Reuss Voigt Hill
#
# Bulk Modulus (GPa) = 32.47754 36.08201 34.27978
# Shear Modulus (GPa) = 23.67504 29.13487 26.40496
#
# Velocity S-wave (km/s) = 3.11003 3.45005 3.28444
# Velocity P-wave (km/s) = 5.11516 5.53277 5.32806
#
# Compressibility (1/GPa) = 0.03079051
#
# Stress axis : x y z
#
# Youngs Moduli (GPa) = 41.16022 42.01736 118.62276
#
# Poissons Ratio (x) = 0.42349 0.32297
# Poissons Ratio (y) = 0.41485 0.00780
# Poissons Ratio (z) = 0.11206 0.00276
#
# Static dielectric constant tensor:
#      x y z
#    x 1.985620 0.000000 0.003810 
#    y 0.000000 1.945020 0.000000 
#    z 0.003810 0.000000 1.970450 
# 
# From -- ./inp_files/60356.got.cif
#   From: 2010.05.17/outbox.cif.g08.bks.cpg/sg14_31_cif.got.tgz:60356.got - 2010.06.03 17:49:19.
