data_PCOD9252490
_publ_section_title
;
Structure prediction by ZEFSAII (Michael W. Deem and Ramdas Pophale) SiO2 
 PCOD9252490
Probable space group: P 21/C
;
_chemical_formula_sum "Si O2"
_cell_formula_units_Z 24
_cell_length_a 8.702681
_cell_length_b 14.150867
_cell_length_c 17.837419
_cell_angle_alpha 90.000000
_cell_angle_beta 147.878433
_cell_angle_gamma 90.000000
_cell_volume 1168.016585
_symmetry_space_group_name_H-M "P 21/C"
_symmetry_group_IT_number 14
_symmetry_cell_setting 'monoclinic'
loop_
_space_group_symop_operation_xyz
x,y,z
-x,1/2+y,1/2-z
-x,-y,-z
x,1/2-y,1/2+z
loop_
_atom_site_type_symbol
_atom_site_label
_atom_site_fract_x
_atom_site_fract_y
_atom_site_fract_z
Si Si1 0.139304 0.969923 0.773236
Si Si2 0.871906 0.253936 0.041094
Si Si3 0.259799 0.371544 0.446770
Si Si4 0.257818 0.310235 0.841049
Si Si5 0.811302 0.934936 0.368826
Si Si6 0.838335 0.093172 0.905225
O O1 0.857977 0.905438 0.668769
O O2 0.162432 0.044787 0.850353
O O3 0.154766 0.026016 0.701819
O O4 0.421321 0.902031 0.893978
O O5 0.035857 0.215535 0.182293
O O6 0.079346 0.327531 0.085348
O O7 0.581018 0.310349 0.941876
O O8 0.798668 0.166171 0.957248
O O9 0.262181 0.275046 0.401897
O O10 0.037470 0.364039 0.422957
O O11 0.476917 0.936070 0.252969
O O12 0.000000 0.000000 0.500000
O O13 0.000000 0.000000 0.000000
#
# Coordination Sequence:
#
# PCOD9252490 Si02
#       6
#     4   4   4   4   4   4
#     4  11  24  47  72 101 146 184 238 296 353 426
#     4  12  26  48  69 106 148 186 232 296 365 429
#     4  11  24  44  74 106 135 187 241 287 357 430
#     4  12  25  45  76 103 140 192 237 296 361 424
#     4  12  29  47  70 110 148 187 244 298 356 431
#     4  12  26  46  76 102 143 194 235 290 366 426
#
# _framework density 20.547653
#
# number of rings (size 3 to 8) (size 9 to 14) (size 15 to 20)
#    0.000    0.333    6.667    1.000    7.000    3.333 
#    0.000    0.000    0.000    0.000    0.000    0.000 
#    0.000    0.000    0.000    0.000    0.000    0.000 
#
# Total GULP energy -134379.494995 kJ/mol
# GULP energy per Si atom -5599.145625 kJ/mol
# Density = 2.050089 g / cm^3
# Si number density = 20.547653 Si / 1000 Ang^3
#
#
#
# Elastic Constant Matrix: (Units=GPa)
#
#
# Indices 1 2 3 4 5 6 
#
# 1 67.6325 -9.4500 13.2454 0.0000 17.4798 0.0000
# 2 -9.4500 59.2926 -1.6224 0.0000 6.8118 0.0000
# 3 13.2454 -1.6224 81.3465 0.0000 12.8881 0.0000
# 4 0.0000 0.0000 0.0000 33.4988 0.0000 5.2393
# 5 17.4798 6.8118 12.8881 0.0000 42.4909 0.0000
# 6 0.0000 0.0000 0.0000 5.2393 0.0000 39.4598
#
#
#
# Elastic Compliance Matrix: (Units=1/GPa)
#
#
# Indices 1 2 3 4 5 6 
#
# 1 0.017483 0.003578 -0.001623 0.000000 -0.007274 0.000000
# 2 0.003578 0.017966 0.000489 0.000000 -0.004500 0.000000
# 3 -0.001623 0.000489 0.013103 0.000000 -0.003385 0.000000
# 4 0.000000 0.000000 0.000000 0.030485 0.000000 -0.004048
# 5 -0.007274 -0.004500 -0.003385 0.000000 0.028275 0.000000
# 6 0.000000 0.000000 0.000000 -0.004048 0.000000 0.025880
#
#
# Mechanical properties :
#
#
# Convention : Reuss Voigt Hill
#
# Bulk Modulus (GPa) = 18.71265 23.62417 21.16841
# Shear Modulus (GPa) = 34.21876 36.82982 35.52429
#
# Velocity S-wave (km/s) = 4.08528 4.23828 4.16248
# Velocity P-wave (km/s) = 5.60173 5.95591 5.78154
#
# Compressibility (1/GPa) = 0.05343979
#
# Stress axis : x y z
#
# Youngs Moduli (GPa) = 57.19712 55.66042 76.31585
#
# Poissons Ratio (x) = -0.19914 0.12386
# Poissons Ratio (y) = -0.20463 -0.03730
# Poissons Ratio (z) = 0.09283 -0.02721
#
# Static dielectric constant tensor:
#      x y z
#    x 1.744200 0.000000 0.009190 
#    y 0.000000 1.650270 0.000000 
#    z 0.009190 0.000000 1.710530 
# 
# From -- ./inp_files/8442.got.cif
#   From: 2010.05.17/outbox.cif.g08.bks.cpg/sg14_5_cif.got.tgz:8442.got - 2010.06.03 17:49:19.
