data_PCOD9252460
_publ_section_title
;
Structure prediction by ZEFSAII (Michael W. Deem and Ramdas Pophale) SiO2 
 PCOD9252460
Probable space group: P 21/C
;
_chemical_formula_sum "Si O2"
_cell_formula_units_Z 20
_cell_length_a 6.553568
_cell_length_b 18.035730
_cell_length_c 8.400463
_cell_angle_alpha 90.000000
_cell_angle_beta 112.023692
_cell_angle_gamma 90.000000
_cell_volume 920.466569
_symmetry_space_group_name_H-M "P 21/C"
_symmetry_group_IT_number 14
_symmetry_cell_setting 'monoclinic'
loop_
_space_group_symop_operation_xyz
x,y,z
-x,1/2+y,1/2-z
-x,-y,-z
x,1/2-y,1/2+z
loop_
_atom_site_type_symbol
_atom_site_label
_atom_site_fract_x
_atom_site_fract_y
_atom_site_fract_z
Si Si1 0.335707 0.388201 0.776683
Si Si2 0.120750 0.849112 0.994708
Si Si3 0.486109 0.964708 0.168348
Si Si4 0.762470 0.193028 0.336530
Si Si5 0.104442 0.081765 0.543150
O O1 0.509740 0.322198 0.807251
O O2 0.130377 0.375393 0.598231
O O3 0.541350 0.534621 0.223413
O O4 0.234671 0.395745 0.921538
O O5 0.201428 0.831268 0.836641
O O6 0.274024 0.912749 0.111689
O O7 0.156211 0.775698 0.108290
O O8 0.709972 0.920721 0.268419
O O9 0.500000 0.000000 0.000000
O O10 0.908095 0.140283 0.493522
O O11 0.000000 0.000000 0.500000
#
# Coordination Sequence:
#
# PCOD9252460 Si02
#       5
#     4   4   4   4   4
#     4  11  24  46  68  97 137 177 226 279 334 402
#     4  11  27  42  68  98 137 179 224 281 340 406
#     4  12  23  45  71 100 134 177 229 276 334 401
#     4  11  26  45  64 101 136 177 229 275 344 402
#     4  11  24  44  69 101 132 177 225 278 332 408
#
# _framework density 21.728109
#
# number of rings (size 3 to 8) (size 9 to 14) (size 15 to 20)
#    0.000    0.800    4.000    2.400    5.600    3.200 
#    0.000    0.000    0.000    0.000    0.000    0.000 
#    0.000    0.000    0.000    0.000    0.000    0.000 
#
# Total GULP energy -111932.175210 kJ/mol
# GULP energy per Si atom -5596.608760 kJ/mol
# Density = 2.167865 g / cm^3
# Si number density = 21.728109 Si / 1000 Ang^3
#
#
#
# Elastic Constant Matrix: (Units=GPa)
#
#
# Indices 1 2 3 4 5 6 
#
# 1 62.5565 -14.7745 7.7410 0.0000 18.7467 0.0000
# 2 -14.7745 64.6497 -7.0657 0.0000 11.9082 0.0000
# 3 7.7410 -7.0657 73.5441 0.0000 26.0977 0.0000
# 4 0.0000 0.0000 0.0000 36.1919 0.0000 2.8805
# 5 18.7467 11.9082 26.0977 0.0000 40.6939 0.0000
# 6 0.0000 0.0000 0.0000 2.8805 0.0000 21.7027
#
#
#
# Elastic Compliance Matrix: (Units=1/GPa)
#
#
# Indices 1 2 3 4 5 6 
#
# 1 0.021912 0.008163 0.003764 0.000000 -0.014897 0.000000
# 2 0.008163 0.020475 0.005914 0.000000 -0.013545 0.000000
# 3 0.003764 0.005914 0.019418 0.000000 -0.015918 0.000000
# 4 0.000000 0.000000 0.000000 0.027925 0.000000 -0.003706
# 5 -0.014897 -0.013545 -0.015918 0.000000 0.045608 0.000000
# 6 0.000000 0.000000 0.000000 -0.003706 0.000000 0.046569
#
#
# Mechanical properties :
#
#
# Convention : Reuss Voigt Hill
#
# Bulk Modulus (GPa) = 10.25768 19.17243 14.71506
# Shear Modulus (GPa) = 27.97666 34.04100 31.00883
#
# Velocity S-wave (km/s) = 3.59218 3.96243 3.78184
# Velocity P-wave (km/s) = 4.68361 5.45686 5.08496
#
# Compressibility (1/GPa) = 0.09748789
#
# Stress axis : x y z
#
# Youngs Moduli (GPa) = 45.63716 48.84046 51.49901
#
# Poissons Ratio (x) = -0.39868 -0.19385
# Poissons Ratio (y) = -0.37253 -0.30459
# Poissons Ratio (z) = -0.17179 -0.28886
#
# Static dielectric constant tensor:
#      x y z
#    x 1.842240 0.000000 -0.017730 
#    y 0.000000 1.752930 0.000000 
#    z -0.017730 0.000000 1.800530 
# 
# From -- ./inp_files/6063.got.cif
#   From: 2010.05.17/outbox.cif.g08.bks.cpg/sg14_4_cif.got.tgz:6063.got - 2010.06.03 17:49:19.
