data_PCOD9252539
_publ_section_title
;
Structure prediction by ZEFSAII (Michael W. Deem and Ramdas Pophale) SiO2 
 PCOD9252539
Probable space group: P 21/C
;
_chemical_formula_sum "Si O2"
_cell_formula_units_Z 22
_cell_length_a 16.003437
_cell_length_b 4.825292
_cell_length_c 22.723199
_cell_angle_alpha 90.000000
_cell_angle_beta 156.713693
_cell_angle_gamma 90.000000
_cell_volume 693.684047
_symmetry_space_group_name_H-M "P 21/C"
_symmetry_group_IT_number 14
_symmetry_cell_setting 'monoclinic'
loop_
_space_group_symop_operation_xyz
x,y,z
-x,1/2+y,1/2-z
-x,-y,-z
x,1/2-y,1/2+z
loop_
_atom_site_type_symbol
_atom_site_label
_atom_site_fract_x
_atom_site_fract_y
_atom_site_fract_z
Si Si1 0.268454 0.425966 0.781378
Si Si2 0.359483 0.154701 0.959036
Si Si3 0.966122 0.194995 0.284202
Si Si4 0.000000 0.500000 0.000000
Si Si5 0.743403 0.102594 0.442550
Si Si6 0.744433 0.930194 0.853387
O O1 0.356050 0.207192 0.886186
O O2 0.089637 0.577925 0.703388
O O3 0.198854 0.253089 0.676794
O O4 0.444765 0.671231 0.889624
O O5 0.151557 0.272594 0.857672
O O6 0.255065 0.847693 0.892978
O O7 0.069721 0.960237 0.392735
O O8 0.196266 0.399294 0.076156
O O9 0.128140 0.793959 0.095286
O O10 0.740336 0.409074 0.415229
O O11 0.514031 0.056140 0.320921
#
# Coordination Sequence:
#
# PCOD9252539 Si02
#       6
#     4   4   4   2   4   4
#     4  11  25  48  75 111 159 200 266 326 392 472
#     4  11  24  45  74 113 151 202 261 324 394 466
#     4  12  24  47  76 111 153 209 262 323 391 469
#     4  12  26  50  76 110 156 204 258 322 390 462
#     4  12  26  48  77 111 158 205 261 324 398 474
#     4  12  26  50  78 117 156 207 263 324 403 474
#
# _framework density 31.714724
#
# number of rings (size 3 to 8) (size 9 to 14) (size 15 to 20)
#    0.000    0.364    5.455    3.273    0.000    1.455 
#    3.273    0.000    0.000    0.000    0.000    0.000 
#    0.000    0.000    0.000    0.000    0.000    0.000 
#
# Total GULP energy -122591.374090 kJ/mol
# GULP energy per Si atom -5572.335186 kJ/mol
# Density = 3.164254 g / cm^3
# Si number density = 31.714724 Si / 1000 Ang^3
#
#
#
# Elastic Constant Matrix: (Units=GPa)
#
#
# Indices 1 2 3 4 5 6 
#
# 1 180.9309 17.5127 20.0647 0.0000 3.4326 0.0000
# 2 17.5127 197.0050 11.6786 0.0000 7.1666 0.0000
# 3 20.0647 11.6786 144.2340 0.0000 13.5041 0.0000
# 4 0.0000 0.0000 0.0000 44.5693 0.0000 -0.8144
# 5 3.4326 7.1666 13.5041 0.0000 76.8124 0.0000
# 6 0.0000 0.0000 0.0000 -0.8144 0.0000 67.5908
#
#
#
# Elastic Compliance Matrix: (Units=1/GPa)
#
#
# Indices 1 2 3 4 5 6 
#
# 1 0.005655 -0.000456 -0.000742 0.000000 -0.000080 0.000000
# 2 -0.000456 0.005150 -0.000316 0.000000 -0.000405 0.000000
# 3 -0.000742 -0.000316 0.007174 0.000000 -0.001199 0.000000
# 4 0.000000 0.000000 0.000000 0.022442 0.000000 0.000270
# 5 -0.000080 -0.000405 -0.001199 0.000000 0.013271 0.000000
# 6 0.000000 0.000000 0.000000 0.000270 0.000000 0.014798
#
#
# Mechanical properties :
#
#
# Convention : Reuss Voigt Hill
#
# Bulk Modulus (GPa) = 66.88283 68.96467 67.92375
# Shear Modulus (GPa) = 65.35827 69.32208 67.34018
#
# Velocity S-wave (km/s) = 4.54455 4.68033 4.61294
# Velocity P-wave (km/s) = 6.97652 7.14142 7.05945
#
# Compressibility (1/GPa) = 0.01495152
#
# Stress axis : x y z
#
# Youngs Moduli (GPa) = 176.83716 194.17610 139.38779
#
# Poissons Ratio (x) = 0.08850 0.10347
# Poissons Ratio (y) = 0.08060 0.04401
# Poissons Ratio (z) = 0.13127 0.06130
#
# Static dielectric constant tensor:
#      x y z
#    x 2.535600 0.000000 0.111610 
#    y 0.000000 2.396220 0.000000 
#    z 0.111610 0.000000 2.350190 
# 
# From -- ./inp_files/73809.got.cif
#   From: 2010.05.17/outbox.cif.g08.bks.cpg/sg14_37_cif.got.tgz:73809.got - 2010.06.03 17:49:19.
