data_PCOD9252604
_publ_section_title
;
Structure prediction by ZEFSAII (Michael W. Deem and Ramdas Pophale) SiO2 
 PCOD9252604
Probable space group: P 21/C
;
_chemical_formula_sum "Si O2"
_cell_formula_units_Z 28
_cell_length_a 14.214324
_cell_length_b 7.467005
_cell_length_c 13.711585
_cell_angle_alpha 90.000000
_cell_angle_beta 47.744083
_cell_angle_gamma 90.000000
_cell_volume 1077.157690
_symmetry_space_group_name_H-M "P 21/C"
_symmetry_group_IT_number 14
_symmetry_cell_setting 'monoclinic'
loop_
_space_group_symop_operation_xyz
x,y,z
-x,1/2+y,1/2-z
-x,-y,-z
x,1/2-y,1/2+z
loop_
_atom_site_type_symbol
_atom_site_label
_atom_site_fract_x
_atom_site_fract_y
_atom_site_fract_z
Si Si1 0.942482 0.580305 0.767606
Si Si2 0.500000 0.000000 0.500000
Si Si3 0.171312 0.056342 0.208230
Si Si4 0.404219 0.628731 0.443095
Si Si5 0.291994 0.613142 0.307423
Si Si6 0.687837 0.964566 0.715055
Si Si7 0.682866 0.526169 0.998109
Si Si8 0.000000 0.000000 0.000000
O O1 0.869798 0.769823 0.823352
O O2 0.822482 0.454888 0.875884
O O3 0.048555 0.567491 0.776851
O O4 0.996939 0.548863 0.622657
O O5 0.384986 0.947813 0.657956
O O6 0.397981 0.148201 0.516729
O O7 0.201343 0.118019 0.296783
O O8 0.295397 0.952464 0.086404
O O9 0.357664 0.583165 0.366434
O O10 0.546838 0.562348 0.353756
O O11 0.408122 0.847490 0.455371
O O12 0.277356 0.827109 0.313219
O O13 0.154105 0.528687 0.392049
O O14 0.683681 0.902462 0.606301
#
# Coordination Sequence:
#
# PCOD9252604 Si02
#       8
#     4   2   4   4   4   4   4   2
#     4  12  29  48  78 108 147 204 258 320 391 465
#     4  12  22  44  76 110 144 198 250 308 370 456
#     4  12  28  48  75 108 151 200 256 320 386 463
#     4  11  24  47  73 113 154 196 254 315 392 455
#     4  11  25  45  79 109 154 202 251 318 379 461
#     4  11  27  46  75 111 155 197 254 319 389 459
#     4  11  26  45  76 110 153 198 256 314 380 464
#     4  12  26  50  76 106 152 204 250 316 394 454
#
# _framework density 25.994337000000002
#
# number of rings (size 3 to 8) (size 9 to 14) (size 15 to 20)
#    0.000    0.571    4.286    2.143    8.000    1.714 
#    0.000    0.000    0.000    0.000    0.000    0.000 
#    0.000    0.000    0.000    0.000    0.000    0.000 
#
# Total GULP energy -156058.459010 kJ/mol
# GULP energy per Si atom -5573.516393 kJ/mol
# Density = 2.593517 g / cm^3
# Si number density = 25.994337 Si / 1000 Ang^3
#
#
#
# Elastic Constant Matrix: (Units=GPa)
#
#
# Indices 1 2 3 4 5 6 
#
# 1 205.8285 13.4908 35.5541 0.0000 -13.1403 0.0000
# 2 13.4908 63.8972 -21.1610 0.0000 -7.5641 0.0000
# 3 35.5541 -21.1610 97.8765 0.0000 -8.1704 0.0000
# 4 0.0000 0.0000 0.0000 6.0343 0.0000 2.1870
# 5 -13.1403 -7.5641 -8.1704 0.0000 48.3146 0.0000
# 6 0.0000 0.0000 0.0000 2.1870 0.0000 25.5431
#
#
#
# Elastic Compliance Matrix: (Units=1/GPa)
#
#
# Indices 1 2 3 4 5 6 
#
# 1 0.005425 -0.001810 -0.002295 0.000000 0.000804 0.000000
# 2 -0.001810 0.017997 0.004811 0.000000 0.003139 0.000000
# 3 -0.002295 0.004811 0.012275 0.000000 0.002205 0.000000
# 4 0.000000 0.000000 0.000000 0.171025 0.000000 -0.014643
# 5 0.000804 0.003139 0.002205 0.000000 0.021781 0.000000
# 6 0.000000 0.000000 0.000000 -0.014643 0.000000 0.040403
#
#
# Mechanical properties :
#
#
# Convention : Reuss Voigt Hill
#
# Bulk Modulus (GPa) = 26.94868 47.04110 36.99489
# Shear Modulus (GPa) = 17.86584 38.62629 28.24607
#
# Velocity S-wave (km/s) = 2.62448 3.85898 3.29997
# Velocity P-wave (km/s) = 4.42420 6.16374 5.36494
#
# Compressibility (1/GPa) = 0.03710756
#
# Stress axis : x y z
#
# Youngs Moduli (GPa) = 184.33917 55.56476 81.46865
#
# Poissons Ratio (x) = 0.10058 0.18696
# Poissons Ratio (y) = 0.33369 -0.39191
# Poissons Ratio (z) = 0.42303 -0.26730
#
# Static dielectric constant tensor:
#      x y z
#    x 1.546500 0.000000 0.102040 
#    y 0.000000 2.027180 0.000000 
#    z 0.102040 0.000000 2.150530 
# 
# From -- ./inp_files/46737.got.cif
#   From: 2010.05.17/outbox.cif.g08.bks.cpg/sg14_24_cif.got.tgz:46737.got - 2010.06.03 17:49:19.
