data_PCOD9252906
_publ_section_title
;
Structure prediction by ZEFSAII (Michael W. Deem and Ramdas Pophale) SiO2 
 PCOD9252906
Probable space group: P 21/C
;
_chemical_formula_sum "Si O2"
_cell_formula_units_Z 32
_cell_length_a 15.823077
_cell_length_b 15.546652
_cell_length_c 13.132571
_cell_angle_alpha 90.000000
_cell_angle_beta 154.461247
_cell_angle_gamma 90.000000
_cell_volume 1392.763046
_symmetry_space_group_name_H-M "P 21/C"
_symmetry_group_IT_number 14
_symmetry_cell_setting 'monoclinic'
loop_
_space_group_symop_operation_xyz
x,y,z
-x,1/2+y,1/2-z
-x,-y,-z
x,1/2-y,1/2+z
loop_
_atom_site_type_symbol
_atom_site_label
_atom_site_fract_x
_atom_site_fract_y
_atom_site_fract_z
Si Si1 0.760635 0.228204 0.304587
Si Si2 0.030030 0.122019 0.115316
Si Si3 0.495242 0.011478 0.872292
Si Si4 0.773275 0.366333 0.024920
Si Si5 0.537408 0.818719 0.646582
Si Si6 0.214824 0.337517 0.023908
Si Si7 0.158274 0.046716 0.046433
Si Si8 0.891889 0.430209 0.811846
O O1 0.925538 0.296307 0.454017
O O2 0.799334 0.203251 0.463747
O O3 0.791667 0.142230 0.273336
O O4 0.556032 0.275762 0.056373
O O5 0.166339 0.153660 0.353367
O O6 0.872387 0.055382 0.991384
O O7 0.137028 0.071896 0.142341
O O8 0.399130 0.102673 0.746832
O O9 0.359489 0.940514 0.671954
O O10 0.716171 0.015562 0.070314
O O11 0.500000 0.000000 0.000000
O O12 0.642537 0.322371 0.970180
O O13 0.973373 0.409607 0.285085
O O14 0.718156 0.757554 0.874244
O O15 0.631884 0.913197 0.750690
O O16 0.038890 0.379949 0.897725
O O17 0.000000 0.500000 0.000000
#
# Coordination Sequence:
#
# PCOD9252906 Si02
#       8
#     4   4   4   4   4   4   4   4
#     4  12  26  47  73 110 149 188 249 304 362 441
#     4  11  26  47  75 100 146 195 242 300 358 442
#     4  12  23  47  73 110 142 184 245 302 368 433
#     4  12  26  49  74 106 149 188 246 305 360 441
#     4  12  28  47  75 107 146 193 244 301 371 436
#     4  12  25  45  74 107 143 189 237 302 372 435
#     4  11  26  52  69 102 146 195 247 295 363 437
#     4  12  26  45  78 109 149 187 237 307 375 434
#
# _framework density 22.975909999999999
#
# number of rings (size 3 to 8) (size 9 to 14) (size 15 to 20)
#    0.000    0.250    6.250    1.500    5.250    1.500 
#    0.000    0.000    0.000    0.000    0.000    0.000 
#    0.000    0.000    0.000    0.000    0.000    0.000 
#
# Total GULP energy -179025.278443 kJ/mol
# GULP energy per Si atom -5594.539951 kJ/mol
# Density = 2.292362 g / cm^3
# Si number density = 22.975910 Si / 1000 Ang^3
#
#
#
# Elastic Constant Matrix: (Units=GPa)
#
#
# Indices 1 2 3 4 5 6 
#
# 1 52.7094 -17.1817 16.5442 0.0000 -5.0250 0.0000
# 2 -17.1817 65.8845 6.5914 0.0000 -1.9385 0.0000
# 3 16.5442 6.5914 106.1632 0.0000 -11.6776 0.0000
# 4 0.0000 0.0000 0.0000 40.2750 0.0000 4.3139
# 5 -5.0250 -1.9385 -11.6776 0.0000 34.8667 0.0000
# 6 0.0000 0.0000 0.0000 4.3139 0.0000 31.8768
#
#
#
# Elastic Compliance Matrix: (Units=1/GPa)
#
#
# Indices 1 2 3 4 5 6 
#
# 1 0.022375 0.006266 -0.003616 0.000000 0.002362 0.000000
# 2 0.006266 0.017038 -0.001901 0.000000 0.001214 0.000000
# 3 -0.003616 -0.001901 0.010416 0.000000 0.002862 0.000000
# 4 0.000000 0.000000 0.000000 0.025195 0.000000 -0.003410
# 5 0.002362 0.001214 0.002862 0.000000 0.030047 0.000000
# 6 0.000000 0.000000 0.000000 -0.003410 0.000000 0.031832
#
#
# Mechanical properties :
#
#
# Convention : Reuss Voigt Hill
#
# Bulk Modulus (GPa) = 19.48283 26.29610 22.88947
# Shear Modulus (GPa) = 32.78418 35.99060 34.38739
#
# Velocity S-wave (km/s) = 3.78152 3.96213 3.87288
# Velocity P-wave (km/s) = 5.25020 5.69221 5.47567
#
# Compressibility (1/GPa) = 0.05132724
#
# Stress axis : x y z
#
# Youngs Moduli (GPa) = 44.69330 58.69198 96.00829
#
# Poissons Ratio (x) = -0.36778 0.34717
# Poissons Ratio (y) = -0.28006 0.18250
# Poissons Ratio (z) = 0.16161 0.11157
#
# Static dielectric constant tensor:
#      x y z
#    x 1.872820 0.000000 0.019510 
#    y 0.000000 1.899220 0.000000 
#    z 0.019510 0.000000 1.852410 
# 
# From -- ./inp_files/32995.got.cif
#   From: 2010.05.17/outbox.cif.g08.bks.cpg/sg14_17_cif.got.tgz:32995.got - 2010.06.03 17:49:19.
