data_PCOD9252038
_publ_section_title
;
Structure prediction by ZEFSAII (Michael W. Deem and Ramdas Pophale) SiO2 
 PCOD9252038
Probable space group: P 21/C
;
_chemical_formula_sum "Si O2"
_cell_formula_units_Z 20
_cell_length_a 18.677804
_cell_length_b 4.957814
_cell_length_c 8.848446
_cell_angle_alpha 90.000000
_cell_angle_beta 92.972044
_cell_angle_gamma 90.000000
_cell_volume 818.273540
_symmetry_space_group_name_H-M "P 21/C"
_symmetry_group_IT_number 14
_symmetry_cell_setting 'monoclinic'
loop_
_space_group_symop_operation_xyz
x,y,z
-x,1/2+y,1/2-z
-x,-y,-z
x,1/2-y,1/2+z
loop_
_atom_site_type_symbol
_atom_site_label
_atom_site_fract_x
_atom_site_fract_y
_atom_site_fract_z
Si Si1 0.258322 0.369786 0.909940
Si Si2 0.473816 0.882675 0.157230
Si Si3 0.959270 0.211650 0.888684
Si Si4 0.898790 0.921052 0.641837
Si Si5 0.308400 0.877767 0.097466
O O1 0.175230 0.276233 0.893660
O O2 0.279877 0.491212 0.749985
O O3 0.303260 0.113745 0.970756
O O4 0.267301 0.614571 0.030772
O O5 0.482671 0.123013 0.280186
O O6 0.390990 0.801420 0.132511
O O7 0.500000 0.000000 0.000000
O O8 0.892539 0.130102 0.777468
O O9 0.028979 0.276523 0.794212
O O10 0.925875 0.437154 0.993393
O O11 0.000000 0.000000 0.000000
#
# Coordination Sequence:
#
# PCOD9252038 Si02
#       5
#     4   4   4   4   4
#     4  12  27  44  71  98 144 184 227 282 349 412
#     4  12  24  44  75 105 140 183 228 281 336 399
#     4  11  23  42  61  92 121 161 225 277 325 393
#     4  11  25  39  67  88 126 170 220 277 337 392
#     4  12  26  48  68 107 141 182 229 280 337 418
#
# _framework density 24.441703
#
# number of rings (size 3 to 8) (size 9 to 14) (size 15 to 20)
#    0.000    0.400    2.000    6.600    5.600    0.000 
#    0.000    0.000    0.000    0.000    0.000    0.000 
#    0.000    0.000    0.000    0.000    0.000    0.000 
#
# Total GULP energy -111867.044230 kJ/mol
# GULP energy per Si atom -5593.352211 kJ/mol
# Density = 2.438607 g / cm^3
# Si number density = 24.441703 Si / 1000 Ang^3
#
#
#
# Elastic Constant Matrix: (Units=GPa)
#
#
# Indices 1 2 3 4 5 6 
#
# 1 84.4967 -14.4419 10.6850 0.0000 16.2057 0.0000
# 2 -14.4419 68.8657 3.8684 0.0000 18.3226 0.0000
# 3 10.6850 3.8684 92.4840 0.0000 11.4923 0.0000
# 4 0.0000 0.0000 0.0000 36.6462 0.0000 -1.5655
# 5 16.2057 18.3226 11.4923 0.0000 32.0827 0.0000
# 6 0.0000 0.0000 0.0000 -1.5655 0.0000 21.0947
#
#
#
# Elastic Compliance Matrix: (Units=1/GPa)
#
#
# Indices 1 2 3 4 5 6 
#
# 1 0.015030 0.006069 -0.000645 0.000000 -0.010827 0.000000
# 2 0.006069 0.019597 0.000263 0.000000 -0.014352 0.000000
# 3 -0.000645 0.000263 0.011360 0.000000 -0.003893 0.000000
# 4 0.000000 0.000000 0.000000 0.027375 0.000000 0.002032
# 5 -0.010827 -0.014352 -0.003893 0.000000 0.046229 0.000000
# 6 0.000000 0.000000 0.000000 0.002032 0.000000 0.047556
#
#
# Mechanical properties :
#
#
# Convention : Reuss Voigt Hill
#
# Bulk Modulus (GPa) = 17.43362 27.34105 22.38734
# Shear Modulus (GPa) = 28.58857 34.34703 31.46780
#
# Velocity S-wave (km/s) = 3.42374 3.75275 3.59202
# Velocity P-wave (km/s) = 4.77259 5.47613 5.13642
#
# Compressibility (1/GPa) = 0.05736044
#
# Stress axis : x y z
#
# Youngs Moduli (GPa) = 66.53303 51.02703 88.02805
#
# Poissons Ratio (x) = -0.30968 0.05677
# Poissons Ratio (y) = -0.40378 -0.02311
# Poissons Ratio (z) = 0.04291 -0.01339
#
# Static dielectric constant tensor:
#      x y z
#    x 1.632210 0.000000 -0.380930 
#    y 0.000000 2.616140 0.000000 
#    z -0.380930 0.000000 1.569350 
# 
# From -- ./inp_files/17226.got.cif
#   From: 2010.05.17/outbox.cif.g08.bks.cpg/sg14_9_cif.got.tgz:17226.got - 2010.06.03 17:49:19.
