data_PCOD9252386
_publ_section_title
;
Structure prediction by ZEFSAII (Michael W. Deem and Ramdas Pophale) SiO2 
 PCOD9252386
Probable space group: P 21/C
;
_chemical_formula_sum "Si O2"
_cell_formula_units_Z 22
_cell_length_a 5.216582
_cell_length_b 8.264039
_cell_length_c 18.612976
_cell_angle_alpha 90.000000
_cell_angle_beta 97.719896
_cell_angle_gamma 90.000000
_cell_volume 795.133569
_symmetry_space_group_name_H-M "P 21/C"
_symmetry_group_IT_number 14
_symmetry_cell_setting 'monoclinic'
loop_
_space_group_symop_operation_xyz
x,y,z
-x,1/2+y,1/2-z
-x,-y,-z
x,1/2-y,1/2+z
loop_
_atom_site_type_symbol
_atom_site_label
_atom_site_fract_x
_atom_site_fract_y
_atom_site_fract_z
Si Si1 0.500000 0.500000 0.000000
Si Si2 0.503422 0.659871 0.437421
Si Si3 0.995382 0.970262 0.094147
Si Si4 0.410520 0.388000 0.175374
Si Si5 0.975106 0.400088 0.902374
Si Si6 0.155528 0.396889 0.745722
O O1 0.499314 0.298500 0.003778
O O2 0.793363 0.508201 0.050774
O O3 0.784586 0.588901 0.428344
O O4 0.422492 0.754471 0.360183
O O5 0.289580 0.523803 0.439424
O O6 0.014753 0.998989 0.180055
O O7 0.052739 0.785430 0.077657
O O8 0.574740 0.510652 0.228103
O O9 0.216639 0.279290 0.214793
O O10 0.287299 0.491492 0.103129
O O11 0.020048 0.393664 0.817784
#
# Coordination Sequence:
#
# PCOD9252386 Si02
#       6
#     2   4   4   4   4   4
#     4  12  26  52  78 102 158 196 268 298 374 448
#     4  11  27  50  73 113 144 204 244 315 363 454
#     4  11  28  46  77 110 155 185 259 309 388 437
#     4  11  25  43  74 110 148 189 253 304 388 435
#     4  12  27  45  74 109 146 208 242 318 372 456
#     4  11  24  42  73 110 147 194 241 320 375 460
#
# _framework density 27.668306999999999
#
# number of rings (size 3 to 8) (size 9 to 14) (size 15 to 20)
#    0.000    0.727    1.818    4.364   15.273    4.364 
#    0.000    0.000    0.000    0.000    0.000    0.000 
#    0.000    0.000    0.000    0.000    0.000    0.000 
#
# Total GULP energy -123161.076515 kJ/mol
# GULP energy per Si atom -5598.230751 kJ/mol
# Density = 2.760533 g / cm^3
# Si number density = 27.668307 Si / 1000 Ang^3
#
#
#
# Elastic Constant Matrix: (Units=GPa)
#
#
# Indices 1 2 3 4 5 6 
#
# 1 116.2221 41.1138 0.8132 0.0000 9.0694 0.0000
# 2 41.1138 169.7627 -12.0450 0.0000 -16.0459 0.0000
# 3 0.8132 -12.0450 96.8909 0.0000 -7.4318 0.0000
# 4 0.0000 0.0000 0.0000 54.6166 0.0000 -10.6661
# 5 9.0694 -16.0459 -7.4318 0.0000 40.0606 0.0000
# 6 0.0000 0.0000 0.0000 -10.6661 0.0000 56.8325
#
#
#
# Elastic Compliance Matrix: (Units=1/GPa)
#
#
# Indices 1 2 3 4 5 6 
#
# 1 0.009857 -0.002764 -0.000692 0.000000 -0.003467 0.000000
# 2 -0.002764 0.006987 0.001171 0.000000 0.003642 0.000000
# 3 -0.000692 0.001171 0.010672 0.000000 0.002606 0.000000
# 4 0.000000 0.000000 0.000000 0.019006 0.000000 0.003567
# 5 -0.003467 0.003642 0.002606 0.000000 0.027689 0.000000
# 6 0.000000 0.000000 0.000000 0.003567 0.000000 0.018265
#
#
# Mechanical properties :
#
#
# Convention : Reuss Voigt Hill
#
# Bulk Modulus (GPa) = 43.57997 49.18219 46.38108
# Shear Modulus (GPa) = 47.75704 53.83483 50.79594
#
# Velocity S-wave (km/s) = 4.15909 4.41582 4.28938
# Velocity P-wave (km/s) = 6.23290 6.61918 6.42894
#
# Compressibility (1/GPa) = 0.02294632
#
# Stress axis : x y z
#
# Youngs Moduli (GPa) = 101.44605 143.11622 93.70183
#
# Poissons Ratio (x) = 0.39560 0.06487
# Poissons Ratio (y) = 0.28041 -0.10974
# Poissons Ratio (z) = 0.07023 -0.16761
#
# Static dielectric constant tensor:
#      x y z
#    x 1.930550 0.000000 0.124630 
#    y 0.000000 2.012340 0.000000 
#    z 0.124630 0.000000 2.066670 
# 
# From -- ./inp_files/63140.got.cif
#   From: 2010.05.17/outbox.cif.g08.bks.cpg/sg14_32_cif.got.tgz:63140.got - 2010.06.03 17:49:19.
