data_PCOD9252395
_publ_section_title
;
Structure prediction by ZEFSAII (Michael W. Deem and Ramdas Pophale) SiO2 
 PCOD9252395
Probable space group: P 21/C
;
_chemical_formula_sum "Si O2"
_cell_formula_units_Z 16
_cell_length_a 9.617961
_cell_length_b 16.223413
_cell_length_c 7.819487
_cell_angle_alpha 90.000000
_cell_angle_beta 33.221407
_cell_angle_gamma 90.000000
_cell_volume 668.475710
_symmetry_space_group_name_H-M "P 21/C"
_symmetry_group_IT_number 14
_symmetry_cell_setting 'monoclinic'
loop_
_space_group_symop_operation_xyz
x,y,z
-x,1/2+y,1/2-z
-x,-y,-z
x,1/2-y,1/2+z
loop_
_atom_site_type_symbol
_atom_site_label
_atom_site_fract_x
_atom_site_fract_y
_atom_site_fract_z
Si Si1 0.566280 0.118711 0.030170
Si Si2 0.971017 0.629330 0.434881
Si Si3 0.937612 0.956296 0.336246
Si Si4 0.474962 0.709876 0.790152
O O1 0.339831 0.054811 0.297994
O O2 0.533755 0.191623 0.203338
O O3 0.534166 0.164599 0.882847
O O4 0.841350 0.078922 0.771363
O O5 0.999492 0.548553 0.286740
O O6 0.943950 0.596936 0.654985
O O7 0.729336 0.680819 0.622959
O O8 0.225013 0.681485 0.148761
#
# Coordination Sequence:
#
# PCOD9252395 Si02
#       4
#     4   4   4   4
#     4  12  25  42  65  93 127 165 209 258 309 368
#     4  11  24  43  66  93 127 165 206 255 312 371
#     4  11  24  43  66  93 127 165 206 255 312 371
#     4  12  25  42  65  93 127 165 209 258 309 368
#
# _framework density 23.935048999999999
#
# number of rings (size 3 to 8) (size 9 to 14) (size 15 to 20)
#    0.000    0.500    0.000    9.000    0.000   10.000 
#    0.000    0.000    0.000    0.000    0.000    0.000 
#    0.000    0.000    0.000    0.000    0.000    0.000 
#
# Total GULP energy -89839.205947 kJ/mol
# GULP energy per Si atom -5614.950372 kJ/mol
# Density = 2.388057 g / cm^3
# Si number density = 23.935049 Si / 1000 Ang^3
#
#
#
# Elastic Constant Matrix: (Units=GPa)
#
#
# Indices 1 2 3 4 5 6 
#
# 1 86.5243 -5.0735 35.8185 0.0000 12.6315 0.0000
# 2 -5.0735 57.5508 15.2584 0.0000 -9.2130 0.0000
# 3 35.8185 15.2584 155.7550 0.0000 -25.2385 0.0000
# 4 0.0000 0.0000 0.0000 23.5808 0.0000 5.3268
# 5 12.6315 -9.2130 -25.2385 0.0000 34.0132 0.0000
# 6 0.0000 0.0000 0.0000 5.3268 0.0000 38.1378
#
#
#
# Elastic Compliance Matrix: (Units=1/GPa)
#
#
# Indices 1 2 3 4 5 6 
#
# 1 0.015022 0.001220 -0.005029 0.000000 -0.008980 0.000000
# 2 0.001220 0.018435 -0.001535 0.000000 0.003401 0.000000
# 3 -0.005029 -0.001535 0.009051 0.000000 0.008168 0.000000
# 4 0.000000 0.000000 0.000000 0.043789 0.000000 -0.006116
# 5 -0.008980 0.003401 0.008168 0.000000 0.039717 0.000000
# 6 0.000000 0.000000 0.000000 -0.006116 0.000000 0.027075
#
#
# Mechanical properties :
#
#
# Convention : Reuss Voigt Hill
#
# Bulk Modulus (GPa) = 31.42812 43.53744 37.48278
# Shear Modulus (GPa) = 28.67237 36.06814 32.37026
#
# Velocity S-wave (km/s) = 3.46486 3.88611 3.68152
# Velocity P-wave (km/s) = 5.40056 6.19396 5.81082
#
# Compressibility (1/GPa) = 0.03181864
#
# Stress axis : x y z
#
# Youngs Moduli (GPa) = 66.56959 54.24447 110.48765
#
# Poissons Ratio (x) = -0.06618 0.55566
# Poissons Ratio (y) = -0.08122 0.16965
# Poissons Ratio (z) = 0.33479 0.08329
#
# Static dielectric constant tensor:
#      x y z
#    x 1.905740 0.000000 0.041330 
#    y 0.000000 1.890870 0.000000 
#    z 0.041330 0.000000 1.847010 
# 
# From -- ./inp_files/4985.got.cif
#   From: 2010.05.17/outbox.cif.g08.bks.cpg/sg14_3_cif.got.tgz:4985.got - 2010.06.03 17:49:19.
