data_PCOD9252327
_publ_section_title
;
Structure prediction by ZEFSAII (Michael W. Deem and Ramdas Pophale) SiO2 
 PCOD9252327
Probable space group: P 21/C
;
_chemical_formula_sum "Si O2"
_cell_formula_units_Z 32
_cell_length_a 12.524400
_cell_length_b 9.118616
_cell_length_c 20.367736
_cell_angle_alpha 90.000000
_cell_angle_beta 147.285430
_cell_angle_gamma 90.000000
_cell_volume 1257.151408
_symmetry_space_group_name_H-M "P 21/C"
_symmetry_group_IT_number 14
_symmetry_cell_setting 'monoclinic'
loop_
_space_group_symop_operation_xyz
x,y,z
-x,1/2+y,1/2-z
-x,-y,-z
x,1/2-y,1/2+z
loop_
_atom_site_type_symbol
_atom_site_label
_atom_site_fract_x
_atom_site_fract_y
_atom_site_fract_z
Si Si1 0.119068 0.284857 0.430817
Si Si2 0.306020 0.106947 0.786387
Si Si3 0.866784 0.033955 0.509916
Si Si4 0.340335 0.504055 0.625189
Si Si5 0.173466 0.309088 0.821083
Si Si6 0.228763 0.864913 0.402785
Si Si7 0.671851 0.204954 0.161649
Si Si8 0.634603 0.211149 0.291440
O O1 0.170270 0.434769 0.493274
O O2 0.230126 0.274153 0.418327
O O3 0.891360 0.263926 0.293783
O O4 0.160780 0.140301 0.496281
O O5 0.487670 0.079409 0.831126
O O6 0.292914 0.257510 0.819108
O O7 0.091293 0.080180 0.642639
O O8 0.320193 0.969819 0.845069
O O9 0.736286 0.102299 0.502555
O O10 0.797572 0.101006 0.405586
O O11 0.288966 0.632835 0.647141
O O12 0.436615 0.368282 0.714573
O O13 0.171539 0.478596 0.840797
O O14 0.952180 0.250457 0.691099
O O15 0.382643 0.795969 0.430805
O O16 0.579023 0.220024 0.185791
#
# Coordination Sequence:
#
# PCOD9252327 Si02
#       8
#     4   4   4   4   4   4   4   4
#     4   9  19  36  57  84 116 146 186 237 283 337
#     4   9  20  37  58  83 113 152 189 230 285 339
#     4   9  19  38  62  83 108 150 195 230 278 341
#     4  11  24  38  55  81 117 152 186 238 290 335
#     4   9  17  32  57  86 116 148 185 233 285 335
#     4   9  17  33  59  87 113 144 189 241 279 326
#     4   9  20  37  58  85 114 148 191 236 280 334
#     4  11  24  39  58  83 113 154 193 234 286 336
#
# _framework density 25.454370999999998
#
# number of rings (size 3 to 8) (size 9 to 14) (size 15 to 20)
#    0.000    2.500    0.000    3.000    0.000   12.500 
#    0.000    1.250    0.000    8.250    0.000    0.000 
#    0.000    0.000    0.000    0.000    0.000    0.000 
#
# Total GULP energy -178698.911070 kJ/mol
# GULP energy per Si atom -5584.340971 kJ/mol
# Density = 2.539644 g / cm^3
# Si number density = 25.454371 Si / 1000 Ang^3
#
#
#
# Elastic Constant Matrix: (Units=GPa)
#
#
# Indices 1 2 3 4 5 6 
#
# 1 75.4739 13.9002 12.1581 0.0000 -17.6169 0.0000
# 2 13.9002 30.8223 19.8862 0.0000 -1.0797 0.0000
# 3 12.1581 19.8862 64.4128 0.0000 -5.8130 0.0000
# 4 0.0000 0.0000 0.0000 21.5374 0.0000 -12.8143
# 5 -17.6169 -1.0797 -5.8130 0.0000 20.0740 0.0000
# 6 0.0000 0.0000 0.0000 -12.8143 0.0000 34.9187
#
#
#
# Elastic Compliance Matrix: (Units=1/GPa)
#
#
# Indices 1 2 3 4 5 6 
#
# 1 0.018338 -0.007996 0.000432 0.000000 0.015788 0.000000
# 2 -0.007996 0.044043 -0.012843 0.000000 -0.008367 0.000000
# 3 0.000432 -0.012843 0.019900 0.000000 0.005451 0.000000
# 4 0.000000 0.000000 0.000000 0.059401 0.000000 0.021799
# 5 0.015788 -0.008367 0.005451 0.000000 0.064800 0.000000
# 6 0.000000 0.000000 0.000000 0.021799 0.000000 0.036637
#
#
# Mechanical properties :
#
#
# Convention : Reuss Voigt Hill
#
# Bulk Modulus (GPa) = 24.11529 29.17755 26.64642
# Shear Modulus (GPa) = 16.79226 23.62365 20.20796
#
# Velocity S-wave (km/s) = 2.57125 3.04974 2.82066
# Velocity P-wave (km/s) = 4.27897 4.88762 4.59339
#
# Compressibility (1/GPa) = 0.04146746
#
# Stress axis : x y z
#
# Youngs Moduli (GPa) = 54.53191 22.70495 50.25026
#
# Poissons Ratio (x) = 0.18154 -0.02171
# Poissons Ratio (y) = 0.43602 0.64538
# Poissons Ratio (z) = -0.02356 0.29161
#
# Static dielectric constant tensor:
#      x y z
#    x 2.162390 0.000000 0.056090 
#    y 0.000000 1.967250 0.000000 
#    z 0.056090 0.000000 2.050780 
# 
# From -- ./inp_files/73863.got.cif
#   From: 2010.05.17/outbox.cif.g08.bks.cpg/sg14_37_cif.got.tgz:73863.got - 2010.06.03 17:49:19.
