data_PCOD9252094
_publ_section_title
;
Structure prediction by ZEFSAII (Michael W. Deem and Ramdas Pophale) SiO2 
 PCOD9252094
Probable space group: P 21/C
;
_chemical_formula_sum "Si O2"
_cell_formula_units_Z 28
_cell_length_a 16.939209
_cell_length_b 6.748272
_cell_length_c 14.437974
_cell_angle_alpha 90.000000
_cell_angle_beta 63.192914
_cell_angle_gamma 90.000000
_cell_volume 1473.040908
_symmetry_space_group_name_H-M "P 21/C"
_symmetry_group_IT_number 14
_symmetry_cell_setting 'monoclinic'
loop_
_space_group_symop_operation_xyz
x,y,z
-x,1/2+y,1/2-z
-x,-y,-z
x,1/2-y,1/2+z
loop_
_atom_site_type_symbol
_atom_site_label
_atom_site_fract_x
_atom_site_fract_y
_atom_site_fract_z
Si Si1 0.108485 0.236252 0.110841
Si Si2 0.596364 0.211430 0.900677
Si Si3 0.821233 0.785277 0.131289
Si Si4 0.790831 0.461449 0.301920
Si Si5 0.625424 0.543678 0.736076
Si Si6 0.514568 0.366668 0.633750
Si Si7 0.089307 0.928982 0.770231
O O1 0.103253 0.440604 0.170564
O O2 0.011954 0.137076 0.167807
O O3 0.176630 0.094540 0.129444
O O4 0.137725 0.261101 0.989862
O O5 0.688228 0.093680 0.863163
O O6 0.615814 0.408318 0.832458
O O7 0.528767 0.070011 0.880750
O O8 0.555508 0.244657 0.023474
O O9 0.807964 0.590547 0.200876
O O10 0.725661 0.887539 0.170626
O O11 0.882393 0.933647 0.158521
O O12 0.848584 0.262815 0.266770
O O13 0.589062 0.417899 0.669066
O O14 0.561784 0.732767 0.781530
#
# Coordination Sequence:
#
# PCOD9252094 Si02
#       7
#     4   4   4   4   4   4   4
#     4  11  24  44  65  96 126 168 211 257 318 379
#     4  11  23  43  63  89 129 167 209 253 316 366
#     4  11  25  41  68  95 127 165 212 265 314 370
#     4  11  23  44  64  94 131 163 211 264 309 383
#     4  12  22  44  62  95 127 160 216 258 306 377
#     4  11  24  40  66  91 124 170 204 262 311 367
#     4  11  23  44  67  92 132 165 208 263 311 382
#
# _framework density 19.008298
#
# number of rings (size 3 to 8) (size 9 to 14) (size 15 to 20)
#    0.000    0.857    5.714    1.714    0.000    1.714 
#    5.143    0.000    0.000    0.000    0.000    0.000 
#    0.000    0.000    0.000    0.000    0.000    0.000 
#
# Total GULP energy -156601.372653 kJ/mol
# GULP energy per Si atom -5592.906166 kJ/mol
# Density = 1.896503 g / cm^3
# Si number density = 19.008298 Si / 1000 Ang^3
#
#
#
# Elastic Constant Matrix: (Units=GPa)
#
#
# Indices 1 2 3 4 5 6 
#
# 1 81.3291 19.7279 11.7610 0.0000 3.6536 0.0000
# 2 19.7279 40.2929 -4.8700 0.0000 -10.1359 0.0000
# 3 11.7610 -4.8700 63.2720 0.0000 5.0183 0.0000
# 4 0.0000 0.0000 0.0000 14.6884 0.0000 -2.5092
# 5 3.6536 -10.1359 5.0183 0.0000 16.1648 0.0000
# 6 0.0000 0.0000 0.0000 -2.5092 0.0000 37.8566
#
#
#
# Elastic Compliance Matrix: (Units=1/GPa)
#
#
# Indices 1 2 3 4 5 6 
#
# 1 0.015630 -0.010292 -0.002979 0.000000 -0.009062 0.000000
# 2 -0.010292 0.036285 0.002786 0.000000 0.024214 0.000000
# 3 -0.002979 0.002786 0.016794 0.000000 -0.002794 0.000000
# 4 0.000000 0.000000 0.000000 0.068861 0.000000 0.004564
# 5 -0.009062 0.024214 -0.002794 0.000000 0.079961 0.000000
# 6 0.000000 0.000000 0.000000 0.004564 0.000000 0.026718
#
#
# Mechanical properties :
#
#
# Convention : Reuss Voigt Hill
#
# Bulk Modulus (GPa) = 20.94731 26.45907 23.70319
# Shear Modulus (GPa) = 17.78512 24.29364 21.03938
#
# Velocity S-wave (km/s) = 3.06216 3.57887 3.33055
# Velocity P-wave (km/s) = 4.85247 5.57025 5.22370
#
# Compressibility (1/GPa) = 0.04773883
#
# Stress axis : x y z
#
# Youngs Moduli (GPa) = 63.97896 27.55936 59.54341
#
# Poissons Ratio (x) = 0.28365 0.17737
# Poissons Ratio (y) = 0.65849 -0.16586
# Poissons Ratio (z) = 0.19058 -0.07677
#
# Static dielectric constant tensor:
#      x y z
#    x 1.640900 0.000000 0.012610 
#    y 0.000000 1.639580 0.000000 
#    z 0.012610 0.000000 1.620080 
# 
# From -- ./inp_files/47956.got.cif
#   From: 2010.05.17/outbox.cif.g08.bks.cpg/sg14_24_cif.got.tgz:47956.got - 2010.06.03 17:49:19.
