data_PCOD9252027
_publ_section_title
;
Structure prediction by ZEFSAII (Michael W. Deem and Ramdas Pophale) SiO2 
 PCOD9252027
Probable space group: P 21/C
;
_chemical_formula_sum "Si O2"
_cell_formula_units_Z 24
_cell_length_a 12.918727
_cell_length_b 9.846082
_cell_length_c 14.293766
_cell_angle_alpha 90.000000
_cell_angle_beta 30.919450
_cell_angle_gamma 90.000000
_cell_volume 934.224845
_symmetry_space_group_name_H-M "P 21/C"
_symmetry_group_IT_number 14
_symmetry_cell_setting 'monoclinic'
loop_
_space_group_symop_operation_xyz
x,y,z
-x,1/2+y,1/2-z
-x,-y,-z
x,1/2-y,1/2+z
loop_
_atom_site_type_symbol
_atom_site_label
_atom_site_fract_x
_atom_site_fract_y
_atom_site_fract_z
Si Si1 0.602801 0.827795 0.456650
Si Si2 0.740616 0.960737 0.937998
Si Si3 0.984989 0.112593 0.590631
Si Si4 0.297909 0.730211 0.324463
Si Si5 0.560109 0.709654 0.287048
Si Si6 0.993926 0.969060 0.114130
O O1 0.671001 0.677717 0.442145
O O2 0.439056 0.875117 0.659434
O O3 0.549310 0.794763 0.390953
O O4 0.776261 0.939037 0.321165
O O5 0.897395 0.044273 0.751222
O O6 0.872287 0.931500 0.928152
O O7 0.557474 0.065683 0.102236
O O8 0.806006 0.201396 0.684440
O O9 0.208582 0.175632 0.418820
O O10 0.000000 0.000000 0.500000
O O11 0.445171 0.785544 0.291009
O O12 0.112578 0.673506 0.527065
O O13 0.000000 0.000000 0.000000
#
# Coordination Sequence:
#
# PCOD9252027 Si02
#       6
#     4   4   4   4   4   4
#     4  12  23  45  71 100 141 187 229 293 353 417
#     4  11  24  43  72 102 138 184 243 287 344 426
#     4  12  21  42  69 103 137 180 239 288 346 419
#     4  11  25  42  68 103 139 183 232 288 355 413
#     4  11  23  41  69 103 140 183 235 295 350 411
#     4  11  27  47  67 106 143 182 230 290 358 423
#
# _framework density 25.689746
#
# number of rings (size 3 to 8) (size 9 to 14) (size 15 to 20)
#    0.000    0.667    5.000    2.500    2.333    2.000 
#    3.000    0.000    0.000    0.000    0.000    0.000 
#    0.000    0.000    0.000    0.000    0.000    0.000 
#
# Total GULP energy -134238.729136 kJ/mol
# GULP energy per Si atom -5593.280381 kJ/mol
# Density = 2.563128 g / cm^3
# Si number density = 25.689746 Si / 1000 Ang^3
#
#
#
# Elastic Constant Matrix: (Units=GPa)
#
#
# Indices 1 2 3 4 5 6 
#
# 1 166.4203 19.1311 39.6616 0.0000 -12.2528 0.0000
# 2 19.1311 56.1939 10.0154 0.0000 1.4249 0.0000
# 3 39.6616 10.0154 121.7292 0.0000 11.0811 0.0000
# 4 0.0000 0.0000 0.0000 31.7181 0.0000 9.8224
# 5 -12.2528 1.4249 11.0811 0.0000 38.1936 0.0000
# 6 0.0000 0.0000 0.0000 9.8224 0.0000 33.3252
#
#
#
# Elastic Compliance Matrix: (Units=1/GPa)
#
#
# Indices 1 2 3 4 5 6 
#
# 1 0.007039 -0.002045 -0.002401 0.000000 0.003031 0.000000
# 2 -0.002045 0.018657 -0.000766 0.000000 -0.001130 0.000000
# 3 -0.002401 -0.000766 0.009375 0.000000 -0.003462 0.000000
# 4 0.000000 0.000000 0.000000 0.034695 0.000000 -0.010226
# 5 0.003031 -0.001130 -0.003462 0.000000 0.028201 0.000000
# 6 0.000000 0.000000 0.000000 -0.010226 0.000000 0.033021
#
#
# Mechanical properties :
#
#
# Convention : Reuss Voigt Hill
#
# Bulk Modulus (GPa) = 40.57263 53.55105 47.06184
# Shear Modulus (GPa) = 33.41580 39.01640 36.21610
#
# Velocity S-wave (km/s) = 3.61050 3.90135 3.75874
# Velocity P-wave (km/s) = 5.76268 6.41752 6.09890
#
# Compressibility (1/GPa) = 0.02464715
#
# Stress axis : x y z
#
# Youngs Moduli (GPa) = 142.05615 53.59910 106.66146
#
# Poissons Ratio (x) = 0.10964 0.25612
# Poissons Ratio (y) = 0.29057 0.08167
# Poissons Ratio (z) = 0.34111 0.04104
#
# Static dielectric constant tensor:
#      x y z
#    x 1.961740 0.000000 -0.020880 
#    y 0.000000 1.975100 0.000000 
#    z -0.020880 0.000000 1.995900 
# 
# From -- ./inp_files/45012.got.cif
#   From: 2010.05.17/outbox.cif.g08.bks.cpg/sg14_23_cif.got.tgz:45012.got - 2010.06.03 17:49:19.
