data_PCOD9252598
_publ_section_title
;
Structure prediction by ZEFSAII (Michael W. Deem and Ramdas Pophale) SiO2 
 PCOD9252598
Probable space group: P 21/C
;
_chemical_formula_sum "Si O2"
_cell_formula_units_Z 16
_cell_length_a 10.129023
_cell_length_b 12.357124
_cell_length_c 11.340956
_cell_angle_alpha 90.000000
_cell_angle_beta 24.939683
_cell_angle_gamma 90.000000
_cell_volume 598.550888
_symmetry_space_group_name_H-M "P 21/C"
_symmetry_group_IT_number 14
_symmetry_cell_setting 'monoclinic'
loop_
_space_group_symop_operation_xyz
x,y,z
-x,1/2+y,1/2-z
-x,-y,-z
x,1/2-y,1/2+z
loop_
_atom_site_type_symbol
_atom_site_label
_atom_site_fract_x
_atom_site_fract_y
_atom_site_fract_z
Si Si1 0.171661 0.014560 0.203368
Si Si2 0.801164 0.324158 0.891625
Si Si3 0.301165 0.175842 0.391625
Si Si4 0.328339 0.985440 0.796633
O O1 0.923641 0.925920 0.449928
O O2 0.250000 1.000000 0.000000
O O3 0.996066 0.131050 0.347794
O O4 0.500000 0.000000 0.000000
O O5 0.574769 0.222004 0.089517
O O6 0.576359 0.425920 0.050072
O O7 0.074769 0.277996 0.589517
O O8 0.496066 0.131050 0.347795
O O9 0.000000 0.000000 0.000000
#
# Coordination Sequence:
#
# PCOD9252598 Si02
#       4
#     4   4   4   4
#     4  11  26  48  71 105 143 184 234 292 347 417
#     4  11  24  47  72 106 140 187 234 289 350 418
#     4  11  24  47  72 106 140 187 234 289 350 418
#     4  11  26  48  71 105 143 184 234 292 347 417
#
# _framework density 26.731227000000001
#
# number of rings (size 3 to 8) (size 9 to 14) (size 15 to 20)
#    0.000    1.000    5.000    0.000    0.000   12.000 
#    0.000    0.000    0.000    0.000    0.000    0.000 
#    0.000    0.000    0.000    0.000    0.000    0.000 
#
# Total GULP energy -89476.930180 kJ/mol
# GULP energy per Si atom -5592.308136 kJ/mol
# Density = 2.667039 g / cm^3
# Si number density = 26.731227 Si / 1000 Ang^3
#
#
#
# Elastic Constant Matrix: (Units=GPa)
#
#
# Indices 1 2 3 4 5 6 
#
# 1 128.3116 3.1282 56.8913 0.0000 -34.3129 0.0000
# 2 3.1282 107.8811 34.7522 0.0000 -9.5009 0.0000
# 3 56.8913 34.7522 203.9629 0.0000 -37.8020 0.0000
# 4 0.0000 0.0000 0.0000 72.6263 0.0000 -8.2693
# 5 -34.3129 -9.5009 -37.8020 0.0000 63.4660 0.0000
# 6 0.0000 0.0000 0.0000 -8.2693 0.0000 23.6259
#
#
#
# Elastic Compliance Matrix: (Units=1/GPa)
#
#
# Indices 1 2 3 4 5 6 
#
# 1 0.009820 0.000758 -0.002094 0.000000 0.004175 0.000000
# 2 0.000758 0.009882 -0.001737 0.000000 0.000855 0.000000
# 3 -0.002094 -0.001737 0.006210 0.000000 0.002307 0.000000
# 4 0.000000 0.000000 0.000000 0.014341 0.000000 0.005019
# 5 0.004175 0.000855 0.002307 0.000000 0.019516 0.000000
# 6 0.000000 0.000000 0.000000 0.005019 0.000000 0.044083
#
#
# Mechanical properties :
#
#
# Convention : Reuss Voigt Hill
#
# Bulk Modulus (GPa) = 50.59214 69.96655 60.27935
# Shear Modulus (GPa) = 42.88598 54.96921 48.92759
#
# Velocity S-wave (km/s) = 4.00977 4.53964 4.28290
# Velocity P-wave (km/s) = 6.35649 7.32862 6.85980
#
# Compressibility (1/GPa) = 0.01976592
#
# Stress axis : x y z
#
# Youngs Moduli (GPa) = 101.83070 101.19188 161.01771
#
# Poissons Ratio (x) = -0.07667 0.33724
# Poissons Ratio (y) = -0.07715 0.27964
# Poissons Ratio (z) = 0.21328 0.17574
#
# Static dielectric constant tensor:
#      x y z
#    x 2.240760 0.000000 0.029490 
#    y 0.000000 2.173380 0.000000 
#    z 0.029490 0.000000 2.019150 
# 
# From -- ./inp_files/320.got.cif
#   From: 2010.05.17/outbox.cif.g08.bks.cpg/sg14_1_cif.got.tgz:320.got - 2010.06.03 17:49:19.
