data_PCOD9252964
_publ_section_title
;
Structure prediction by ZEFSAII (Michael W. Deem and Ramdas Pophale) SiO2 
 PCOD9252964
Probable space group: P 21/C
;
_chemical_formula_sum "Si O2"
_cell_formula_units_Z 20
_cell_length_a 12.179206
_cell_length_b 6.870687
_cell_length_c 9.127712
_cell_angle_alpha 90.000000
_cell_angle_beta 63.803510
_cell_angle_gamma 90.000000
_cell_volume 685.348833
_symmetry_space_group_name_H-M "P 21/C"
_symmetry_group_IT_number 14
_symmetry_cell_setting 'monoclinic'
loop_
_space_group_symop_operation_xyz
x,y,z
-x,1/2+y,1/2-z
-x,-y,-z
x,1/2-y,1/2+z
loop_
_atom_site_type_symbol
_atom_site_label
_atom_site_fract_x
_atom_site_fract_y
_atom_site_fract_z
Si Si1 0.089449 0.713436 0.009573
Si Si2 0.578680 0.644488 0.620176
Si Si3 0.914930 0.632229 0.361087
Si Si4 0.703227 0.909383 0.354633
Si Si5 0.683992 0.355535 0.309305
O O1 0.281738 0.639477 0.155932
O O2 0.020358 0.601469 0.178640
O O3 0.131127 0.920261 0.057151
O O4 0.984191 0.776269 0.958051
O O5 0.595030 0.844553 0.523647
O O6 0.659494 0.646805 0.717654
O O7 0.630923 0.483042 0.475510
O O8 0.433897 0.637052 0.727292
O O9 0.814934 0.774959 0.346757
O O10 0.803136 0.099979 0.639049
#
# Coordination Sequence:
#
# PCOD9252964 Si02
#       5
#     4   4   4   4   4
#     4  11  26  52  85 122 179 224 289 360 434 531
#     4  11  29  51  87 127 167 230 295 358 445 513
#     4  11  26  52  84 131 170 232 285 359 445 518
#     4  12  26  53  86 123 176 225 289 365 429 536
#     4  11  28  53  82 126 173 232 285 361 441 518
#
# _framework density 29.182219
#
# number of rings (size 3 to 8) (size 9 to 14) (size 15 to 20)
#    0.000    0.800    0.000    5.400   11.200    2.400 
#    7.200    0.000    0.000    0.000    0.000    0.000 
#    0.000    0.000    0.000    0.000    0.000    0.000 
#
# Total GULP energy -112401.828145 kJ/mol
# GULP energy per Si atom -5620.091407 kJ/mol
# Density = 2.911580 g / cm^3
# Si number density = 29.182219 Si / 1000 Ang^3
#
#
#
# Elastic Constant Matrix: (Units=GPa)
#
#
# Indices 1 2 3 4 5 6 
#
# 1 213.8443 70.2496 66.9805 0.0000 14.9509 0.0000
# 2 70.2496 162.7763 61.3009 0.0000 12.1679 0.0000
# 3 66.9805 61.3009 173.6952 0.0000 11.8780 0.0000
# 4 0.0000 0.0000 0.0000 53.5163 0.0000 -7.3709
# 5 14.9509 12.1679 11.8780 0.0000 55.0794 0.0000
# 6 0.0000 0.0000 0.0000 -7.3709 0.0000 51.1930
#
#
#
# Elastic Compliance Matrix: (Units=1/GPa)
#
#
# Indices 1 2 3 4 5 6 
#
# 1 0.005831 -0.001878 -0.001528 0.000000 -0.000838 0.000000
# 2 -0.001878 0.007749 -0.001957 0.000000 -0.000780 0.000000
# 3 -0.001528 -0.001957 0.007084 0.000000 -0.000680 0.000000
# 4 0.000000 0.000000 0.000000 0.019064 0.000000 0.002745
# 5 -0.000838 -0.000780 -0.000680 0.000000 0.018702 0.000000
# 6 0.000000 0.000000 0.000000 0.002745 0.000000 0.019929
#
#
# Mechanical properties :
#
#
# Convention : Reuss Voigt Hill
#
# Bulk Modulus (GPa) = 100.64017 105.26421 102.95219
# Shear Modulus (GPa) = 54.11337 55.41005 54.76171
#
# Velocity S-wave (km/s) = 4.31086 4.36220 4.33661
# Velocity P-wave (km/s) = 7.70323 7.84356 7.77371
#
# Compressibility (1/GPa) = 0.00993639
#
# Stress axis : x y z
#
# Youngs Moduli (GPa) = 171.51025 129.04251 141.16612
#
# Poissons Ratio (x) = 0.24236 0.21574
# Poissons Ratio (y) = 0.32212 0.27631
# Poissons Ratio (z) = 0.26211 0.25258
#
# Static dielectric constant tensor:
#      x y z
#    x 2.331990 0.000000 0.035270 
#    y 0.000000 2.292830 0.000000 
#    z 0.035270 0.000000 2.212330 
# 
# From -- ./inp_files/11851.got.cif
#   From: 2010.05.17/outbox.cif.g08.bks.cpg/sg14_6_cif.got.tgz:11851.got - 2010.06.03 17:49:19.
