data_PCOD9252310
_publ_section_title
;
Structure prediction by ZEFSAII (Michael W. Deem and Ramdas Pophale) SiO2 
 PCOD9252310
Probable space group: P 21/C
;
_chemical_formula_sum "Si O2"
_cell_formula_units_Z 16
_cell_length_a 6.669743
_cell_length_b 6.845363
_cell_length_c 18.479139
_cell_angle_alpha 90.000000
_cell_angle_beta 47.071759
_cell_angle_gamma 90.000000
_cell_volume 617.762241
_symmetry_space_group_name_H-M "P 21/C"
_symmetry_group_IT_number 14
_symmetry_cell_setting 'monoclinic'
loop_
_space_group_symop_operation_xyz
x,y,z
-x,1/2+y,1/2-z
-x,-y,-z
x,1/2-y,1/2+z
loop_
_atom_site_type_symbol
_atom_site_label
_atom_site_fract_x
_atom_site_fract_y
_atom_site_fract_z
Si Si1 0.236497 0.033603 0.882120
Si Si2 0.888195 0.116631 0.457675
Si Si3 0.691158 0.644443 0.873604
Si Si4 0.735617 0.289995 0.763409
O O1 0.540402 0.106806 0.827563
O O2 0.114037 0.231066 0.874812
O O3 0.254722 0.853599 0.822833
O O4 0.000000 0.000000 0.000000
O O5 0.604705 0.237109 0.540487
O O6 0.800533 0.959598 0.419573
O O7 0.000000 0.000000 0.500000
O O8 0.622438 0.475057 0.833985
O O9 0.953653 0.765608 0.786012
#
# Coordination Sequence:
#
# PCOD9252310 Si02
#       4
#     4   4   4   4
#     4  12  28  46  80 108 154 203 249 310 385 447
#     4  11  23  48  74 107 149 197 246 316 381 443
#     4  11  26  44  76 106 150 193 255 311 372 453
#     4  12  27  47  74 114 152 202 254 311 379 453
#
# _framework density 25.899933999999998
#
# number of rings (size 3 to 8) (size 9 to 14) (size 15 to 20)
#    0.000    0.500    2.500    4.500   10.500    1.000 
#    0.000    0.000    0.000    0.000    0.000    0.000 
#    0.000    0.000    0.000    0.000    0.000    0.000 
#
# Total GULP energy -89580.416404 kJ/mol
# GULP energy per Si atom -5598.776025 kJ/mol
# Density = 2.584098 g / cm^3
# Si number density = 25.899934 Si / 1000 Ang^3
#
#
#
# Elastic Constant Matrix: (Units=GPa)
#
#
# Indices 1 2 3 4 5 6 
#
# 1 94.8852 21.1533 52.7776 0.0000 -26.7459 0.0000
# 2 21.1533 55.8441 27.4231 0.0000 -17.6241 0.0000
# 3 52.7776 27.4231 121.9185 0.0000 -15.8352 0.0000
# 4 0.0000 0.0000 0.0000 55.0218 0.0000 -15.8968
# 5 -26.7459 -17.6241 -15.8352 0.0000 71.4432 0.0000
# 6 0.0000 0.0000 0.0000 -15.8968 0.0000 60.0670
#
#
#
# Elastic Compliance Matrix: (Units=1/GPa)
#
#
# Indices 1 2 3 4 5 6 
#
# 1 0.015210 -0.001706 -0.005679 0.000000 0.004015 0.000000
# 2 -0.001706 0.021547 -0.003605 0.000000 0.003878 0.000000
# 3 -0.005679 -0.003605 0.011408 0.000000 -0.000487 0.000000
# 4 0.000000 0.000000 0.000000 0.019679 0.000000 0.005208
# 5 0.004015 0.003878 -0.000487 0.000000 0.016349 0.000000
# 6 0.000000 0.000000 0.000000 0.005208 0.000000 0.018026
#
#
# Mechanical properties :
#
#
# Convention : Reuss Voigt Hill
#
# Bulk Modulus (GPa) = 38.18765 52.81730 45.50248
# Shear Modulus (GPa) = 37.61467 48.72598 43.17033
#
# Velocity S-wave (km/s) = 3.81505 4.34212 4.08709
# Velocity P-wave (km/s) = 5.84658 6.75098 6.31499
#
# Compressibility (1/GPa) = 0.02618647
#
# Stress axis : x y z
#
# Youngs Moduli (GPa) = 65.74730 46.41021 87.65609
#
# Poissons Ratio (x) = 0.07915 0.49781
# Poissons Ratio (y) = 0.11213 0.31596
# Poissons Ratio (z) = 0.37339 0.16729
#
# Static dielectric constant tensor:
#      x y z
#    x 2.008830 0.000000 -0.017060 
#    y 0.000000 2.045100 0.000000 
#    z -0.017060 0.000000 2.197420 
# 
# From -- ./inp_files/52602.got.cif
#   From: 2010.05.17/outbox.cif.g08.bks.cpg/sg14_27_cif.got.tgz:52602.got - 2010.06.03 17:49:19.
