data_PCOD9252296
_publ_section_title
;
Structure prediction by ZEFSAII (Michael W. Deem and Ramdas Pophale) SiO2 
 PCOD9252296
Probable space group: P 21/C
;
_chemical_formula_sum "Si O2"
_cell_formula_units_Z 24
_cell_length_a 11.370568
_cell_length_b 8.764516
_cell_length_c 10.090529
_cell_angle_alpha 90.000000
_cell_angle_beta 90.018991
_cell_angle_gamma 90.000000
_cell_volume 1005.597093
_symmetry_space_group_name_H-M "P 21/C"
_symmetry_group_IT_number 14
_symmetry_cell_setting 'monoclinic'
loop_
_space_group_symop_operation_xyz
x,y,z
-x,1/2+y,1/2-z
-x,-y,-z
x,1/2-y,1/2+z
loop_
_atom_site_type_symbol
_atom_site_label
_atom_site_fract_x
_atom_site_fract_y
_atom_site_fract_z
Si Si1 0.149055 0.218733 0.719065
Si Si2 0.404786 0.281470 0.352446
Si Si3 0.600052 0.441518 0.179598
Si Si4 0.196852 0.746324 0.415161
Si Si5 0.069005 0.876653 0.661769
Si Si6 0.724129 0.555150 0.442449
O O1 0.274031 0.201716 0.791809
O O2 0.182164 0.311823 0.586440
O O3 0.062301 0.324197 0.804381
O O4 0.093903 0.054070 0.690397
O O5 0.493840 0.351336 0.246748
O O6 0.391006 0.375457 0.487213
O O7 0.434554 0.105189 0.380366
O O8 0.684033 0.488182 0.302445
O O9 0.680473 0.337428 0.087114
O O10 0.108990 0.832316 0.514477
O O11 0.146441 0.719814 0.268383
O O12 0.220298 0.579204 0.473201
#
# Coordination Sequence:
#
# PCOD9252296 Si02
#       6
#     4   4   4   4   4   4
#     4  11  27  45  73 109 142 197 238 301 364 432
#     4  11  24  45  73 107 149 189 242 300 365 429
#     4  11  25  45  73 110 145 193 243 302 361 438
#     4  12  25  47  77 107 145 196 241 300 370 428
#     4  12  27  47  75 105 151 189 248 299 362 434
#     4  11  23  47  72 109 146 189 246 295 366 435
#
# _framework density 23.866416999999998
#
# number of rings (size 3 to 8) (size 9 to 14) (size 15 to 20)
#    0.000    0.667    3.333    3.500    4.667    3.333 
#    0.000    5.000    0.000    0.000    0.000    0.000 
#    0.000    0.000    0.000    0.000    0.000    0.000 
#
# Total GULP energy -134527.214248 kJ/mol
# GULP energy per Si atom -5605.300594 kJ/mol
# Density = 2.381210 g / cm^3
# Si number density = 23.866417 Si / 1000 Ang^3
#
#
#
# Elastic Constant Matrix: (Units=GPa)
#
#
# Indices 1 2 3 4 5 6 
#
# 1 97.7375 58.9825 26.1054 0.0000 -36.3783 0.0000
# 2 58.9825 146.6400 44.8311 0.0000 -24.2116 0.0000
# 3 26.1054 44.8311 90.0278 0.0000 -32.6671 0.0000
# 4 0.0000 0.0000 0.0000 53.8743 0.0000 -11.1214
# 5 -36.3783 -24.2116 -32.6671 0.0000 52.3599 0.0000
# 6 0.0000 0.0000 0.0000 -11.1214 0.0000 36.7127
#
#
#
# Elastic Compliance Matrix: (Units=1/GPa)
#
#
# Indices 1 2 3 4 5 6 
#
# 1 0.017007 -0.005640 0.001575 0.000000 0.010191 0.000000
# 2 -0.005640 0.010016 -0.003999 0.000000 -0.001782 0.000000
# 3 0.001575 -0.003999 0.015988 0.000000 0.009219 0.000000
# 4 0.000000 0.000000 0.000000 0.019800 0.000000 0.005998
# 5 0.010191 -0.001782 0.009219 0.000000 0.031107 0.000000
# 6 0.000000 0.000000 0.000000 0.005998 0.000000 0.029055
#
#
# Mechanical properties :
#
#
# Convention : Reuss Voigt Hill
#
# Bulk Modulus (GPa) = 37.19766 66.02703 51.61234
# Shear Modulus (GPa) = 33.76942 42.22181 37.99561
#
# Velocity S-wave (km/s) = 3.76564 4.21062 3.99433
# Velocity P-wave (km/s) = 5.87591 7.16689 6.55327
#
# Compressibility (1/GPa) = 0.02688341
#
# Stress axis : x y z
#
# Youngs Moduli (GPa) = 58.79803 99.83813 62.54772
#
# Poissons Ratio (x) = 0.56304 -0.09848
# Poissons Ratio (y) = 0.33160 0.25012
# Poissons Ratio (z) = -0.09258 0.39924
#
# Static dielectric constant tensor:
#      x y z
#    x 1.896140 0.000000 0.053030 
#    y 0.000000 1.892650 0.000000 
#    z 0.053030 0.000000 1.933130 
# 
# From -- ./inp_files/28050.got.cif
#   From: 2010.05.17/outbox.cif.g08.bks.cpg/sg14_15_cif.got.tgz:28050.got - 2010.06.03 17:49:19.
