data_PCOD9252850
_publ_section_title
;
Structure prediction by ZEFSAII (Michael W. Deem and Ramdas Pophale) SiO2 
 PCOD9252850
Probable space group: P 21/C
;
_chemical_formula_sum "Si O2"
_cell_formula_units_Z 22
_cell_length_a 7.748015
_cell_length_b 5.604824
_cell_length_c 18.585348
_cell_angle_alpha 90.000000
_cell_angle_beta 108.995549
_cell_angle_gamma 90.000000
_cell_volume 763.141042
_symmetry_space_group_name_H-M "P 21/C"
_symmetry_group_IT_number 14
_symmetry_cell_setting 'monoclinic'
loop_
_space_group_symop_operation_xyz
x,y,z
-x,1/2+y,1/2-z
-x,-y,-z
x,1/2-y,1/2+z
loop_
_atom_site_type_symbol
_atom_site_label
_atom_site_fract_x
_atom_site_fract_y
_atom_site_fract_z
Si Si1 0.975438 0.073713 0.360446
Si Si2 0.292167 0.363633 0.554748
Si Si3 0.198839 0.376878 0.306280
Si Si4 0.664168 0.247343 0.062995
Si Si5 0.607273 0.927167 0.767641
Si Si6 0.000000 0.500000 0.000000
O O1 0.154084 0.919061 0.413815
O O2 0.879712 0.962717 0.279321
O O3 0.855941 0.061803 0.414075
O O4 0.038701 0.323982 0.339794
O O5 0.327794 0.593423 0.508679
O O6 0.454206 0.180541 0.548950
O O7 0.300764 0.412776 0.641205
O O8 0.098724 0.259066 0.505172
O O9 0.313963 0.567480 0.365159
O O10 0.284313 0.124798 0.292600
O O11 0.479433 0.689382 0.748792
#
# Coordination Sequence:
#
# PCOD9252850 Si02
#       6
#     4   4   4   4   4   2
#     4  12  26  46  76 106 153 206 264 339 407 494
#     4  11  25  49  73 112 154 203 266 334 408 490
#     4  12  24  46  75 110 151 206 270 330 414 486
#     4  11  25  49  74 109 151 208 265 330 416 497
#     4  12  27  49  78 116 156 208 274 337 410 493
#     4  12  26  46  70 116 152 196 264 326 404 478
#
# _framework density 28.828226000000001
#
# number of rings (size 3 to 8) (size 9 to 14) (size 15 to 20)
#    0.000    0.364    7.273    1.091    0.000    2.909 
#    6.545    0.000    0.000    0.000    0.000    0.000 
#    0.000    0.000    0.000    0.000    0.000    0.000 
#
# Total GULP energy -122800.822720 kJ/mol
# GULP energy per Si atom -5581.855578 kJ/mol
# Density = 2.876261 g / cm^3
# Si number density = 28.828226 Si / 1000 Ang^3
#
#
#
# Elastic Constant Matrix: (Units=GPa)
#
#
# Indices 1 2 3 4 5 6 
#
# 1 96.2572 47.6140 -5.4695 0.0000 -6.8493 0.0000
# 2 47.6140 99.2820 51.1705 0.0000 -1.2760 0.0000
# 3 -5.4695 51.1705 200.2466 0.0000 -12.7725 0.0000
# 4 0.0000 0.0000 0.0000 48.7170 0.0000 5.9150
# 5 -6.8493 -1.2760 -12.7725 0.0000 43.5135 0.0000
# 6 0.0000 0.0000 0.0000 5.9150 0.0000 73.5653
#
#
#
# Elastic Compliance Matrix: (Units=1/GPa)
#
#
# Indices 1 2 3 4 5 6 
#
# 1 0.015011 -0.008602 0.002795 0.000000 0.002931 0.000000
# 2 -0.008602 0.016542 -0.004604 0.000000 -0.002220 0.000000
# 3 0.002795 -0.004604 0.006386 0.000000 0.002179 0.000000
# 4 0.000000 0.000000 0.000000 0.020729 0.000000 -0.001667
# 5 0.002931 -0.002220 0.002179 0.000000 0.024017 0.000000
# 6 0.000000 0.000000 0.000000 -0.001667 0.000000 0.013727
#
#
# Mechanical properties :
#
#
# Convention : Reuss Voigt Hill
#
# Bulk Modulus (GPa) = 58.41954 64.71287 61.56621
# Shear Modulus (GPa) = 40.67031 53.32390 46.99711
#
# Velocity S-wave (km/s) = 3.76011 4.30549 4.04201
# Velocity P-wave (km/s) = 6.25779 6.87116 6.57164
#
# Compressibility (1/GPa) = 0.01711756
#
# Stress axis : x y z
#
# Youngs Moduli (GPa) = 66.61652 60.45228 156.60224
#
# Poissons Ratio (x) = 0.52002 -0.43772
# Poissons Ratio (y) = 0.57304 0.72094
# Poissons Ratio (z) = -0.18620 0.27830
#
# Static dielectric constant tensor:
#      x y z
#    x 1.754610 0.000000 0.519120 
#    y 0.000000 2.340550 0.000000 
#    z 0.519120 0.000000 1.851950 
# 
# From -- ./inp_files/64119.got.cif
#   From: 2010.05.17/outbox.cif.g08.bks.cpg/sg14_33_cif.got.tgz:64119.got - 2010.06.03 17:49:19.
