data_PCOD9252582
_publ_section_title
;
Structure prediction by ZEFSAII (Michael W. Deem and Ramdas Pophale) SiO2 
 PCOD9252582
Probable space group: P 21/C
;
_chemical_formula_sum "Si O2"
_cell_formula_units_Z 26
_cell_length_a 17.886041
_cell_length_b 10.497470
_cell_length_c 12.252835
_cell_angle_alpha 90.000000
_cell_angle_beta 29.192771
_cell_angle_gamma 90.000000
_cell_volume 1122.101903
_symmetry_space_group_name_H-M "P 21/C"
_symmetry_group_IT_number 14
_symmetry_cell_setting 'monoclinic'
loop_
_space_group_symop_operation_xyz
x,y,z
-x,1/2+y,1/2-z
-x,-y,-z
x,1/2-y,1/2+z
loop_
_atom_site_type_symbol
_atom_site_label
_atom_site_fract_x
_atom_site_fract_y
_atom_site_fract_z
Si Si1 0.933726 0.401167 0.496120
Si Si2 0.726305 0.178027 0.849917
Si Si3 0.644584 0.540296 0.884774
Si Si4 0.435032 0.321557 0.558405
Si Si5 0.350727 0.616907 0.895933
Si Si6 0.143359 0.443629 0.041368
Si Si7 0.000000 0.000000 0.500000
O O1 0.864429 0.273883 0.636550
O O2 0.790220 0.482382 0.635783
O O3 0.000000 0.500000 0.500000
O O4 0.060444 0.370792 0.245491
O O5 0.814743 0.045612 0.740271
O O6 0.586024 0.192121 0.943188
O O7 0.664654 0.239350 0.040428
O O8 0.636737 0.691557 0.897144
O O9 0.500000 0.500000 0.000000
O O10 0.642032 0.474289 0.007223
O O11 0.503053 0.396805 0.368175
O O12 0.300380 0.380595 0.801507
O O13 0.199685 0.577799 0.020742
O O14 0.026356 0.456360 0.092180
#
# Coordination Sequence:
#
# PCOD9252582 Si02
#       7
#     4   4   4   4   4   4   2
#     4  11  24  49  77 107 155 197 260 318 392 454
#     4  11  26  50  74 113 152 205 257 328 386 465
#     4  11  24  46  76 115 147 210 259 318 390 467
#     4  12  27  48  77 113 153 205 267 319 397 465
#     4  11  25  47  75 106 163 199 258 331 382 469
#     4  12  28  48  73 109 154 201 253 321 390 468
#     4  12  30  44  72 112 152 200 254 314 398 454
#
# _framework density 23.1708
#
# number of rings (size 3 to 8) (size 9 to 14) (size 15 to 20)
#    0.000    0.615    7.692    0.462    6.462    2.462 
#    0.000    0.000    0.000    0.000    0.000    0.000 
#    0.000    0.000    0.000    0.000    0.000    0.000 
#
# Total GULP energy -144865.290467 kJ/mol
# GULP energy per Si atom -5571.741941 kJ/mol
# Density = 2.311806 g / cm^3
# Si number density = 23.170800 Si / 1000 Ang^3
#
#
#
# Elastic Constant Matrix: (Units=GPa)
#
#
# Indices 1 2 3 4 5 6 
#
# 1 75.8157 -0.8550 34.6463 0.0000 -4.2937 0.0000
# 2 -0.8550 29.8020 15.0640 0.0000 4.9317 0.0000
# 3 34.6463 15.0640 169.1593 0.0000 12.8961 0.0000
# 4 0.0000 0.0000 0.0000 43.4450 0.0000 -5.3292
# 5 -4.2937 4.9317 12.8961 0.0000 36.4810 0.0000
# 6 0.0000 0.0000 0.0000 -5.3292 0.0000 28.8972
#
#
#
# Elastic Compliance Matrix: (Units=1/GPa)
#
#
# Indices 1 2 3 4 5 6 
#
# 1 0.014925 0.001703 -0.003417 0.000000 0.002734 0.000000
# 2 0.001703 0.035836 -0.003274 0.000000 -0.003487 0.000000
# 3 -0.003417 -0.003274 0.007091 0.000000 -0.002466 0.000000
# 4 0.000000 0.000000 0.000000 0.023550 0.000000 0.004343
# 5 0.002734 -0.003487 -0.002466 0.000000 0.029077 0.000000
# 6 0.000000 0.000000 0.000000 0.004343 0.000000 0.035406
#
#
# Mechanical properties :
#
#
# Convention : Reuss Voigt Hill
#
# Bulk Modulus (GPa) = 20.88751 41.38752 31.13752
# Shear Modulus (GPa) = 29.10010 36.82608 32.96309
#
# Velocity S-wave (km/s) = 3.54771 3.99097 3.77585
# Velocity P-wave (km/s) = 5.08092 6.25602 5.69884
#
# Compressibility (1/GPa) = 0.04787549
#
# Stress axis : x y z
#
# Youngs Moduli (GPa) = 66.99953 27.90513 141.02279
#
# Poissons Ratio (x) = -0.04752 0.48188
# Poissons Ratio (y) = -0.11410 0.46174
# Poissons Ratio (z) = 0.22894 0.09137
#
# Static dielectric constant tensor:
#      x y z
#    x 1.832610 0.000000 0.050250 
#    y 0.000000 2.022050 0.000000 
#    z 0.050250 0.000000 1.851780 
# 
# From -- ./inp_files/33880.got.cif
#   From: 2010.05.17/outbox.cif.g08.bks.cpg/sg14_17_cif.got.tgz:33880.got - 2010.06.03 17:49:19.
