data_PCOD9252895
_publ_section_title
;
Structure prediction by ZEFSAII (Michael W. Deem and Ramdas Pophale) SiO2 
 PCOD9252895
Probable space group: P 21/C
;
_chemical_formula_sum "Si O2"
_cell_formula_units_Z 30
_cell_length_a 4.858953
_cell_length_b 17.645203
_cell_length_c 14.919590
_cell_angle_alpha 90.000000
_cell_angle_beta 60.951703
_cell_angle_gamma 90.000000
_cell_volume 1118.258940
_symmetry_space_group_name_H-M "P 21/C"
_symmetry_group_IT_number 14
_symmetry_cell_setting 'monoclinic'
loop_
_space_group_symop_operation_xyz
x,y,z
-x,1/2+y,1/2-z
-x,-y,-z
x,1/2-y,1/2+z
loop_
_atom_site_type_symbol
_atom_site_label
_atom_site_fract_x
_atom_site_fract_y
_atom_site_fract_z
Si Si1 0.446523 0.578213 0.345352
Si Si2 0.221210 0.784536 0.607727
Si Si3 0.500000 0.500000 0.000000
Si Si4 0.291203 0.386385 0.887914
Si Si5 0.058516 0.330301 0.490819
Si Si6 0.325852 0.590030 0.680853
Si Si7 0.620846 0.887967 0.317494
Si Si8 0.804314 0.770001 0.844395
O O1 0.485152 0.587812 0.230977
O O2 0.583668 0.497298 0.349818
O O3 0.639241 0.650457 0.350310
O O4 0.115419 0.593732 0.445833
O O5 0.045163 0.861527 0.599252
O O6 0.135403 0.718026 0.552119
O O7 0.058887 0.762366 0.726529
O O8 0.557336 0.812856 0.588748
O O9 0.282431 0.447917 0.965609
O O10 0.605778 0.551100 0.897211
O O11 0.407393 0.355896 0.404812
O O12 0.058365 0.279263 0.579829
O O13 0.361032 0.603734 0.781958
O O14 0.960757 0.601223 0.714996
O O15 0.599710 0.805094 0.364925
#
# Coordination Sequence:
#
# PCOD9252895 Si02
#       8
#     4   4   2   4   4   4   4   4
#     4  11  27  51  79 118 160 214 266 331 405 489
#     4  11  26  46  75 114 160 202 269 330 386 478
#     4  12  28  50  86 106 160 212 264 338 412 464
#     4  11  26  48  75 113 158 205 266 330 398 476
#     4  12  27  47  85 112 163 217 263 332 412 468
#     4  12  30  52  79 118 165 207 265 336 400 484
#     4  12  30  52  79 120 161 209 270 336 401 478
#     4  11  27  48  80 116 160 213 267 329 394 488
#
# _framework density 26.82742
#
# number of rings (size 3 to 8) (size 9 to 14) (size 15 to 20)
#    0.000    0.533    4.000    1.200   14.933    2.667 
#    0.000    0.000    0.000    0.000    0.000    0.000 
#    0.000    0.000    0.000    0.000    0.000    0.000 
#
# Total GULP energy -167829.818786 kJ/mol
# GULP energy per Si atom -5594.327293 kJ/mol
# Density = 2.676636 g / cm^3
# Si number density = 26.827420 Si / 1000 Ang^3
#
#
#
# Elastic Constant Matrix: (Units=GPa)
#
#
# Indices 1 2 3 4 5 6 
#
# 1 80.5272 12.1683 26.8179 0.0000 12.3783 0.0000
# 2 12.1683 118.7110 14.3815 0.0000 -7.6264 0.0000
# 3 26.8179 14.3815 131.2548 0.0000 23.6523 0.0000
# 4 0.0000 0.0000 0.0000 32.2904 0.0000 4.0595
# 5 12.3783 -7.6264 23.6523 0.0000 38.0548 0.0000
# 6 0.0000 0.0000 0.0000 4.0595 0.0000 34.9002
#
#
#
# Elastic Compliance Matrix: (Units=1/GPa)
#
#
# Indices 1 2 3 4 5 6 
#
# 1 0.013850 -0.001398 -0.002043 0.000000 -0.003515 0.000000
# 2 -0.001398 0.008910 -0.001232 0.000000 0.003006 0.000000
# 3 -0.002043 -0.001232 0.009117 0.000000 -0.005249 0.000000
# 4 0.000000 0.000000 0.000000 0.031429 0.000000 -0.003656
# 5 -0.003515 0.003006 -0.005249 0.000000 0.031286 0.000000
# 6 0.000000 0.000000 0.000000 -0.003656 0.000000 0.029078
#
#
# Mechanical properties :
#
#
# Convention : Reuss Voigt Hill
#
# Bulk Modulus (GPa) = 44.38552 48.58093 46.48322
# Shear Modulus (GPa) = 35.58035 39.52410 37.55222
#
# Velocity S-wave (km/s) = 3.64575 3.84249 3.74541
# Velocity P-wave (km/s) = 5.85685 6.15096 6.00571
#
# Compressibility (1/GPa) = 0.02252987
#
# Stress axis : x y z
#
# Youngs Moduli (GPa) = 72.20100 112.23932 109.68370
#
# Poissons Ratio (x) = 0.15691 0.22411
# Poissons Ratio (y) = 0.10094 0.13516
# Poissons Ratio (z) = 0.14752 0.13831
#
# Static dielectric constant tensor:
#      x y z
#    x 2.068430 0.000000 -0.090130 
#    y 0.000000 2.104150 0.000000 
#    z -0.090130 0.000000 2.095350 
# 
# From -- ./inp_files/37823.got.cif
#   From: 2010.05.17/outbox.cif.g08.bks.cpg/sg14_19_cif.got.tgz:37823.got - 2010.06.03 17:49:19.
