data_PCOD9252614
_publ_section_title
;
Structure prediction by ZEFSAII (Michael W. Deem and Ramdas Pophale) SiO2 
 PCOD9252614
Probable space group: P 21/C
;
_chemical_formula_sum "Si O2"
_cell_formula_units_Z 20
_cell_length_a 9.273275
_cell_length_b 8.857461
_cell_length_c 10.948147
_cell_angle_alpha 90.000000
_cell_angle_beta 89.007066
_cell_angle_gamma 90.000000
_cell_volume 899.120271
_symmetry_space_group_name_H-M "P 21/C"
_symmetry_group_IT_number 14
_symmetry_cell_setting 'monoclinic'
loop_
_space_group_symop_operation_xyz
x,y,z
-x,1/2+y,1/2-z
-x,-y,-z
x,1/2-y,1/2+z
loop_
_atom_site_type_symbol
_atom_site_label
_atom_site_fract_x
_atom_site_fract_y
_atom_site_fract_z
Si Si1 0.179524 0.280503 0.214898
Si Si2 0.568603 0.578834 0.321474
Si Si3 0.067156 0.939309 0.874459
Si Si4 0.374992 0.501566 0.101949
Si Si5 0.332578 0.816633 0.004227
O O1 0.315575 0.177976 0.254516
O O2 0.121715 0.414840 0.299907
O O3 0.253391 0.372598 0.101029
O O4 0.050739 0.166286 0.187853
O O5 0.455790 0.501602 0.231511
O O6 0.651145 0.454881 0.401371
O O7 0.477275 0.678191 0.419444
O O8 0.204475 0.841671 0.911634
O O9 0.000000 0.000000 0.000000
O O10 0.500000 0.500000 0.000000
O O11 0.307060 0.666018 0.081064
#
# Coordination Sequence:
#
# PCOD9252614 Si02
#       5
#     4   4   4   4   4
#     4  12  28  49  74 108 151 200 251 312 372 456
#     4  11  24  47  76 108 149 191 256 311 374 441
#     4  12  29  51  71 108 156 203 247 308 383 450
#     4  12  26  43  77 113 142 193 251 311 376 447
#     4  11  25  46  75 107 152 197 242 322 373 441
#
# _framework density 22.243963999999998
#
# number of rings (size 3 to 8) (size 9 to 14) (size 15 to 20)
#    0.000    0.400    6.000    1.200    8.400    2.400 
#    0.000    0.000    0.000    0.000    0.000    0.000 
#    0.000    0.000    0.000    0.000    0.000    0.000 
#
# Total GULP energy -111829.035611 kJ/mol
# GULP energy per Si atom -5591.451781 kJ/mol
# Density = 2.219334 g / cm^3
# Si number density = 22.243964 Si / 1000 Ang^3
#
#
#
# Elastic Constant Matrix: (Units=GPa)
#
#
# Indices 1 2 3 4 5 6 
#
# 1 120.5807 54.4805 22.7661 0.0000 -0.7311 0.0000
# 2 54.4805 81.0139 8.8606 0.0000 5.5504 0.0000
# 3 22.7661 8.8606 57.4906 0.0000 -6.5553 0.0000
# 4 0.0000 0.0000 0.0000 28.0022 0.0000 -14.1414
# 5 -0.7311 5.5504 -6.5553 0.0000 41.9134 0.0000
# 6 0.0000 0.0000 0.0000 -14.1414 0.0000 55.0790
#
#
#
# Elastic Compliance Matrix: (Units=1/GPa)
#
#
# Indices 1 2 3 4 5 6 
#
# 1 0.012689 -0.008180 -0.003681 0.000000 0.000729 0.000000
# 2 -0.008180 0.017996 0.000181 0.000000 -0.002498 0.000000
# 3 -0.003681 0.000181 0.019155 0.000000 0.002908 0.000000
# 4 0.000000 0.000000 0.000000 0.041032 0.000000 0.010535
# 5 0.000729 -0.002498 0.002908 0.000000 0.024657 0.000000
# 6 0.000000 0.000000 0.000000 0.010535 0.000000 0.020861
#
#
# Mechanical properties :
#
#
# Convention : Reuss Voigt Hill
#
# Bulk Modulus (GPa) = 37.76449 47.92218 42.84333
# Shear Modulus (GPa) = 29.66030 36.53078 33.09554
#
# Velocity S-wave (km/s) = 3.65555 4.05690 3.86144
# Velocity P-wave (km/s) = 5.90183 6.59813 6.25967
#
# Compressibility (1/GPa) = 0.02647990
#
# Stress axis : x y z
#
# Youngs Moduli (GPa) = 78.81145 55.56816 52.20464
#
# Poissons Ratio (x) = 0.45456 0.19215
# Poissons Ratio (y) = 0.64469 -0.00945
# Poissons Ratio (z) = 0.29009 -0.01006
#
# Static dielectric constant tensor:
#      x y z
#    x 1.861250 0.000000 -0.042830 
#    y 0.000000 1.811960 0.000000 
#    z -0.042830 0.000000 1.790160 
# 
# From -- ./inp_files/23001.got.cif
#   From: 2010.05.17/outbox.cif.g08.bks.cpg/sg14_12_cif.got.tgz:23001.got - 2010.06.03 17:49:19.
