data_PCOD9252010
_publ_section_title
;
Structure prediction by ZEFSAII (Michael W. Deem and Ramdas Pophale) SiO2 
 PCOD9252010
Probable space group: P 21/C
;
_chemical_formula_sum "Si O2"
_cell_formula_units_Z 28
_cell_length_a 26.202257
_cell_length_b 7.505578
_cell_length_c 8.632359
_cell_angle_alpha 90.000000
_cell_angle_beta 138.649757
_cell_angle_gamma 90.000000
_cell_volume 1121.580587
_symmetry_space_group_name_H-M "P 21/C"
_symmetry_group_IT_number 14
_symmetry_cell_setting 'monoclinic'
loop_
_space_group_symop_operation_xyz
x,y,z
-x,1/2+y,1/2-z
-x,-y,-z
x,1/2-y,1/2+z
loop_
_atom_site_type_symbol
_atom_site_label
_atom_site_fract_x
_atom_site_fract_y
_atom_site_fract_z
Si Si1 0.041750 0.342617 0.192731
Si Si2 0.792230 0.614747 0.553110
Si Si3 0.906720 0.430524 0.428000
Si Si4 0.808362 0.244785 0.479866
Si Si5 0.355445 0.652328 0.289921
Si Si6 0.581323 0.474845 0.268231
Si Si7 0.688138 0.820556 0.529782
O O1 0.126445 0.311949 0.318809
O O2 0.058936 0.399970 0.408278
O O3 0.000000 0.500000 0.000000
O O4 0.981333 0.186146 0.061225
O O5 0.807100 0.404680 0.605072
O O6 0.763959 0.728441 0.631214
O O7 0.719455 0.624505 0.268880
O O8 0.850826 0.341233 0.433736
O O9 0.856897 0.417971 0.159030
O O10 0.720357 0.181030 0.274789
O O11 0.374896 0.828901 0.238274
O O12 0.421969 0.601600 0.564075
O O13 0.337596 0.489991 0.130941
O O14 0.624767 0.664556 0.383273
O O15 0.500000 0.500000 0.000000
#
# Coordination Sequence:
#
# PCOD9252010 Si02
#       7
#     4   4   4   4   4   4   4
#     4  11  24  42  61 100 140 186 238 311 361 424
#     4  11  24  43  70  99 148 184 253 302 353 444
#     4  11  23  41  66  93 142 183 240 298 369 422
#     4  11  23  44  69  99 137 194 241 301 360 431
#     4  12  26  49  80 106 153 194 237 306 366 435
#     4  12  30  50  79 116 151 191 239 301 375 453
#     4  12  26  48  75 113 140 197 253 294 367 448
#
# _framework density 24.964770999999999
#
# number of rings (size 3 to 8) (size 9 to 14) (size 15 to 20)
#    0.000    0.571    5.714    3.429    4.000    2.286 
#    0.000    0.000    0.000    0.000    0.000    0.000 
#    0.000    0.000    0.000    0.000    0.000    0.000 
#
# Total GULP energy -156853.598832 kJ/mol
# GULP energy per Si atom -5601.914244 kJ/mol
# Density = 2.490795 g / cm^3
# Si number density = 24.964771 Si / 1000 Ang^3
#
#
#
# Elastic Constant Matrix: (Units=GPa)
#
#
# Indices 1 2 3 4 5 6 
#
# 1 40.0308 21.7757 10.5345 0.0000 2.0345 0.0000
# 2 21.7757 117.2336 41.6609 0.0000 11.3473 0.0000
# 3 10.5345 41.6609 145.6041 0.0000 4.0971 0.0000
# 4 0.0000 0.0000 0.0000 40.8397 0.0000 -8.7272
# 5 2.0345 11.3473 4.0971 0.0000 32.3021 0.0000
# 6 0.0000 0.0000 0.0000 -8.7272 0.0000 26.8952
#
#
#
# Elastic Compliance Matrix: (Units=1/GPa)
#
#
# Indices 1 2 3 4 5 6 
#
# 1 0.027835 -0.004965 -0.000595 0.000000 0.000067 0.000000
# 2 -0.004965 0.010680 -0.002609 0.000000 -0.003108 0.000000
# 3 -0.000595 -0.002609 0.007658 0.000000 -0.000017 0.000000
# 4 0.000000 0.000000 0.000000 0.026310 0.000000 0.008537
# 5 0.000067 -0.003108 -0.000017 0.000000 0.032048 0.000000
# 6 0.000000 0.000000 0.000000 0.008537 0.000000 0.039952
#
#
# Mechanical properties :
#
#
# Convention : Reuss Voigt Hill
#
# Bulk Modulus (GPa) = 33.51847 50.09008 41.80428
# Shear Modulus (GPa) = 29.27971 35.26722 32.27347
#
# Velocity S-wave (km/s) = 3.42839 3.76264 3.59940
# Velocity P-wave (km/s) = 5.39697 6.24376 5.83574
#
# Compressibility (1/GPa) = 0.02983430
#
# Stress axis : x y z
#
# Youngs Moduli (GPa) = 35.92612 93.63022 130.58182
#
# Poissons Ratio (x) = 0.46489 0.07771
# Poissons Ratio (y) = 0.17838 0.34071
# Poissons Ratio (z) = 0.02138 0.24430
#
# Static dielectric constant tensor:
#      x y z
#    x 1.989710 0.000000 -0.032560 
#    y 0.000000 2.046110 0.000000 
#    z -0.032560 0.000000 1.948920 
# 
# From -- ./inp_files/19680.got.cif
#   From: 2010.05.17/outbox.cif.g08.bks.cpg/sg14_10_cif.got.tgz:19680.got - 2010.06.03 17:49:19.
