data_PCOD9252414
_publ_section_title
;
Structure prediction by ZEFSAII (Michael W. Deem and Ramdas Pophale) SiO2 
 PCOD9252414
Probable space group: P 21/C
;
_chemical_formula_sum "Si O2"
_cell_formula_units_Z 26
_cell_length_a 8.587730
_cell_length_b 20.329569
_cell_length_c 9.455533
_cell_angle_alpha 90.000000
_cell_angle_beta 43.577996
_cell_angle_gamma 90.000000
_cell_volume 1137.959792
_symmetry_space_group_name_H-M "P 21/C"
_symmetry_group_IT_number 14
_symmetry_cell_setting 'monoclinic'
loop_
_space_group_symop_operation_xyz
x,y,z
-x,1/2+y,1/2-z
-x,-y,-z
x,1/2-y,1/2+z
loop_
_atom_site_type_symbol
_atom_site_label
_atom_site_fract_x
_atom_site_fract_y
_atom_site_fract_z
Si Si1 0.500000 0.000000 0.500000
Si Si2 0.718030 0.730125 0.065686
Si Si3 0.141011 0.550573 0.999781
Si Si4 0.013282 0.149583 0.198605
Si Si5 0.065114 0.069576 0.882763
Si Si6 0.143243 0.639423 0.749444
Si Si7 0.424181 0.770500 0.512621
O O1 0.319563 0.980664 0.490179
O O2 0.676125 0.941354 0.331621
O O3 0.621972 0.762188 0.270018
O O4 0.512772 0.704982 0.105819
O O5 0.819242 0.789761 0.906697
O O6 0.911588 0.675685 0.953498
O O7 0.243918 0.598789 0.813399
O O8 0.957525 0.589579 0.215535
O O9 0.000000 0.500000 0.000000
O O10 0.770131 0.178825 0.400964
O O11 0.020080 0.122712 0.034752
O O12 0.921226 0.093206 0.841338
O O13 0.000000 0.000000 0.000000
O O14 0.307049 0.699140 0.601559
#
# Coordination Sequence:
#
# PCOD9252414 Si02
#       7
#     2   4   4   4   4   4   4
#     4  12  28  46  76 100 138 202 234 288 376 410
#     4  11  24  43  70 106 138 188 231 290 368 430
#     4  12  25  50  72 105 146 188 244 299 352 427
#     4  11  25  43  71 102 145 182 236 301 352 425
#     4  12  25  47  70 103 142 191 242 299 355 422
#     4  11  25  45  71 106 147 179 240 308 346 433
#     4  11  24  43  71 105 140 187 232 290 372 426
#
# _framework density 22.847908
#
# number of rings (size 3 to 8) (size 9 to 14) (size 15 to 20)
#    0.000    0.615    3.077    3.692    6.462    6.154 
#    2.769    1.538    0.000    0.000    0.000    0.000 
#    0.000    0.000    0.000    0.000    0.000    0.000 
#
# Total GULP energy -144885.636105 kJ/mol
# GULP energy per Si atom -5572.524466 kJ/mol
# Density = 2.279590 g / cm^3
# Si number density = 22.847908 Si / 1000 Ang^3
#
#
#
# Elastic Constant Matrix: (Units=GPa)
#
#
# Indices 1 2 3 4 5 6 
#
# 1 116.0179 44.7204 34.1244 0.0000 15.0314 0.0000
# 2 44.7204 86.9142 40.0088 0.0000 4.8377 0.0000
# 3 34.1244 40.0088 87.2702 0.0000 25.2174 0.0000
# 4 0.0000 0.0000 0.0000 36.5283 0.0000 12.9340
# 5 15.0314 4.8377 25.2174 0.0000 28.9265 0.0000
# 6 0.0000 0.0000 0.0000 12.9340 0.0000 37.4528
#
#
#
# Elastic Compliance Matrix: (Units=1/GPa)
#
#
# Indices 1 2 3 4 5 6 
#
# 1 0.011458 -0.005288 -0.000790 0.000000 -0.004381 0.000000
# 2 -0.005288 0.017482 -0.007881 0.000000 0.006695 0.000000
# 3 -0.000790 -0.007881 0.019892 0.000000 -0.015613 0.000000
# 4 0.000000 0.000000 0.000000 0.031190 0.000000 -0.010771
# 5 -0.004381 0.006695 -0.015613 0.000000 0.049338 0.000000
# 6 0.000000 0.000000 0.000000 -0.010771 0.000000 0.030420
#
#
# Mechanical properties :
#
#
# Convention : Reuss Voigt Hill
#
# Bulk Modulus (GPa) = 47.81710 58.65661 53.23686
# Shear Modulus (GPa) = 25.68466 32.00478 28.84472
#
# Velocity S-wave (km/s) = 3.35648 3.74675 3.55698
# Velocity P-wave (km/s) = 5.99960 6.66678 6.34197
#
# Compressibility (1/GPa) = 0.02091302
#
# Stress axis : x y z
#
# Youngs Moduli (GPa) = 87.27860 57.20282 50.27086
#
# Poissons Ratio (x) = 0.30248 0.03972
# Poissons Ratio (y) = 0.46151 0.39620
# Poissons Ratio (z) = 0.06896 0.45083
#
# Static dielectric constant tensor:
#      x y z
#    x 1.837460 0.000000 0.014930 
#    y 0.000000 1.881510 0.000000 
#    z 0.014930 0.000000 1.883920 
# 
# From -- ./inp_files/10176.got.cif
#   From: 2010.05.17/outbox.cif.g08.bks.cpg/sg14_6_cif.got.tgz:10176.got - 2010.06.03 17:49:19.
