data_PCOD9252022
_publ_section_title
;
Structure prediction by ZEFSAII (Michael W. Deem and Ramdas Pophale) SiO2 
 PCOD9252022
Probable space group: P 21/C
;
_chemical_formula_sum "Si O2"
_cell_formula_units_Z 30
_cell_length_a 8.944592
_cell_length_b 14.682080
_cell_length_c 12.062832
_cell_angle_alpha 90.000000
_cell_angle_beta 61.690812
_cell_angle_gamma 90.000000
_cell_volume 1394.691276
_symmetry_space_group_name_H-M "P 21/C"
_symmetry_group_IT_number 14
_symmetry_cell_setting 'monoclinic'
loop_
_space_group_symop_operation_xyz
x,y,z
-x,1/2+y,1/2-z
-x,-y,-z
x,1/2-y,1/2+z
loop_
_atom_site_type_symbol
_atom_site_label
_atom_site_fract_x
_atom_site_fract_y
_atom_site_fract_z
Si Si1 0.145861 0.441658 0.011092
Si Si2 0.116552 0.678839 0.281293
Si Si3 0.679735 0.008822 0.231103
Si Si4 0.819959 0.684627 0.210448
Si Si5 0.865408 0.381542 0.272848
Si Si6 0.052005 0.367553 0.424433
Si Si7 0.592865 0.537023 0.359639
Si Si8 0.500000 0.500000 0.000000
O O1 0.318309 0.488187 0.991352
O O2 0.046135 0.399871 0.151122
O O3 0.190020 0.366779 0.903171
O O4 0.000000 0.500000 0.000000
O O5 0.259141 0.601452 0.229970
O O6 0.188714 0.781206 0.248450
O O7 0.991544 0.666324 0.220623
O O8 0.012945 0.663073 0.432261
O O9 0.836480 0.958451 0.118626
O O10 0.543394 0.034782 0.188718
O O11 0.591809 0.953373 0.359928
O O12 0.831201 0.789460 0.172486
O O13 0.673575 0.637907 0.335772
O O14 0.742082 0.463829 0.285263
O O15 0.895485 0.379704 0.394377
O O16 0.500000 0.500000 0.500000
#
# Coordination Sequence:
#
# PCOD9252022 Si02
#       8
#     4   4   4   4   4   4   4   2
#     4  12  21  44  74  98 139 178 232 292 343 419
#     4  11  24  42  68  98 127 181 235 285 344 418
#     4  12  24  42  64  95 136 174 228 281 348 413
#     4  11  23  41  68  96 131 175 227 279 350 404
#     4  11  23  43  68  97 131 179 231 283 354 415
#     4  11  23  42  68  96 128 177 233 288 338 421
#     4  12  25  44  64  97 138 179 221 286 354 421
#     4  12  24  42  70 102 134 180 230 290 348 412
#
# _framework density 21.510137
#
# number of rings (size 3 to 8) (size 9 to 14) (size 15 to 20)
#    0.000    0.533    5.333    3.600    0.000    1.067 
#    2.400    0.000    0.000    0.000    0.000    0.000 
#    0.000    0.000    0.000    0.000    0.000    0.000 
#
# Total GULP energy -167086.016854 kJ/mol
# GULP energy per Si atom -5569.533895 kJ/mol
# Density = 2.146118 g / cm^3
# Si number density = 21.510137 Si / 1000 Ang^3
#
#
#
# Elastic Constant Matrix: (Units=GPa)
#
#
# Indices 1 2 3 4 5 6 
#
# 1 101.0880 32.7238 8.5544 0.0000 23.8014 0.0000
# 2 32.7238 79.2090 -10.6650 0.0000 2.6106 0.0000
# 3 8.5544 -10.6650 82.9240 0.0000 8.1872 0.0000
# 4 0.0000 0.0000 0.0000 25.9874 0.0000 1.0489
# 5 23.8014 2.6106 8.1872 0.0000 26.5220 0.0000
# 6 0.0000 0.0000 0.0000 1.0489 0.0000 16.1663
#
#
#
# Elastic Compliance Matrix: (Units=1/GPa)
#
#
# Indices 1 2 3 4 5 6 
#
# 1 0.014785 -0.005843 -0.001056 0.000000 -0.012367 0.000000
# 2 -0.005843 0.015243 0.002263 0.000000 0.003045 0.000000
# 3 -0.001056 0.002263 0.012777 0.000000 -0.003220 0.000000
# 4 0.000000 0.000000 0.000000 0.038581 0.000000 -0.002503
# 5 -0.012367 0.003045 -0.003220 0.000000 0.049498 0.000000
# 6 0.000000 0.000000 0.000000 -0.002503 0.000000 0.062019
#
#
# Mechanical properties :
#
#
# Convention : Reuss Voigt Hill
#
# Bulk Modulus (GPa) = 29.82099 36.04973 32.93536
# Shear Modulus (GPa) = 23.43542 29.24233 26.33887
#
# Velocity S-wave (km/s) = 3.30435 3.69110 3.50306
# Velocity P-wave (km/s) = 5.33405 5.91281 5.63087
#
# Compressibility (1/GPa) = 0.03353343
#
# Stress axis : x y z
#
# Youngs Moduli (GPa) = 67.63606 65.60415 78.26573
#
# Poissons Ratio (x) = 0.38331 0.08262
# Poissons Ratio (y) = 0.39518 -0.17708
# Poissons Ratio (z) = 0.07140 -0.14843
#
# Static dielectric constant tensor:
#      x y z
#    x 1.749810 0.000000 -0.025290 
#    y 0.000000 1.826740 0.000000 
#    z -0.025290 0.000000 1.845820 
# 
# From -- ./inp_files/25235.got.cif
#   From: 2010.05.17/outbox.cif.g08.bks.cpg/sg14_13_cif.got.tgz:25235.got - 2010.06.03 17:49:19.
