data_PCOD9252830
_publ_section_title
;
Structure prediction by ZEFSAII (Michael W. Deem and Ramdas Pophale) SiO2 
 PCOD9252830
Probable space group: P 21/C
;
_chemical_formula_sum "Si O2"
_cell_formula_units_Z 20
_cell_length_a 9.290946
_cell_length_b 7.032145
_cell_length_c 17.420683
_cell_angle_alpha 90.000000
_cell_angle_beta 143.677443
_cell_angle_gamma 90.000000
_cell_volume 674.181715
_symmetry_space_group_name_H-M "P 21/C"
_symmetry_group_IT_number 14
_symmetry_cell_setting 'monoclinic'
loop_
_space_group_symop_operation_xyz
x,y,z
-x,1/2+y,1/2-z
-x,-y,-z
x,1/2-y,1/2+z
loop_
_atom_site_type_symbol
_atom_site_label
_atom_site_fract_x
_atom_site_fract_y
_atom_site_fract_z
Si Si1 0.483625 0.540137 0.278417
Si Si2 0.565774 0.056867 0.659774
Si Si3 0.997233 0.364913 0.228358
Si Si4 0.169028 0.506395 0.444198
Si Si5 0.021306 0.100764 0.414957
O O1 0.457449 0.744071 0.305944
O O2 0.626676 0.570622 0.260310
O O3 0.626880 0.429329 0.407182
O O4 0.199630 0.499068 0.134178
O O5 0.752762 0.082233 0.671372
O O6 0.290358 0.016016 0.519929
O O7 0.213810 0.374899 0.386387
O O8 0.927271 0.047950 0.289196
O O9 0.951418 0.191835 0.148616
O O10 0.039190 0.329218 0.435460
#
# Coordination Sequence:
#
# PCOD9252830 Si02
#       5
#     4   4   4   4   4
#     4  11  26  49  72 108 152 195 244 305 374 446
#     4  11  26  47  71 109 149 192 248 299 375 443
#     4  12  24  48  77 109 145 196 250 312 368 431
#     4  11  25  47  77 109 147 192 256 304 368 444
#     4  11  25  50  75 107 146 196 251 307 368 441
#
# _framework density 29.665593000000001
#
# number of rings (size 3 to 8) (size 9 to 14) (size 15 to 20)
#    0.000    0.800    4.000    1.200    2.800    9.600 
#    3.600    1.000    0.000    0.000    0.000    0.000 
#    0.000    0.000    0.000    0.000    0.000    0.000 
#
# Total GULP energy -111337.906420 kJ/mol
# GULP energy per Si atom -5566.895321 kJ/mol
# Density = 2.959807 g / cm^3
# Si number density = 29.665593 Si / 1000 Ang^3
#
#
#
# Elastic Constant Matrix: (Units=GPa)
#
#
# Indices 1 2 3 4 5 6 
#
# 1 213.5070 39.7220 35.9174 0.0000 21.3635 0.0000
# 2 39.7220 161.6804 51.9188 0.0000 7.2919 0.0000
# 3 35.9174 51.9188 153.0389 0.0000 17.1533 0.0000
# 4 0.0000 0.0000 0.0000 50.7006 0.0000 -3.9291
# 5 21.3635 7.2919 17.1533 0.0000 32.4731 0.0000
# 6 0.0000 0.0000 0.0000 -3.9291 0.0000 36.8587
#
#
#
# Elastic Compliance Matrix: (Units=1/GPa)
#
#
# Indices 1 2 3 4 5 6 
#
# 1 0.005255 -0.000974 -0.000574 0.000000 -0.002935 0.000000
# 2 -0.000974 0.007125 -0.002212 0.000000 0.000210 0.000000
# 3 -0.000574 -0.002212 0.007782 0.000000 -0.003237 0.000000
# 4 0.000000 0.000000 0.000000 0.019888 0.000000 0.002120
# 5 -0.002935 0.000210 -0.003237 0.000000 0.034388 0.000000
# 6 0.000000 0.000000 0.000000 0.002120 0.000000 0.027357
#
#
# Mechanical properties :
#
#
# Convention : Reuss Voigt Hill
#
# Bulk Modulus (GPa) = 79.10079 87.03810 83.06944
# Shear Modulus (GPa) = 44.04106 50.71768 47.37937
#
# Velocity S-wave (km/s) = 3.85721 4.13927 4.00073
# Velocity P-wave (km/s) = 6.82345 7.22829 7.02879
#
# Compressibility (1/GPa) = 0.01264210
#
# Stress axis : x y z
#
# Youngs Moduli (GPa) = 190.28686 140.34410 128.49889
#
# Poissons Ratio (x) = 0.13676 0.07373
# Poissons Ratio (y) = 0.18543 0.28425
# Poissons Ratio (z) = 0.10918 0.31045
#
# Static dielectric constant tensor:
#      x y z
#    x 2.563910 0.000000 -0.085420 
#    y 0.000000 2.425000 0.000000 
#    z -0.085420 0.000000 2.720240 
# 
# From -- ./inp_files/55279.got.cif
#   From: 2010.05.17/outbox.cif.g08.bks.cpg/sg14_28_cif.got.tgz:55279.got - 2010.06.03 17:49:19.
