data_PCOD9252960
_publ_section_title
;
Structure prediction by ZEFSAII (Michael W. Deem and Ramdas Pophale) SiO2 
 PCOD9252960
Probable space group: P 21/C
;
_chemical_formula_sum "Si O2"
_cell_formula_units_Z 32
_cell_length_a 8.663222
_cell_length_b 7.464448
_cell_length_c 25.873338
_cell_angle_alpha 90.000000
_cell_angle_beta 128.348493
_cell_angle_gamma 90.000000
_cell_volume 1312.154512
_symmetry_space_group_name_H-M "P 21/C"
_symmetry_group_IT_number 14
_symmetry_cell_setting 'monoclinic'
loop_
_space_group_symop_operation_xyz
x,y,z
-x,1/2+y,1/2-z
-x,-y,-z
x,1/2-y,1/2+z
loop_
_atom_site_type_symbol
_atom_site_label
_atom_site_fract_x
_atom_site_fract_y
_atom_site_fract_z
Si Si1 0.398712 0.261822 0.840548
Si Si2 0.253756 0.617330 0.162345
Si Si3 0.315980 0.220008 0.503795
Si Si4 0.391047 0.885041 0.804159
Si Si5 0.700215 0.465796 0.092133
Si Si6 0.033631 0.721035 0.297069
Si Si7 0.809137 0.773741 0.406586
Si Si8 0.971766 0.536182 0.608685
O O1 0.561329 0.337450 0.835691
O O2 0.390457 0.378400 0.890589
O O3 0.181897 0.271560 0.770946
O O4 0.443093 0.051211 0.852309
O O5 0.338627 0.556369 0.235238
O O6 0.139965 0.461109 0.108918
O O7 0.119930 0.794278 0.141119
O O8 0.549279 0.201554 0.562500
O O9 0.199888 0.216163 0.533551
O O10 0.234209 0.387771 0.454985
O O11 0.281831 0.046467 0.460731
O O12 0.198087 0.793297 0.787154
O O13 0.583728 0.763945 0.842242
O O14 0.903365 0.398128 0.158447
O O15 0.043601 0.555341 0.338690
O O16 0.941506 0.613947 0.411859
#
# Coordination Sequence:
#
# PCOD9252960 Si02
#       8
#     4   4   4   4   4   4   4   4
#     4  12  25  46  78 112 154 197 246 321 390 450
#     4  12  27  48  75 113 159 192 250 313 394 448
#     4  11  26  51  75 106 156 206 255 310 372 452
#     4  12  25  44  76 112 154 193 251 319 381 459
#     4  11  26  51  75 115 150 202 254 316 384 442
#     4  12  27  47  78 116 150 192 261 317 385 453
#     4  12  26  53  74 111 151 205 250 310 383 450
#     4  12  29  48  76 114 149 204 260 306 372 457
#
# _framework density 24.387371999999999
#
# number of rings (size 3 to 8) (size 9 to 14) (size 15 to 20)
#    0.000    0.250    3.750    4.125   10.500    1.000 
#    6.750    0.000    0.000    0.000    0.000    0.000 
#    0.000    0.000    0.000    0.000    0.000    0.000 
#
# Total GULP energy -179486.337371 kJ/mol
# GULP energy per Si atom -5608.948043 kJ/mol
# Density = 2.433186 g / cm^3
# Si number density = 24.387372 Si / 1000 Ang^3
#
#
#
# Elastic Constant Matrix: (Units=GPa)
#
#
# Indices 1 2 3 4 5 6 
#
# 1 104.6876 23.7148 25.0073 0.0000 1.5371 0.0000
# 2 23.7148 101.8805 9.6939 0.0000 -1.0016 0.0000
# 3 25.0073 9.6939 75.7375 0.0000 -8.6146 0.0000
# 4 0.0000 0.0000 0.0000 28.3014 0.0000 -4.0575
# 5 1.5371 -1.0016 -8.6146 0.0000 33.8109 0.0000
# 6 0.0000 0.0000 0.0000 -4.0575 0.0000 51.5829
#
#
#
# Elastic Compliance Matrix: (Units=1/GPa)
#
#
# Indices 1 2 3 4 5 6 
#
# 1 0.010909 -0.002222 -0.003482 0.000000 -0.001449 0.000000
# 2 -0.002222 0.010389 -0.000566 0.000000 0.000265 0.000000
# 3 -0.003482 -0.000566 0.014873 0.000000 0.003931 0.000000
# 4 0.000000 0.000000 0.000000 0.035737 0.000000 0.002811
# 5 -0.001449 0.000265 0.003931 0.000000 0.030651 0.000000
# 6 0.000000 0.000000 0.000000 0.002811 0.000000 0.019607
#
#
# Mechanical properties :
#
#
# Convention : Reuss Voigt Hill
#
# Bulk Modulus (GPa) = 42.31912 44.34864 43.33388
# Shear Modulus (GPa) = 35.06709 37.66503 36.36606
#
# Velocity S-wave (km/s) = 3.79611 3.93421 3.86577
# Velocity P-wave (km/s) = 6.05016 6.23393 6.14273
#
# Compressibility (1/GPa) = 0.02362998
#
# Stress axis : x y z
#
# Youngs Moduli (GPa) = 91.66976 96.25454 67.23666
#
# Poissons Ratio (x) = 0.21389 0.23414
# Poissons Ratio (y) = 0.20370 0.03805
# Poissons Ratio (z) = 0.31922 0.05447
#
# Static dielectric constant tensor:
#      x y z
#    x 1.929230 0.000000 0.007740 
#    y 0.000000 1.946490 0.000000 
#    z 0.007740 0.000000 1.923220 
# 
# From -- ./inp_files/72079.got.cif
#   From: 2010.05.17/outbox.cif.g08.bks.cpg/sg14_37_cif.got.tgz:72079.got - 2010.06.03 17:49:19.
