data_PCOD9252009
_publ_section_title
;
Structure prediction by ZEFSAII (Michael W. Deem and Ramdas Pophale) SiO2 
 PCOD9252009
Probable space group: P 21/C
;
_chemical_formula_sum "Si O2"
_cell_formula_units_Z 32
_cell_length_a 14.884878
_cell_length_b 7.881986
_cell_length_c 12.723093
_cell_angle_alpha 90.000000
_cell_angle_beta 90.798039
_cell_angle_gamma 90.000000
_cell_volume 1492.559016
_symmetry_space_group_name_H-M "P 21/C"
_symmetry_group_IT_number 14
_symmetry_cell_setting 'monoclinic'
loop_
_space_group_symop_operation_xyz
x,y,z
-x,1/2+y,1/2-z
-x,-y,-z
x,1/2-y,1/2+z
loop_
_atom_site_type_symbol
_atom_site_label
_atom_site_fract_x
_atom_site_fract_y
_atom_site_fract_z
Si Si1 0.114894 0.323824 0.060572
Si Si2 0.566359 0.052502 0.407901
Si Si3 0.107828 0.499235 0.714891
Si Si4 0.028067 0.841906 0.618184
Si Si5 0.308566 0.547548 0.755927
Si Si6 0.304934 0.139725 0.462721
Si Si7 0.484635 0.778387 0.265340
Si Si8 0.582897 0.560694 0.430360
O O1 0.123803 0.164196 0.139368
O O2 0.104525 0.512390 0.110368
O O3 0.201748 0.324735 0.987071
O O4 0.023059 0.308803 0.992454
O O5 0.661921 0.020961 0.464391
O O6 0.551001 0.922959 0.311259
O O7 0.500000 0.000000 0.500000
O O8 0.532237 0.226836 0.355828
O O9 0.061102 0.660324 0.659610
O O10 0.202537 0.572563 0.758305
O O11 0.044981 0.425856 0.805352
O O12 0.321407 0.394083 0.839768
O O13 0.382302 0.681560 0.799504
O O14 0.335269 0.527420 0.633517
O O15 0.365765 0.293658 0.504332
O O16 0.528537 0.624935 0.327858
O O17 0.500000 0.500000 0.500000
#
# Coordination Sequence:
#
# PCOD9252009 Si02
#       8
#     4   4   4   4   4   4   4   4
#     4  11  24  48  70 105 144 186 232 292 363 428
#     4  11  23  41  66  92 135 179 230 282 347 401
#     4  12  24  47  74 107 140 185 235 293 354 439
#     4  11  25  45  77 104 145 181 231 290 371 426
#     4  12  25  43  66 102 139 176 238 290 342 422
#     4  11  24  43  69  97 136 188 224 295 352 408
#     4  11  24  41  64  94 131 180 226 280 338 416
#     4  11  26  42  68  96 138 182 237 280 348 415
#
# _framework density 21.439689000000001
#
# number of rings (size 3 to 8) (size 9 to 14) (size 15 to 20)
#    0.000    0.750    6.250    0.375    7.000    0.000 
#    0.000    1.250    0.000    0.000    0.000    0.000 
#    0.000    0.000    0.000    0.000    0.000    0.000 
#
# Total GULP energy -178168.065041 kJ/mol
# GULP energy per Si atom -5567.752033 kJ/mol
# Density = 2.139089 g / cm^3
# Si number density = 21.439689 Si / 1000 Ang^3
#
#
#
# Elastic Constant Matrix: (Units=GPa)
#
#
# Indices 1 2 3 4 5 6 
#
# 1 87.0548 1.9451 1.0488 0.0000 -8.8587 0.0000
# 2 1.9451 36.0672 8.2370 0.0000 -5.8184 0.0000
# 3 1.0488 8.2370 61.4271 0.0000 -11.6987 0.0000
# 4 0.0000 0.0000 0.0000 37.4210 0.0000 0.5421
# 5 -8.8587 -5.8184 -11.6987 0.0000 42.1360 0.0000
# 6 0.0000 0.0000 0.0000 0.5421 0.0000 31.8363
#
#
#
# Elastic Compliance Matrix: (Units=1/GPa)
#
#
# Indices 1 2 3 4 5 6 
#
# 1 0.011746 -0.000300 0.000319 0.000000 0.002517 0.000000
# 2 -0.000300 0.028985 -0.003306 0.000000 0.003021 0.000000
# 3 0.000319 -0.003306 0.017572 0.000000 0.004489 0.000000
# 4 0.000000 0.000000 0.000000 0.026730 0.000000 -0.000455
# 5 0.002517 0.003021 0.004489 0.000000 0.025925 0.000000
# 6 0.000000 0.000000 0.000000 -0.000455 0.000000 0.031418
#
#
# Mechanical properties :
#
#
# Convention : Reuss Voigt Hill
#
# Bulk Modulus (GPa) = 19.33187 23.00123 21.16655
# Shear Modulus (GPa) = 30.08532 33.83321 31.95927
#
# Velocity S-wave (km/s) = 3.75007 3.97680 3.86509
# Velocity P-wave (km/s) = 5.27135 5.64253 5.46009
#
# Compressibility (1/GPa) = 0.05172805
#
# Stress axis : x y z
#
# Youngs Moduli (GPa) = 85.13558 34.50095 56.90768
#
# Poissons Ratio (x) = 0.01036 -0.01815
# Poissons Ratio (y) = 0.02557 0.18814
# Poissons Ratio (z) = -0.02716 0.11406
#
# Static dielectric constant tensor:
#      x y z
#    x 1.829850 0.000000 -0.120450 
#    y 0.000000 2.921360 0.000000 
#    z -0.120450 0.000000 1.958020 
# 
# From -- ./inp_files/31825.got.cif
#   From: 2010.05.17/outbox.cif.g08.bks.cpg/sg14_16_cif.got.tgz:31825.got - 2010.06.03 17:49:19.
