data_PCOD9252213
_publ_section_title
;
Structure prediction by ZEFSAII (Michael W. Deem and Ramdas Pophale) SiO2 
 PCOD9252213
Probable space group: P 21/C
;
_chemical_formula_sum "Si O2"
_cell_formula_units_Z 16
_cell_length_a 14.757129
_cell_length_b 6.187009
_cell_length_c 24.408575
_cell_angle_alpha 90.000000
_cell_angle_beta 162.632206
_cell_angle_gamma 90.000000
_cell_volume 665.235986
_symmetry_space_group_name_H-M "P 21/C"
_symmetry_group_IT_number 14
_symmetry_cell_setting 'monoclinic'
loop_
_space_group_symop_operation_xyz
x,y,z
-x,1/2+y,1/2-z
-x,-y,-z
x,1/2-y,1/2+z
loop_
_atom_site_type_symbol
_atom_site_label
_atom_site_fract_x
_atom_site_fract_y
_atom_site_fract_z
Si Si1 0.718836 0.698471 0.610232
Si Si2 0.095352 0.414232 0.977455
Si Si3 0.876304 0.085755 0.758375
Si Si4 0.784425 0.198461 0.893029
O O1 0.500000 0.500000 0.500000
O O2 0.477025 0.853765 0.440940
O O3 0.975971 0.639387 0.715432
O O4 0.862060 0.824639 0.744489
O O5 0.108145 0.675347 0.990614
O O6 0.433802 0.360627 0.194356
O O7 0.039573 0.250004 0.894788
O O8 0.832642 0.353737 0.868746
O O9 0.000000 0.000000 0.000000
#
# Coordination Sequence:
#
# PCOD9252213 Si02
#       4
#     4   4   4   4
#     4  11  23  45  70 109 148 190 253 312 364 459
#     4  11  24  44  72 104 149 197 246 306 382 443
#     4  11  24  44  72 104 149 197 246 306 382 443
#     4  11  23  45  70 109 148 190 253 312 364 459
#
# _framework density 24.051615999999999
#
# number of rings (size 3 to 8) (size 9 to 14) (size 15 to 20)
#    0.000    1.000    5.000    1.500    0.000    2.000 
#    0.000    5.000    0.000    0.000    0.000    0.000 
#    0.000    0.000    0.000    0.000    0.000    0.000 
#
# Total GULP energy -89093.321424 kJ/mol
# GULP energy per Si atom -5568.332589 kJ/mol
# Density = 2.399687 g / cm^3
# Si number density = 24.051616 Si / 1000 Ang^3
#
#
#
# Elastic Constant Matrix: (Units=GPa)
#
#
# Indices 1 2 3 4 5 6 
#
# 1 105.8346 58.9010 65.4527 0.0000 3.7918 0.0000
# 2 58.9010 147.6819 58.1563 0.0000 -25.1660 0.0000
# 3 65.4527 58.1563 105.9763 0.0000 4.6665 0.0000
# 4 0.0000 0.0000 0.0000 44.8776 0.0000 9.6240
# 5 3.7918 -25.1660 4.6665 0.0000 52.1441 0.0000
# 6 0.0000 0.0000 0.0000 9.6240 0.0000 44.6338
#
#
#
# Elastic Compliance Matrix: (Units=1/GPa)
#
#
# Indices 1 2 3 4 5 6 
#
# 1 0.016684 -0.003878 -0.008072 0.000000 -0.002362 0.000000
# 2 -0.003878 0.010806 -0.003792 0.000000 0.005836 0.000000
# 3 -0.008072 -0.003792 0.016622 0.000000 -0.002731 0.000000
# 4 0.000000 0.000000 0.000000 0.023363 0.000000 -0.005038
# 5 -0.002362 0.005836 -0.002731 0.000000 0.022411 0.000000
# 6 0.000000 0.000000 0.000000 -0.005038 0.000000 0.023491
#
#
# Mechanical properties :
#
#
# Convention : Reuss Voigt Hill
#
# Bulk Modulus (GPa) = 79.18584 80.50142 79.84363
# Shear Modulus (GPa) = 33.54149 40.12995 36.83572
#
# Velocity S-wave (km/s) = 3.73844 4.08915 3.91772
# Velocity P-wave (km/s) = 7.18535 7.47247 7.33032
#
# Compressibility (1/GPa) = 0.01262852
#
# Stress axis : x y z
#
# Youngs Moduli (GPa) = 59.93906 92.54366 60.15946
#
# Poissons Ratio (x) = 0.35888 0.48561
# Poissons Ratio (y) = 0.23244 0.22811
# Poissons Ratio (z) = 0.48383 0.35090
#
# Static dielectric constant tensor:
#      x y z
#    x 1.884770 0.000000 -0.112200 
#    y 0.000000 2.274940 0.000000 
#    z -0.112200 0.000000 1.881670 
# 
# From -- ./inp_files/20427.got.cif
#   From: 2010.05.17/outbox.cif.g08.bks.cpg/sg14_11_cif.got.tgz:20427.got - 2010.06.03 17:49:19.
