data_PCOD9252403
_publ_section_title
;
Structure prediction by ZEFSAII (Michael W. Deem and Ramdas Pophale) SiO2 
 PCOD9252403
Probable space group: P 21/C
;
_chemical_formula_sum "Si O2"
_cell_formula_units_Z 20
_cell_length_a 7.245971
_cell_length_b 16.979128
_cell_length_c 7.606477
_cell_angle_alpha 90.000000
_cell_angle_beta 76.225775
_cell_angle_gamma 90.000000
_cell_volume 908.913923
_symmetry_space_group_name_H-M "P 21/C"
_symmetry_group_IT_number 14
_symmetry_cell_setting 'monoclinic'
loop_
_space_group_symop_operation_xyz
x,y,z
-x,1/2+y,1/2-z
-x,-y,-z
x,1/2-y,1/2+z
loop_
_atom_site_type_symbol
_atom_site_label
_atom_site_fract_x
_atom_site_fract_y
_atom_site_fract_z
Si Si1 0.942215 0.321877 0.841010
Si Si2 0.204290 0.294746 0.087511
Si Si3 0.444934 0.405909 0.207304
Si Si4 0.626882 0.418353 0.778220
Si Si5 0.592901 0.201080 0.964931
O O1 0.841687 0.398397 0.786221
O O2 0.773010 0.259650 0.928270
O O3 0.068010 0.275572 0.673465
O O4 0.088781 0.339379 0.963481
O O5 0.253619 0.354246 0.234020
O O6 0.404088 0.254120 0.994627
O O7 0.407814 0.493717 0.282176
O O8 0.588673 0.357151 0.297841
O O9 0.513890 0.412036 0.988801
O O10 0.579547 0.353021 0.641845
#
# Coordination Sequence:
#
# PCOD9252403 Si02
#       5
#     4   4   4   4   4
#     4  12  23  41  70  98 128 177 229 266 324 402
#     4  12  23  41  70  98 128 177 229 266 324 402
#     4  11  24  43  68 100 135 174 219 276 337 388
#     4  11  24  43  68 100 135 174 219 276 337 388
#     4  12  23  46  69  94 138 178 222 272 329 398
#
# _framework density 22.004283000000001
#
# number of rings (size 3 to 8) (size 9 to 14) (size 15 to 20)
#    0.000    0.400    6.000    4.200    0.000    0.800 
#    0.000    6.000    0.000    0.000    0.000    0.000 
#    0.000    0.000    0.000    0.000    0.000    0.000 
#
# Total GULP energy -111765.748861 kJ/mol
# GULP energy per Si atom -5588.287443 kJ/mol
# Density = 2.195420 g / cm^3
# Si number density = 22.004283 Si / 1000 Ang^3
#
#
#
# Elastic Constant Matrix: (Units=GPa)
#
#
# Indices 1 2 3 4 5 6 
#
# 1 109.3799 7.7164 21.9852 0.0000 13.6717 0.0000
# 2 7.7164 71.9784 16.3720 0.0000 7.1247 0.0000
# 3 21.9852 16.3720 68.3834 0.0000 16.0107 0.0000
# 4 0.0000 0.0000 0.0000 25.3336 0.0000 7.0601
# 5 13.6717 7.1247 16.0107 0.0000 41.5752 0.0000
# 6 0.0000 0.0000 0.0000 7.0601 0.0000 16.5677
#
#
#
# Elastic Compliance Matrix: (Units=1/GPa)
#
#
# Indices 1 2 3 4 5 6 
#
# 1 0.009965 -0.000252 -0.002623 0.000000 -0.002224 0.000000
# 2 -0.000252 0.014762 -0.003166 0.000000 -0.001228 0.000000
# 3 -0.002623 -0.003166 0.017471 0.000000 -0.005323 0.000000
# 4 0.000000 0.000000 0.000000 0.044793 0.000000 -0.019088
# 5 -0.002224 -0.001228 -0.005323 0.000000 0.027044 0.000000
# 6 0.000000 0.000000 0.000000 -0.019088 0.000000 0.068493
#
#
# Mechanical properties :
#
#
# Convention : Reuss Voigt Hill
#
# Bulk Modulus (GPa) = 33.20358 37.98766 35.59562
# Shear Modulus (GPa) = 24.43225 30.27317 27.35271
#
# Velocity S-wave (km/s) = 3.33579 3.71318 3.52953
# Velocity P-wave (km/s) = 5.47349 5.97368 5.72904
#
# Compressibility (1/GPa) = 0.03011724
#
# Stress axis : x y z
#
# Youngs Moduli (GPa) = 100.34751 67.74309 57.23797
#
# Poissons Ratio (x) = 0.01704 0.15013
# Poissons Ratio (y) = 0.02525 0.18120
# Poissons Ratio (z) = 0.26321 0.21446
#
# Static dielectric constant tensor:
#      x y z
#    x 1.802610 0.000000 0.014070 
#    y 0.000000 1.827940 0.000000 
#    z 0.014070 0.000000 1.894890 
# 
# From -- ./inp_files/5343.got.cif
#   From: 2010.05.17/outbox.cif.g08.bks.cpg/sg14_3_cif.got.tgz:5343.got - 2010.06.03 17:49:19.
