data_PCOD9252899
_publ_section_title
;
Structure prediction by ZEFSAII (Michael W. Deem and Ramdas Pophale) SiO2 
 PCOD9252899
Probable space group: P 21/C
;
_chemical_formula_sum "Si O2"
_cell_formula_units_Z 20
_cell_length_a 9.259385
_cell_length_b 4.714576
_cell_length_c 18.063805
_cell_angle_alpha 90.000000
_cell_angle_beta 79.744803
_cell_angle_gamma 90.000000
_cell_volume 775.961108
_symmetry_space_group_name_H-M "P 21/C"
_symmetry_group_IT_number 14
_symmetry_cell_setting 'monoclinic'
loop_
_space_group_symop_operation_xyz
x,y,z
-x,1/2+y,1/2-z
-x,-y,-z
x,1/2-y,1/2+z
loop_
_atom_site_type_symbol
_atom_site_label
_atom_site_fract_x
_atom_site_fract_y
_atom_site_fract_z
Si Si1 0.714621 0.201870 0.882012
Si Si2 0.091697 0.553329 0.257817
Si Si3 0.856237 0.702086 0.953082
Si Si4 0.530165 0.451188 0.693095
Si Si5 0.170357 0.923696 0.903485
O O1 0.771721 0.359953 0.803722
O O2 0.761890 0.420962 0.943014
O O3 0.806776 0.925026 0.894458
O O4 0.558907 0.080987 0.869107
O O5 0.117311 0.414136 0.334357
O O6 0.987539 0.350307 0.221891
O O7 0.035675 0.713901 0.938112
O O8 0.807498 0.855396 0.032931
O O9 0.549770 0.713056 0.749235
O O10 0.675447 0.312237 0.642732
#
# Coordination Sequence:
#
# PCOD9252899 Si02
#       5
#     4   4   4   4   4
#     4  12  24  46  68 105 139 189 240 295 365 429
#     4  12  23  41  71 101 135 186 241 301 348 426
#     4  11  27  45  73 101 144 189 239 301 362 430
#     4  12  28  44  73 108 147 189 245 305 365 432
#     4  11  26  47  70 107 142 187 243 300 362 431
#
# _framework density 25.774491000000001
#
# number of rings (size 3 to 8) (size 9 to 14) (size 15 to 20)
#    0.000    0.400    6.000    1.200    2.800    9.600 
#    0.000    0.000    0.000    0.000    0.000    0.000 
#    0.000    0.000    0.000    0.000    0.000    0.000 
#
# Total GULP energy -111688.065524 kJ/mol
# GULP energy per Si atom -5584.403276 kJ/mol
# Density = 2.571583 g / cm^3
# Si number density = 25.774491 Si / 1000 Ang^3
#
#
#
# Elastic Constant Matrix: (Units=GPa)
#
#
# Indices 1 2 3 4 5 6 
#
# 1 124.1315 27.3275 31.8068 0.0000 0.8243 0.0000
# 2 27.3275 121.4363 6.8336 0.0000 8.1332 0.0000
# 3 31.8068 6.8336 102.0832 0.0000 -5.7716 0.0000
# 4 0.0000 0.0000 0.0000 26.3121 0.0000 2.2895
# 5 0.8243 8.1332 -5.7716 0.0000 41.4920 0.0000
# 6 0.0000 0.0000 0.0000 2.2895 0.0000 31.6496
#
#
#
# Elastic Compliance Matrix: (Units=1/GPa)
#
#
# Indices 1 2 3 4 5 6 
#
# 1 0.009178 -0.001898 -0.002743 0.000000 -0.000192 0.000000
# 2 -0.001898 0.008781 -0.000092 0.000000 -0.001696 0.000000
# 3 -0.002743 -0.000092 0.010746 0.000000 0.001567 0.000000
# 4 0.000000 0.000000 0.000000 0.038246 0.000000 -0.002767
# 5 -0.000192 -0.001696 0.001567 0.000000 0.024655 0.000000
# 6 0.000000 0.000000 0.000000 -0.002767 0.000000 0.031796
#
#
# Mechanical properties :
#
#
# Convention : Reuss Voigt Hill
#
# Bulk Modulus (GPa) = 51.98444 53.28744 52.63594
# Shear Modulus (GPa) = 35.89843 38.66962 37.28402
#
# Velocity S-wave (km/s) = 3.73606 3.87758 3.80748
# Velocity P-wave (km/s) = 6.23086 6.38489 6.30835
#
# Compressibility (1/GPa) = 0.01923652
#
# Stress axis : x y z
#
# Youngs Moduli (GPa) = 108.95503 113.88574 93.06199
#
# Poissons Ratio (x) = 0.21617 0.25531
# Poissons Ratio (y) = 0.20681 0.00859
# Poissons Ratio (z) = 0.29891 0.01051
#
# Static dielectric constant tensor:
#      x y z
#    x 2.136420 0.000000 0.061030 
#    y 0.000000 1.972940 0.000000 
#    z 0.061030 0.000000 2.012710 
# 
# From -- ./inp_files/53979.got.cif
#   From: 2010.05.17/outbox.cif.g08.bks.cpg/sg14_27_cif.got.tgz:53979.got - 2010.06.03 17:49:19.
