data_PCOD9252758
_publ_section_title
;
Structure prediction by ZEFSAII (Michael W. Deem and Ramdas Pophale) SiO2 
 PCOD9252758
Probable space group: P 21/C
;
_chemical_formula_sum "Si O2"
_cell_formula_units_Z 32
_cell_length_a 8.562680
_cell_length_b 12.119683
_cell_length_c 14.036382
_cell_angle_alpha 90.000000
_cell_angle_beta 68.678152
_cell_angle_gamma 90.000000
_cell_volume 1356.949099
_symmetry_space_group_name_H-M "P 21/C"
_symmetry_group_IT_number 14
_symmetry_cell_setting 'monoclinic'
loop_
_space_group_symop_operation_xyz
x,y,z
-x,1/2+y,1/2-z
-x,-y,-z
x,1/2-y,1/2+z
loop_
_atom_site_type_symbol
_atom_site_label
_atom_site_fract_x
_atom_site_fract_y
_atom_site_fract_z
Si Si1 0.894327 0.918359 0.590462
Si Si2 0.748159 0.285874 0.786399
Si Si3 0.721283 0.553809 0.511469
Si Si4 0.464050 0.456102 0.902692
Si Si5 0.971591 0.974239 0.782873
Si Si6 0.516555 0.186819 0.682008
Si Si7 0.853147 0.820209 0.160479
Si Si8 0.609398 0.170827 0.986557
O O1 0.719889 0.909792 0.573330
O O2 0.944869 0.791838 0.604415
O O3 0.894978 0.974961 0.694149
O O4 0.000000 0.000000 0.500000
O O5 0.598438 0.365870 0.849513
O O6 0.904560 0.367288 0.738046
O O7 0.673096 0.224506 0.711497
O O8 0.746181 0.203605 0.877338
O O9 0.823662 0.606909 0.573293
O O10 0.550982 0.621963 0.533351
O O11 0.673991 0.427012 0.540188
O O12 0.827704 0.548962 0.391454
O O13 0.485275 0.555662 0.824123
O O14 0.500000 0.500000 0.000000
O O15 0.067600 0.089937 0.783960
O O16 0.330322 0.219114 0.759520
O O17 0.550028 0.233019 0.569130
#
# Coordination Sequence:
#
# PCOD9252758 Si02
#       8
#     4   4   4   4   4   4   4   4
#     4  12  30  48  76 117 159 204 262 324 396 468
#     4  12  25  48  74 113 147 206 265 324 394 480
#     4  11  26  48  76 113 155 203 264 324 393 475
#     4  12  25  47  74 109 150 201 263 316 386 471
#     4  12  29  49  79 114 163 203 262 333 407 469
#     4  12  25  42  81 107 148 204 258 327 383 472
#     4  12  26  50  76 112 159 206 257 327 398 462
#     4  11  25  45  76 110 152 202 265 320 392 483
#
# _framework density 23.582315000000001
#
# number of rings (size 3 to 8) (size 9 to 14) (size 15 to 20)
#    0.000    0.250    5.000    2.625    3.500    2.000 
#    0.000    0.000    0.000    0.000    0.000    0.000 
#    0.000    0.000    0.000    0.000    0.000    0.000 
#
# Total GULP energy -179112.564631 kJ/mol
# GULP energy per Si atom -5597.267645 kJ/mol
# Density = 2.352864 g / cm^3
# Si number density = 23.582315 Si / 1000 Ang^3
#
#
#
# Elastic Constant Matrix: (Units=GPa)
#
#
# Indices 1 2 3 4 5 6 
#
# 1 86.4633 31.5672 14.6885 0.0000 8.0225 0.0000
# 2 31.5672 115.8496 17.4248 0.0000 15.1199 0.0000
# 3 14.6885 17.4248 72.8536 0.0000 11.8429 0.0000
# 4 0.0000 0.0000 0.0000 39.7268 0.0000 -6.2098
# 5 8.0225 15.1199 11.8429 0.0000 46.9497 0.0000
# 6 0.0000 0.0000 0.0000 -6.2098 0.0000 41.4329
#
#
#
# Elastic Compliance Matrix: (Units=1/GPa)
#
#
# Indices 1 2 3 4 5 6 
#
# 1 0.013105 -0.003208 -0.001751 0.000000 -0.000765 0.000000
# 2 -0.003208 0.010016 -0.001370 0.000000 -0.002332 0.000000
# 3 -0.001751 -0.001370 0.014897 0.000000 -0.003017 0.000000
# 4 0.000000 0.000000 0.000000 0.025776 0.000000 0.003863
# 5 -0.000765 -0.002332 -0.003017 0.000000 0.022942 0.000000
# 6 0.000000 0.000000 0.000000 0.003863 0.000000 0.024714
#
#
# Mechanical properties :
#
#
# Convention : Reuss Voigt Hill
#
# Bulk Modulus (GPa) = 39.42891 44.72526 42.07709
# Shear Modulus (GPa) = 37.71827 39.72097 38.71962
#
# Velocity S-wave (km/s) = 4.00363 4.10854 4.05642
# Velocity P-wave (km/s) = 6.17479 6.44310 6.31037
#
# Compressibility (1/GPa) = 0.02536210
#
# Stress axis : x y z
#
# Youngs Moduli (GPa) = 76.30611 99.83666 67.12644
#
# Poissons Ratio (x) = 0.32026 0.11752
# Poissons Ratio (y) = 0.24478 0.09195
# Poissons Ratio (z) = 0.13359 0.13676
#
# Static dielectric constant tensor:
#      x y z
#    x 1.877690 0.000000 -0.033140 
#    y 0.000000 1.906640 0.000000 
#    z -0.033140 0.000000 1.842190 
# 
# From -- ./inp_files/40278.got.cif
#   From: 2010.05.17/outbox.cif.g08.bks.cpg/sg14_21_cif.got.tgz:40278.got - 2010.06.03 17:49:19.
