data_PCOD9252479
_publ_section_title
;
Structure prediction by ZEFSAII (Michael W. Deem and Ramdas Pophale) SiO2 
 PCOD9252479
Probable space group: P 21/C
;
_chemical_formula_sum "Si O2"
_cell_formula_units_Z 20
_cell_length_a 5.233016
_cell_length_b 8.818133
_cell_length_c 17.169707
_cell_angle_alpha 90.000000
_cell_angle_beta 78.583527
_cell_angle_gamma 90.000000
_cell_volume 776.627256
_symmetry_space_group_name_H-M "P 21/C"
_symmetry_group_IT_number 14
_symmetry_cell_setting 'monoclinic'
loop_
_space_group_symop_operation_xyz
x,y,z
-x,1/2+y,1/2-z
-x,-y,-z
x,1/2-y,1/2+z
loop_
_atom_site_type_symbol
_atom_site_label
_atom_site_fract_x
_atom_site_fract_y
_atom_site_fract_z
Si Si1 0.686491 0.163377 0.727930
Si Si2 0.256367 0.860114 0.645450
Si Si3 0.120343 0.114907 0.818551
Si Si4 0.344818 0.124226 0.960662
Si Si5 0.058134 0.383573 0.065939
O O1 0.029869 0.286585 0.849572
O O2 0.385615 0.129003 0.755103
O O3 0.708769 0.331554 0.764367
O O4 0.875051 0.071149 0.778213
O O5 0.453098 0.744102 0.591033
O O6 0.831983 0.728218 0.473955
O O7 0.263006 0.022762 0.606598
O O8 0.186884 0.046810 0.898740
O O9 0.813671 0.146700 0.636902
O O10 0.500000 0.000000 0.000000
O O11 0.000000 0.500000 0.000000
#
# Coordination Sequence:
#
# PCOD9252479 Si02
#       5
#     4   4   4   4   4
#     4   9  22  41  68 102 142 189 244 310 381 448
#     4   9  22  45  69  97 145 191 251 302 379 468
#     4   9  20  47  63 100 146 192 238 310 377 468
#     4  11  24  44  72 106 151 194 250 321 390 456
#     4  12  23  44  75 113 146 201 260 326 383 471
#
# _framework density 25.752378
#
# number of rings (size 3 to 8) (size 9 to 14) (size 15 to 20)
#    1.200    0.800    2.000    0.600    0.000    7.200 
#    0.000    0.000    0.000    0.000    0.000    0.000 
#    0.000    0.000    0.000    0.000    0.000    0.000 
#
# Total GULP energy -111779.599691 kJ/mol
# GULP energy per Si atom -5588.979985 kJ/mol
# Density = 2.569376 g / cm^3
# Si number density = 25.752378 Si / 1000 Ang^3
#
#
#
# Elastic Constant Matrix: (Units=GPa)
#
#
# Indices 1 2 3 4 5 6 
#
# 1 146.1282 46.8295 58.5539 0.0000 -11.1938 0.0000
# 2 46.8295 83.9671 65.5083 0.0000 -15.5580 0.0000
# 3 58.5539 65.5083 181.9092 0.0000 -2.7121 0.0000
# 4 0.0000 0.0000 0.0000 32.0016 0.0000 20.2635
# 5 -11.1938 -15.5580 -2.7121 0.0000 47.3441 0.0000
# 6 0.0000 0.0000 0.0000 20.2635 0.0000 26.3042
#
#
#
# Elastic Compliance Matrix: (Units=1/GPa)
#
#
# Indices 1 2 3 4 5 6 
#
# 1 0.008627 -0.003483 -0.001510 0.000000 0.000809 0.000000
# 2 -0.003483 0.019301 -0.005752 0.000000 0.005190 0.000000
# 3 -0.001510 -0.005752 0.008028 0.000000 -0.001787 0.000000
# 4 0.000000 0.000000 0.000000 0.061007 0.000000 -0.046997
# 5 0.000809 0.005190 -0.001787 0.000000 0.022916 0.000000
# 6 0.000000 0.000000 0.000000 -0.046997 0.000000 0.074221
#
#
# Mechanical properties :
#
#
# Convention : Reuss Voigt Hill
#
# Bulk Modulus (GPa) = 69.13303 83.75421 76.44362
# Shear Modulus (GPa) = 22.68469 37.20418 29.94444
#
# Velocity S-wave (km/s) = 2.97118 3.80503 3.41366
# Velocity P-wave (km/s) = 6.21885 7.20402 6.72949
#
# Compressibility (1/GPa) = 0.01446487
#
# Stress axis : x y z
#
# Youngs Moduli (GPa) = 115.91952 51.81045 124.56031
#
# Poissons Ratio (x) = 0.18045 0.18815
# Poissons Ratio (y) = 0.40374 0.71649
# Poissons Ratio (z) = 0.17509 0.29802
#
# Static dielectric constant tensor:
#      x y z
#    x 2.076440 0.000000 0.070980 
#    y 0.000000 2.095630 0.000000 
#    z 0.070980 0.000000 2.099730 
# 
# From -- ./inp_files/36822.got.cif
#   From: 2010.05.17/outbox.cif.g08.bks.cpg/sg14_19_cif.got.tgz:36822.got - 2010.06.03 17:49:19.
