data_PCOD9252275
_publ_section_title
;
Structure prediction by ZEFSAII (Michael W. Deem and Ramdas Pophale) SiO2 
 PCOD9252275
Probable space group: P 21/C
;
_chemical_formula_sum "Si O2"
_cell_formula_units_Z 30
_cell_length_a 6.630863
_cell_length_b 10.801777
_cell_length_c 18.332050
_cell_angle_alpha 90.000000
_cell_angle_beta 75.310301
_cell_angle_gamma 90.000000
_cell_volume 1270.116275
_symmetry_space_group_name_H-M "P 21/C"
_symmetry_group_IT_number 14
_symmetry_cell_setting 'monoclinic'
loop_
_space_group_symop_operation_xyz
x,y,z
-x,1/2+y,1/2-z
-x,-y,-z
x,1/2-y,1/2+z
loop_
_atom_site_type_symbol
_atom_site_label
_atom_site_fract_x
_atom_site_fract_y
_atom_site_fract_z
Si Si1 0.898762 0.263357 0.774324
Si Si2 0.667751 0.021445 0.810756
Si Si3 0.257793 0.499212 0.433292
Si Si4 0.176689 0.137266 0.622576
Si Si5 0.461139 0.951587 0.680062
Si Si6 0.000000 0.000000 0.500000
Si Si7 0.857185 0.896903 0.911773
Si Si8 0.839512 0.716325 0.103901
O O1 0.734872 0.160447 0.818268
O O2 0.741997 0.376885 0.773817
O O3 0.018709 0.189881 0.698747
O O4 0.060858 0.289875 0.824455
O O5 0.478190 0.977141 0.878080
O O6 0.592980 0.003102 0.735791
O O7 0.852474 0.940559 0.828167
O O8 0.247556 0.491393 0.521422
O O9 0.192781 0.360489 0.412341
O O10 0.093779 0.598043 0.418034
O O11 0.060863 0.049235 0.576630
O O12 0.246013 0.262832 0.575725
O O13 0.368845 0.062661 0.639966
O O14 0.622345 0.861597 0.623396
O O15 0.017525 0.143135 0.466127
#
# Coordination Sequence:
#
# PCOD9252275 Si02
#       8
#     4   4   4   4   4   2   4   4
#     4  12  26  47  75 105 152 201 252 316 381 458
#     4  12  25  43  70 107 138 193 248 308 367 453
#     4  11  23  46  73 104 141 189 251 304 386 452
#     4  12  27  48  72 112 151 201 251 316 391 459
#     4  12  28  47  75 109 152 204 255 314 388 471
#     4  12  26  50  76 110 156 200 256 318 394 456
#     4  11  25  45  71 104 147 188 242 317 374 454
#     4  12  24  51  74 108 151 200 257 309 390 460
#
# _framework density 23.619883000000002
#
# number of rings (size 3 to 8) (size 9 to 14) (size 15 to 20)
#    0.000    0.267    5.333    3.600    3.733    0.533 
#    4.800    0.000    0.000    0.000    0.000    0.000 
#    0.000    0.000    0.000    0.000    0.000    0.000 
#
# Total GULP energy -167254.897420 kJ/mol
# GULP energy per Si atom -5575.163247 kJ/mol
# Density = 2.356612 g / cm^3
# Si number density = 23.619883 Si / 1000 Ang^3
#
#
#
# Elastic Constant Matrix: (Units=GPa)
#
#
# Indices 1 2 3 4 5 6 
#
# 1 77.5239 40.3731 26.9846 0.0000 19.6239 0.0000
# 2 40.3731 118.3276 17.6903 0.0000 33.8081 0.0000
# 3 26.9846 17.6903 101.2247 0.0000 44.5891 0.0000
# 4 0.0000 0.0000 0.0000 37.5848 0.0000 6.0060
# 5 19.6239 33.8081 44.5891 0.0000 43.9733 0.0000
# 6 0.0000 0.0000 0.0000 6.0060 0.0000 42.3301
#
#
#
# Elastic Compliance Matrix: (Units=1/GPa)
#
#
# Indices 1 2 3 4 5 6 
#
# 1 0.016866 -0.005283 -0.003699 0.000000 0.000286 0.000000
# 2 -0.005283 0.013094 0.004547 0.000000 -0.012320 0.000000
# 3 -0.003699 0.004547 0.019668 0.000000 -0.021789 0.000000
# 4 0.000000 0.000000 0.000000 0.027224 0.000000 -0.003863
# 5 0.000286 -0.012320 -0.021789 0.000000 0.054180 0.000000
# 6 0.000000 0.000000 0.000000 -0.003863 0.000000 0.024172
#
#
# Mechanical properties :
#
#
# Convention : Reuss Voigt Hill
#
# Bulk Modulus (GPa) = 24.53483 51.90801 38.22142
# Shear Modulus (GPa) = 28.14373 38.91284 33.52829
#
# Velocity S-wave (km/s) = 3.45560 4.06330 3.77170
# Velocity P-wave (km/s) = 5.13142 6.63611 5.93167
#
# Compressibility (1/GPa) = 0.04075838
#
# Stress axis : x y z
#
# Youngs Moduli (GPa) = 59.29169 76.37106 50.84305
#
# Poissons Ratio (x) = 0.40349 0.18805
# Poissons Ratio (y) = 0.31325 -0.23118
# Poissons Ratio (z) = 0.21930 -0.34726
#
# Static dielectric constant tensor:
#      x y z
#    x 1.955870 0.000000 -0.062210 
#    y 0.000000 1.918270 0.000000 
#    z -0.062210 0.000000 1.911910 
# 
# From -- ./inp_files/63336.got.cif
#   From: 2010.05.17/outbox.cif.g08.bks.cpg/sg14_32_cif.got.tgz:63336.got - 2010.06.03 17:49:19.
