data_PCOD9252844
_publ_section_title
;
Structure prediction by ZEFSAII (Michael W. Deem and Ramdas Pophale) SiO2 
 PCOD9252844
Probable space group: P 21/C
;
_chemical_formula_sum "Si O2"
_cell_formula_units_Z 20
_cell_length_a 8.834702
_cell_length_b 5.467816
_cell_length_c 15.685536
_cell_angle_alpha 90.000000
_cell_angle_beta 79.883662
_cell_angle_gamma 90.000000
_cell_volume 745.933662
_symmetry_space_group_name_H-M "P 21/C"
_symmetry_group_IT_number 14
_symmetry_cell_setting 'monoclinic'
loop_
_space_group_symop_operation_xyz
x,y,z
-x,1/2+y,1/2-z
-x,-y,-z
x,1/2-y,1/2+z
loop_
_atom_site_type_symbol
_atom_site_label
_atom_site_fract_x
_atom_site_fract_y
_atom_site_fract_z
Si Si1 0.760613 0.077916 0.466516
Si Si2 0.093415 0.452004 0.755856
Si Si3 0.096575 0.269333 0.427212
Si Si4 0.380303 0.700757 0.674502
Si Si5 0.654144 0.368984 0.629320
O O1 0.683648 0.092244 0.382210
O O2 0.649786 0.184829 0.550612
O O3 0.913214 0.252388 0.449443
O O4 0.828637 0.822456 0.492597
O O5 0.137297 0.430455 0.850965
O O6 0.248932 0.492001 0.688547
O O7 0.007141 0.197758 0.745437
O O8 0.175738 0.513333 0.386350
O O9 0.537774 0.592657 0.624723
O O10 0.391316 0.779787 0.771911
#
# Coordination Sequence:
#
# PCOD9252844 Si02
#       5
#     4   4   4   4   4
#     4  11  26  47  76 115 146 209 264 326 398 475
#     4  12  25  47  79 116 154 210 270 327 397 474
#     4  11  25  48  76 113 154 199 266 333 390 485
#     4  12  27  48  79 110 155 212 256 333 397 478
#     4  12  27  52  71 113 159 201 267 325 406 473
#
# _framework density 26.812035000000002
#
# number of rings (size 3 to 8) (size 9 to 14) (size 15 to 20)
#    0.000    0.400    4.000    3.600    0.000    4.000 
#    3.600    0.000    0.000    0.000    0.000    0.000 
#    0.000    0.000    0.000    0.000    0.000    0.000 
#
# Total GULP energy -112148.368380 kJ/mol
# GULP energy per Si atom -5607.418419 kJ/mol
# Density = 2.675101 g / cm^3
# Si number density = 26.812035 Si / 1000 Ang^3
#
#
#
# Elastic Constant Matrix: (Units=GPa)
#
#
# Indices 1 2 3 4 5 6 
#
# 1 44.3811 6.5977 5.9049 0.0000 -11.3586 0.0000
# 2 6.5977 96.7267 6.3060 0.0000 -1.1456 0.0000
# 3 5.9049 6.3060 114.1996 0.0000 8.7155 0.0000
# 4 0.0000 0.0000 0.0000 45.4994 0.0000 -9.9256
# 5 -11.3586 -1.1456 8.7155 0.0000 32.6057 0.0000
# 6 0.0000 0.0000 0.0000 -9.9256 0.0000 42.8425
#
#
#
# Elastic Compliance Matrix: (Units=1/GPa)
#
#
# Indices 1 2 3 4 5 6 
#
# 1 0.025396 -0.001495 -0.001941 0.000000 0.009314 0.000000
# 2 -0.001495 0.010473 -0.000499 0.000000 -0.000019 0.000000
# 3 -0.001941 -0.000499 0.009124 0.000000 -0.003133 0.000000
# 4 0.000000 0.000000 0.000000 0.023148 0.000000 0.005363
# 5 0.009314 -0.000019 -0.003133 0.000000 0.034751 0.000000
# 6 0.000000 0.000000 0.000000 0.005363 0.000000 0.024584
#
#
# Mechanical properties :
#
#
# Convention : Reuss Voigt Hill
#
# Bulk Modulus (GPa) = 26.93951 32.54717 29.74334
# Shear Modulus (GPa) = 33.84755 39.95613 36.90184
#
# Velocity S-wave (km/s) = 3.55688 3.86454 3.71390
# Velocity P-wave (km/s) = 5.19017 5.66377 5.43213
#
# Compressibility (1/GPa) = 0.03712020
#
# Stress axis : x y z
#
# Youngs Moduli (GPa) = 39.37573 95.48598 109.60546
#
# Poissons Ratio (x) = 0.14279 0.21278
# Poissons Ratio (y) = 0.05888 0.05475
# Poissons Ratio (z) = 0.07644 0.04769
#
# Static dielectric constant tensor:
#      x y z
#    x 2.074350 0.000000 0.029640 
#    y 0.000000 2.115880 0.000000 
#    z 0.029640 0.000000 2.074370 
# 
# From -- ./inp_files/53969.got.cif
#   From: 2010.05.17/outbox.cif.g08.bks.cpg/sg14_27_cif.got.tgz:53969.got - 2010.06.03 17:49:19.
