data_PCOD9252790
_publ_section_title
;
Structure prediction by ZEFSAII (Michael W. Deem and Ramdas Pophale) SiO2 
 PCOD9252790
Probable space group: P 21/C
;
_chemical_formula_sum "Si O2"
_cell_formula_units_Z 28
_cell_length_a 5.812845
_cell_length_b 17.421657
_cell_length_c 11.977801
_cell_angle_alpha 90.000000
_cell_angle_beta 72.016765
_cell_angle_gamma 90.000000
_cell_volume 1153.726557
_symmetry_space_group_name_H-M "P 21/C"
_symmetry_group_IT_number 14
_symmetry_cell_setting 'monoclinic'
loop_
_space_group_symop_operation_xyz
x,y,z
-x,1/2+y,1/2-z
-x,-y,-z
x,1/2-y,1/2+z
loop_
_atom_site_type_symbol
_atom_site_label
_atom_site_fract_x
_atom_site_fract_y
_atom_site_fract_z
Si Si1 0.546534 0.667616 0.860967
Si Si2 0.238262 0.741237 0.728414
Si Si3 0.412162 0.896149 0.611027
Si Si4 0.944180 0.863913 0.128631
Si Si5 0.253266 0.495793 0.608763
Si Si6 0.783562 0.816668 0.917075
Si Si7 0.896331 0.526872 0.135801
O O1 0.354204 0.681258 0.794304
O O2 0.594746 0.753264 0.903111
O O3 0.777194 0.633124 0.762873
O O4 0.470355 0.613020 0.971651
O O5 0.399873 0.811729 0.666263
O O6 0.147059 0.697155 0.632764
O O7 0.025746 0.780531 0.830775
O O8 0.646958 0.931560 0.634783
O O9 0.142288 0.933831 0.652960
O O10 0.062257 0.945414 0.080381
O O11 0.797099 0.827927 0.047941
O O12 0.500000 0.500000 0.500000
O O13 0.229162 0.403830 0.622865
O O14 0.214738 0.521873 0.743694
O O15 0.000000 0.500000 0.000000
#
# Coordination Sequence:
#
# PCOD9252790 Si02
#       7
#     4   4   4   4   4   4   4
#     4  11  26  45  78 109 150 201 262 327 389 467
#     4  11  25  46  74 107 152 195 262 319 392 463
#     4  12  27  47  81 109 155 203 262 320 396 463
#     4  11  27  46  73 110 150 198 259 320 390 469
#     4  12  29  48  76 112 157 206 257 317 396 476
#     4  11  25  47  72 108 153 198 255 320 396 463
#     4  12  29  53  79 115 156 206 260 329 394 471
#
# _framework density 24.269183999999999
#
# number of rings (size 3 to 8) (size 9 to 14) (size 15 to 20)
#    0.000    0.571    1.429    4.286   18.000    1.143 
#    0.000    0.000    0.000    0.000    0.000    0.000 
#    0.000    0.000    0.000    0.000    0.000    0.000 
#
# Total GULP energy -156348.546855 kJ/mol
# GULP energy per Si atom -5583.876673 kJ/mol
# Density = 2.421395 g / cm^3
# Si number density = 24.269184 Si / 1000 Ang^3
#
#
#
# Elastic Constant Matrix: (Units=GPa)
#
#
# Indices 1 2 3 4 5 6 
#
# 1 116.6316 66.1699 40.6111 0.0000 -7.0108 0.0000
# 2 66.1699 112.6163 36.7467 0.0000 -12.4512 0.0000
# 3 40.6111 36.7467 153.5232 0.0000 -10.8968 0.0000
# 4 0.0000 0.0000 0.0000 43.2817 0.0000 5.2824
# 5 -7.0108 -12.4512 -10.8968 0.0000 42.9285 0.0000
# 6 0.0000 0.0000 0.0000 5.2824 0.0000 41.1179
#
#
#
# Elastic Compliance Matrix: (Units=1/GPa)
#
#
# Indices 1 2 3 4 5 6 
#
# 1 0.013305 -0.007272 -0.001807 0.000000 -0.000395 0.000000
# 2 -0.007272 0.013824 -0.001207 0.000000 0.002516 0.000000
# 3 -0.001807 -0.001207 0.007367 0.000000 0.001225 0.000000
# 4 0.000000 0.000000 0.000000 0.023473 0.000000 -0.003016
# 5 -0.000395 0.002516 0.001225 0.000000 0.024271 0.000000
# 6 0.000000 0.000000 0.000000 -0.003016 0.000000 0.024708
#
#
# Mechanical properties :
#
#
# Convention : Reuss Voigt Hill
#
# Bulk Modulus (GPa) = 71.80949 74.42516 73.11733
# Shear Modulus (GPa) = 37.83281 41.41518 39.62399
#
# Velocity S-wave (km/s) = 3.95255 4.13545 4.04504
# Velocity P-wave (km/s) = 7.10515 7.31681 7.21176
#
# Compressibility (1/GPa) = 0.01392574
#
# Stress axis : x y z
#
# Youngs Moduli (GPa) = 75.15992 72.33683 135.73143
#
# Poissons Ratio (x) = 0.52601 0.24527
# Poissons Ratio (y) = 0.54653 0.16380
# Poissons Ratio (z) = 0.13582 0.08730
#
# Static dielectric constant tensor:
#      x y z
#    x 2.228800 0.000000 -0.234770 
#    y 0.000000 1.932120 0.000000 
#    z -0.234770 0.000000 2.200890 
# 
# From -- ./inp_files/21528.got.cif
#   From: 2010.05.17/outbox.cif.g08.bks.cpg/sg14_11_cif.got.tgz:21528.got - 2010.06.03 17:49:19.
