data_PCOD9252076
_publ_section_title
;
Structure prediction by ZEFSAII (Michael W. Deem and Ramdas Pophale) SiO2 
 PCOD9252076
Probable space group: P 21/C
;
_chemical_formula_sum "Si O2"
_cell_formula_units_Z 26
_cell_length_a 14.053159
_cell_length_b 9.686179
_cell_length_c 14.951789
_cell_angle_alpha 90.000000
_cell_angle_beta 31.959745
_cell_angle_gamma 90.000000
_cell_volume 1077.309847
_symmetry_space_group_name_H-M "P 21/C"
_symmetry_group_IT_number 14
_symmetry_cell_setting 'monoclinic'
loop_
_space_group_symop_operation_xyz
x,y,z
-x,1/2+y,1/2-z
-x,-y,-z
x,1/2-y,1/2+z
loop_
_atom_site_type_symbol
_atom_site_label
_atom_site_fract_x
_atom_site_fract_y
_atom_site_fract_z
Si Si1 0.692316 0.686756 0.147733
Si Si2 0.000000 0.500000 0.000000
Si Si3 0.537777 0.151569 0.005797
Si Si4 0.104594 0.744460 0.046993
Si Si5 0.194171 0.859244 0.660513
Si Si6 0.865132 0.966072 0.026336
Si Si7 0.294202 0.342919 0.075429
O O1 0.524305 0.644081 0.342200
O O2 0.856254 0.592111 0.052246
O O3 0.725023 0.845516 0.152971
O O4 0.672882 0.677276 0.056586
O O5 0.065083 0.642009 0.998313
O O6 0.419336 0.250089 0.037546
O O7 0.734915 0.220079 0.849000
O O8 0.500000 0.000000 0.000000
O O9 0.199562 0.665198 0.051081
O O10 0.911011 0.796944 0.239007
O O11 0.208866 0.884168 0.939019
O O12 0.993087 0.899288 0.848610
O O13 0.308485 0.995818 0.589622
O O14 0.000000 0.000000 0.000000
#
# Coordination Sequence:
#
# PCOD9252076 Si02
#       7
#     4   2   4   4   4   4   4
#     4  12  25  44  74 104 145 187 240 301 358 441
#     4  12  22  44  74 106 144 180 252 296 362 418
#     4  12  30  48  68 106 151 191 244 304 370 432
#     4  11  23  42  76 110 138 186 241 300 359 433
#     4  11  25  46  71 103 146 189 228 305 368 423
#     4  11  23  42  71 106 135 180 235 287 352 436
#     4  11  24  47  73 103 146 192 243 298 364 436
#
# _framework density 24.134188999999999
#
# number of rings (size 3 to 8) (size 9 to 14) (size 15 to 20)
#    0.000    0.615    6.154    1.385    4.308    1.231 
#    2.769    0.000    0.000    0.000    0.000    0.000 
#    0.000    0.000    0.000    0.000    0.000    0.000 
#
# Total GULP energy -145026.185621 kJ/mol
# GULP energy per Si atom -5577.930216 kJ/mol
# Density = 2.407926 g / cm^3
# Si number density = 24.134189 Si / 1000 Ang^3
#
#
#
# Elastic Constant Matrix: (Units=GPa)
#
#
# Indices 1 2 3 4 5 6 
#
# 1 76.7836 20.3526 12.8098 0.0000 11.0244 0.0000
# 2 20.3526 170.8122 36.7854 0.0000 6.1893 0.0000
# 3 12.8098 36.7854 50.0563 0.0000 17.6968 0.0000
# 4 0.0000 0.0000 0.0000 16.3181 0.0000 6.7589
# 5 11.0244 6.1893 17.6968 0.0000 29.0009 0.0000
# 6 0.0000 0.0000 0.0000 6.7589 0.0000 41.2743
#
#
#
# Elastic Compliance Matrix: (Units=1/GPa)
#
#
# Indices 1 2 3 4 5 6 
#
# 1 0.014189 -0.001290 -0.001114 0.000000 -0.004439 0.000000
# 2 -0.001290 0.007173 -0.005831 0.000000 0.002518 0.000000
# 3 -0.001114 -0.005831 0.030548 0.000000 -0.016973 0.000000
# 4 0.000000 0.000000 0.000000 0.065740 0.000000 -0.010765
# 5 -0.004439 0.002518 -0.016973 0.000000 0.045989 0.000000
# 6 0.000000 0.000000 0.000000 -0.010765 0.000000 0.025991
#
#
# Mechanical properties :
#
#
# Convention : Reuss Voigt Hill
#
# Bulk Modulus (GPa) = 28.21668 48.61641 38.41655
# Shear Modulus (GPa) = 22.94496 32.49896 27.72196
#
# Velocity S-wave (km/s) = 3.08673 3.67358 3.39286
# Velocity P-wave (km/s) = 4.94174 6.17912 5.59474
#
# Compressibility (1/GPa) = 0.03544003
#
# Stress axis : x y z
#
# Youngs Moduli (GPa) = 70.47895 139.41970 32.73510
#
# Poissons Ratio (x) = 0.17984 0.03646
# Poissons Ratio (y) = 0.09091 0.19088
# Poissons Ratio (z) = 0.07850 0.81296
#
# Static dielectric constant tensor:
#      x y z
#    x 1.909050 0.000000 -0.040100 
#    y 0.000000 1.949120 0.000000 
#    z -0.040100 0.000000 2.052340 
# 
# From -- ./inp_files/46396.got.cif
#   From: 2010.05.17/outbox.cif.g08.bks.cpg/sg14_24_cif.got.tgz:46396.got - 2010.06.03 17:49:19.
