data_PCOD9252556
_publ_section_title
;
Structure prediction by ZEFSAII (Michael W. Deem and Ramdas Pophale) SiO2 
 PCOD9252556
Probable space group: P 21/C
;
_chemical_formula_sum "Si O2"
_cell_formula_units_Z 28
_cell_length_a 11.541790
_cell_length_b 7.217406
_cell_length_c 18.280191
_cell_angle_alpha 90.000000
_cell_angle_beta 114.519669
_cell_angle_gamma 90.000000
_cell_volume 1385.447163
_symmetry_space_group_name_H-M "P 21/C"
_symmetry_group_IT_number 14
_symmetry_cell_setting 'monoclinic'
loop_
_space_group_symop_operation_xyz
x,y,z
-x,1/2+y,1/2-z
-x,-y,-z
x,1/2-y,1/2+z
loop_
_atom_site_type_symbol
_atom_site_label
_atom_site_fract_x
_atom_site_fract_y
_atom_site_fract_z
Si Si1 0.605817 0.115778 0.362582
Si Si2 0.552593 0.471419 0.433079
Si Si3 0.163417 0.564966 0.459846
Si Si4 0.835383 0.134733 0.667302
Si Si5 0.106276 0.638199 0.056704
Si Si6 0.587868 0.220848 0.697591
Si Si7 0.028876 0.265581 0.837452
O O1 0.547484 0.259120 0.405469
O O2 0.751054 0.067600 0.420464
O O3 0.614412 0.224814 0.288045
O O4 0.517001 0.939750 0.331848
O O5 0.500000 0.500000 0.500000
O O6 0.703301 0.513960 0.475025
O O7 0.472379 0.601444 0.358553
O O8 0.186862 0.729870 0.407181
O O9 0.096002 0.668298 0.509972
O O10 0.090396 0.406445 0.396630
O O11 0.713515 0.152498 0.688043
O O12 0.959329 0.203130 0.745152
O O13 0.868671 0.926627 0.650953
O O14 0.078500 0.659055 0.135179
O O15 0.000000 0.500000 0.000000
#
# Coordination Sequence:
#
# PCOD9252556 Si02
#       7
#     4   4   4   4   4   4   4
#     4  11  26  46  69 100 139 183 237 280 348 419
#     4  11  25  44  69 100 141 177 224 293 343 408
#     4  11  25  44  67 103 136 176 227 282 347 400
#     4  12  25  43  70 102 137 173 233 279 343 418
#     4  11  24  46  69  99 139 179 230 286 339 414
#     4  12  25  46  70 101 136 184 233 282 345 420
#     4  12  25  45  69  99 134 183 223 284 343 408
#
# _framework density 20.210080999999999
#
# number of rings (size 3 to 8) (size 9 to 14) (size 15 to 20)
#    0.000    0.571    7.143    0.429    4.000    0.571 
#    5.143    0.000    0.000    0.000    0.000    0.000 
#    0.000    0.000    0.000    0.000    0.000    0.000 
#
# Total GULP energy -156558.872559 kJ/mol
# GULP energy per Si atom -5591.388306 kJ/mol
# Density = 2.016408 g / cm^3
# Si number density = 20.210081 Si / 1000 Ang^3
#
#
#
# Elastic Constant Matrix: (Units=GPa)
#
#
# Indices 1 2 3 4 5 6 
#
# 1 77.7437 45.1964 8.3295 0.0000 6.8818 0.0000
# 2 45.1964 65.1865 4.3502 0.0000 17.8476 0.0000
# 3 8.3295 4.3502 62.8169 0.0000 3.7270 0.0000
# 4 0.0000 0.0000 0.0000 31.1800 0.0000 -0.2519
# 5 6.8818 17.8476 3.7270 0.0000 42.4806 0.0000
# 6 0.0000 0.0000 0.0000 -0.2519 0.0000 35.0981
#
#
#
# Elastic Compliance Matrix: (Units=1/GPa)
#
#
# Indices 1 2 3 4 5 6 
#
# 1 0.022179 -0.016168 -0.002022 0.000000 0.003377 0.000000
# 2 -0.016168 0.029157 0.000700 0.000000 -0.009692 0.000000
# 3 -0.002022 0.000700 0.016221 0.000000 -0.001390 0.000000
# 4 0.000000 0.000000 0.000000 0.032074 0.000000 0.000230
# 5 0.003377 -0.009692 -0.001390 0.000000 0.027187 0.000000
# 6 0.000000 0.000000 0.000000 0.000230 0.000000 0.028493
#
#
# Mechanical properties :
#
#
# Convention : Reuss Voigt Hill
#
# Bulk Modulus (GPa) = 30.69482 35.72216 33.20849
# Shear Modulus (GPa) = 24.85698 31.60982 28.23340
#
# Velocity S-wave (km/s) = 3.51084 3.95911 3.74170
# Velocity P-wave (km/s) = 5.62632 6.21395 5.92743
#
# Compressibility (1/GPa) = 0.03257879
#
# Stress axis : x y z
#
# Youngs Moduli (GPa) = 45.08670 34.29690 61.64716
#
# Poissons Ratio (x) = 0.55450 0.12463
# Poissons Ratio (y) = 0.72894 -0.04313
# Poissons Ratio (z) = 0.09115 -0.02400
#
# Static dielectric constant tensor:
#      x y z
#    x 1.710620 0.000000 -0.001100 
#    y 0.000000 1.702970 0.000000 
#    z -0.001100 0.000000 1.711170 
# 
# From -- ./inp_files/66558.got.cif
#   From: 2010.05.17/outbox.cif.g08.bks.cpg/sg14_34_cif.got.tgz:66558.got - 2010.06.03 17:49:19.
