data_PCOD9252751
_publ_section_title
;
Structure prediction by ZEFSAII (Michael W. Deem and Ramdas Pophale) SiO2 
 PCOD9252751
Probable space group: P 21/C
;
_chemical_formula_sum "Si O2"
_cell_formula_units_Z 24
_cell_length_a 22.477011
_cell_length_b 7.196611
_cell_length_c 10.702886
_cell_angle_alpha 90.000000
_cell_angle_beta 33.643118
_cell_angle_gamma 90.000000
_cell_volume 959.161028
_symmetry_space_group_name_H-M "P 21/C"
_symmetry_group_IT_number 14
_symmetry_cell_setting 'monoclinic'
loop_
_space_group_symop_operation_xyz
x,y,z
-x,1/2+y,1/2-z
-x,-y,-z
x,1/2-y,1/2+z
loop_
_atom_site_type_symbol
_atom_site_label
_atom_site_fract_x
_atom_site_fract_y
_atom_site_fract_z
Si Si1 0.552978 0.663576 0.069434
Si Si2 0.570885 0.234742 0.961845
Si Si3 0.110687 0.323775 0.224138
Si Si4 0.809675 0.300420 0.995401
Si Si5 0.878436 0.338935 0.124941
Si Si6 0.211483 0.236992 0.296739
O O1 0.479955 0.654072 0.321828
O O2 0.498695 0.764418 0.044500
O O3 0.583919 0.455061 0.971074
O O4 0.661092 0.765002 0.922705
O O5 0.686106 0.142968 0.731332
O O6 0.173864 0.351096 0.242493
O O7 0.001280 0.212334 0.434025
O O8 0.104743 0.535962 0.186134
O O9 0.173497 0.218488 0.003457
O O10 0.844633 0.213234 0.065431
O O11 0.813131 0.180965 0.865630
O O12 0.846015 0.541926 0.134645
#
# Coordination Sequence:
#
# PCOD9252751 Si02
#       6
#     4   4   4   4   4   4
#     4  11  27  47  76 110 153 196 251 308 385 446
#     4  11  27  48  76 109 152 197 249 316 374 455
#     4  11  25  45  73 106 147 197 251 306 368 445
#     4  11  26  45  74 109 147 195 252 305 380 441
#     4  11  25  46  71 106 151 192 251 307 371 443
#     4  11  26  45  73 110 147 197 249 305 374 450
#
# _framework density 25.021867
#
# number of rings (size 3 to 8) (size 9 to 14) (size 15 to 20)
#    0.000    1.000    0.000    4.000   16.333    3.333 
#    0.000    0.000    0.000    0.000    0.000    0.000 
#    0.000    0.000    0.000    0.000    0.000    0.000 
#
# Total GULP energy -134236.093624 kJ/mol
# GULP energy per Si atom -5593.170568 kJ/mol
# Density = 2.496492 g / cm^3
# Si number density = 25.021867 Si / 1000 Ang^3
#
#
#
# Elastic Constant Matrix: (Units=GPa)
#
#
# Indices 1 2 3 4 5 6 
#
# 1 184.5761 35.4168 58.3689 0.0000 11.4196 0.0000
# 2 35.4168 56.8708 22.6495 0.0000 3.6523 0.0000
# 3 58.3689 22.6495 165.5080 0.0000 6.0277 0.0000
# 4 0.0000 0.0000 0.0000 13.7472 0.0000 3.6409
# 5 11.4196 3.6523 6.0277 0.0000 63.8567 0.0000
# 6 0.0000 0.0000 0.0000 3.6409 0.0000 35.5952
#
#
#
# Elastic Compliance Matrix: (Units=1/GPa)
#
#
# Indices 1 2 3 4 5 6 
#
# 1 0.006710 -0.003379 -0.001874 0.000000 -0.000830 0.000000
# 2 -0.003379 0.020343 -0.001577 0.000000 -0.000410 0.000000
# 3 -0.001874 -0.001577 0.006927 0.000000 -0.000229 0.000000
# 4 0.000000 0.000000 0.000000 0.074767 0.000000 -0.007648
# 5 -0.000830 -0.000410 -0.000229 0.000000 0.015854 0.000000
# 6 0.000000 0.000000 0.000000 -0.007648 0.000000 0.028876
#
#
# Mechanical properties :
#
#
# Convention : Reuss Voigt Hill
#
# Bulk Modulus (GPa) = 49.21405 71.09167 60.15286
# Shear Modulus (GPa) = 28.75049 42.00779 35.37914
#
# Velocity S-wave (km/s) = 3.39339 4.10181 3.76430
# Velocity P-wave (km/s) = 5.92153 7.13489 6.55634
#
# Compressibility (1/GPa) = 0.02031940
#
# Stress axis : x y z
#
# Youngs Moduli (GPa) = 149.02862 49.15777 144.36323
#
# Poissons Ratio (x) = 0.16612 0.27050
# Poissons Ratio (y) = 0.50360 0.22769
# Poissons Ratio (z) = 0.27924 0.07753
#
# Static dielectric constant tensor:
#      x y z
#    x 2.075010 0.000000 0.064510 
#    y 0.000000 1.853080 0.000000 
#    z 0.064510 0.000000 1.956840 
# 
# From -- ./inp_files/35673.got.cif
#   From: 2010.05.17/outbox.cif.g08.bks.cpg/sg14_18_cif.got.tgz:35673.got - 2010.06.03 17:49:19.
