data_PCOD9252486
_publ_section_title
;
Structure prediction by ZEFSAII (Michael W. Deem and Ramdas Pophale) SiO2 
 PCOD9252486
Probable space group: P 21/C
;
_chemical_formula_sum "Si O2"
_cell_formula_units_Z 32
_cell_length_a 10.305093
_cell_length_b 8.550821
_cell_length_c 24.007601
_cell_angle_alpha 90.000000
_cell_angle_beta 142.428616
_cell_angle_gamma 90.000000
_cell_volume 1289.911354
_symmetry_space_group_name_H-M "P 21/C"
_symmetry_group_IT_number 14
_symmetry_cell_setting 'monoclinic'
loop_
_space_group_symop_operation_xyz
x,y,z
-x,1/2+y,1/2-z
-x,-y,-z
x,1/2-y,1/2+z
loop_
_atom_site_type_symbol
_atom_site_label
_atom_site_fract_x
_atom_site_fract_y
_atom_site_fract_z
Si Si1 0.803886 0.906555 0.409515
Si Si2 0.265808 0.619666 0.872586
Si Si3 0.387810 0.435500 0.360379
Si Si4 0.122012 0.257663 0.186031
Si Si5 0.837897 0.229934 0.273908
Si Si6 0.763147 0.559750 0.431112
Si Si7 0.689436 0.724318 0.064351
Si Si8 0.638717 0.472410 0.270434
O O1 0.850333 0.854762 0.361619
O O2 0.768940 0.746672 0.431957
O O3 0.586350 0.004658 0.334866
O O4 0.000000 0.000000 0.500000
O O5 0.171818 0.644919 0.779622
O O6 0.308290 0.437957 0.899335
O O7 0.098064 0.695080 0.859105
O O8 0.490884 0.707174 0.955914
O O9 0.310230 0.297783 0.293148
O O10 0.243626 0.576453 0.286117
O O11 0.633859 0.484716 0.437878
O O12 0.339705 0.372505 0.405319
O O13 0.166287 0.079744 0.183597
O O14 0.688477 0.293804 0.271567
O O15 0.073165 0.221559 0.378546
O O16 0.627216 0.501825 0.331708
O O17 0.000000 0.500000 0.500000
#
# Coordination Sequence:
#
# PCOD9252486 Si02
#       8
#     4   4   4   4   4   4   4   4
#     4  11  26  46  71 107 142 191 244 303 371 438
#     4  11  26  47  67 106 139 187 253 287 369 427
#     4  12  24  44  73 100 144 184 239 295 371 423
#     4  11  24  44  73  97 140 190 235 302 361 434
#     4  12  24  46  70 103 141 190 237 298 363 433
#     4  11  27  47  70 111 145 187 245 307 367 443
#     4  11  25  44  73  99 143 188 235 302 351 440
#     4  11  26  46  73 101 145 191 241 299 371 437
#
# _framework density 24.807905000000002
#
# number of rings (size 3 to 8) (size 9 to 14) (size 15 to 20)
#    0.000    0.750    5.000    0.750    7.000    4.500 
#    0.000    0.000    0.000    0.000    0.000    0.000 
#    0.000    0.000    0.000    0.000    0.000    0.000 
#
# Total GULP energy -179237.969829 kJ/mol
# GULP energy per Si atom -5601.186557 kJ/mol
# Density = 2.475144 g / cm^3
# Si number density = 24.807905 Si / 1000 Ang^3
#
#
#
# Elastic Constant Matrix: (Units=GPa)
#
#
# Indices 1 2 3 4 5 6 
#
# 1 70.9205 28.6492 25.6502 0.0000 13.5991 0.0000
# 2 28.6492 76.2400 28.3108 0.0000 4.9436 0.0000
# 3 25.6502 28.3108 147.6227 0.0000 36.5469 0.0000
# 4 0.0000 0.0000 0.0000 34.8593 0.0000 1.9606
# 5 13.5991 4.9436 36.5469 0.0000 43.2365 0.0000
# 6 0.0000 0.0000 0.0000 1.9606 0.0000 41.1165
#
#
#
# Elastic Compliance Matrix: (Units=1/GPa)
#
#
# Indices 1 2 3 4 5 6 
#
# 1 0.017648 -0.006034 -0.000893 0.000000 -0.004106 0.000000
# 2 -0.006034 0.016210 -0.002619 0.000000 0.002259 0.000000
# 3 -0.000893 -0.002619 0.009217 0.000000 -0.007210 0.000000
# 4 0.000000 0.000000 0.000000 0.028764 0.000000 -0.001372
# 5 -0.004106 0.002259 -0.007210 0.000000 0.030257 0.000000
# 6 0.000000 0.000000 0.000000 -0.001372 0.000000 0.024387
#
#
# Mechanical properties :
#
#
# Convention : Reuss Voigt Hill
#
# Bulk Modulus (GPa) = 41.69705 51.11152 46.40428
# Shear Modulus (GPa) = 32.55882 37.98732 35.27307
#
# Velocity S-wave (km/s) = 3.62669 3.91738 3.77483
# Velocity P-wave (km/s) = 5.86358 6.41161 6.14371
#
# Compressibility (1/GPa) = 0.02398251
#
# Stress axis : x y z
#
# Youngs Moduli (GPa) = 56.66346 61.68970 108.50059
#
# Poissons Ratio (x) = 0.37224 0.09685
# Poissons Ratio (y) = 0.34191 0.28422
# Poissons Ratio (z) = 0.05058 0.16160
#
# Static dielectric constant tensor:
#      x y z
#    x 1.976820 0.000000 0.015430 
#    y 0.000000 1.991940 0.000000 
#    z 0.015430 0.000000 1.913100 
# 
# From -- ./inp_files/80028.got.cif
#   From: 2010.05.17/outbox.cif.g08.bks.cpg/sg14_41_cif.got.tgz:80028.got - 2010.06.03 17:49:19.
