data_PCOD9252798
_publ_section_title
;
Structure prediction by ZEFSAII (Michael W. Deem and Ramdas Pophale) SiO2 
 PCOD9252798
Probable space group: P 21/C
;
_chemical_formula_sum "Si O2"
_cell_formula_units_Z 24
_cell_length_a 9.241316
_cell_length_b 13.676483
_cell_length_c 17.062944
_cell_angle_alpha 90.000000
_cell_angle_beta 29.445033
_cell_angle_gamma 90.000000
_cell_volume 1060.141417
_symmetry_space_group_name_H-M "P 21/C"
_symmetry_group_IT_number 14
_symmetry_cell_setting 'monoclinic'
loop_
_space_group_symop_operation_xyz
x,y,z
-x,1/2+y,1/2-z
-x,-y,-z
x,1/2-y,1/2+z
loop_
_atom_site_type_symbol
_atom_site_label
_atom_site_fract_x
_atom_site_fract_y
_atom_site_fract_z
Si Si1 0.362201 0.760899 0.909167
Si Si2 0.900943 0.720945 0.244669
Si Si3 0.150675 0.905767 0.390041
Si Si4 0.702118 0.634460 0.963155
Si Si5 0.260096 0.987231 0.939689
Si Si6 0.921218 0.044158 0.255391
O O1 0.218765 0.750805 0.063273
O O2 0.702492 0.741665 0.766572
O O3 0.226105 0.680966 0.915504
O O4 0.341999 0.873038 0.894246
O O5 0.787017 0.766969 0.378463
O O6 0.910379 0.605820 0.257077
O O7 0.459972 0.944097 0.209297
O O8 0.912408 0.871674 0.438714
O O9 0.000000 0.000000 0.500000
O O10 0.795402 0.551471 0.856524
O O11 0.358136 0.610649 0.141257
O O12 0.127024 0.013650 0.087138
O O13 0.000000 0.000000 0.000000
#
# Coordination Sequence:
#
# PCOD9252798 Si02
#       6
#     4   4   4   4   4   4
#     4  12  26  49  72 107 149 195 246 305 377 442
#     4  12  25  46  76 106 144 193 241 308 373 442
#     4  12  28  48  75 109 152 201 246 311 372 442
#     4  11  25  47  75 109 145 190 245 304 374 446
#     4  12  27  46  75 108 150 198 250 306 373 448
#     4  11  25  46  77 107 148 191 248 308 371 449
#
# _framework density 22.638490999999998
#
# number of rings (size 3 to 8) (size 9 to 14) (size 15 to 20)
#    0.000    0.333    3.333    5.000    7.000    1.333 
#    0.000    0.000    0.000    0.000    0.000    0.000 
#    0.000    0.000    0.000    0.000    0.000    0.000 
#
# Total GULP energy -134281.406714 kJ/mol
# GULP energy per Si atom -5595.058613 kJ/mol
# Density = 2.258696 g / cm^3
# Si number density = 22.638491 Si / 1000 Ang^3
#
#
#
# Elastic Constant Matrix: (Units=GPa)
#
#
# Indices 1 2 3 4 5 6 
#
# 1 110.5216 10.6531 36.6674 0.0000 -16.5176 0.0000
# 2 10.6531 71.7730 25.1009 0.0000 -3.7816 0.0000
# 3 36.6674 25.1009 104.6089 0.0000 -4.1275 0.0000
# 4 0.0000 0.0000 0.0000 31.2413 0.0000 1.4932
# 5 -16.5176 -3.7816 -4.1275 0.0000 22.9457 0.0000
# 6 0.0000 0.0000 0.0000 1.4932 0.0000 43.3376
#
#
#
# Elastic Compliance Matrix: (Units=1/GPa)
#
#
# Indices 1 2 3 4 5 6 
#
# 1 0.011403 -0.000001 -0.003699 0.000000 0.007543 0.000000
# 2 -0.000001 0.015289 -0.003594 0.000000 0.001872 0.000000
# 3 -0.003699 -0.003594 0.011673 0.000000 -0.001155 0.000000
# 4 0.000000 0.000000 0.000000 0.032062 0.000000 -0.001105
# 5 0.007543 0.001872 -0.001155 0.000000 0.049112 0.000000
# 6 0.000000 0.000000 0.000000 -0.001105 0.000000 0.023113
#
#
# Mechanical properties :
#
#
# Convention : Reuss Voigt Hill
#
# Bulk Modulus (GPa) = 42.06089 47.97181 45.01635
# Shear Modulus (GPa) = 30.27299 33.80372 32.03836
#
# Velocity S-wave (km/s) = 3.66079 3.86838 3.76602
# Velocity P-wave (km/s) = 6.04055 6.41786 6.23206
#
# Compressibility (1/GPa) = 0.02377506
#
# Stress axis : x y z
#
# Youngs Moduli (GPa) = 87.69970 65.40812 85.66953
#
# Poissons Ratio (x) = 0.00010 0.31688
# Poissons Ratio (y) = 0.00013 0.30791
# Poissons Ratio (z) = 0.32439 0.23509
#
# Static dielectric constant tensor:
#      x y z
#    x 1.849970 0.000000 -0.014220 
#    y 0.000000 1.836890 0.000000 
#    z -0.014220 0.000000 1.808590 
# 
# From -- ./inp_files/55891.got.cif
#   From: 2010.05.17/outbox.cif.g08.bks.cpg/sg14_28_cif.got.tgz:55891.got - 2010.06.03 17:49:19.
