data_PCOD9252621
_publ_section_title
;
Structure prediction by ZEFSAII (Michael W. Deem and Ramdas Pophale) SiO2 
 PCOD9252621
Probable space group: P 21/C
;
_chemical_formula_sum "Si O2"
_cell_formula_units_Z 24
_cell_length_a 9.516886
_cell_length_b 14.037476
_cell_length_c 14.714047
_cell_angle_alpha 90.000000
_cell_angle_beta 35.479285
_cell_angle_gamma 90.000000
_cell_volume 1140.905977
_symmetry_space_group_name_H-M "P 21/C"
_symmetry_group_IT_number 14
_symmetry_cell_setting 'monoclinic'
loop_
_space_group_symop_operation_xyz
x,y,z
-x,1/2+y,1/2-z
-x,-y,-z
x,1/2-y,1/2+z
loop_
_atom_site_type_symbol
_atom_site_label
_atom_site_fract_x
_atom_site_fract_y
_atom_site_fract_z
Si Si1 0.685235 0.082746 0.922070
Si Si2 0.559395 0.217517 0.418822
Si Si3 0.150319 0.778093 0.415326
Si Si4 0.025629 0.417658 0.411970
Si Si5 0.142622 0.401022 0.051792
Si Si6 0.583346 0.098007 0.576495
O O1 0.814580 0.069595 0.949838
O O2 0.554756 0.184544 0.977946
O O3 0.902897 0.078978 0.735465
O O4 0.500000 0.000000 0.000000
O O5 0.716495 0.240899 0.246479
O O6 0.657955 0.138707 0.438022
O O7 0.303629 0.178551 0.517915
O O8 0.018209 0.686743 0.524814
O O9 0.951791 0.856940 0.492251
O O10 0.333447 0.826691 0.390297
O O11 0.000000 0.500000 0.500000
O O12 0.294713 0.417559 0.228762
O O13 0.295364 0.497050 0.965466
#
# Coordination Sequence:
#
# PCOD9252621 Si02
#       6
#     4   4   4   4   4   4
#     4  11  27  45  70 105 140 186 236 288 353 418
#     4  11  24  48  70 100 143 185 236 287 353 417
#     4  11  26  46  71 107 141 183 237 295 346 422
#     4  12  27  44  72 105 145 185 234 295 352 416
#     4  11  25  45  74 102 140 188 230 289 353 423
#     4  12  25  48  73 104 144 187 237 286 361 421
#
# _framework density 21.035913999999998
#
# number of rings (size 3 to 8) (size 9 to 14) (size 15 to 20)
#    0.000    0.667    3.333    3.000    9.333    2.667 
#    3.000    0.000    0.000    0.000    0.000    0.000 
#    0.000    0.000    0.000    0.000    0.000    0.000 
#
# Total GULP energy -134274.581139 kJ/mol
# GULP energy per Si atom -5594.774214 kJ/mol
# Density = 2.098803 g / cm^3
# Si number density = 21.035914 Si / 1000 Ang^3
#
#
#
# Elastic Constant Matrix: (Units=GPa)
#
#
# Indices 1 2 3 4 5 6 
#
# 1 120.4190 38.9969 31.1749 0.0000 -5.3030 0.0000
# 2 38.9969 104.3867 44.8291 0.0000 -19.8824 0.0000
# 3 31.1749 44.8291 69.1980 0.0000 -12.8996 0.0000
# 4 0.0000 0.0000 0.0000 28.2362 0.0000 0.6060
# 5 -5.3030 -19.8824 -12.8996 0.0000 29.7892 0.0000
# 6 0.0000 0.0000 0.0000 0.6060 0.0000 49.3424
#
#
#
# Elastic Compliance Matrix: (Units=1/GPa)
#
#
# Indices 1 2 3 4 5 6 
#
# 1 0.009878 -0.002664 -0.002967 0.000000 -0.001305 0.000000
# 2 -0.002664 0.014904 -0.007277 0.000000 0.006322 0.000000
# 3 -0.002967 -0.007277 0.021211 0.000000 0.003800 0.000000
# 4 0.000000 0.000000 0.000000 0.035425 0.000000 -0.000435
# 5 -0.001305 0.006322 0.003800 0.000000 0.039202 0.000000
# 6 0.000000 0.000000 0.000000 -0.000435 0.000000 0.020272
#
#
# Mechanical properties :
#
#
# Convention : Reuss Voigt Hill
#
# Bulk Modulus (GPa) = 49.56362 58.22285 53.89324
# Shear Modulus (GPa) = 28.82943 33.40706 31.11825
#
# Velocity S-wave (km/s) = 3.70602 3.98942 3.85033
# Velocity P-wave (km/s) = 6.47498 6.99704 6.74106
#
# Compressibility (1/GPa) = 0.02017609
#
# Stress axis : x y z
#
# Youngs Moduli (GPa) = 101.23579 67.09466 47.14634
#
# Poissons Ratio (x) = 0.17877 0.13990
# Poissons Ratio (y) = 0.26973 0.34307
# Poissons Ratio (z) = 0.30040 0.48822
#
# Static dielectric constant tensor:
#      x y z
#    x 1.764660 0.000000 0.031390 
#    y 0.000000 1.738430 0.000000 
#    z 0.031390 0.000000 1.733750 
# 
# From -- ./inp_files/41064.got.cif
#   From: 2010.05.17/outbox.cif.g08.bks.cpg/sg14_21_cif.got.tgz:41064.got - 2010.06.03 17:49:19.
