data_PCOD9252123
_publ_section_title
;
Structure prediction by ZEFSAII (Michael W. Deem and Ramdas Pophale) SiO2 
 PCOD9252123
Probable space group: P 21/C
;
_chemical_formula_sum "Si O2"
_cell_formula_units_Z 24
_cell_length_a 14.070260
_cell_length_b 16.591873
_cell_length_c 9.500899
_cell_angle_alpha 90.000000
_cell_angle_beta 150.552713
_cell_angle_gamma 90.000000
_cell_volume 1090.420702
_symmetry_space_group_name_H-M "P 21/C"
_symmetry_group_IT_number 14
_symmetry_cell_setting 'monoclinic'
loop_
_space_group_symop_operation_xyz
x,y,z
-x,1/2+y,1/2-z
-x,-y,-z
x,1/2-y,1/2+z
loop_
_atom_site_type_symbol
_atom_site_label
_atom_site_fract_x
_atom_site_fract_y
_atom_site_fract_z
Si Si1 0.538069 0.930232 0.224873
Si Si2 0.521189 0.607629 0.294525
Si Si3 0.627625 0.373713 0.195111
Si Si4 0.900136 0.707810 0.863388
Si Si5 0.709286 0.183810 0.289769
Si Si6 0.938223 0.639350 0.225728
O O1 0.478943 0.898716 0.301703
O O2 0.767187 0.924943 0.499807
O O3 0.459993 0.020451 0.110546
O O4 0.441117 0.867533 0.994458
O O5 0.702785 0.663826 0.564060
O O6 0.326199 0.651106 0.099498
O O7 0.490174 0.595530 0.089897
O O8 0.648943 0.276911 0.210107
O O9 0.851697 0.400238 0.489020
O O10 0.896914 0.799626 0.802519
O O11 0.933091 0.691593 0.072505
O O12 0.082802 0.672574 0.012437
#
# Coordination Sequence:
#
# PCOD9252123 Si02
#       6
#     4   4   4   4   4   4
#     4  12  25  44  67 100 140 173 216 274 338 398
#     4  12  27  42  68 102 137 175 216 273 342 390
#     4  11  25  45  67  98 131 178 223 278 323 389
#     4  11  25  43  69 101 128 178 229 273 321 394
#     4  11  23  43  71  94 130 176 228 273 322 389
#     4  11  25  43  70  98 132 174 231 271 324 391
#
# _framework density 22.009853
#
# number of rings (size 3 to 8) (size 9 to 14) (size 15 to 20)
#    0.000    0.667    3.333    4.000    9.333    2.667 
#    0.000    0.000    0.000    0.000    0.000    0.000 
#    0.000    0.000    0.000    0.000    0.000    0.000 
#
# Total GULP energy -134306.946717 kJ/mol
# GULP energy per Si atom -5596.122780 kJ/mol
# Density = 2.195976 g / cm^3
# Si number density = 22.009853 Si / 1000 Ang^3
#
#
#
# Elastic Constant Matrix: (Units=GPa)
#
#
# Indices 1 2 3 4 5 6 
#
# 1 75.5892 22.8999 0.1589 0.0000 9.7301 0.0000
# 2 22.8999 33.6207 -7.1389 0.0000 14.5659 0.0000
# 3 0.1589 -7.1389 65.6958 0.0000 9.7700 0.0000
# 4 0.0000 0.0000 0.0000 10.6233 0.0000 -0.5047
# 5 9.7301 14.5659 9.7700 0.0000 39.2704 0.0000
# 6 0.0000 0.0000 0.0000 -0.5047 0.0000 -1.3528
#
#
#
# Elastic Compliance Matrix: (Units=1/GPa)
#
#
# Indices 1 2 3 4 5 6 
#
# 1 0.016792 -0.012031 -0.001446 0.000000 0.000662 0.000000
# 2 -0.012031 0.046518 0.007484 0.000000 -0.016135 0.000000
# 3 -0.001446 0.007484 0.017028 0.000000 -0.006654 0.000000
# 4 0.000000 0.000000 0.000000 0.092493 0.000000 -0.034509
# 5 0.000662 -0.016135 -0.006654 0.000000 0.032940 0.000000
# 6 0.000000 0.000000 0.000000 -0.034509 0.000000 -0.726315
#
#
# Mechanical properties :
#
#
# Convention : Reuss Voigt Hill
#
# Bulk Modulus (GPa) = 14.63080 22.97174 18.80127
# Shear Modulus (GPa) = -10.29290 20.30723 5.00716
#
# Velocity S-wave (km/s) = -2.16487 3.04080 1.50993
# Velocity P-wave (km/s) = 0.64261 4.77371 3.40597
#
# Compressibility (1/GPa) = 0.06834898
#
# Stress axis : x y z
#
# Youngs Moduli (GPa) = 59.55138 21.49716 58.72717
#
# Poissons Ratio (x) = 0.25864 0.08495
# Poissons Ratio (y) = 0.71649 -0.43949
# Poissons Ratio (z) = 0.08614 -0.16087
#
# Static dielectric constant tensor:
#      x y z
#    x 1.820240 0.000000 -0.021770 
#    y 0.000000 1.791680 0.000000 
#    z -0.021770 0.000000 1.811420 
# 
# From -- ./inp_files/16721.got.cif
#   From: 2010.05.17/outbox.cif.g08.bks.cpg/sg14_9_cif.got.tgz:16721.got - 2010.06.03 17:49:19.
