data_PCOD9252725
_publ_section_title
;
Structure prediction by ZEFSAII (Michael W. Deem and Ramdas Pophale) SiO2 
 PCOD9252725
Probable space group: P 21/C
;
_chemical_formula_sum "Si O2"
_cell_formula_units_Z 32
_cell_length_a 9.025532
_cell_length_b 5.058607
_cell_length_c 30.889948
_cell_angle_alpha 90.000000
_cell_angle_beta 66.206531
_cell_angle_gamma 90.000000
_cell_volume 1290.460481
_symmetry_space_group_name_H-M "P 21/C"
_symmetry_group_IT_number 14
_symmetry_cell_setting 'monoclinic'
loop_
_space_group_symop_operation_xyz
x,y,z
-x,1/2+y,1/2-z
-x,-y,-z
x,1/2-y,1/2+z
loop_
_atom_site_type_symbol
_atom_site_label
_atom_site_fract_x
_atom_site_fract_y
_atom_site_fract_z
Si Si1 0.385786 0.746378 0.504462
Si Si2 0.803100 0.891458 0.641763
Si Si3 0.497704 0.029026 0.814925
Si Si4 0.261133 0.072710 0.635608
Si Si5 0.109921 0.165300 0.741730
Si Si6 0.127551 0.595260 0.606403
Si Si7 0.616126 0.190868 0.593397
Si Si8 0.274549 0.761557 0.777618
O O1 0.500000 0.500000 0.500000
O O2 0.234184 0.709577 0.554235
O O3 0.331335 0.735921 0.460889
O O4 0.500000 0.000000 0.500000
O O5 0.630837 0.764728 0.673286
O O6 0.940097 0.668204 0.619452
O O7 0.760164 0.055594 0.603384
O O8 0.838926 0.092261 0.677073
O O9 0.662801 0.131058 0.774241
O O10 0.460173 0.921763 0.867400
O O11 0.431174 0.812923 0.788887
O O12 0.234901 0.171644 0.687410
O O13 0.185926 0.300095 0.612779
O O14 0.451520 0.022334 0.605805
O O15 0.175653 0.791959 0.639622
O O16 0.019850 0.440396 0.755625
O O17 0.808033 0.536726 0.726036
#
# Coordination Sequence:
#
# PCOD9252725 Si02
#       8
#     4   4   4   4   4   4   4   4
#     4  12  25  51  82 112 147 196 250 317 394 467
#     4  11  27  46  74 110 157 198 255 318 380 447
#     4  11  25  45  71 101 148 200 251 303 366 451
#     4  12  27  47  76 107 153 198 253 313 375 455
#     4  12  29  43  68 107 147 197 250 307 367 446
#     4  12  27  50  76 114 151 196 247 321 394 444
#     4  11  27  47  77 110 142 197 261 311 371 472
#     4  11  25  45  69 101 149 207 252 303 369 452
#
# _framework density 24.797348
#
# number of rings (size 3 to 8) (size 9 to 14) (size 15 to 20)
#    0.000    0.500    3.750    2.250   17.500    0.500 
#    0.000    0.625    0.000    0.000    0.000    0.000 
#    0.000    0.000    0.000    0.000    0.000    0.000 
#
# Total GULP energy -179203.110167 kJ/mol
# GULP energy per Si atom -5600.097193 kJ/mol
# Density = 2.474091 g / cm^3
# Si number density = 24.797348 Si / 1000 Ang^3
#
#
#
# Elastic Constant Matrix: (Units=GPa)
#
#
# Indices 1 2 3 4 5 6 
#
# 1 93.7998 34.9214 31.2353 0.0000 0.8133 0.0000
# 2 34.9214 110.8781 13.1792 0.0000 7.8188 0.0000
# 3 31.2353 13.1792 156.9010 0.0000 12.3239 0.0000
# 4 0.0000 0.0000 0.0000 32.8152 0.0000 4.0618
# 5 0.8133 7.8188 12.3239 0.0000 49.3504 0.0000
# 6 0.0000 0.0000 0.0000 4.0618 0.0000 46.6205
#
#
#
# Elastic Compliance Matrix: (Units=1/GPa)
#
#
# Indices 1 2 3 4 5 6 
#
# 1 0.012853 -0.003842 -0.002313 0.000000 0.000974 0.000000
# 2 -0.003842 0.010338 0.000021 0.000000 -0.001580 0.000000
# 3 -0.002313 0.000021 0.006966 0.000000 -0.001705 0.000000
# 4 0.000000 0.000000 0.000000 0.030806 0.000000 -0.002684
# 5 0.000974 -0.001580 -0.001705 0.000000 0.020923 0.000000
# 6 0.000000 0.000000 0.000000 -0.002684 0.000000 0.021684
#
#
# Mechanical properties :
#
#
# Convention : Reuss Voigt Hill
#
# Bulk Modulus (GPa) = 55.90015 57.80564 56.85289
# Shear Modulus (GPa) = 41.05079 44.57342 42.81210
#
# Velocity S-wave (km/s) = 4.07314 4.24430 4.15960
# Velocity P-wave (km/s) = 6.68673 6.88336 6.78576
#
# Compressibility (1/GPa) = 0.01788904
#
# Stress axis : x y z
#
# Youngs Moduli (GPa) = 77.80308 96.73154 143.55458
#
# Poissons Ratio (x) = 0.37163 0.33198
# Poissons Ratio (y) = 0.29891 -0.00295
# Poissons Ratio (z) = 0.17992 -0.00199
#
# Static dielectric constant tensor:
#      x y z
#    x 2.023830 0.000000 0.038580 
#    y 0.000000 2.029270 0.000000 
#    z 0.038580 0.000000 1.962590 
# 
# From -- ./inp_files/79242.got.cif
#   From: 2010.05.17/outbox.cif.g08.bks.cpg/sg14_40_cif.got.tgz:79242.got - 2010.06.03 17:49:19.
