data_PCOD9252309
_publ_section_title
;
Structure prediction by ZEFSAII (Michael W. Deem and Ramdas Pophale) SiO2 
 PCOD9252309
Probable space group: P 21/C
;
_chemical_formula_sum "Si O2"
_cell_formula_units_Z 26
_cell_length_a 9.387232
_cell_length_b 9.212557
_cell_length_c 13.386969
_cell_angle_alpha 90.000000
_cell_angle_beta 121.277053
_cell_angle_gamma 90.000000
_cell_volume 989.456819
_symmetry_space_group_name_H-M "P 21/C"
_symmetry_group_IT_number 14
_symmetry_cell_setting 'monoclinic'
loop_
_space_group_symop_operation_xyz
x,y,z
-x,1/2+y,1/2-z
-x,-y,-z
x,1/2-y,1/2+z
loop_
_atom_site_type_symbol
_atom_site_label
_atom_site_fract_x
_atom_site_fract_y
_atom_site_fract_z
Si Si1 0.341450 0.228084 0.063450
Si Si2 0.141056 0.926502 0.714382
Si Si3 0.500000 0.000000 0.500000
Si Si4 0.085380 0.247202 0.627237
Si Si5 0.589808 0.326176 0.835367
Si Si6 0.264641 0.901405 0.974029
Si Si7 0.780509 0.905648 0.650570
O O1 0.177059 0.287579 0.058188
O O2 0.479948 0.214910 0.198625
O O3 0.292093 0.069436 0.008463
O O4 0.367728 0.330292 0.973896
O O5 0.233159 0.874181 0.648799
O O6 0.260697 0.898934 0.852525
O O7 0.960372 0.861993 0.675541
O O8 0.092008 0.096276 0.688699
O O9 0.700238 0.060103 0.601738
O O10 0.206101 0.355118 0.732391
O O11 0.913337 0.333383 0.558106
O O12 0.526891 0.451637 0.886760
O O13 0.604658 0.186066 0.911913
#
# Coordination Sequence:
#
# PCOD9252309 Si02
#       7
#     4   4   2   4   4   4   4
#     4  12  26  45  73 108 149 190 244 301 373 433
#     4  11  26  51  77 105 148 196 252 299 378 439
#     4  12  26  48  70 110 144 186 248 300 356 434
#     4  11  23  48  74 107 143 196 244 304 368 431
#     4  12  29  44  76 110 149 195 241 306 371 439
#     4  11  27  47  74 109 148 194 250 301 366 449
#     4  11  25  46  75 105 145 192 244 306 356 441
#
# _framework density 26.277042000000002
#
# number of rings (size 3 to 8) (size 9 to 14) (size 15 to 20)
#    0.000    0.615    3.077    3.231    6.462    2.462 
#    2.769    0.000    0.000    0.000    0.000    0.000 
#    0.000    0.000    0.000    0.000    0.000    0.000 
#
# Total GULP energy -145107.559492 kJ/mol
# GULP energy per Si atom -5581.059980 kJ/mol
# Density = 2.621723 g / cm^3
# Si number density = 26.277042 Si / 1000 Ang^3
#
#
#
# Elastic Constant Matrix: (Units=GPa)
#
#
# Indices 1 2 3 4 5 6 
#
# 1 147.7692 5.3499 23.4674 0.0000 -25.5258 0.0000
# 2 5.3499 99.6216 40.6356 0.0000 -5.1472 0.0000
# 3 23.4674 40.6356 170.2825 0.0000 -14.3053 0.0000
# 4 0.0000 0.0000 0.0000 38.9431 0.0000 5.7989
# 5 -25.5258 -5.1472 -14.3053 0.0000 25.5037 0.0000
# 6 0.0000 0.0000 0.0000 5.7989 0.0000 27.3595
#
#
#
# Elastic Compliance Matrix: (Units=1/GPa)
#
#
# Indices 1 2 3 4 5 6 
#
# 1 0.008219 0.000177 -0.000505 0.000000 0.007979 0.000000
# 2 0.000177 0.011140 -0.002602 0.000000 0.000966 0.000000
# 3 -0.000505 -0.002602 0.006797 0.000000 0.002782 0.000000
# 4 0.000000 0.000000 0.000000 0.026515 0.000000 -0.005620
# 5 0.007979 0.000966 0.002782 0.000000 0.048952 0.000000
# 6 0.000000 0.000000 0.000000 -0.005620 0.000000 0.037741
#
#
# Mechanical properties :
#
#
# Convention : Reuss Voigt Hill
#
# Bulk Modulus (GPa) = 49.26891 61.84214 55.55552
# Shear Modulus (GPa) = 32.89722 41.57597 37.23659
#
# Velocity S-wave (km/s) = 3.54211 3.98202 3.76849
# Velocity P-wave (km/s) = 5.95980 6.68788 6.33431
#
# Compressibility (1/GPa) = 0.02029678
#
# Stress axis : x y z
#
# Youngs Moduli (GPa) = 121.66378 89.77026 147.13056
#
# Poissons Ratio (x) = -0.01586 0.07424
# Poissons Ratio (y) = -0.02150 0.38276
# Poissons Ratio (z) = 0.06139 0.23354
#
# Static dielectric constant tensor:
#      x y z
#    x 2.192880 0.000000 0.100940 
#    y 0.000000 2.165460 0.000000 
#    z 0.100940 0.000000 2.045210 
# 
# From -- ./inp_files/40163.got.cif
#   From: 2010.05.17/outbox.cif.g08.bks.cpg/sg14_21_cif.got.tgz:40163.got - 2010.06.03 17:49:19.
