data_PCOD9252307
_publ_section_title
;
Structure prediction by ZEFSAII (Michael W. Deem and Ramdas Pophale) SiO2 
 PCOD9252307
Probable space group: P 21/C
;
_chemical_formula_sum "Si O2"
_cell_formula_units_Z 16
_cell_length_a 9.843977
_cell_length_b 9.416440
_cell_length_c 10.118799
_cell_angle_alpha 90.000000
_cell_angle_beta 39.196070
_cell_angle_gamma 90.000000
_cell_volume 592.771056
_symmetry_space_group_name_H-M "P 21/C"
_symmetry_group_IT_number 14
_symmetry_cell_setting 'monoclinic'
loop_
_space_group_symop_operation_xyz
x,y,z
-x,1/2+y,1/2-z
-x,-y,-z
x,1/2-y,1/2+z
loop_
_atom_site_type_symbol
_atom_site_label
_atom_site_fract_x
_atom_site_fract_y
_atom_site_fract_z
Si Si1 0.184091 0.097455 0.298095
Si Si2 0.569526 0.491556 0.650510
Si Si3 0.307090 0.912028 0.564240
Si Si4 0.053792 0.652474 0.650224
O O1 0.380094 0.111927 0.249867
O O2 0.082204 0.243144 0.335772
O O3 0.000000 0.000000 0.500000
O O4 0.299836 0.038762 0.078058
O O5 0.760357 0.414273 0.582560
O O6 0.439837 0.607664 0.827204
O O7 0.115816 0.027388 0.688967
O O8 0.500000 0.000000 0.500000
O O9 0.176121 0.757811 0.666857
#
# Coordination Sequence:
#
# PCOD9252307 Si02
#       4
#     4   4   4   4
#     4  11  23  48  73 106 143 198 250 307 371 450
#     4  11  25  44  77 105 149 196 253 300 385 442
#     4  12  29  50  75 117 154 201 256 312 383 457
#     4  12  25  49  76 110 155 195 254 319 376 451
#
# _framework density 26.991872000000001
#
# number of rings (size 3 to 8) (size 9 to 14) (size 15 to 20)
#    0.000    0.500    5.000    1.500    3.500    5.000 
#    4.500    0.000    0.000    0.000    0.000    0.000 
#    0.000    0.000    0.000    0.000    0.000    0.000 
#
# Total GULP energy -89154.948944 kJ/mol
# GULP energy per Si atom -5572.184309 kJ/mol
# Density = 2.693044 g / cm^3
# Si number density = 26.991872 Si / 1000 Ang^3
#
#
#
# Elastic Constant Matrix: (Units=GPa)
#
#
# Indices 1 2 3 4 5 6 
#
# 1 74.5181 16.4924 37.8663 0.0000 -55.1765 0.0000
# 2 16.4924 163.0743 82.9985 0.0000 -20.4300 0.0000
# 3 37.8663 82.9985 179.5501 0.0000 -47.5154 0.0000
# 4 0.0000 0.0000 0.0000 39.1897 0.0000 -21.1850
# 5 -55.1765 -20.4300 -47.5154 0.0000 50.5617 0.0000
# 6 0.0000 0.0000 0.0000 -21.1850 0.0000 49.4180
#
#
#
# Elastic Compliance Matrix: (Units=1/GPa)
#
#
# Indices 1 2 3 4 5 6 
#
# 1 0.077820 -0.000507 0.008308 0.000000 0.092525 0.000000
# 2 -0.000507 0.008026 -0.003848 0.000000 -0.000927 0.000000
# 3 0.008308 -0.003848 0.010095 0.000000 0.016998 0.000000
# 4 0.000000 0.000000 0.000000 0.033214 0.000000 0.014239
# 5 0.092525 -0.000927 0.016998 0.000000 0.136347 0.000000
# 6 0.000000 0.000000 0.000000 0.014239 0.000000 0.026339
#
#
# Mechanical properties :
#
#
# Convention : Reuss Voigt Hill
#
# Bulk Modulus (GPa) = 9.62973 76.87298 43.25136
# Shear Modulus (GPa) = 15.69609 46.48621 31.09115
#
# Velocity S-wave (km/s) = 2.41407 4.15448 3.39760
# Velocity P-wave (km/s) = 3.36834 7.18017 5.60805
#
# Compressibility (1/GPa) = 0.10384504
#
# Stress axis : x y z
#
# Youngs Moduli (GPa) = 12.85022 124.59421 99.06346
#
# Poissons Ratio (x) = 0.06319 -0.82302
# Poissons Ratio (y) = 0.00652 0.38124
# Poissons Ratio (z) = -0.10676 0.47950
#
# Static dielectric constant tensor:
#      x y z
#    x 2.462480 0.000000 0.117920 
#    y 0.000000 2.313930 0.000000 
#    z 0.117920 0.000000 2.056750 
# 
# From -- ./inp_files/28408.got.cif
#   From: 2010.05.17/outbox.cif.g08.bks.cpg/sg14_15_cif.got.tgz:28408.got - 2010.06.03 17:49:19.
