data_PCOD9252682
_publ_section_title
;
Structure prediction by ZEFSAII (Michael W. Deem and Ramdas Pophale) SiO2 
 PCOD9252682
Probable space group: P 21/C
;
_chemical_formula_sum "Si O2"
_cell_formula_units_Z 20
_cell_length_a 14.902267
_cell_length_b 5.746453
_cell_length_c 9.781594
_cell_angle_alpha 90.000000
_cell_angle_beta 64.230184
_cell_angle_gamma 90.000000
_cell_volume 754.342653
_symmetry_space_group_name_H-M "P 21/C"
_symmetry_group_IT_number 14
_symmetry_cell_setting 'monoclinic'
loop_
_space_group_symop_operation_xyz
x,y,z
-x,1/2+y,1/2-z
-x,-y,-z
x,1/2-y,1/2+z
loop_
_atom_site_type_symbol
_atom_site_label
_atom_site_fract_x
_atom_site_fract_y
_atom_site_fract_z
Si Si1 0.716803 0.466887 0.823851
Si Si2 0.070751 0.309586 0.525081
Si Si3 0.879106 0.053682 0.740266
Si Si4 0.342383 0.311921 0.870789
Si Si5 0.548746 0.326974 0.362352
O O1 0.874958 0.854449 0.624253
O O2 0.803276 0.271650 0.770108
O O3 0.702371 0.611347 0.694427
O O4 0.639874 0.050402 0.722963
O O5 0.129346 0.450449 0.602551
O O6 0.000000 0.500000 0.500000
O O7 0.992957 0.142211 0.654095
O O8 0.720357 0.634334 0.952528
O O9 0.457272 0.247726 0.829375
O O10 0.394123 0.638007 0.086831
O O11 0.500000 0.500000 0.500000
#
# Coordination Sequence:
#
# PCOD9252682 Si02
#       5
#     4   4   4   4   4
#     4  12  29  50  82 124 166 225 289 349 412 515
#     4  11  24  55  89 122 170 213 263 352 439 510
#     4  11  27  54  87 127 164 215 279 344 430 510
#     4  12  25  50  80 117 172 225 284 356 421 488
#     4  12  24  48  78 117 164 224 288 352 423 486
#
# _framework density 26.51315
#
# number of rings (size 3 to 8) (size 9 to 14) (size 15 to 20)
#    0.000    0.400    6.000    1.800    0.000    3.200 
#    7.200    2.000    0.000    0.000    0.000    0.000 
#    0.000    0.000    0.000    0.000    0.000    0.000 
#
# Total GULP energy -112093.211312 kJ/mol
# GULP energy per Si atom -5604.660566 kJ/mol
# Density = 2.645280 g / cm^3
# Si number density = 26.513150 Si / 1000 Ang^3
#
#
#
# Elastic Constant Matrix: (Units=GPa)
#
#
# Indices 1 2 3 4 5 6 
#
# 1 140.8877 88.3961 66.5394 0.0000 8.6139 0.0000
# 2 88.3961 128.9449 56.2679 0.0000 14.4576 0.0000
# 3 66.5394 56.2679 154.9710 0.0000 16.2203 0.0000
# 4 0.0000 0.0000 0.0000 74.6951 0.0000 -15.9192
# 5 8.6139 14.4576 16.2203 0.0000 47.9409 0.0000
# 6 0.0000 0.0000 0.0000 -15.9192 0.0000 87.6151
#
#
#
# Elastic Compliance Matrix: (Units=1/GPa)
#
#
# Indices 1 2 3 4 5 6 
#
# 1 0.013507 -0.008076 -0.002973 0.000000 0.001015 0.000000
# 2 -0.008076 0.014181 -0.001436 0.000000 -0.002339 0.000000
# 3 -0.002973 -0.001436 0.008449 0.000000 -0.001891 0.000000
# 4 0.000000 0.000000 0.000000 0.013927 0.000000 0.002530
# 5 0.001015 -0.002339 -0.001891 0.000000 0.022022 0.000000
# 6 0.000000 0.000000 0.000000 0.002530 0.000000 0.011873
#
#
# Mechanical properties :
#
#
# Convention : Reuss Voigt Hill
#
# Bulk Modulus (GPa) = 89.56322 94.13448 91.84885
# Shear Modulus (GPa) = 44.38436 56.29024 50.33730
#
# Velocity S-wave (km/s) = 4.09596 4.61272 4.36200
# Velocity P-wave (km/s) = 7.49821 7.99696 7.75160
#
# Compressibility (1/GPa) = 0.01116530
#
# Stress axis : x y z
#
# Youngs Moduli (GPa) = 74.03535 70.51896 118.35674
#
# Poissons Ratio (x) = 0.56949 0.35193
# Poissons Ratio (y) = 0.59789 0.17001
# Poissons Ratio (z) = 0.22014 0.10130
#
# Static dielectric constant tensor:
#      x y z
#    x -1.565890 0.000000 0.149880 
#    y 0.000000 1.627200 0.000000 
#    z 0.149880 0.000000 2.066110 
# 
# From -- ./inp_files/31290.got.cif
#   From: 2010.05.17/outbox.cif.g08.bks.cpg/sg14_16_cif.got.tgz:31290.got - 2010.06.03 17:49:19.
