data_PCOD9252552
_publ_section_title
;
Structure prediction by ZEFSAII (Michael W. Deem and Ramdas Pophale) SiO2 
 PCOD9252552
Probable space group: P 21/C
;
_chemical_formula_sum "Si O2"
_cell_formula_units_Z 26
_cell_length_a 14.291034
_cell_length_b 12.333949
_cell_length_c 14.649180
_cell_angle_alpha 90.000000
_cell_angle_beta 28.311347
_cell_angle_gamma 90.000000
_cell_volume 1224.610470
_symmetry_space_group_name_H-M "P 21/C"
_symmetry_group_IT_number 14
_symmetry_cell_setting 'monoclinic'
loop_
_space_group_symop_operation_xyz
x,y,z
-x,1/2+y,1/2-z
-x,-y,-z
x,1/2-y,1/2+z
loop_
_atom_site_type_symbol
_atom_site_label
_atom_site_fract_x
_atom_site_fract_y
_atom_site_fract_z
Si Si1 0.226800 0.246570 0.079610
Si Si2 0.770865 0.248119 0.920759
Si Si3 0.593392 0.622978 0.224506
Si Si4 0.229413 0.297421 0.285943
Si Si5 0.768077 0.297854 0.714202
Si Si6 0.500000 0.500000 0.000000
Si Si7 0.591703 0.122177 0.724760
O O1 0.246266 0.245314 0.170953
O O2 0.998863 0.249111 0.250077
O O3 0.322260 0.351471 0.948378
O O4 0.358812 0.148582 0.927147
O O5 0.751080 0.246659 0.829689
O O6 0.639249 0.150082 0.073053
O O7 0.675408 0.353009 0.052124
O O8 0.694775 0.710285 0.204881
O O9 0.633020 0.500133 0.216956
O O10 0.998803 0.321926 0.499965
O O11 0.360842 0.404383 0.166616
O O12 0.637057 0.404994 0.832925
O O13 0.692252 0.210287 0.705404
#
# Coordination Sequence:
#
# PCOD9252552 Si02
#       7
#     4   4   4   4   4   2   4
#     4  11  24  46  69 103 142 181 233 283 350 419
#     4  11  24  46  69 103 142 181 233 283 350 419
#     4  11  26  47  75 104 142 185 234 293 352 420
#     4  12  25  47  73 102 140 190 235 289 355 418
#     4  12  25  47  73 102 140 190 235 289 355 418
#     4  12  26  48  70  98 144 188 242 286 344 430
#     4  11  26  47  75 104 142 185 234 293 352 420
#
# _framework density 21.231241000000001
#
# number of rings (size 3 to 8) (size 9 to 14) (size 15 to 20)
#    0.000    0.615    6.154    0.462    2.154    4.308 
#    0.000    0.000    0.000    0.000    0.000    0.000 
#    0.000    0.000    0.000    0.000    0.000    0.000 
#
# Total GULP energy -144825.812170 kJ/mol
# GULP energy per Si atom -5570.223545 kJ/mol
# Density = 2.118292 g / cm^3
# Si number density = 21.231241 Si / 1000 Ang^3
#
#
#
# Elastic Constant Matrix: (Units=GPa)
#
#
# Indices 1 2 3 4 5 6 
#
# 1 96.2975 17.7867 30.7241 0.0000 -0.5193 0.0000
# 2 17.7867 134.7798 44.0737 0.0000 -13.9076 0.0000
# 3 30.7241 44.0737 175.6160 0.0000 -13.4222 0.0000
# 4 0.0000 0.0000 0.0000 8.9933 0.0000 -0.1698
# 5 -0.5193 -13.9076 -13.4222 0.0000 41.5380 0.0000
# 6 0.0000 0.0000 0.0000 -0.1698 0.0000 4.5558
#
#
#
# Elastic Compliance Matrix: (Units=1/GPa)
#
#
# Indices 1 2 3 4 5 6 
#
# 1 0.011121 -0.000970 -0.001760 0.000000 -0.000754 0.000000
# 2 -0.000970 0.008351 -0.001757 0.000000 0.002216 0.000000
# 3 -0.001760 -0.001757 0.006558 0.000000 0.001509 0.000000
# 4 0.000000 0.000000 0.000000 0.111273 0.000000 0.004146
# 5 -0.000754 0.002216 0.001509 0.000000 0.025295 0.000000
# 6 0.000000 0.000000 0.000000 0.004146 0.000000 0.219657
#
#
# Mechanical properties :
#
#
# Convention : Reuss Voigt Hill
#
# Bulk Modulus (GPa) = 58.62684 65.76249 62.19466
# Shear Modulus (GPa) = 12.59722 31.95798 22.27760
#
# Velocity S-wave (km/s) = 2.43849 3.88394 3.24278
# Velocity P-wave (km/s) = 5.96672 7.15227 6.58622
#
# Compressibility (1/GPa) = 0.01705703
#
# Stress axis : x y z
#
# Youngs Moduli (GPa) = 89.91937 119.75133 152.47803
#
# Poissons Ratio (x) = 0.11616 0.26834
# Poissons Ratio (y) = 0.08722 0.26785
# Poissons Ratio (z) = 0.15825 0.21036
#
# Static dielectric constant tensor:
#      x y z
#    x 1.816510 0.000000 -0.013180 
#    y 0.000000 1.719910 0.000000 
#    z -0.013180 0.000000 1.779730 
# 
# From -- ./inp_files/47090.got.cif
#   From: 2010.05.17/outbox.cif.g08.bks.cpg/sg14_24_cif.got.tgz:47090.got - 2010.06.03 17:49:19.
