data_PCOD9252498
_publ_section_title
;
Structure prediction by ZEFSAII (Michael W. Deem and Ramdas Pophale) SiO2 
 PCOD9252498
Probable space group: P 21/C
;
_chemical_formula_sum "Si O2"
_cell_formula_units_Z 20
_cell_length_a 7.081222
_cell_length_b 5.251757
_cell_length_c 24.329468
_cell_angle_alpha 90.000000
_cell_angle_beta 94.972559
_cell_angle_gamma 90.000000
_cell_volume 901.379795
_symmetry_space_group_name_H-M "P 21/C"
_symmetry_group_IT_number 14
_symmetry_cell_setting 'monoclinic'
loop_
_space_group_symop_operation_xyz
x,y,z
-x,1/2+y,1/2-z
-x,-y,-z
x,1/2-y,1/2+z
loop_
_atom_site_type_symbol
_atom_site_label
_atom_site_fract_x
_atom_site_fract_y
_atom_site_fract_z
Si Si1 0.032880 0.300649 0.049703
Si Si2 0.410439 0.209924 0.863782
Si Si3 0.660720 0.794018 0.351367
Si Si4 0.127189 0.315602 0.256392
Si Si5 0.706933 0.960726 0.028897
O O1 0.157463 0.364612 0.105889
O O2 0.169442 0.104167 0.021176
O O3 0.828406 0.187172 0.059023
O O4 0.000000 0.500000 0.000000
O O5 0.520875 0.467055 0.852337
O O6 0.249083 0.163568 0.814756
O O7 0.318997 0.235201 0.922008
O O8 0.552856 0.965647 0.866667
O O9 0.734114 0.763248 0.291328
O O10 0.016573 0.578898 0.243558
O O11 0.500000 0.000000 0.000000
#
# Coordination Sequence:
#
# PCOD9252498 Si02
#       5
#     4   4   4   4   4
#     4  11  26  41  71 101 144 185 237 288 343 424
#     4  12  26  45  73  99 142 185 234 290 351 418
#     4  12  26  46  70 103 139 184 238 287 351 420
#     4  12  26  46  72 102 139 182 236 292 351 418
#     4  11  24  45  67 104 141 188 233 285 354 409
#
# _framework density 22.188206999999998
#
# number of rings (size 3 to 8) (size 9 to 14) (size 15 to 20)
#    0.000    0.400    2.000    6.000    8.400    1.600 
#    0.000    0.000    0.000    0.000    0.000    0.000 
#    0.000    0.000    0.000    0.000    0.000    0.000 
#
# Total GULP energy -111818.051642 kJ/mol
# GULP energy per Si atom -5590.902582 kJ/mol
# Density = 2.213771 g / cm^3
# Si number density = 22.188207 Si / 1000 Ang^3
#
#
#
# Elastic Constant Matrix: (Units=GPa)
#
#
# Indices 1 2 3 4 5 6 
#
# 1 103.5710 17.9739 24.8926 0.0000 24.8425 0.0000
# 2 17.9739 80.7432 -14.4303 0.0000 10.9773 0.0000
# 3 24.8926 -14.4303 124.5268 0.0000 22.4835 0.0000
# 4 0.0000 0.0000 0.0000 30.5597 0.0000 -0.0888
# 5 24.8425 10.9773 22.4835 0.0000 59.7248 0.0000
# 6 0.0000 0.0000 0.0000 -0.0888 0.0000 35.4959
#
#
#
# Elastic Compliance Matrix: (Units=1/GPa)
#
#
# Indices 1 2 3 4 5 6 
#
# 1 0.011387 -0.002389 -0.001907 0.000000 -0.003579 0.000000
# 2 -0.002389 0.013701 0.002511 0.000000 -0.002470 0.000000
# 3 -0.001907 0.002511 0.009273 0.000000 -0.003159 0.000000
# 4 0.000000 0.000000 0.000000 0.032723 0.000000 0.000082
# 5 -0.003579 -0.002470 -0.003159 0.000000 0.019876 0.000000
# 6 0.000000 0.000000 0.000000 0.000082 0.000000 0.028172
#
#
# Mechanical properties :
#
#
# Convention : Reuss Voigt Hill
#
# Bulk Modulus (GPa) = 32.47583 40.63483 36.55533
# Shear Modulus (GPa) = 38.77029 43.84975 41.31002
#
# Velocity S-wave (km/s) = 4.18465 4.45034 4.31954
# Velocity P-wave (km/s) = 6.16577 6.69035 6.43341
#
# Compressibility (1/GPa) = 0.03079213
#
# Stress axis : x y z
#
# Youngs Moduli (GPa) = 87.82251 72.98573 107.84048
#
# Poissons Ratio (x) = 0.17435 0.20562
# Poissons Ratio (y) = 0.20980 -0.27081
# Poissons Ratio (z) = 0.16745 -0.18328
#
# Static dielectric constant tensor:
#      x y z
#    x 1.822650 0.000000 -0.029640 
#    y 0.000000 1.884910 0.000000 
#    z -0.029640 0.000000 1.828190 
# 
# From -- ./inp_files/75454.got.cif
#   From: 2010.05.17/outbox.cif.g08.bks.cpg/sg14_38_cif.got.tgz:75454.got - 2010.06.03 17:49:19.
