data_PCOD9252797
_publ_section_title
;
Structure prediction by ZEFSAII (Michael W. Deem and Ramdas Pophale) SiO2 
 PCOD9252797
Probable space group: P 21/C
;
_chemical_formula_sum "Si O2"
_cell_formula_units_Z 30
_cell_length_a 13.381944
_cell_length_b 11.488799
_cell_length_c 9.304513
_cell_angle_alpha 90.000000
_cell_angle_beta 125.282944
_cell_angle_gamma 90.000000
_cell_volume 1167.729834
_symmetry_space_group_name_H-M "P 21/C"
_symmetry_group_IT_number 14
_symmetry_cell_setting 'monoclinic'
loop_
_space_group_symop_operation_xyz
x,y,z
-x,1/2+y,1/2-z
-x,-y,-z
x,1/2-y,1/2+z
loop_
_atom_site_type_symbol
_atom_site_label
_atom_site_fract_x
_atom_site_fract_y
_atom_site_fract_z
Si Si1 0.780796 0.899534 0.759506
Si Si2 0.235386 0.731893 0.020289
Si Si3 0.500000 0.000000 0.000000
Si Si4 0.392168 0.741982 0.902568
Si Si5 0.569347 0.911889 0.364129
Si Si6 0.931767 0.014839 0.656981
Si Si7 0.786450 0.000108 0.077075
Si Si8 0.761634 0.860426 0.310575
O O1 0.665691 0.944138 0.570609
O O2 0.796506 0.759820 0.765049
O O3 0.897304 0.960543 0.782794
O O4 0.764624 0.934730 0.910686
O O5 0.352822 0.694156 0.024166
O O6 0.128169 0.641559 0.903774
O O7 0.216726 0.864058 0.956523
O O8 0.266528 0.732146 0.213161
O O9 0.463501 0.861218 0.977418
O O10 0.480054 0.001642 0.798367
O O11 0.463974 0.653632 0.861346
O O12 0.658697 0.830267 0.341692
O O13 0.864909 0.929297 0.486749
O O14 0.075589 0.025496 0.758102
O O15 0.704870 0.951051 0.143318
#
# Coordination Sequence:
#
# PCOD9252797 Si02
#       8
#     4   4   2   4   4   4   4   4
#     4  11  25  46  76 114 153 196 272 321 386 478
#     4  12  27  48  75 114 160 195 270 316 396 479
#     4  12  24  48  80 100 156 200 256 294 402 450
#     4  12  26  49  74 117 150 209 247 325 384 463
#     4  11  25  48  74 108 151 200 256 312 381 463
#     4  11  26  49  75 113 153 209 255 329 399 473
#     4  12  26  48  81 110 155 213 253 337 399 465
#     4  11  25  46  76 112 152 201 264 321 387 478
#
# _framework density 25.690874999999998
#
# number of rings (size 3 to 8) (size 9 to 14) (size 15 to 20)
#    0.000    0.533    1.333    7.200    3.733    1.067 
#    2.400    4.000    0.000    0.000    0.000    0.000 
#    0.000    0.000    0.000    0.000    0.000    0.000 
#
# Total GULP energy -167783.179596 kJ/mol
# GULP energy per Si atom -5592.772653 kJ/mol
# Density = 2.563240 g / cm^3
# Si number density = 25.690875 Si / 1000 Ang^3
#
#
#
# Elastic Constant Matrix: (Units=GPa)
#
#
# Indices 1 2 3 4 5 6 
#
# 1 57.5293 13.4615 35.4682 0.0000 -8.7714 0.0000
# 2 13.4615 157.1258 43.1023 0.0000 0.2662 0.0000
# 3 35.4682 43.1023 131.7014 0.0000 -19.6945 0.0000
# 4 0.0000 0.0000 0.0000 49.9890 0.0000 -5.7502
# 5 -8.7714 0.2662 -19.6945 0.0000 37.0677 0.0000
# 6 0.0000 0.0000 0.0000 -5.7502 0.0000 37.6729
#
#
#
# Elastic Compliance Matrix: (Units=1/GPa)
#
#
# Indices 1 2 3 4 5 6 
#
# 1 0.021017 -0.000376 -0.005207 0.000000 0.002210 0.000000
# 2 -0.000376 0.007064 -0.002424 0.000000 -0.001428 0.000000
# 3 -0.005207 -0.002424 0.010436 0.000000 0.004330 0.000000
# 4 0.000000 0.000000 0.000000 0.020362 0.000000 0.003108
# 5 0.002210 -0.001428 0.004330 0.000000 0.029811 0.000000
# 6 0.000000 0.000000 0.000000 0.003108 0.000000 0.027019
#
#
# Mechanical properties :
#
#
# Convention : Reuss Voigt Hill
#
# Bulk Modulus (GPa) = 44.43701 58.93559 51.68630
# Shear Modulus (GPa) = 35.91335 41.90088 38.90712
#
# Velocity S-wave (km/s) = 3.74291 4.04290 3.89579
# Velocity P-wave (km/s) = 6.00113 6.69205 6.35598
#
# Compressibility (1/GPa) = 0.02250376
#
# Stress axis : x y z
#
# Youngs Moduli (GPa) = 47.57968 141.56441 95.82268
#
# Poissons Ratio (x) = 0.05324 0.49891
# Poissons Ratio (y) = 0.01790 0.23228
# Poissons Ratio (z) = 0.24773 0.34316
#
# Static dielectric constant tensor:
#      x y z
#    x 1.967180 0.000000 -0.036600 
#    y 0.000000 1.957050 0.000000 
#    z -0.036600 0.000000 1.962920 
# 
# From -- ./inp_files/15935.got.cif
#   From: 2010.05.17/outbox.cif.g08.bks.cpg/sg14_8_cif.got.tgz:15935.got - 2010.06.03 17:49:19.
