data_PCOD9252567
_publ_section_title
;
Structure prediction by ZEFSAII (Michael W. Deem and Ramdas Pophale) SiO2 
 PCOD9252567
Probable space group: P 21/C
;
_chemical_formula_sum "Si O2"
_cell_formula_units_Z 20
_cell_length_a 7.483082
_cell_length_b 9.725321
_cell_length_c 12.425219
_cell_angle_alpha 90.000000
_cell_angle_beta 65.404750
_cell_angle_gamma 90.000000
_cell_volume 822.207925
_symmetry_space_group_name_H-M "P 21/C"
_symmetry_group_IT_number 14
_symmetry_cell_setting 'monoclinic'
loop_
_space_group_symop_operation_xyz
x,y,z
-x,1/2+y,1/2-z
-x,-y,-z
x,1/2-y,1/2+z
loop_
_atom_site_type_symbol
_atom_site_label
_atom_site_fract_x
_atom_site_fract_y
_atom_site_fract_z
Si Si1 0.019884 0.159490 0.529197
Si Si2 0.023484 0.410779 0.388621
Si Si3 0.523749 0.702494 0.023467
Si Si4 0.263569 0.907713 0.218085
Si Si5 0.555742 0.549006 0.814460
O O1 0.970731 0.256526 0.440101
O O2 0.243302 0.191651 0.510276
O O3 0.873761 0.182770 0.667148
O O4 0.000000 0.000000 0.500000
O O5 0.245049 0.413872 0.293365
O O6 0.000000 0.500000 0.500000
O O7 0.887458 0.470396 0.328341
O O8 0.423534 0.831998 0.103634
O O9 0.418759 0.575181 0.109719
O O10 0.492977 0.678269 0.904349
O O11 0.391520 0.994432 0.269680
#
# Coordination Sequence:
#
# PCOD9252567 Si02
#       5
#     4   4   4   4   4
#     4  12  25  47  76 107 146 201 248 300 374 447
#     4  12  28  48  72 111 149 190 248 308 370 437
#     4  11  24  46  75 106 149 193 252 300 374 447
#     4  12  25  46  74 105 146 196 241 308 363 439
#     4  11  24  46  71 103 145 198 240 298 369 442
#
# _framework density 24.324746999999999
#
# number of rings (size 3 to 8) (size 9 to 14) (size 15 to 20)
#    0.000    0.400    6.000    2.400    2.800    2.400 
#    3.600    0.000    0.000    0.000    0.000    0.000 
#    0.000    0.000    0.000    0.000    0.000    0.000 
#
# Total GULP energy -111986.342131 kJ/mol
# GULP energy per Si atom -5599.317107 kJ/mol
# Density = 2.426938 g / cm^3
# Si number density = 24.324747 Si / 1000 Ang^3
#
#
#
# Elastic Constant Matrix: (Units=GPa)
#
#
# Indices 1 2 3 4 5 6 
#
# 1 136.2490 4.7673 61.8623 0.0000 8.4959 0.0000
# 2 4.7673 45.6149 19.9315 0.0000 -1.6962 0.0000
# 3 61.8623 19.9315 166.6775 0.0000 -5.5875 0.0000
# 4 0.0000 0.0000 0.0000 33.3943 0.0000 4.2436
# 5 8.4959 -1.6962 -5.5875 0.0000 52.6537 0.0000
# 6 0.0000 0.0000 0.0000 4.2436 0.0000 10.7078
#
#
#
# Elastic Compliance Matrix: (Units=1/GPa)
#
#
# Indices 1 2 3 4 5 6 
#
# 1 0.009007 0.000505 -0.003464 0.000000 -0.001805 0.000000
# 2 0.000505 0.023170 -0.002946 0.000000 0.000352 0.000000
# 3 -0.003464 -0.002946 0.007680 0.000000 0.001279 0.000000
# 4 0.000000 0.000000 0.000000 0.031533 0.000000 -0.012497
# 5 -0.001805 0.000352 0.001279 0.000000 0.019430 0.000000
# 6 0.000000 0.000000 0.000000 -0.012497 0.000000 0.098342
#
#
# Mechanical properties :
#
#
# Convention : Reuss Voigt Hill
#
# Bulk Modulus (GPa) = 35.65372 57.96262 46.80817
# Shear Modulus (GPa) = 23.77292 36.81653 30.29473
#
# Velocity S-wave (km/s) = 3.12959 3.89465 3.53289
# Velocity P-wave (km/s) = 5.26767 6.64114 5.99388
#
# Compressibility (1/GPa) = 0.02804756
#
# Stress axis : x y z
#
# Youngs Moduli (GPa) = 111.02369 43.15851 130.20091
#
# Poissons Ratio (x) = -0.02180 0.45100
# Poissons Ratio (y) = -0.05608 0.38363
# Poissons Ratio (z) = 0.38457 0.12716
#
# Static dielectric constant tensor:
#      x y z
#    x 1.958000 0.000000 0.028650 
#    y 0.000000 1.986830 0.000000 
#    z 0.028650 0.000000 1.904240 
# 
# From -- ./inp_files/23373.got.cif
#   From: 2010.05.17/outbox.cif.g08.bks.cpg/sg14_12_cif.got.tgz:23373.got - 2010.06.03 17:49:19.
