data_PCOD9252714
_publ_section_title
;
Structure prediction by ZEFSAII (Michael W. Deem and Ramdas Pophale) SiO2 
 PCOD9252714
Probable space group: P 21/C
;
_chemical_formula_sum "Si O2"
_cell_formula_units_Z 20
_cell_length_a 11.448548
_cell_length_b 8.430419
_cell_length_c 18.248405
_cell_angle_alpha 90.000000
_cell_angle_beta 24.659758
_cell_angle_gamma 90.000000
_cell_volume 734.850235
_symmetry_space_group_name_H-M "P 21/C"
_symmetry_group_IT_number 14
_symmetry_cell_setting 'monoclinic'
loop_
_space_group_symop_operation_xyz
x,y,z
-x,1/2+y,1/2-z
-x,-y,-z
x,1/2-y,1/2+z
loop_
_atom_site_type_symbol
_atom_site_label
_atom_site_fract_x
_atom_site_fract_y
_atom_site_fract_z
Si Si1 0.094226 0.270485 0.895134
Si Si2 0.612183 0.255766 0.782805
Si Si3 0.663240 0.430713 0.561997
Si Si4 0.227137 0.718496 0.644072
Si Si5 0.793694 0.996533 0.457743
O O1 0.909168 0.261001 0.073455
O O2 0.964656 0.124885 0.921064
O O3 0.998898 0.421343 0.899611
O O4 0.421835 0.302071 0.721460
O O5 0.634839 0.247985 0.857292
O O6 0.428945 0.104712 0.863135
O O7 0.472987 0.426442 0.848289
O O8 0.665774 0.416811 0.472342
O O9 0.928327 0.654179 0.840455
O O10 0.246961 0.873463 0.582307
#
# Coordination Sequence:
#
# PCOD9252714 Si02
#       5
#     4   4   4   4   4
#     4  11  26  47  72 108 152 190 244 301 367 437
#     4  12  24  44  75 103 145 197 244 302 366 433
#     4  11  25  47  72 105 150 194 242 304 365 436
#     4  11  25  44  73 101 148 188 252 297 366 434
#     4  11  25  46  72 111 144 192 246 306 364 436
#
# _framework density 27.216431
#
# number of rings (size 3 to 8) (size 9 to 14) (size 15 to 20)
#    0.000    0.800    2.000    4.200    8.400    0.000 
#    7.200    5.000    0.000    0.000    0.000    0.000 
#    0.000    0.000    0.000    0.000    0.000    0.000 
#
# Total GULP energy -112110.996984 kJ/mol
# GULP energy per Si atom -5605.549849 kJ/mol
# Density = 2.715449 g / cm^3
# Si number density = 27.216431 Si / 1000 Ang^3
#
#
#
# Elastic Constant Matrix: (Units=GPa)
#
#
# Indices 1 2 3 4 5 6 
#
# 1 111.5680 40.7778 36.0626 0.0000 29.6929 0.0000
# 2 40.7778 99.8729 34.4775 0.0000 4.3172 0.0000
# 3 36.0626 34.4775 122.2264 0.0000 -7.5009 0.0000
# 4 0.0000 0.0000 0.0000 44.3598 0.0000 2.5127
# 5 29.6929 4.3172 -7.5009 0.0000 29.8888 0.0000
# 6 0.0000 0.0000 0.0000 2.5127 0.0000 37.8403
#
#
#
# Elastic Compliance Matrix: (Units=1/GPa)
#
#
# Indices 1 2 3 4 5 6 
#
# 1 0.016655 -0.004435 -0.004712 0.000000 -0.017087 0.000000
# 2 -0.004435 0.012450 -0.002075 0.000000 0.002087 0.000000
# 3 -0.004712 -0.002075 0.010626 0.000000 0.007647 0.000000
# 4 0.000000 0.000000 0.000000 0.022628 0.000000 -0.001503
# 5 -0.017087 0.002087 0.007647 0.000000 0.052050 0.000000
# 6 0.000000 0.000000 0.000000 -0.001503 0.000000 0.026527
#
#
# Mechanical properties :
#
#
# Convention : Reuss Voigt Hill
#
# Bulk Modulus (GPa) = 57.84588 61.81146 59.82867
# Shear Modulus (GPa) = 29.56101 37.24107 33.40104
#
# Velocity S-wave (km/s) = 3.29925 3.70311 3.50700
# Velocity P-wave (km/s) = 5.98444 6.40659 6.19911
#
# Compressibility (1/GPa) = 0.01728732
#
# Stress axis : x y z
#
# Youngs Moduli (GPa) = 60.04309 80.32328 94.10567
#
# Poissons Ratio (x) = 0.35623 0.44338
# Poissons Ratio (y) = 0.26629 0.19529
# Poissons Ratio (z) = 0.28290 0.16669
#
# Static dielectric constant tensor:
#      x y z
#    x 2.098130 0.000000 -0.023140 
#    y 0.000000 2.152180 0.000000 
#    z -0.023140 0.000000 2.112460 
# 
# From -- ./inp_files/23016.got.cif
#   From: 2010.05.17/outbox.cif.g08.bks.cpg/sg14_12_cif.got.tgz:23016.got - 2010.06.03 17:49:19.
