data_PCOD9252144
_publ_section_title
;
Structure prediction by ZEFSAII (Michael W. Deem and Ramdas Pophale) SiO2 
 PCOD9252144
Probable space group: P 21/C
;
_chemical_formula_sum "Si O2"
_cell_formula_units_Z 28
_cell_length_a 25.917868
_cell_length_b 6.080789
_cell_length_c 9.194086
_cell_angle_alpha 90.000000
_cell_angle_beta 115.696380
_cell_angle_gamma 90.000000
_cell_volume 1305.698450
_symmetry_space_group_name_H-M "P 21/C"
_symmetry_group_IT_number 14
_symmetry_cell_setting 'monoclinic'
loop_
_space_group_symop_operation_xyz
x,y,z
-x,1/2+y,1/2-z
-x,-y,-z
x,1/2-y,1/2+z
loop_
_atom_site_type_symbol
_atom_site_label
_atom_site_fract_x
_atom_site_fract_y
_atom_site_fract_z
Si Si1 0.424424 0.525129 0.061273
Si Si2 0.238339 0.705976 0.007009
Si Si3 0.699833 0.058609 0.685511
Si Si4 0.470901 0.195810 0.876645
Si Si5 0.016863 0.021185 0.695270
Si Si6 0.847995 0.970850 0.104843
Si Si7 0.776886 0.683176 0.798407
O O1 0.475947 0.697062 0.145215
O O2 0.423110 0.388697 0.207792
O O3 0.363345 0.617070 0.941234
O O4 0.444321 0.369372 0.954376
O O5 0.283285 0.876276 0.131760
O O6 0.243159 0.487944 0.105467
O O7 0.254885 0.680701 0.861578
O O8 0.173165 0.780947 0.945397
O O9 0.718591 0.808535 0.683941
O O10 0.500000 0.000000 0.000000
O O11 0.003314 0.770729 0.757935
O O12 0.085263 0.044958 0.790216
O O13 0.000000 0.000000 0.500000
O O14 0.810875 0.898528 0.199455
O O15 0.822539 0.838766 0.937378
#
# Coordination Sequence:
#
# PCOD9252144 Si02
#       7
#     4   4   4   4   4   4   4
#     4  11  26  42  68  93 130 169 222 278 335 409
#     4  11  24  44  64  99 136 172 227 266 357 410
#     4  11  26  40  67 100 131 171 220 291 334 417
#     4  11  24  46  63  93 124 175 218 263 340 409
#     4  12  29  50  77 118 155 202 265 315 376 444
#     4  11  25  43  76  93 147 185 227 291 346 427
#     4  11  23  44  65 103 131 184 225 275 359 418
#
# _framework density 21.444462999999999
#
# number of rings (size 3 to 8) (size 9 to 14) (size 15 to 20)
#    0.000    0.857    4.286    1.286    8.000    0.000 
#    0.000    0.000    0.000    0.000    0.000    0.000 
#    0.000    0.000    0.000    0.000    0.000    0.000 
#
# Total GULP energy -156005.828687 kJ/mol
# GULP energy per Si atom -5571.636739 kJ/mol
# Density = 2.139565 g / cm^3
# Si number density = 21.444463 Si / 1000 Ang^3
#
#
#
# Elastic Constant Matrix: (Units=GPa)
#
#
# Indices 1 2 3 4 5 6 
#
# 1 30.9864 8.3348 1.8835 0.0000 5.3464 0.0000
# 2 8.3348 59.7447 7.7381 0.0000 -10.7899 0.0000
# 3 1.8835 7.7381 92.4369 0.0000 -3.6018 0.0000
# 4 0.0000 0.0000 0.0000 41.6817 0.0000 -3.9527
# 5 5.3464 -10.7899 -3.6018 0.0000 34.0770 0.0000
# 6 0.0000 0.0000 0.0000 -3.9527 0.0000 22.9893
#
#
#
# Elastic Compliance Matrix: (Units=1/GPa)
#
#
# Indices 1 2 3 4 5 6 
#
# 1 0.035280 -0.006223 -0.000492 0.000000 -0.007558 0.000000
# 2 -0.006223 0.019001 -0.001196 0.000000 0.006866 0.000000
# 3 -0.000492 -0.001196 0.010962 0.000000 0.000857 0.000000
# 4 0.000000 0.000000 0.000000 0.024389 0.000000 0.004193
# 5 -0.007558 0.006866 0.000857 0.000000 0.032796 0.000000
# 6 0.000000 0.000000 0.000000 0.004193 0.000000 0.044220
#
#
# Mechanical properties :
#
#
# Convention : Reuss Voigt Hill
#
# Bulk Modulus (GPa) = 20.23492 24.34231 22.28862
# Shear Modulus (GPa) = 25.13278 30.76370 27.94824
#
# Velocity S-wave (km/s) = 3.42715 3.79169 3.61402
# Velocity P-wave (km/s) = 5.01168 5.52677 5.27552
#
# Compressibility (1/GPa) = 0.04941951
#
# Stress axis : x y z
#
# Youngs Moduli (GPa) = 28.34469 52.62882 91.22619
#
# Poissons Ratio (x) = 0.32751 0.04492
# Poissons Ratio (y) = 0.17639 0.10913
# Poissons Ratio (z) = 0.01396 0.06296
#
# Static dielectric constant tensor:
#      x y z
#    x 1.744100 0.000000 -0.024240 
#    y 0.000000 1.945060 0.000000 
#    z -0.024240 0.000000 1.768920 
# 
# From -- ./inp_files/19903.got.cif
#   From: 2010.05.17/outbox.cif.g08.bks.cpg/sg14_10_cif.got.tgz:19903.got - 2010.06.03 17:49:19.
