data_PCOD9252602
_publ_section_title
;
Structure prediction by ZEFSAII (Michael W. Deem and Ramdas Pophale) SiO2 
 PCOD9252602
Probable space group: P 21/C
;
_chemical_formula_sum "Si O2"
_cell_formula_units_Z 20
_cell_length_a 4.901000
_cell_length_b 14.345721
_cell_length_c 10.797982
_cell_angle_alpha 90.000000
_cell_angle_beta 100.447456
_cell_angle_gamma 90.000000
_cell_volume 746.602487
_symmetry_space_group_name_H-M "P 21/C"
_symmetry_group_IT_number 14
_symmetry_cell_setting 'monoclinic'
loop_
_space_group_symop_operation_xyz
x,y,z
-x,1/2+y,1/2-z
-x,-y,-z
x,1/2-y,1/2+z
loop_
_atom_site_type_symbol
_atom_site_label
_atom_site_fract_x
_atom_site_fract_y
_atom_site_fract_z
Si Si1 0.300794 0.590518 0.751100
Si Si2 0.777352 0.770001 0.968182
Si Si3 0.242054 0.047540 0.903791
Si Si4 0.441304 0.721061 0.189809
Si Si5 0.177645 0.592285 0.012372
O O1 0.585916 0.580836 0.701547
O O2 0.221941 0.699231 0.713304
O O3 0.352528 0.583108 0.901056
O O4 0.056243 0.522448 0.683566
O O5 0.641214 0.778468 0.822906
O O6 0.992586 0.685712 0.981774
O O7 0.869425 0.874250 0.009638
O O8 0.572079 0.747585 0.067038
O O9 0.500000 0.000000 0.000000
O O10 0.331930 0.617313 0.152639
O O11 0.000000 0.500000 0.000000
#
# Coordination Sequence:
#
# PCOD9252602 Si02
#       5
#     4   4   4   4   4
#     4  11  24  49  71 110 154 195 263 323 385 476
#     4  11  25  46  72 104 150 206 253 320 399 467
#     4  11  25  46  76 108 151 200 263 320 388 477
#     4  11  24  47  73 102 153 201 256 318 398 467
#     4  12  27  46  75 112 154 203 266 334 402 485
#
# _framework density 26.788014
#
# number of rings (size 3 to 8) (size 9 to 14) (size 15 to 20)
#    0.000    0.800    4.000    3.000    2.800    2.400 
#    0.000    0.000    0.000    0.000    0.000    0.000 
#    0.000    0.000    0.000    0.000    0.000    0.000 
#
# Total GULP energy -111748.451006 kJ/mol
# GULP energy per Si atom -5587.422550 kJ/mol
# Density = 2.672704 g / cm^3
# Si number density = 26.788014 Si / 1000 Ang^3
#
#
#
# Elastic Constant Matrix: (Units=GPa)
#
#
# Indices 1 2 3 4 5 6 
#
# 1 90.7591 -8.5659 34.3865 0.0000 -2.9216 0.0000
# 2 -8.5659 37.2697 20.7756 0.0000 -10.0969 0.0000
# 3 34.3865 20.7756 170.1241 0.0000 -4.8354 0.0000
# 4 0.0000 0.0000 0.0000 42.2174 0.0000 -5.3862
# 5 -2.9216 -10.0969 -4.8354 0.0000 57.1063 0.0000
# 6 0.0000 0.0000 0.0000 -5.3862 0.0000 32.7082
#
#
#
# Elastic Compliance Matrix: (Units=1/GPa)
#
#
# Indices 1 2 3 4 5 6 
#
# 1 0.012727 0.005026 -0.003150 0.000000 0.001273 0.000000
# 2 0.005026 0.032154 -0.004785 0.000000 0.005537 0.000000
# 3 -0.003150 -0.004785 0.007088 0.000000 -0.000407 0.000000
# 4 0.000000 0.000000 0.000000 0.024195 0.000000 0.003984
# 5 0.001273 0.005537 -0.000407 0.000000 0.018521 0.000000
# 6 0.000000 0.000000 0.000000 0.003984 0.000000 0.031229
#
#
# Mechanical properties :
#
#
# Convention : Reuss Voigt Hill
#
# Bulk Modulus (GPa) = 21.66839 43.48280 32.57559
# Shear Modulus (GPa) = 33.98675 43.17683 38.58179
#
# Velocity S-wave (km/s) = 3.56579 4.01907 3.79920
# Velocity P-wave (km/s) = 5.00595 6.14855 5.60643
#
# Compressibility (1/GPa) = 0.04615018
#
# Stress axis : x y z
#
# Youngs Moduli (GPa) = 78.57317 31.10020 141.09222
#
# Poissons Ratio (x) = -0.15631 0.44445
# Poissons Ratio (y) = -0.39491 0.67515
# Poissons Ratio (z) = 0.24751 0.14882
#
# Static dielectric constant tensor:
#      x y z
#    x 2.158240 0.000000 0.117130 
#    y 0.000000 2.325770 0.000000 
#    z 0.117130 0.000000 2.113510 
# 
# From -- ./inp_files/20697.got.cif
#   From: 2010.05.17/outbox.cif.g08.bks.cpg/sg14_11_cif.got.tgz:20697.got - 2010.06.03 17:49:19.
