data_PCOD9252859
_publ_section_title
;
Structure prediction by ZEFSAII (Michael W. Deem and Ramdas Pophale) SiO2 
 PCOD9252859
Probable space group: P 21/C
;
_chemical_formula_sum "Si O2"
_cell_formula_units_Z 18
_cell_length_a 7.714132
_cell_length_b 9.294101
_cell_length_c 9.873490
_cell_angle_alpha 90.000000
_cell_angle_beta 122.081528
_cell_angle_gamma 90.000000
_cell_volume 599.789508
_symmetry_space_group_name_H-M "P 21/C"
_symmetry_group_IT_number 14
_symmetry_cell_setting 'monoclinic'
loop_
_space_group_symop_operation_xyz
x,y,z
-x,1/2+y,1/2-z
-x,-y,-z
x,1/2-y,1/2+z
loop_
_atom_site_type_symbol
_atom_site_label
_atom_site_fract_x
_atom_site_fract_y
_atom_site_fract_z
Si Si1 0.125178 0.447327 0.856317
Si Si2 0.585754 0.810594 0.934376
Si Si3 0.747100 0.161782 0.367645
Si Si4 0.000000 0.500000 0.500000
Si Si5 0.620868 0.418314 0.372580
O O1 0.277072 0.320550 0.955996
O O2 0.909515 0.397132 0.826496
O O3 0.122242 0.474421 0.697716
O O4 0.202185 0.587069 0.967876
O O5 0.463356 0.853033 0.020298
O O6 0.454216 0.952564 0.765780
O O7 0.444926 0.716269 0.763146
O O8 0.852273 0.331872 0.451663
O O9 0.767262 0.565018 0.483026
#
# Coordination Sequence:
#
# PCOD9252859 Si02
#       5
#     4   4   4   2   4
#     4  11  27  49  86 112 173 212 282 345 426 497
#     4  11  25  50  75 124 155 221 269 355 407 512
#     4  11  25  51  78 121 154 222 277 350 415 509
#     4  12  26  50  74 124 156 230 258 346 412 516
#     4  11  26  44  80 112 169 201 280 335 420 490
#
# _framework density 30.010525999999999
#
# number of rings (size 3 to 8) (size 9 to 14) (size 15 to 20)
#    0.000    0.889    2.222    2.667    6.222    2.667 
#    4.000    0.000    0.000    0.000    0.000    0.000 
#    0.000    0.000    0.000    0.000    0.000    0.000 
#
# Total GULP energy -100739.662372 kJ/mol
# GULP energy per Si atom -5596.647910 kJ/mol
# Density = 2.994222 g / cm^3
# Si number density = 30.010526 Si / 1000 Ang^3
#
#
#
# Elastic Constant Matrix: (Units=GPa)
#
#
# Indices 1 2 3 4 5 6 
#
# 1 216.9688 103.6350 68.1182 0.0000 26.6682 0.0000
# 2 103.6350 390.1942 118.9507 0.0000 5.6858 0.0000
# 3 68.1182 118.9507 231.5817 0.0000 24.8553 0.0000
# 4 0.0000 0.0000 0.0000 45.8716 0.0000 -5.1496
# 5 26.6682 5.6858 24.8553 0.0000 60.0703 0.0000
# 6 0.0000 0.0000 0.0000 -5.1496 0.0000 74.6426
#
#
#
# Elastic Compliance Matrix: (Units=1/GPa)
#
#
# Indices 1 2 3 4 5 6 
#
# 1 0.005713 -0.001236 -0.000822 0.000000 -0.002079 0.000000
# 2 -0.001236 0.003314 -0.001427 0.000000 0.000826 0.000000
# 3 -0.000822 -0.001427 0.005483 0.000000 -0.001769 0.000000
# 4 0.000000 0.000000 0.000000 0.021970 0.000000 0.001516
# 5 -0.002079 0.000826 -0.001769 0.000000 0.018224 0.000000
# 6 0.000000 0.000000 0.000000 0.001516 0.000000 0.013502
#
#
# Mechanical properties :
#
#
# Convention : Reuss Voigt Hill
#
# Bulk Modulus (GPa) = 132.65368 157.79473 145.22420
# Shear Modulus (GPa) = 64.35745 72.65295 68.50520
#
# Velocity S-wave (km/s) = 4.63589 4.92562 4.78295
# Velocity P-wave (km/s) = 8.54129 9.22187 8.88810
#
# Compressibility (1/GPa) = 0.00753843
#
# Stress axis : x y z
#
# Youngs Moduli (GPa) = 175.03142 301.72151 182.38398
#
# Poissons Ratio (x) = 0.37307 0.14997
# Poissons Ratio (y) = 0.21642 0.26032
# Poissons Ratio (z) = 0.14392 0.43065
#
# Static dielectric constant tensor:
#      x y z
#    x 2.414270 0.000000 0.206550 
#    y 0.000000 2.522370 0.000000 
#    z 0.206550 0.000000 2.244560 
# 
# From -- ./inp_files/8035.got.cif
#   From: 2010.05.17/outbox.cif.g08.bks.cpg/sg14_5_cif.got.tgz:8035.got - 2010.06.03 17:49:19.
