data_PCOD9252274
_publ_section_title
;
Structure prediction by ZEFSAII (Michael W. Deem and Ramdas Pophale) SiO2 
 PCOD9252274
Probable space group: P 21/C
;
_chemical_formula_sum "Si O2"
_cell_formula_units_Z 32
_cell_length_a 6.874292
_cell_length_b 27.952551
_cell_length_c 9.941888
_cell_angle_alpha 90.000000
_cell_angle_beta 56.241007
_cell_angle_gamma 90.000000
_cell_volume 1588.250928
_symmetry_space_group_name_H-M "P 21/C"
_symmetry_group_IT_number 14
_symmetry_cell_setting 'monoclinic'
loop_
_space_group_symop_operation_xyz
x,y,z
-x,1/2+y,1/2-z
-x,-y,-z
x,1/2-y,1/2+z
loop_
_atom_site_type_symbol
_atom_site_label
_atom_site_fract_x
_atom_site_fract_y
_atom_site_fract_z
Si Si1 0.400117 0.477006 0.172678
Si Si2 0.473914 0.700556 0.384378
Si Si3 0.985206 0.844435 0.003159
Si Si4 0.733229 0.387115 0.113525
Si Si5 0.038384 0.584114 0.699655
Si Si6 0.475552 0.292076 0.323914
Si Si7 0.127826 0.379632 0.741557
Si Si8 0.514212 0.041421 0.105243
O O1 0.553273 0.430329 0.153512
O O2 0.135249 0.460162 0.249658
O O3 0.419912 0.515914 0.282049
O O4 0.500000 0.500000 0.000000
O O5 0.495292 0.747287 0.284564
O O6 0.436124 0.713712 0.556420
O O7 0.698305 0.665078 0.294285
O O8 0.248136 0.673281 0.414576
O O9 0.942672 0.876920 0.888303
O O10 0.925102 0.871930 0.163585
O O11 0.801215 0.801874 0.059106
O O12 0.600304 0.339399 0.214916
O O13 0.899640 0.403995 0.171930
O O14 0.898918 0.377955 0.922039
O O15 0.279541 0.574907 0.528492
O O16 0.279195 0.427534 0.707005
O O17 0.500000 0.000000 0.000000
#
# Coordination Sequence:
#
# PCOD9252274 Si02
#       8
#     4   4   4   4   4   4   4   4
#     4  12  28  43  67 105 137 185 229 283 343 404
#     4  11  26  47  71 102 136 175 228 277 341 411
#     4  11  23  46  72  96 135 179 221 271 342 404
#     4  12  26  46  66 101 144 174 226 288 337 403
#     4  12  23  46  71  93 137 185 224 280 339 401
#     4  11  26  46  71 102 134 176 224 279 340 409
#     4  11  27  44  67 104 138 176 224 285 333 403
#     4  12  24  45  71  98 137 180 234 278 336 405
#
# _framework density 20.147950000000002
#
# number of rings (size 3 to 8) (size 9 to 14) (size 15 to 20)
#    0.000    0.500    5.000    2.625    7.000    4.000 
#    0.000    0.000    0.000    0.000    0.000    0.000 
#    0.000    0.000    0.000    0.000    0.000    0.000 
#
# Total GULP energy -178967.728755 kJ/mol
# GULP energy per Si atom -5592.741524 kJ/mol
# Density = 2.010209 g / cm^3
# Si number density = 20.147950 Si / 1000 Ang^3
#
#
#
# Elastic Constant Matrix: (Units=GPa)
#
#
# Indices 1 2 3 4 5 6 
#
# 1 75.0922 0.8288 -6.9590 0.0000 8.5908 0.0000
# 2 0.8288 67.4302 -3.1537 0.0000 13.2013 0.0000
# 3 -6.9590 -3.1537 48.8795 0.0000 3.9009 0.0000
# 4 0.0000 0.0000 0.0000 43.8751 0.0000 4.6949
# 5 8.5908 13.2013 3.9009 0.0000 32.2710 0.0000
# 6 0.0000 0.0000 0.0000 4.6949 0.0000 23.7294
#
#
#
# Elastic Compliance Matrix: (Units=1/GPa)
#
#
# Indices 1 2 3 4 5 6 
#
# 1 0.014028 0.000791 0.002395 0.000000 -0.004347 0.000000
# 2 0.000791 0.016288 0.001729 0.000000 -0.007082 0.000000
# 3 0.002395 0.001729 0.021223 0.000000 -0.003910 0.000000
# 4 0.000000 0.000000 0.000000 0.023285 0.000000 -0.004607
# 5 -0.004347 -0.007082 -0.003910 0.000000 0.035515 0.000000
# 6 0.000000 0.000000 0.000000 -0.004607 0.000000 0.043053
#
#
# Mechanical properties :
#
#
# Convention : Reuss Voigt Hill
#
# Bulk Modulus (GPa) = 16.29533 19.20381 17.74957
# Shear Modulus (GPa) = 30.48439 33.35416 31.91927
#
# Velocity S-wave (km/s) = 3.89398 4.07315 3.98457
# Velocity P-wave (km/s) = 5.32192 5.62786 5.47703
#
# Compressibility (1/GPa) = 0.06136727
#
# Stress axis : x y z
#
# Youngs Moduli (GPa) = 71.28843 61.39538 47.11855
#
# Poissons Ratio (x) = -0.04854 -0.11285
# Poissons Ratio (y) = -0.05637 -0.08145
# Poissons Ratio (z) = -0.17074 -0.10613
#
# Static dielectric constant tensor:
#      x y z
#    x 1.721340 0.000000 0.007990 
#    y 0.000000 1.696960 0.000000 
#    z 0.007990 0.000000 1.675530 
# 
# From -- ./inp_files/6963.got.cif
#   From: 2010.05.17/outbox.cif.g08.bks.cpg/sg14_4_cif.got.tgz:6963.got - 2010.06.03 17:49:19.
