data_PCOD9252788
_publ_section_title
;
Structure prediction by ZEFSAII (Michael W. Deem and Ramdas Pophale) SiO2 
 PCOD9252788
Probable space group: P 21/C
;
_chemical_formula_sum "Si O2"
_cell_formula_units_Z 20
_cell_length_a 12.139102
_cell_length_b 7.574857
_cell_length_c 9.527978
_cell_angle_alpha 90.000000
_cell_angle_beta 69.511273
_cell_angle_gamma 90.000000
_cell_volume 820.694095
_symmetry_space_group_name_H-M "P 21/C"
_symmetry_group_IT_number 14
_symmetry_cell_setting 'monoclinic'
loop_
_space_group_symop_operation_xyz
x,y,z
-x,1/2+y,1/2-z
-x,-y,-z
x,1/2-y,1/2+z
loop_
_atom_site_type_symbol
_atom_site_label
_atom_site_fract_x
_atom_site_fract_y
_atom_site_fract_z
Si Si1 0.038786 0.228015 0.437331
Si Si2 0.365749 0.041303 0.226536
Si Si3 0.368775 0.106623 0.905973
Si Si4 0.112280 0.031880 0.654098
Si Si5 0.215578 0.810614 0.817891
O O1 0.916087 0.288010 0.561900
O O2 0.126387 0.170197 0.521691
O O3 0.089153 0.368969 0.308793
O O4 0.004067 0.066235 0.351126
O O5 0.363487 0.204693 0.333223
O O6 0.496657 0.960532 0.166641
O O7 0.278220 0.878872 0.295210
O O8 0.338755 0.116187 0.083717
O O9 0.288967 0.956402 0.869555
O O10 0.203409 0.881452 0.661860
#
# Coordination Sequence:
#
# PCOD9252788 Si02
#       5
#     4   4   4   4   4
#     4  11  25  47  74 107 152 194 250 310 372 446
#     4  11  26  50  75 114 151 197 250 310 370 447
#     4  11  26  47  80 108 153 197 250 307 372 447
#     4  11  25  46  74 106 148 195 249 312 365 449
#     4  12  25  48  79 109 149 203 248 310 373 445
#
# _framework density 24.369619
#
# number of rings (size 3 to 8) (size 9 to 14) (size 15 to 20)
#    0.000    0.800    4.000    1.800    0.000    8.800 
#    0.000    0.000    0.000    0.000    0.000    0.000 
#    0.000    0.000    0.000    0.000    0.000    0.000 
#
# Total GULP energy -112098.228564 kJ/mol
# GULP energy per Si atom -5604.911428 kJ/mol
# Density = 2.431415 g / cm^3
# Si number density = 24.369619 Si / 1000 Ang^3
#
#
#
# Elastic Constant Matrix: (Units=GPa)
#
#
# Indices 1 2 3 4 5 6 
#
# 1 121.6149 44.3653 57.9143 0.0000 22.1015 0.0000
# 2 44.3653 158.6650 80.6162 0.0000 30.9542 0.0000
# 3 57.9143 80.6162 129.7955 0.0000 38.4977 0.0000
# 4 0.0000 0.0000 0.0000 51.6080 0.0000 15.3646
# 5 22.1015 30.9542 38.4977 0.0000 43.4204 0.0000
# 6 0.0000 0.0000 0.0000 15.3646 0.0000 47.9278
#
#
#
# Elastic Compliance Matrix: (Units=1/GPa)
#
#
# Indices 1 2 3 4 5 6 
#
# 1 0.010580 -0.000723 -0.003836 0.000000 -0.001469 0.000000
# 2 -0.000723 0.009391 -0.004930 0.000000 -0.001956 0.000000
# 3 -0.003836 -0.004930 0.014731 0.000000 -0.007593 0.000000
# 4 0.000000 0.000000 0.000000 0.021421 0.000000 -0.006867
# 5 -0.001469 -0.001956 -0.007593 0.000000 0.031905 0.000000
# 6 0.000000 0.000000 0.000000 -0.006867 0.000000 0.023066
#
#
# Mechanical properties :
#
#
# Convention : Reuss Voigt Hill
#
# Bulk Modulus (GPa) = 63.60022 86.20741 74.90381
# Shear Modulus (GPa) = 36.95108 43.73655 40.34381
#
# Velocity S-wave (km/s) = 3.89816 4.24100 4.07319
# Velocity P-wave (km/s) = 6.81291 7.70930 7.27492
#
# Compressibility (1/GPa) = 0.01572322
#
# Stress axis : x y z
#
# Youngs Moduli (GPa) = 94.51681 106.48154 67.88599
#
# Poissons Ratio (x) = 0.07694 0.26043
# Poissons Ratio (y) = 0.06830 0.33471
# Poissons Ratio (z) = 0.36260 0.52500
#
# Static dielectric constant tensor:
#      x y z
#    x 1.919660 0.000000 -0.015890 
#    y 0.000000 2.025260 0.000000 
#    z -0.015890 0.000000 1.949550 
# 
# From -- ./inp_files/11796.got.cif
#   From: 2010.05.17/outbox.cif.g08.bks.cpg/sg14_6_cif.got.tgz:11796.got - 2010.06.03 17:49:19.
