data_PCOD9252823
_publ_section_title
;
Structure prediction by ZEFSAII (Michael W. Deem and Ramdas Pophale) SiO2 
 PCOD9252823
Probable space group: P 21/C
;
_chemical_formula_sum "Si O2"
_cell_formula_units_Z 18
_cell_length_a 8.115936
_cell_length_b 7.790147
_cell_length_c 13.633037
_cell_angle_alpha 90.000000
_cell_angle_beta 123.603049
_cell_angle_gamma 90.000000
_cell_volume 717.902493
_symmetry_space_group_name_H-M "P 21/C"
_symmetry_group_IT_number 14
_symmetry_cell_setting 'monoclinic'
loop_
_space_group_symop_operation_xyz
x,y,z
-x,1/2+y,1/2-z
-x,-y,-z
x,1/2-y,1/2+z
loop_
_atom_site_type_symbol
_atom_site_label
_atom_site_fract_x
_atom_site_fract_y
_atom_site_fract_z
Si Si1 0.500000 0.000000 0.000000
Si Si2 0.230349 0.739122 0.287487
Si Si3 0.766846 0.818031 0.381301
Si Si4 0.354528 0.929470 0.151944
Si Si5 0.109119 0.023207 0.381082
O O1 0.399761 0.888637 0.878454
O O2 0.632435 0.102276 0.959709
O O3 0.232868 0.787585 0.173236
O O4 0.020142 0.647042 0.230579
O O5 0.244128 0.910748 0.355296
O O6 0.568310 0.902863 0.273146
O O7 0.745501 0.614001 0.362693
O O8 0.781464 0.865707 0.500928
O O9 0.952722 0.900189 0.385959
#
# Coordination Sequence:
#
# PCOD9252823 Si02
#       5
#     2   4   4   4   4
#     4  12  28  46  78 114 148 202 250 310 362 470
#     4  12  28  48  79 109 158 195 255 305 388 435
#     4  11  25  47  74 107 154 192 260 302 384 435
#     4  12  26  50  75 107 149 206 248 313 363 468
#     4  11  27  46  72 119 147 199 250 320 371 454
#
# _framework density 25.073043999999999
#
# number of rings (size 3 to 8) (size 9 to 14) (size 15 to 20)
#    0.000    0.444    4.444    1.333   12.444    3.556 
#    0.000    0.000    0.000    0.000    0.000    0.000 
#    0.000    0.000    0.000    0.000    0.000    0.000 
#
# Total GULP energy -100402.426330 kJ/mol
# GULP energy per Si atom -5577.912574 kJ/mol
# Density = 2.501598 g / cm^3
# Si number density = 25.073044 Si / 1000 Ang^3
#
#
#
# Elastic Constant Matrix: (Units=GPa)
#
#
# Indices 1 2 3 4 5 6 
#
# 1 40.8940 2.3631 18.4786 0.0000 -8.1760 0.0000
# 2 2.3631 99.6503 53.7292 0.0000 -4.2887 0.0000
# 3 18.4786 53.7292 85.9988 0.0000 -20.9260 0.0000
# 4 0.0000 0.0000 0.0000 40.2120 0.0000 1.9355
# 5 -8.1760 -4.2887 -20.9260 0.0000 38.2784 0.0000
# 6 0.0000 0.0000 0.0000 1.9355 0.0000 44.9549
#
#
#
# Elastic Compliance Matrix: (Units=1/GPa)
#
#
# Indices 1 2 3 4 5 6 
#
# 1 0.028202 0.003631 -0.007801 0.000000 0.002166 0.000000
# 2 0.003631 0.016152 -0.011814 0.000000 -0.003873 0.000000
# 3 -0.007801 -0.011814 0.023020 0.000000 0.009595 0.000000
# 4 0.000000 0.000000 0.000000 0.024920 0.000000 -0.001073
# 5 0.002166 -0.003873 0.009595 0.000000 0.031398 0.000000
# 6 0.000000 0.000000 0.000000 -0.001073 0.000000 0.022291
#
#
# Mechanical properties :
#
#
# Convention : Reuss Voigt Hill
#
# Bulk Modulus (GPa) = 28.24457 41.74274 34.99366
# Shear Modulus (GPa) = 26.35014 34.82055 30.58535
#
# Velocity S-wave (km/s) = 3.24533 3.73066 3.49642
# Velocity P-wave (km/s) = 5.03312 5.93647 5.50336
#
# Compressibility (1/GPa) = 0.03540504
#
# Stress axis : x y z
#
# Youngs Moduli (GPa) = 35.45893 61.91168 43.44089
#
# Poissons Ratio (x) = -0.22477 0.33888
# Poissons Ratio (y) = -0.12873 0.51320
# Poissons Ratio (z) = 0.27661 0.73141
#
# Static dielectric constant tensor:
#      x y z
#    x 2.023810 0.000000 -0.016930 
#    y 0.000000 1.961020 0.000000 
#    z -0.016930 0.000000 1.891140 
# 
# From -- ./inp_files/23166.got.cif
#   From: 2010.05.17/outbox.cif.g08.bks.cpg/sg14_12_cif.got.tgz:23166.got - 2010.06.03 17:49:19.
