data_PCOD9252252
_publ_section_title
;
Structure prediction by ZEFSAII (Michael W. Deem and Ramdas Pophale) SiO2 
 PCOD9252252
Probable space group: P 21/C
;
_chemical_formula_sum "Si O2"
_cell_formula_units_Z 28
_cell_length_a 9.282793
_cell_length_b 14.565233
_cell_length_c 21.181288
_cell_angle_alpha 90.000000
_cell_angle_beta 151.104527
_cell_angle_gamma 90.000000
_cell_volume 1383.844419
_symmetry_space_group_name_H-M "P 21/C"
_symmetry_group_IT_number 14
_symmetry_cell_setting 'monoclinic'
loop_
_space_group_symop_operation_xyz
x,y,z
-x,1/2+y,1/2-z
-x,-y,-z
x,1/2-y,1/2+z
loop_
_atom_site_type_symbol
_atom_site_label
_atom_site_fract_x
_atom_site_fract_y
_atom_site_fract_z
Si Si1 0.667473 0.077094 0.523860
Si Si2 0.354894 0.404636 0.322414
Si Si3 0.280239 0.866949 0.164537
Si Si4 0.871267 0.320869 0.833116
Si Si5 0.652929 0.734782 0.567176
Si Si6 0.272107 0.040466 0.565100
Si Si7 0.605837 0.593026 0.435500
O O1 0.553479 0.176934 0.500178
O O2 0.022122 0.073098 0.670628
O O3 0.500000 0.000000 0.500000
O O4 0.601832 0.044088 0.427459
O O5 0.565772 0.383528 0.343581
O O6 0.334704 0.322158 0.363933
O O7 0.491264 0.492889 0.409863
O O8 0.240718 0.758734 0.163451
O O9 0.488352 0.912056 0.297994
O O10 0.949153 0.907429 0.045798
O O11 0.595708 0.378410 0.701561
O O12 0.027279 0.272551 0.833033
O O13 0.124358 0.383174 0.962616
O O14 0.565012 0.666799 0.475928
O O15 0.000000 0.000000 0.500000
#
# Coordination Sequence:
#
# PCOD9252252 Si02
#       7
#     4   4   4   4   4   4   4
#     4  12  25  44  72  96 140 178 234 281 343 411
#     4  12  25  45  66 104 136 176 234 281 338 410
#     4  11  25  41  70 101 136 179 231 278 343 407
#     4  11  23  46  70  97 140 181 227 279 345 408
#     4  11  25  42  67 103 135 178 226 285 343 404
#     4  12  24  46  71  99 135 186 229 283 344 408
#     4  11  23  46  69  95 139 183 223 282 347 402
#
# _framework density 20.233488000000001
#
# number of rings (size 3 to 8) (size 9 to 14) (size 15 to 20)
#    0.000    0.571    4.286    3.429    6.000    1.143 
#    5.143    0.000    0.000    0.000    0.000    0.000 
#    0.000    0.000    0.000    0.000    0.000    0.000 
#
# Total GULP energy -156572.116276 kJ/mol
# GULP energy per Si atom -5591.861296 kJ/mol
# Density = 2.018744 g / cm^3
# Si number density = 20.233488 Si / 1000 Ang^3
#
#
#
# Elastic Constant Matrix: (Units=GPa)
#
#
# Indices 1 2 3 4 5 6 
#
# 1 108.7893 59.2417 27.9932 0.0000 -0.2024 0.0000
# 2 59.2417 122.1781 44.3281 0.0000 12.1029 0.0000
# 3 27.9932 44.3281 107.6179 0.0000 1.6561 0.0000
# 4 0.0000 0.0000 0.0000 28.3564 0.0000 2.3239
# 5 -0.2024 12.1029 1.6561 0.0000 21.2451 0.0000
# 6 0.0000 0.0000 0.0000 2.3239 0.0000 33.1527
#
#
#
# Elastic Compliance Matrix: (Units=1/GPa)
#
#
# Indices 1 2 3 4 5 6 
#
# 1 0.012841 -0.006311 -0.000799 0.000000 0.003780 0.000000
# 2 -0.006311 0.013330 -0.003736 0.000000 -0.007363 0.000000
# 3 -0.000799 -0.003736 0.011019 0.000000 0.001261 0.000000
# 4 0.000000 0.000000 0.000000 0.035469 0.000000 -0.002486
# 5 0.003780 -0.007363 0.001261 0.000000 0.051202 0.000000
# 6 0.000000 0.000000 0.000000 -0.002486 0.000000 0.030338
#
#
# Mechanical properties :
#
#
# Convention : Reuss Voigt Hill
#
# Bulk Modulus (GPa) = 64.51997 66.85684 65.68840
# Shear Modulus (GPa) = 27.61570 30.35230 28.98400
#
# Velocity S-wave (km/s) = 3.69840 3.87732 3.78891
# Velocity P-wave (km/s) = 7.08481 7.29103 7.18866
#
# Compressibility (1/GPa) = 0.01549908
#
# Stress axis : x y z
#
# Youngs Moduli (GPa) = 77.87285 75.02115 90.75065
#
# Poissons Ratio (x) = 0.47347 0.07250
# Poissons Ratio (y) = 0.49147 0.33900
# Poissons Ratio (z) = 0.06221 0.28025
#
# Static dielectric constant tensor:
#      x y z
#    x 1.827700 0.000000 -0.019640 
#    y 0.000000 1.735550 0.000000 
#    z -0.019640 0.000000 1.699950 
# 
# From -- ./inp_files/65869.got.cif
#   From: 2010.05.17/outbox.cif.g08.bks.cpg/sg14_33_cif.got.tgz:65869.got - 2010.06.03 17:49:19.
