data_PCOD9252320
_publ_section_title
;
Structure prediction by ZEFSAII (Michael W. Deem and Ramdas Pophale) SiO2 
 PCOD9252320
Probable space group: P 21/C
;
_chemical_formula_sum "Si O2"
_cell_formula_units_Z 22
_cell_length_a 9.297994
_cell_length_b 6.616932
_cell_length_c 14.135407
_cell_angle_alpha 90.000000
_cell_angle_beta 105.291417
_cell_angle_gamma 90.000000
_cell_volume 838.880557
_symmetry_space_group_name_H-M "P 21/C"
_symmetry_group_IT_number 14
_symmetry_cell_setting 'monoclinic'
loop_
_space_group_symop_operation_xyz
x,y,z
-x,1/2+y,1/2-z
-x,-y,-z
x,1/2-y,1/2+z
loop_
_atom_site_type_symbol
_atom_site_label
_atom_site_fract_x
_atom_site_fract_y
_atom_site_fract_z
Si Si1 0.934794 0.621702 0.106832
Si Si2 0.344968 0.865270 0.089054
Si Si3 0.548144 0.613288 0.233143
Si Si4 0.812371 0.924800 0.240762
Si Si5 0.682570 0.303563 0.106728
Si Si6 0.000000 0.000000 0.000000
O O1 0.909606 0.773257 0.191891
O O2 0.800867 0.461933 0.082364
O O3 0.083703 0.498636 0.156511
O O4 0.940567 0.775017 0.021545
O O5 0.388357 0.684840 0.168329
O O6 0.432044 0.046832 0.155364
O O7 0.173293 0.925462 0.053887
O O8 0.402445 0.791468 0.997514
O O9 0.668240 0.792253 0.240397
O O10 0.598079 0.435290 0.170400
O O11 0.770593 0.118031 0.169672
#
# Coordination Sequence:
#
# PCOD9252320 Si02
#       6
#     4   4   4   4   4   2
#     4  11  24  45  79 116 157 204 264 334 401 477
#     4  12  29  53  78 120 160 212 268 337 408 483
#     4  11  30  51  78 116 165 212 272 337 408 484
#     4  11  23  49  79 112 158 211 268 329 409 476
#     4  11  25  52  82 111 157 219 270 328 402 491
#     4  12  28  48  74 122 158 198 272 334 400 480
#
# _framework density 26.225425999999999
#
# number of rings (size 3 to 8) (size 9 to 14) (size 15 to 20)
#    0.000    0.727    3.636    1.636   10.182    2.909 
#    0.000    0.000    0.000    0.000    0.000    0.000 
#    0.000    0.000    0.000    0.000    0.000    0.000 
#
# Total GULP energy -122813.273249 kJ/mol
# GULP energy per Si atom -5582.421511 kJ/mol
# Density = 2.616574 g / cm^3
# Si number density = 26.225426 Si / 1000 Ang^3
#
#
#
# Elastic Constant Matrix: (Units=GPa)
#
#
# Indices 1 2 3 4 5 6 
#
# 1 96.3906 58.5665 61.9931 0.0000 14.5197 0.0000
# 2 58.5665 197.2604 96.0317 0.0000 -7.1552 0.0000
# 3 61.9931 96.0317 155.1634 0.0000 -7.5365 0.0000
# 4 0.0000 0.0000 0.0000 84.9962 0.0000 -3.3517
# 5 14.5197 -7.1552 -7.5365 0.0000 31.5031 0.0000
# 6 0.0000 0.0000 0.0000 -3.3517 0.0000 33.2816
#
#
#
# Elastic Compliance Matrix: (Units=1/GPa)
#
#
# Indices 1 2 3 4 5 6 
#
# 1 0.017135 -0.002689 -0.005660 0.000000 -0.009862 0.000000
# 2 -0.002689 0.007688 -0.003580 0.000000 0.002129 0.000000
# 3 -0.005660 -0.003580 0.011139 0.000000 0.004460 0.000000
# 4 0.000000 0.000000 0.000000 0.011812 0.000000 0.001190
# 5 -0.009862 0.002129 0.004460 0.000000 0.037839 0.000000
# 6 0.000000 0.000000 0.000000 0.001190 0.000000 0.030166
#
#
# Mechanical properties :
#
#
# Convention : Reuss Voigt Hill
#
# Bulk Modulus (GPa) = 82.63510 97.99969 90.31739
# Shear Modulus (GPa) = 34.80121 45.43772 40.11947
#
# Velocity S-wave (km/s) = 3.64676 4.16695 3.91550
# Velocity P-wave (km/s) = 7.02209 7.78464 7.41317
#
# Compressibility (1/GPa) = 0.01210140
#
# Stress axis : x y z
#
# Youngs Moduli (GPa) = 58.36170 130.07042 89.77543
#
# Poissons Ratio (x) = 0.34980 0.50817
# Poissons Ratio (y) = 0.15695 0.32143
# Poissons Ratio (z) = 0.33035 0.46570
#
# Static dielectric constant tensor:
#      x y z
#    x 2.070960 0.000000 -0.071970 
#    y 0.000000 2.060390 0.000000 
#    z -0.071970 0.000000 2.035950 
# 
# From -- ./inp_files/56664.got.cif
#   From: 2010.05.17/outbox.cif.g08.bks.cpg/sg14_29_cif.got.tgz:56664.got - 2010.06.03 17:49:19.
