data_PCOD9252360
_publ_section_title
;
Structure prediction by ZEFSAII (Michael W. Deem and Ramdas Pophale) SiO2 
 PCOD9252360
Probable space group: P 21/C
;
_chemical_formula_sum "Si O2"
_cell_formula_units_Z 32
_cell_length_a 14.340804
_cell_length_b 8.636834
_cell_length_c 11.895017
_cell_angle_alpha 90.000000
_cell_angle_beta 108.443538
_cell_angle_gamma 90.000000
_cell_volume 1397.631523
_symmetry_space_group_name_H-M "P 21/C"
_symmetry_group_IT_number 14
_symmetry_cell_setting 'monoclinic'
loop_
_space_group_symop_operation_xyz
x,y,z
-x,1/2+y,1/2-z
-x,-y,-z
x,1/2-y,1/2+z
loop_
_atom_site_type_symbol
_atom_site_label
_atom_site_fract_x
_atom_site_fract_y
_atom_site_fract_z
Si Si1 0.732429 0.236038 0.517233
Si Si2 0.411552 0.265440 0.131003
Si Si3 0.029053 0.414055 0.623436
Si Si4 0.366820 0.451506 0.903173
Si Si5 0.922029 0.136906 0.478616
Si Si6 0.228228 0.249070 0.719061
Si Si7 0.574039 0.066542 0.820993
Si Si8 0.870394 0.064172 0.231021
O O1 0.812569 0.127915 0.485399
O O2 0.661284 0.329592 0.405546
O O3 0.792508 0.357917 0.616886
O O4 0.671621 0.115655 0.567343
O O5 0.300478 0.266805 0.139020
O O6 0.479388 0.329755 0.258490
O O7 0.440816 0.089155 0.112069
O O8 0.426616 0.375360 0.028691
O O9 0.143575 0.377934 0.670189
O O10 0.000000 0.500000 0.500000
O O11 0.975614 0.251574 0.582990
O O12 0.970577 0.484482 0.705629
O O13 0.287732 0.316053 0.847583
O O14 0.401612 0.491691 0.791009
O O15 0.902402 0.183397 0.341421
O O16 0.000000 0.000000 0.500000
O O17 0.179428 0.084980 0.730437
#
# Coordination Sequence:
#
# PCOD9252360 Si02
#       8
#     4   4   4   4   4   4   4   4
#     4  11  25  43  71 101 145 184 232 300 342 428
#     4  11  25  46  74 103 144 186 238 303 356 425
#     4  11  28  39  69  95 141 176 236 285 349 413
#     4  11  25  42  75 100 144 182 240 289 366 416
#     4  11  24  42  64 101 133 185 232 284 346 421
#     4  11  26  44  68 104 138 190 232 292 349 433
#     4  11  25  48  71 106 142 186 244 294 361 427
#     4  11  25  43  67  97 142 182 235 279 358 414
#
# _framework density 22.895876999999999
#
# number of rings (size 3 to 8) (size 9 to 14) (size 15 to 20)
#    0.000    1.000    1.250    3.375   14.000    2.000 
#    0.000    3.750    0.000    0.000    0.000    0.000 
#    0.000    0.000    0.000    0.000    0.000    0.000 
#
# Total GULP energy -178672.083208 kJ/mol
# GULP energy per Si atom -5583.502600 kJ/mol
# Density = 2.284377 g / cm^3
# Si number density = 22.895877 Si / 1000 Ang^3
#
#
#
# Elastic Constant Matrix: (Units=GPa)
#
#
# Indices 1 2 3 4 5 6 
#
# 1 65.2870 19.6168 22.6181 0.0000 6.5670 0.0000
# 2 19.6168 90.8991 8.4422 0.0000 0.0837 0.0000
# 3 22.6181 8.4422 106.6435 0.0000 13.4606 0.0000
# 4 0.0000 0.0000 0.0000 45.9205 0.0000 9.3248
# 5 6.5670 0.0837 13.4606 0.0000 38.0124 0.0000
# 6 0.0000 0.0000 0.0000 9.3248 0.0000 31.0307
#
#
#
# Elastic Compliance Matrix: (Units=1/GPa)
#
#
# Indices 1 2 3 4 5 6 
#
# 1 0.017684 -0.003514 -0.003232 0.000000 -0.001903 0.000000
# 2 -0.003514 0.011784 -0.000273 0.000000 0.000678 0.000000
# 3 -0.003232 -0.000273 0.010482 0.000000 -0.003153 0.000000
# 4 0.000000 0.000000 0.000000 0.023192 0.000000 -0.006969
# 5 -0.001903 0.000678 -0.003153 0.000000 0.027751 0.000000
# 6 0.000000 0.000000 0.000000 -0.006969 0.000000 0.034320
#
#
# Mechanical properties :
#
#
# Convention : Reuss Voigt Hill
#
# Bulk Modulus (GPa) = 38.59343 40.46485 39.52914
# Shear Modulus (GPa) = 33.80880 37.13622 35.47251
#
# Velocity S-wave (km/s) = 3.84687 4.03173 3.94038
# Velocity P-wave (km/s) = 6.05176 6.27574 6.16477
#
# Compressibility (1/GPa) = 0.02591115
#
# Stress axis : x y z
#
# Youngs Moduli (GPa) = 56.54778 84.85803 95.40042
#
# Poissons Ratio (x) = 0.29823 0.30836
# Poissons Ratio (y) = 0.19873 0.02605
# Poissons Ratio (z) = 0.18278 0.02317
#
# Static dielectric constant tensor:
#      x y z
#    x 2.112110 0.000000 0.102410 
#    y 0.000000 1.862180 0.000000 
#    z 0.102410 0.000000 1.911540 
# 
# From -- ./inp_files/31867.got.cif
#   From: 2010.05.17/outbox.cif.g08.bks.cpg/sg14_16_cif.got.tgz:31867.got - 2010.06.03 17:49:19.
