data_PCOD9252915
_publ_section_title
;
Structure prediction by ZEFSAII (Michael W. Deem and Ramdas Pophale) SiO2 
 PCOD9252915
Probable space group: P 21/C
;
_chemical_formula_sum "Si O2"
_cell_formula_units_Z 22
_cell_length_a 14.508777
_cell_length_b 8.328369
_cell_length_c 18.277393
_cell_angle_alpha 90.000000
_cell_angle_beta 23.269055
_cell_angle_gamma 90.000000
_cell_volume 872.481889
_symmetry_space_group_name_H-M "P 21/C"
_symmetry_group_IT_number 14
_symmetry_cell_setting 'monoclinic'
loop_
_space_group_symop_operation_xyz
x,y,z
-x,1/2+y,1/2-z
-x,-y,-z
x,1/2-y,1/2+z
loop_
_atom_site_type_symbol
_atom_site_label
_atom_site_fract_x
_atom_site_fract_y
_atom_site_fract_z
Si Si1 0.130449 0.160532 0.656173
Si Si2 0.210614 0.282901 0.443582
Si Si3 0.500000 0.000000 0.500000
Si Si4 0.024425 0.821222 0.515092
Si Si5 0.389147 0.167529 0.068933
Si Si6 0.690945 0.143720 0.077110
O O1 0.139013 0.166349 0.563025
O O2 0.260186 0.325941 0.585293
O O3 0.295556 0.037968 0.582154
O O4 0.877213 0.164239 0.876696
O O5 0.011066 0.293401 0.528225
O O6 0.431379 0.193854 0.245615
O O7 0.280658 0.462703 0.414516
O O8 0.432817 0.812957 0.552980
O O9 0.811071 0.793950 0.726329
O O10 0.243134 0.765049 0.403642
O O11 0.000000 0.000000 0.500000
O O12 0.500000 0.000000 0.000000
#
# Coordination Sequence:
#
# PCOD9252915 Si02
#       6
#     4   4   2   4   4   4
#     4   9  24  47  71 108 147 197 252 302 382 459
#     4  12  27  45  79 105 151 196 252 323 369 468
#     4   8  20  44  72 104 146 194 240 308 370 450
#     4  11  26  48  70 108 146 194 252 317 384 459
#     4   9  21  41  72 102 147 194 242 303 380 446
#     4  11  27  49  72 111 151 196 253 313 392 453
#
# _framework density 25.215425
#
# number of rings (size 3 to 8) (size 9 to 14) (size 15 to 20)
#    1.091    0.727    0.000    1.636    7.636    7.273 
#    0.000    0.000    0.000    1.091    0.000    0.000 
#    0.000    0.000    0.000    0.000    0.000    0.000 
#
# Total GULP energy -122510.107174 kJ/mol
# GULP energy per Si atom -5568.641235 kJ/mol
# Density = 2.515803 g / cm^3
# Si number density = 25.215425 Si / 1000 Ang^3
#
#
#
# Elastic Constant Matrix: (Units=GPa)
#
#
# Indices 1 2 3 4 5 6 
#
# 1 116.7208 4.0913 24.7785 0.0000 7.4811 0.0000
# 2 4.0913 125.0007 1.9012 0.0000 -3.2701 0.0000
# 3 24.7785 1.9012 83.9729 0.0000 -2.4292 0.0000
# 4 0.0000 0.0000 0.0000 9.3745 0.0000 -7.8535
# 5 7.4811 -3.2701 -2.4292 0.0000 17.4449 0.0000
# 6 0.0000 0.0000 0.0000 -7.8535 0.0000 43.6986
#
#
#
# Elastic Compliance Matrix: (Units=1/GPa)
#
#
# Indices 1 2 3 4 5 6 
#
# 1 0.009493 -0.000385 -0.002924 0.000000 -0.004551 0.000000
# 2 -0.000385 0.008057 -0.000020 0.000000 0.001673 0.000000
# 3 -0.002924 -0.000020 0.012860 0.000000 0.003041 0.000000
# 4 0.000000 0.000000 0.000000 0.125580 0.000000 0.022569
# 5 -0.004551 0.001673 0.003041 0.000000 0.060012 0.000000
# 6 0.000000 0.000000 0.000000 0.022569 0.000000 0.026940
#
#
# Mechanical properties :
#
#
# Convention : Reuss Voigt Hill
#
# Bulk Modulus (GPa) = 42.10476 43.02626 42.56551
# Shear Modulus (GPa) = 19.41613 33.76515 26.59064
#
# Velocity S-wave (km/s) = 2.77792 3.66330 3.25089
# Velocity P-wave (km/s) = 5.19840 5.91553 5.56852
#
# Compressibility (1/GPa) = 0.02375029
#
# Stress axis : x y z
#
# Youngs Moduli (GPa) = 105.33636 124.12133 77.76106
#
# Poissons Ratio (x) = 0.04782 0.22739
# Poissons Ratio (y) = 0.04059 0.00158
# Poissons Ratio (z) = 0.30803 0.00252
#
# Static dielectric constant tensor:
#      x y z
#    x 1.988860 0.000000 -0.015220 
#    y 0.000000 2.046540 0.000000 
#    z -0.015220 0.000000 1.971860 
# 
# From -- ./inp_files/58723.got.cif
#   From: 2010.05.17/outbox.cif.g08.bks.cpg/sg14_30_cif.got.tgz:58723.got - 2010.06.03 17:49:19.
