data_PCOD9252045
_publ_section_title
;
Structure prediction by ZEFSAII (Michael W. Deem and Ramdas Pophale) SiO2 
 PCOD9252045
Probable space group: P 21/C
;
_chemical_formula_sum "Si O2"
_cell_formula_units_Z 28
_cell_length_a 6.439915
_cell_length_b 7.659101
_cell_length_c 27.242929
_cell_angle_alpha 90.000000
_cell_angle_beta 108.586751
_cell_angle_gamma 90.000000
_cell_volume 1273.643089
_symmetry_space_group_name_H-M "P 21/C"
_symmetry_group_IT_number 14
_symmetry_cell_setting 'monoclinic'
loop_
_space_group_symop_operation_xyz
x,y,z
-x,1/2+y,1/2-z
-x,-y,-z
x,1/2-y,1/2+z
loop_
_atom_site_type_symbol
_atom_site_label
_atom_site_fract_x
_atom_site_fract_y
_atom_site_fract_z
Si Si1 0.776599 0.083914 0.278860
Si Si2 0.526360 0.412295 0.948881
Si Si3 0.119441 0.912243 0.824038
Si Si4 0.093153 0.267065 0.377449
Si Si5 0.478552 0.243417 0.110018
Si Si6 0.334315 0.298266 0.710767
Si Si7 0.176496 0.575738 0.551669
O O1 0.852426 0.137899 0.230346
O O2 0.523588 0.142462 0.261572
O O3 0.923544 0.154454 0.333234
O O4 0.778168 0.876386 0.279372
O O5 0.287945 0.343079 0.915441
O O6 0.590073 0.572864 0.918064
O O7 0.693540 0.248220 0.957904
O O8 0.500000 0.500000 0.000000
O O9 0.256626 0.783977 0.869860
O O10 0.860307 0.933638 0.810850
O O11 0.207134 0.100404 0.847187
O O12 0.960794 0.367454 0.410346
O O13 0.425849 0.237976 0.163710
O O14 0.349548 0.080566 0.076114
O O15 0.000000 0.500000 0.500000
#
# Coordination Sequence:
#
# PCOD9252045 Si02
#       7
#     4   4   4   4   4   4   4
#     4  11  25  38  68 105 143 191 239 293 363 447
#     4  12  29  48  75 109 142 187 253 306 371 440
#     4  11  23  42  71 103 143 193 237 294 366 443
#     4  12  25  46  74 103 151 193 243 311 371 435
#     4  11  25  46  72 101 143 191 238 298 370 434
#     4  11  23  42  65 101 147 185 238 291 362 436
#     4  12  28  48  76 106 145 196 251 311 374 433
#
# _framework density 21.984181
#
# number of rings (size 3 to 8) (size 9 to 14) (size 15 to 20)
#    0.000    0.571    2.857    4.286    4.000   10.286 
#    0.000    0.000    0.000    0.000    0.000    0.000 
#    0.000    0.000    0.000    0.000    0.000    0.000 
#
# Total GULP energy -156483.812353 kJ/mol
# GULP energy per Si atom -5588.707584 kJ/mol
# Density = 2.193414 g / cm^3
# Si number density = 21.984181 Si / 1000 Ang^3
#
#
#
# Elastic Constant Matrix: (Units=GPa)
#
#
# Indices 1 2 3 4 5 6 
#
# 1 72.2834 24.2202 53.0028 0.0000 21.6476 0.0000
# 2 24.2202 107.6067 59.9706 0.0000 25.5393 0.0000
# 3 53.0028 59.9706 168.7752 0.0000 29.4665 0.0000
# 4 0.0000 0.0000 0.0000 38.8622 0.0000 14.8583
# 5 21.6476 25.5393 29.4665 0.0000 30.9354 0.0000
# 6 0.0000 0.0000 0.0000 14.8583 0.0000 18.6015
#
#
#
# Elastic Compliance Matrix: (Units=1/GPa)
#
#
# Indices 1 2 3 4 5 6 
#
# 1 0.020146 0.000482 -0.004759 0.000000 -0.009963 0.000000
# 2 0.000482 0.012916 -0.003383 0.000000 -0.007778 0.000000
# 3 -0.004759 -0.003383 0.009059 0.000000 -0.002506 0.000000
# 4 0.000000 0.000000 0.000000 0.037045 0.000000 -0.029591
# 5 -0.009963 -0.007778 -0.002506 0.000000 0.048106 0.000000
# 6 0.000000 0.000000 0.000000 -0.029591 0.000000 0.077395
#
#
# Mechanical properties :
#
#
# Convention : Reuss Voigt Hill
#
# Bulk Modulus (GPa) = 37.31025 69.22804 53.26915
# Shear Modulus (GPa) = 21.84169 31.77794 26.80982
#
# Velocity S-wave (km/s) = 3.15543 3.80609 3.49593
# Velocity P-wave (km/s) = 5.50308 7.13256 6.37014
#
# Compressibility (1/GPa) = 0.02680228
#
# Stress axis : x y z
#
# Youngs Moduli (GPa) = 49.63796 77.42379 110.38719
#
# Poissons Ratio (x) = -0.03733 0.52529
# Poissons Ratio (y) = -0.02393 0.37342
# Poissons Ratio (z) = 0.23621 0.26191
#
# Static dielectric constant tensor:
#      x y z
#    x 1.582180 0.000000 -0.038680 
#    y 0.000000 1.837040 0.000000 
#    z -0.038680 0.000000 1.801590 
# 
# From -- ./inp_files/78861.got.cif
#   From: 2010.05.17/outbox.cif.g08.bks.cpg/sg14_40_cif.got.tgz:78861.got - 2010.06.03 17:49:19.
