data_PCOD9252923
_publ_section_title
;
Structure prediction by ZEFSAII (Michael W. Deem and Ramdas Pophale) SiO2 
 PCOD9252923
Probable space group: P 21/C
;
_chemical_formula_sum "Si O2"
_cell_formula_units_Z 20
_cell_length_a 7.391830
_cell_length_b 11.140371
_cell_length_c 10.059552
_cell_angle_alpha 90.000000
_cell_angle_beta 96.377004
_cell_angle_gamma 90.000000
_cell_volume 823.255713
_symmetry_space_group_name_H-M "P 21/C"
_symmetry_group_IT_number 14
_symmetry_cell_setting 'monoclinic'
loop_
_space_group_symop_operation_xyz
x,y,z
-x,1/2+y,1/2-z
-x,-y,-z
x,1/2-y,1/2+z
loop_
_atom_site_type_symbol
_atom_site_label
_atom_site_fract_x
_atom_site_fract_y
_atom_site_fract_z
Si Si1 0.999704 0.808287 0.238247
Si Si2 0.294090 0.487903 0.152959
Si Si3 0.915937 0.628461 0.447259
Si Si4 0.490565 0.613947 0.405532
Si Si5 0.337129 0.638934 0.910137
O O1 0.854311 0.900428 0.293129
O O2 0.003755 0.687089 0.324922
O O3 0.947386 0.791477 0.081485
O O4 0.200320 0.861640 0.274963
O O5 0.376151 0.579134 0.267229
O O6 0.470171 0.413472 0.119244
O O7 0.241165 0.563415 0.018560
O O8 0.702887 0.634465 0.395562
O O9 0.000000 0.500000 0.500000
O O10 0.500000 0.500000 0.500000
O O11 0.391281 0.727803 0.462090
#
# Coordination Sequence:
#
# PCOD9252923 Si02
#       5
#     4   4   4   4   4
#     4  12  27  49  77 110 154 196 255 317 383 455
#     4  11  26  48  75 107 149 195 253 315 381 459
#     4  12  28  49  78 114 155 202 256 318 381 466
#     4  12  25  45  73 106 152 191 249 307 381 445
#     4  11  27  46  76 107 145 197 251 312 381 455
#
# _framework density 24.293787999999999
#
# number of rings (size 3 to 8) (size 9 to 14) (size 15 to 20)
#    0.000    0.400    4.000    3.000    8.400    1.600 
#    0.000    0.000    0.000    0.000    0.000    0.000 
#    0.000    0.000    0.000    0.000    0.000    0.000 
#
# Total GULP energy -112043.489720 kJ/mol
# GULP energy per Si atom -5602.174486 kJ/mol
# Density = 2.423849 g / cm^3
# Si number density = 24.293788 Si / 1000 Ang^3
#
#
#
# Elastic Constant Matrix: (Units=GPa)
#
#
# Indices 1 2 3 4 5 6 
#
# 1 100.5503 27.4665 5.3532 0.0000 20.7426 0.0000
# 2 27.4665 70.1779 23.5296 0.0000 -0.2265 0.0000
# 3 5.3532 23.5296 88.0197 0.0000 4.7599 0.0000
# 4 0.0000 0.0000 0.0000 41.0324 0.0000 -5.8446
# 5 20.7426 -0.2265 4.7599 0.0000 29.4056 0.0000
# 6 0.0000 0.0000 0.0000 -5.8446 0.0000 41.7479
#
#
#
# Elastic Compliance Matrix: (Units=1/GPa)
#
#
# Indices 1 2 3 4 5 6 
#
# 1 0.013445 -0.005708 0.001234 0.000000 -0.009728 0.000000
# 2 -0.005708 0.018094 -0.004757 0.000000 0.004935 0.000000
# 3 0.001234 -0.004757 0.012718 0.000000 -0.002966 0.000000
# 4 0.000000 0.000000 0.000000 0.024867 0.000000 0.003481
# 5 -0.009728 0.004935 -0.002966 0.000000 0.041387 0.000000
# 6 0.000000 0.000000 0.000000 0.003481 0.000000 0.024441
#
#
# Mechanical properties :
#
#
# Convention : Reuss Voigt Hill
#
# Bulk Modulus (GPa) = 38.76379 41.27185 40.01782
# Shear Modulus (GPa) = 30.86193 35.93041 33.39617
#
# Velocity S-wave (km/s) = 3.56808 3.84994 3.71169
# Velocity P-wave (km/s) = 5.74159 6.06533 5.90568
#
# Compressibility (1/GPa) = 0.02579727
#
# Stress axis : x y z
#
# Youngs Moduli (GPa) = 74.37457 55.26656 78.62868
#
# Poissons Ratio (x) = 0.31543 -0.09703
# Poissons Ratio (y) = 0.42449 0.37402
# Poissons Ratio (z) = -0.09178 0.26289
#
# Static dielectric constant tensor:
#      x y z
#    x 1.783460 0.000000 -0.177910 
#    y 0.000000 2.019910 0.000000 
#    z -0.177910 0.000000 1.796810 
# 
# From -- ./inp_files/7981.got.cif
#   From: 2010.05.17/outbox.cif.g08.bks.cpg/sg14_4_cif.got.tgz:7981.got - 2010.06.03 17:49:19.
