data_PCOD9252698
_publ_section_title
;
Structure prediction by ZEFSAII (Michael W. Deem and Ramdas Pophale) SiO2 
 PCOD9252698
Probable space group: P 21/C
;
_chemical_formula_sum "Si O2"
_cell_formula_units_Z 24
_cell_length_a 21.240492
_cell_length_b 9.507955
_cell_length_c 10.654134
_cell_angle_alpha 90.000000
_cell_angle_beta 149.825113
_cell_angle_gamma 90.000000
_cell_volume 1081.503245
_symmetry_space_group_name_H-M "P 21/C"
_symmetry_group_IT_number 14
_symmetry_cell_setting 'monoclinic'
loop_
_space_group_symop_operation_xyz
x,y,z
-x,1/2+y,1/2-z
-x,-y,-z
x,1/2-y,1/2+z
loop_
_atom_site_type_symbol
_atom_site_label
_atom_site_fract_x
_atom_site_fract_y
_atom_site_fract_z
Si Si1 0.346095 0.614263 0.038025
Si Si2 0.638044 0.845811 0.037657
Si Si3 0.210960 0.907604 0.816272
Si Si4 0.843871 0.479765 0.499334
Si Si5 0.022854 0.258977 0.213761
Si Si6 0.274145 0.157183 0.541263
O O1 0.300859 0.772658 0.985500
O O2 0.271569 0.561352 0.787035
O O3 0.494199 0.609309 0.276826
O O4 0.303100 0.507450 0.072501
O O5 0.660487 0.791897 0.217465
O O6 0.728810 0.979273 0.173045
O O7 0.671252 0.735888 0.985768
O O8 0.194341 0.980988 0.921626
O O9 0.079080 0.848209 0.539540
O O10 0.905107 0.629844 0.574276
O O11 0.947740 0.359568 0.658329
O O12 0.127313 0.187032 0.306697
#
# Coordination Sequence:
#
# PCOD9252698 Si02
#       6
#     4   4   4   4   4   4
#     4  11  28  44  73 105 142 195 240 294 360 431
#     4  12  27  50  73 107 147 191 243 297 360 428
#     4  11  26  44  72 102 149 189 235 305 356 427
#     4  11  25  44  71 103 145 187 241 298 362 425
#     4  11  25  43  71 103 143 184 243 294 368 417
#     4  12  27  46  77 104 145 189 241 301 358 430
#
# _framework density 22.191334000000001
#
# number of rings (size 3 to 8) (size 9 to 14) (size 15 to 20)
#    0.000    0.667    1.667    4.000   14.000    2.000 
#    0.000    0.000    0.000    0.000    0.000    0.000 
#    0.000    0.000    0.000    0.000    0.000    0.000 
#
# Total GULP energy -134453.220198 kJ/mol
# GULP energy per Si atom -5602.217508 kJ/mol
# Density = 2.214083 g / cm^3
# Si number density = 22.191334 Si / 1000 Ang^3
#
#
#
# Elastic Constant Matrix: (Units=GPa)
#
#
# Indices 1 2 3 4 5 6 
#
# 1 76.5762 22.0725 41.2568 0.0000 -9.7139 0.0000
# 2 22.0725 75.8363 6.4896 0.0000 -2.3051 0.0000
# 3 41.2568 6.4896 88.2376 0.0000 18.7696 0.0000
# 4 0.0000 0.0000 0.0000 30.0710 0.0000 -4.6166
# 5 -9.7139 -2.3051 18.7696 0.0000 40.1128 0.0000
# 6 0.0000 0.0000 0.0000 -4.6166 0.0000 36.1567
#
#
#
# Elastic Compliance Matrix: (Units=1/GPa)
#
#
# Indices 1 2 3 4 5 6 
#
# 1 0.022780 -0.005211 -0.012635 0.000000 0.011130 0.000000
# 2 -0.005211 0.014528 0.001620 0.000000 -0.001185 0.000000
# 3 -0.012635 0.001620 0.019715 0.000000 -0.012192 0.000000
# 4 0.000000 0.000000 0.000000 0.033920 0.000000 0.004331
# 5 0.011130 -0.001185 -0.012192 0.000000 0.033262 0.000000
# 6 0.000000 0.000000 0.000000 0.004331 0.000000 0.028210
#
#
# Mechanical properties :
#
#
# Convention : Reuss Voigt Hill
#
# Bulk Modulus (GPa) = 40.69811 42.25425 41.47618
# Shear Modulus (GPa) = 25.89891 32.65683 29.27787
#
# Velocity S-wave (km/s) = 3.41995 3.84031 3.63621
# Velocity P-wave (km/s) = 5.82874 6.22464 6.02994
#
# Compressibility (1/GPa) = 0.02457117
#
# Stress axis : x y z
#
# Youngs Moduli (GPa) = 43.89774 68.83133 50.72223
#
# Poissons Ratio (x) = 0.35866 0.64090
# Poissons Ratio (y) = 0.22874 -0.08217
# Poissons Ratio (z) = 0.55467 -0.11150
#
# Static dielectric constant tensor:
#      x y z
#    x 1.766590 0.000000 -0.012840 
#    y 0.000000 1.825510 0.000000 
#    z -0.012840 0.000000 1.805460 
# 
# From -- ./inp_files/35768.got.cif
#   From: 2010.05.17/outbox.cif.g08.bks.cpg/sg14_18_cif.got.tgz:35768.got - 2010.06.03 17:49:19.
