data_PCOD9252935
_publ_section_title
;
Structure prediction by ZEFSAII (Michael W. Deem and Ramdas Pophale) SiO2 
 PCOD9252935
Probable space group: P 21/C
;
_chemical_formula_sum "Si O2"
_cell_formula_units_Z 16
_cell_length_a 4.770506
_cell_length_b 5.048140
_cell_length_c 26.450802
_cell_angle_alpha 90.000000
_cell_angle_beta 111.379785
_cell_angle_gamma 90.000000
_cell_volume 593.158034
_symmetry_space_group_name_H-M "P 21/C"
_symmetry_group_IT_number 14
_symmetry_cell_setting 'monoclinic'
loop_
_space_group_symop_operation_xyz
x,y,z
-x,1/2+y,1/2-z
-x,-y,-z
x,1/2-y,1/2+z
loop_
_atom_site_type_symbol
_atom_site_label
_atom_site_fract_x
_atom_site_fract_y
_atom_site_fract_z
Si Si1 0.286609 0.386133 0.587688
Si Si2 0.718219 0.253546 0.757157
Si Si3 0.935601 0.387559 0.662157
Si Si4 0.691018 0.244827 0.492746
O O1 0.638078 0.326437 0.610672
O O2 0.279069 0.688548 0.565201
O O3 0.196409 0.332889 0.639427
O O4 0.028138 0.248705 0.537344
O O5 0.877748 0.261123 0.713098
O O6 0.978888 0.189371 0.815439
O O7 0.514879 0.508615 0.754172
O O8 0.500000 0.500000 0.500000
O O9 0.500000 0.000000 0.500000
#
# Coordination Sequence:
#
# PCOD9252935 Si02
#       4
#     4   4   4   4
#     4  11  26  48  80 114 156 208 260 327 400 476
#     4  12  28  52  76 112 158 208 266 330 394 478
#     4  12  26  51  76 118 156 207 266 324 400 472
#     4  11  26  52  77 117 157 202 262 328 395 481
#
# _framework density 26.974260999999998
#
# number of rings (size 3 to 8) (size 9 to 14) (size 15 to 20)
#    0.000    0.500    5.000    1.500    0.000    8.000 
#    0.000    0.000    0.000    0.000    0.000    0.000 
#    0.000    0.000    0.000    0.000    0.000    0.000 
#
# Total GULP energy -89480.604699 kJ/mol
# GULP energy per Si atom -5592.537794 kJ/mol
# Density = 2.691287 g / cm^3
# Si number density = 26.974261 Si / 1000 Ang^3
#
#
#
# Elastic Constant Matrix: (Units=GPa)
#
#
# Indices 1 2 3 4 5 6 
#
# 1 183.2181 57.8415 33.2954 0.0000 0.5294 0.0000
# 2 57.8415 156.1171 12.8564 0.0000 1.8154 0.0000
# 3 33.2954 12.8564 115.2717 0.0000 -2.2926 0.0000
# 4 0.0000 0.0000 0.0000 36.0149 0.0000 -1.0136
# 5 0.5294 1.8154 -2.2926 0.0000 56.5377 0.0000
# 6 0.0000 0.0000 0.0000 -1.0136 0.0000 59.4750
#
#
#
# Elastic Compliance Matrix: (Units=1/GPa)
#
#
# Indices 1 2 3 4 5 6 
#
# 1 0.006466 -0.002262 -0.001616 0.000000 -0.000053 0.000000
# 2 -0.002262 0.007259 -0.000161 0.000000 -0.000218 0.000000
# 3 -0.001616 -0.000161 0.009168 0.000000 0.000392 0.000000
# 4 0.000000 0.000000 0.000000 0.027780 0.000000 0.000473
# 5 -0.000053 -0.000218 0.000392 0.000000 0.017711 0.000000
# 6 0.000000 0.000000 0.000000 0.000473 0.000000 0.016822
#
#
# Mechanical properties :
#
#
# Convention : Reuss Voigt Hill
#
# Bulk Modulus (GPa) = 67.49910 73.62149 70.56029
# Shear Modulus (GPa) = 50.90535 53.77975 52.34255
#
# Velocity S-wave (km/s) = 4.34888 4.46998 4.40985
# Velocity P-wave (km/s) = 7.09189 7.34802 7.22109
#
# Compressibility (1/GPa) = 0.01481501
#
# Stress axis : x y z
#
# Youngs Moduli (GPa) = 154.65625 137.75519 109.07784
#
# Poissons Ratio (x) = 0.31159 0.17632
# Poissons Ratio (y) = 0.34982 0.01752
# Poissons Ratio (z) = 0.24999 0.02213
#
# Static dielectric constant tensor:
#      x y z
#    x 2.042100 0.000000 -0.005440 
#    y 0.000000 2.238720 0.000000 
#    z -0.005440 0.000000 2.181370 
# 
# From -- ./inp_files/70874.got.cif
#   From: 2010.05.17/outbox.cif.g08.bks.cpg/sg14_36_cif.got.tgz:70874.got - 2010.06.03 17:49:19.
