data_PCOD9252063
_publ_section_title
;
Structure prediction by ZEFSAII (Michael W. Deem and Ramdas Pophale) SiO2 
 PCOD9252063
Probable space group: P 21/C
;
_chemical_formula_sum "Si O2"
_cell_formula_units_Z 24
_cell_length_a 8.948417
_cell_length_b 8.309096
_cell_length_c 15.910536
_cell_angle_alpha 90.000000
_cell_angle_beta 125.058491
_cell_angle_gamma 90.000000
_cell_volume 968.363795
_symmetry_space_group_name_H-M "P 21/C"
_symmetry_group_IT_number 14
_symmetry_cell_setting 'monoclinic'
loop_
_space_group_symop_operation_xyz
x,y,z
-x,1/2+y,1/2-z
-x,-y,-z
x,1/2-y,1/2+z
loop_
_atom_site_type_symbol
_atom_site_label
_atom_site_fract_x
_atom_site_fract_y
_atom_site_fract_z
Si Si1 0.086839 0.898171 0.212946
Si Si2 0.728091 0.671080 0.818955
Si Si3 0.757223 0.833152 0.645491
Si Si4 0.932902 0.358231 0.540565
Si Si5 0.632592 0.316880 0.735147
Si Si6 0.410936 0.823360 0.970702
O O1 0.236736 0.830185 0.195960
O O2 0.933602 0.763552 0.171332
O O3 0.188412 0.980767 0.325037
O O4 0.983030 0.052621 0.143950
O O5 0.713184 0.750014 0.721301
O O6 0.927326 0.709674 0.920591
O O7 0.681861 0.483498 0.794949
O O8 0.575200 0.765592 0.821684
O O9 0.578135 0.801561 0.532600
O O10 0.000000 0.500000 0.500000
O O11 0.725353 0.309401 0.493523
O O12 0.676970 0.322550 0.650377
O O13 0.500000 0.000000 0.000000
#
# Coordination Sequence:
#
# PCOD9252063 Si02
#       6
#     4   4   4   4   4   4
#     4  11  24  43  70  99 140 185 236 294 362 439
#     4  11  23  42  69  98 142 184 242 287 363 425
#     4  11  23  43  71 103 135 189 234 295 360 437
#     4  11  24  43  71 104 141 189 234 291 361 429
#     4  12  25  45  70 105 138 190 240 303 360 435
#     4  12  23  42  73 101 142 184 238 294 361 430
#
# _framework density 24.784075999999999
#
# number of rings (size 3 to 8) (size 9 to 14) (size 15 to 20)
#    0.000    0.667    3.333    6.000    2.333    0.667 
#    0.000    0.833    0.000    0.000    0.000    0.000 
#    0.000    0.000    0.000    0.000    0.000    0.000 
#
# Total GULP energy -134171.380080 kJ/mol
# GULP energy per Si atom -5590.474170 kJ/mol
# Density = 2.472767 g / cm^3
# Si number density = 24.784076 Si / 1000 Ang^3
#
#
#
# Elastic Constant Matrix: (Units=GPa)
#
#
# Indices 1 2 3 4 5 6 
#
# 1 122.7446 12.0815 20.2508 0.0000 40.1237 0.0000
# 2 12.0815 134.1839 19.2706 0.0000 35.2303 0.0000
# 3 20.2508 19.2706 55.4078 0.0000 23.3586 0.0000
# 4 0.0000 0.0000 0.0000 35.1799 0.0000 9.4513
# 5 40.1237 35.2303 23.3586 0.0000 45.2759 0.0000
# 6 0.0000 0.0000 0.0000 9.4513 0.0000 36.8493
#
#
#
# Elastic Compliance Matrix: (Units=1/GPa)
#
#
# Indices 1 2 3 4 5 6 
#
# 1 0.011940 0.002140 0.000070 0.000000 -0.012282 0.000000
# 2 0.002140 0.009752 -0.000224 0.000000 -0.009369 0.000000
# 3 0.000070 -0.000224 0.023071 0.000000 -0.011790 0.000000
# 4 0.000000 0.000000 0.000000 0.030529 0.000000 -0.007830
# 5 -0.012282 -0.009369 -0.011790 0.000000 0.046344 0.000000
# 6 0.000000 0.000000 0.000000 -0.007830 0.000000 0.029146
#
#
# Mechanical properties :
#
#
# Convention : Reuss Voigt Hill
#
# Bulk Modulus (GPa) = 20.51990 46.17131 33.34560
# Shear Modulus (GPa) = 30.66457 40.84324 35.75391
#
# Velocity S-wave (km/s) = 3.52130 4.06392 3.80230
# Velocity P-wave (km/s) = 4.98299 6.37890 5.72366
#
# Compressibility (1/GPa) = 0.04873319
#
# Stress axis : x y z
#
# Youngs Moduli (GPa) = 83.75421 102.54574 43.34467
#
# Poissons Ratio (x) = -0.21941 -0.00303
# Poissons Ratio (y) = -0.17920 0.00971
# Poissons Ratio (z) = -0.00585 0.02297
#
# Static dielectric constant tensor:
#      x y z
#    x 1.968100 0.000000 0.014490 
#    y 0.000000 1.993470 0.000000 
#    z 0.014490 0.000000 2.238980 
# 
# From -- ./inp_files/64888.got.cif
#   From: 2010.05.17/outbox.cif.g08.bks.cpg/sg14_33_cif.got.tgz:64888.got - 2010.06.03 17:49:19.
