data_PCOD9252529
_publ_section_title
;
Structure prediction by ZEFSAII (Michael W. Deem and Ramdas Pophale) SiO2 
 PCOD9252529
Probable space group: P 21/C
;
_chemical_formula_sum "Si O2"
_cell_formula_units_Z 32
_cell_length_a 17.428120
_cell_length_b 11.099381
_cell_length_c 14.634345
_cell_angle_alpha 90.000000
_cell_angle_beta 149.678648
_cell_angle_gamma 90.000000
_cell_volume 1429.171630
_symmetry_space_group_name_H-M "P 21/C"
_symmetry_group_IT_number 14
_symmetry_cell_setting 'monoclinic'
loop_
_space_group_symop_operation_xyz
x,y,z
-x,1/2+y,1/2-z
-x,-y,-z
x,1/2-y,1/2+z
loop_
_atom_site_type_symbol
_atom_site_label
_atom_site_fract_x
_atom_site_fract_y
_atom_site_fract_z
Si Si1 0.872953 0.686785 0.309052
Si Si2 0.467574 0.411091 0.050402
Si Si3 0.675664 0.500126 0.713584
Si Si4 0.173094 0.048923 0.808791
Si Si5 0.679715 0.222756 0.348120
Si Si6 0.974962 0.131069 0.206028
Si Si7 0.560420 0.896179 0.782451
Si Si8 0.802449 0.751227 0.423414
O O1 0.891039 0.821988 0.287844
O O2 0.907078 0.693767 0.451623
O O3 0.964328 0.602644 0.333238
O O4 0.696224 0.650075 0.123465
O O5 0.596699 0.310067 0.190584
O O6 0.480180 0.489269 0.155682
O O7 0.500000 0.500000 0.000000
O O8 0.500000 0.500000 0.500000
O O9 0.787409 0.475829 0.742521
O O10 0.704011 0.403271 0.821793
O O11 0.720077 0.632529 0.795144
O O12 0.069685 0.980411 0.775445
O O13 0.334893 0.069743 0.024246
O O14 0.826843 0.287677 0.538073
O O15 0.562188 0.198870 0.309249
O O16 0.101837 0.204563 0.391881
O O17 0.675503 0.840809 0.827152
#
# Coordination Sequence:
#
# PCOD9252529 Si02
#       8
#     4   4   4   4   4   4   4   4
#     4  11  25  49  71 104 149 192 247 297 373 439
#     4  12  25  48  73 105 138 194 238 304 362 426
#     4  11  25  44  75 106 140 187 253 302 363 423
#     4  11  24  45  72 101 145 191 244 304 362 445
#     4  12  27  43  71 113 141 185 249 307 355 452
#     4  12  28  43  73 108 153 194 245 293 387 444
#     4  12  24  46  76 101 148 185 252 302 370 423
#     4  11  26  47  74 103 148 202 231 316 370 436
#
# _framework density 22.390592999999999
#
# number of rings (size 3 to 8) (size 9 to 14) (size 15 to 20)
#    0.000    0.500    6.250    0.750    8.750    1.000 
#    0.000    1.250    0.000    0.000    0.000    0.000 
#    0.000    0.000    0.000    0.000    0.000    0.000 
#
# Total GULP energy -179166.893478 kJ/mol
# GULP energy per Si atom -5598.965421 kJ/mol
# Density = 2.233963 g / cm^3
# Si number density = 22.390593 Si / 1000 Ang^3
#
#
#
# Elastic Constant Matrix: (Units=GPa)
#
#
# Indices 1 2 3 4 5 6 
#
# 1 139.3085 27.9621 -6.2591 0.0000 -1.2979 0.0000
# 2 27.9621 64.5968 -4.3861 0.0000 5.6339 0.0000
# 3 -6.2591 -4.3861 35.3685 0.0000 10.6072 0.0000
# 4 0.0000 0.0000 0.0000 28.9884 0.0000 -4.0111
# 5 -1.2979 5.6339 10.6072 0.0000 23.4203 0.0000
# 6 0.0000 0.0000 0.0000 -4.0111 0.0000 46.1467
#
#
#
# Elastic Compliance Matrix: (Units=1/GPa)
#
#
# Indices 1 2 3 4 5 6 
#
# 1 0.007913 -0.003463 0.000682 0.000000 0.000963 0.000000
# 2 -0.003463 0.017732 0.003382 0.000000 -0.005989 0.000000
# 3 0.000682 0.003382 0.033612 0.000000 -0.015999 0.000000
# 4 0.000000 0.000000 0.000000 0.034917 0.000000 0.003035
# 5 0.000963 -0.005989 -0.015999 0.000000 0.051438 0.000000
# 6 0.000000 0.000000 0.000000 0.003035 0.000000 0.021934
#
#
# Mechanical properties :
#
#
# Convention : Reuss Voigt Hill
#
# Bulk Modulus (GPa) = 16.53993 30.43419 23.48706
# Shear Modulus (GPa) = 26.81035 34.50821 30.65928
#
# Velocity S-wave (km/s) = 3.46409 3.93006 3.70441
# Velocity P-wave (km/s) = 4.83766 5.84942 5.36743
#
# Compressibility (1/GPa) = 0.06045976
#
# Stress axis : x y z
#
# Youngs Moduli (GPa) = 126.37404 56.39637 29.75126
#
# Poissons Ratio (x) = 0.19530 -0.02030
# Poissons Ratio (y) = 0.43763 -0.10063
# Poissons Ratio (z) = -0.08622 -0.19075
#
# Static dielectric constant tensor:
#      x y z
#    x 1.870360 0.000000 -0.011690 
#    y 0.000000 1.835860 0.000000 
#    z -0.011690 0.000000 1.796970 
# 
# From -- ./inp_files/49045.got.cif
#   From: 2010.05.17/outbox.cif.g08.bks.cpg/sg14_25_cif.got.tgz:49045.got - 2010.06.03 17:49:19.
