data_PCOD9252949
_publ_section_title
;
Structure prediction by ZEFSAII (Michael W. Deem and Ramdas Pophale) SiO2 
 PCOD9252949
Probable space group: P 21/C
;
_chemical_formula_sum "Si O2"
_cell_formula_units_Z 24
_cell_length_a 11.854098
_cell_length_b 10.717147
_cell_length_c 9.069697
_cell_angle_alpha 90.000000
_cell_angle_beta 133.085405
_cell_angle_gamma 90.000000
_cell_volume 841.517920
_symmetry_space_group_name_H-M "P 21/C"
_symmetry_group_IT_number 14
_symmetry_cell_setting 'monoclinic'
loop_
_space_group_symop_operation_xyz
x,y,z
-x,1/2+y,1/2-z
-x,-y,-z
x,1/2-y,1/2+z
loop_
_atom_site_type_symbol
_atom_site_label
_atom_site_fract_x
_atom_site_fract_y
_atom_site_fract_z
Si Si1 0.100506 0.973898 0.439201
Si Si2 0.682727 0.996458 0.619653
Si Si3 0.173977 0.730010 0.210443
Si Si4 0.448123 0.881219 0.128510
Si Si5 0.586375 0.667454 0.444360
Si Si6 0.875302 0.644831 0.534371
O O1 0.249678 0.031959 0.486101
O O2 0.167831 0.838413 0.547915
O O3 0.977822 0.964606 0.197415
O O4 0.000000 0.000000 0.500000
O O5 0.771121 0.902494 0.807900
O O6 0.500000 0.000000 0.500000
O O7 0.545524 0.969838 0.844123
O O8 0.251592 0.865994 0.283261
O O9 0.278382 0.645096 0.409649
O O10 0.997483 0.750128 0.101254
O O11 0.489959 0.780704 0.289909
O O12 0.558598 0.845205 0.091419
O O13 0.762611 0.687768 0.561927
#
# Coordination Sequence:
#
# PCOD9252949 Si02
#       6
#     4   4   4   4   4   4
#     4  11  26  51  82 117 164 221 284 365 440 530
#     4  11  27  54  85 123 170 229 290 367 446 539
#     4  11  26  49  81 117 171 224 288 361 454 530
#     4  11  28  54  86 125 179 233 307 384 461 557
#     4  11  28  55  85 128 175 230 309 381 465 549
#     4  11  27  51  81 121 167 228 292 363 445 551
#
# _framework density 28.51989
#
# number of rings (size 3 to 8) (size 9 to 14) (size 15 to 20)
#    0.000    1.000    0.000    4.000   11.667    6.000 
#    3.000    3.333    0.000    0.000    0.000    0.000 
#    0.000    0.000    0.000    0.000    0.000    0.000 
#
# Total GULP energy -134559.429755 kJ/mol
# GULP energy per Si atom -5606.642906 kJ/mol
# Density = 2.845498 g / cm^3
# Si number density = 28.519890 Si / 1000 Ang^3
#
#
#
# Elastic Constant Matrix: (Units=GPa)
#
#
# Indices 1 2 3 4 5 6 
#
# 1 294.0756 59.1389 71.3557 0.0000 -0.4230 0.0000
# 2 59.1389 175.0865 37.8590 0.0000 -6.8435 0.0000
# 3 71.3557 37.8590 126.0876 0.0000 -1.6180 0.0000
# 4 0.0000 0.0000 0.0000 49.9448 0.0000 -1.7990
# 5 -0.4230 -6.8435 -1.6180 0.0000 61.9758 0.0000
# 6 0.0000 0.0000 0.0000 -1.7990 0.0000 58.9191
#
#
#
# Elastic Compliance Matrix: (Units=1/GPa)
#
#
# Indices 1 2 3 4 5 6 
#
# 1 0.004083 -0.000945 -0.002028 0.000000 -0.000129 0.000000
# 2 -0.000945 0.006351 -0.001364 0.000000 0.000659 0.000000
# 3 -0.002028 -0.001364 0.009489 0.000000 0.000083 0.000000
# 4 0.000000 0.000000 0.000000 0.020044 0.000000 0.000612
# 5 -0.000129 0.000659 0.000083 0.000000 0.016209 0.000000
# 6 0.000000 0.000000 0.000000 0.000612 0.000000 0.016991
#
#
# Mechanical properties :
#
#
# Convention : Reuss Voigt Hill
#
# Bulk Modulus (GPa) = 88.89803 103.55079 96.22441
# Shear Modulus (GPa) = 58.41669 62.62768 60.52219
#
# Velocity S-wave (km/s) = 4.53070 4.69116 4.61163
# Velocity P-wave (km/s) = 7.65558 8.10739 7.88472
#
# Compressibility (1/GPa) = 0.01124884
#
# Stress axis : x y z
#
# Youngs Moduli (GPa) = 244.94416 157.44502 105.38209
#
# Poissons Ratio (x) = 0.14886 0.21373
# Poissons Ratio (y) = 0.23159 0.14369
# Poissons Ratio (z) = 0.49679 0.21468
#
# Static dielectric constant tensor:
#      x y z
#    x 2.239150 0.000000 0.017890 
#    y 0.000000 2.245350 0.000000 
#    z 0.017890 0.000000 2.277230 
# 
# From -- ./inp_files/9204.got.cif
#   From: 2010.05.17/outbox.cif.g08.bks.cpg/sg14_5_cif.got.tgz:9204.got - 2010.06.03 17:49:19.
