data_PCOD9252888
_publ_section_title
;
Structure prediction by ZEFSAII (Michael W. Deem and Ramdas Pophale) SiO2 
 PCOD9252888
Probable space group: P 21/C
;
_chemical_formula_sum "Si O2"
_cell_formula_units_Z 28
_cell_length_a 13.215980
_cell_length_b 8.311326
_cell_length_c 22.088544
_cell_angle_alpha 90.000000
_cell_angle_beta 32.345674
_cell_angle_gamma 90.000000
_cell_volume 1298.110488
_symmetry_space_group_name_H-M "P 21/C"
_symmetry_group_IT_number 14
_symmetry_cell_setting 'monoclinic'
loop_
_space_group_symop_operation_xyz
x,y,z
-x,1/2+y,1/2-z
-x,-y,-z
x,1/2-y,1/2+z
loop_
_atom_site_type_symbol
_atom_site_label
_atom_site_fract_x
_atom_site_fract_y
_atom_site_fract_z
Si Si1 0.985666 0.234027 0.391107
Si Si2 0.666266 0.470615 0.501498
Si Si3 0.748099 0.970765 0.821517
Si Si4 0.780086 0.690125 0.545439
Si Si5 0.723713 0.050569 0.614112
Si Si6 0.684262 0.562249 0.714855
Si Si7 0.790741 0.272556 0.203571
O O1 0.819291 0.348686 0.451561
O O2 0.897364 0.124243 0.488710
O O3 0.163411 0.332008 0.327127
O O4 0.073675 0.127499 0.293118
O O5 0.453931 0.403976 0.600537
O O6 0.734858 0.520307 0.400058
O O7 0.663017 0.623836 0.547973
O O8 0.765186 0.144914 0.781043
O O9 0.763448 0.555514 0.606092
O O10 0.992939 0.718404 0.415965
O O11 0.718922 0.859087 0.606177
O O12 0.529510 0.122527 0.685207
O O13 0.740735 0.101695 0.675264
O O14 0.675537 0.389210 0.750391
#
# Coordination Sequence:
#
# PCOD9252888 Si02
#       7
#     4   4   4   4   4   4   4
#     4  12  24  42  66  98 134 172 222 270 330 402
#     4  11  26  46  68  95 132 178 227 279 331 390
#     4  11  26  46  68  95 132 178 227 279 331 390
#     4  12  23  45  67  97 133 174 219 273 333 398
#     4  12  24  40  68 100 134 171 212 273 337 401
#     4  12  24  40  68 100 134 171 212 273 337 401
#     4  12  23  45  67  97 133 174 219 273 333 398
#
# _framework density 21.569811999999999
#
# number of rings (size 3 to 8) (size 9 to 14) (size 15 to 20)
#    0.000    0.286    4.286    6.000    2.000    0.000 
#    0.000    0.000    0.000    6.857    0.000    0.000 
#    0.000    0.000    0.000    0.000    0.000    0.000 
#
# Total GULP energy -156744.012593 kJ/mol
# GULP energy per Si atom -5598.000450 kJ/mol
# Density = 2.152072 g / cm^3
# Si number density = 21.569812 Si / 1000 Ang^3
#
#
#
# Elastic Constant Matrix: (Units=GPa)
#
#
# Indices 1 2 3 4 5 6 
#
# 1 77.3826 30.4567 7.7065 0.0000 8.3163 0.0000
# 2 30.4567 83.1324 14.6913 0.0000 13.1809 0.0000
# 3 7.7065 14.6913 73.9618 0.0000 4.5564 0.0000
# 4 0.0000 0.0000 0.0000 29.0127 0.0000 -5.0090
# 5 8.3163 13.1809 4.5564 0.0000 50.1547 0.0000
# 6 0.0000 0.0000 0.0000 -5.0090 0.0000 19.7836
#
#
#
# Elastic Compliance Matrix: (Units=1/GPa)
#
#
# Indices 1 2 3 4 5 6 
#
# 1 0.015173 -0.005306 -0.000460 0.000000 -0.001080 0.000000
# 2 -0.005306 0.014810 -0.002216 0.000000 -0.002811 0.000000
# 3 -0.000460 -0.002216 0.014047 0.000000 -0.000617 0.000000
# 4 0.000000 0.000000 0.000000 0.036043 0.000000 0.009126
# 5 -0.001080 -0.002811 -0.000617 0.000000 0.020912 0.000000
# 6 0.000000 0.000000 0.000000 0.009126 0.000000 0.052857
#
#
# Mechanical properties :
#
#
# Convention : Reuss Voigt Hill
#
# Bulk Modulus (GPa) = 35.63156 37.79842 36.71499
# Shear Modulus (GPa) = 27.90753 31.89835 29.90294
#
# Velocity S-wave (km/s) = 3.60088 3.84974 3.72739
# Velocity P-wave (km/s) = 5.81751 6.10921 5.96515
#
# Compressibility (1/GPa) = 0.02806501
#
# Stress axis : x y z
#
# Youngs Moduli (GPa) = 65.90572 67.52033 71.19147
#
# Poissons Ratio (x) = 0.35829 0.03278
# Poissons Ratio (y) = 0.34972 0.15774
# Poissons Ratio (z) = 0.03035 0.14961
#
# Static dielectric constant tensor:
#      x y z
#    x 1.767910 0.000000 -0.035540 
#    y 0.000000 1.807030 0.000000 
#    z -0.035540 0.000000 1.773600 
# 
# From -- ./inp_files/66969.got.cif
#   From: 2010.05.17/outbox.cif.g08.bks.cpg/sg14_34_cif.got.tgz:66969.got - 2010.06.03 17:49:19.
