data_PCOD9252368
_publ_section_title
;
Structure prediction by ZEFSAII (Michael W. Deem and Ramdas Pophale) SiO2 
 PCOD9252368
Probable space group: P 21/C
;
_chemical_formula_sum "Si O2"
_cell_formula_units_Z 28
_cell_length_a 26.705616
_cell_length_b 7.697908
_cell_length_c 9.260007
_cell_angle_alpha 90.000000
_cell_angle_beta 36.695267
_cell_angle_gamma 90.000000
_cell_volume 1137.541789
_symmetry_space_group_name_H-M "P 21/C"
_symmetry_group_IT_number 14
_symmetry_cell_setting 'monoclinic'
loop_
_space_group_symop_operation_xyz
x,y,z
-x,1/2+y,1/2-z
-x,-y,-z
x,1/2-y,1/2+z
loop_
_atom_site_type_symbol
_atom_site_label
_atom_site_fract_x
_atom_site_fract_y
_atom_site_fract_z
Si Si1 0.546391 0.226092 0.450560
Si Si2 0.947164 0.555594 0.856210
Si Si3 0.128173 0.426854 0.453988
Si Si4 0.318652 0.487840 0.523501
Si Si5 0.185258 0.525155 0.616423
Si Si6 0.177608 0.909921 0.569044
Si Si7 0.444290 0.111527 0.945801
O O1 0.520717 0.120525 0.653523
O O2 0.568643 0.420178 0.455379
O O3 0.469191 0.259936 0.517454
O O4 0.616117 0.122887 0.199055
O O5 0.910239 0.744346 0.908728
O O6 0.906957 0.425053 0.831389
O O7 0.046228 0.548000 0.627254
O O8 0.905466 0.518066 0.107436
O O9 0.187820 0.489425 0.442183
O O10 0.172503 0.436757 0.197436
O O11 0.257797 0.427696 0.536159
O O12 0.367103 0.354711 0.516332
O O13 0.252946 0.575901 0.783603
O O14 0.191265 0.731934 0.621935
#
# Coordination Sequence:
#
# PCOD9252368 Si02
#       7
#     4   4   4   4   4   4   4
#     4  11  24  46  75 105 138 184 239 295 359 432
#     4  11  24  43  69 101 143 183 241 300 351 424
#     4  12  23  44  70 102 140 187 240 294 355 423
#     4  11  24  47  70 101 142 185 237 290 357 435
#     4  11  24  42  67 100 137 186 238 290 361 417
#     4  11  24  44  68 100 136 192 237 292 359 424
#     4  11  24  46  73 105 138 184 238 294 357 429
#
# _framework density 24.614478999999999
#
# number of rings (size 3 to 8) (size 9 to 14) (size 15 to 20)
#    0.000    0.857    1.429    6.429    0.000    0.000 
#   12.857    0.000    0.000    0.000    0.000    0.000 
#    0.000    0.000    0.000    0.000    0.000    0.000 
#
# Total GULP energy -156640.667493 kJ/mol
# GULP energy per Si atom -5594.309553 kJ/mol
# Density = 2.455845 g / cm^3
# Si number density = 24.614479 Si / 1000 Ang^3
#
#
#
# Elastic Constant Matrix: (Units=GPa)
#
#
# Indices 1 2 3 4 5 6 
#
# 1 131.2747 17.3692 36.8116 0.0000 18.2042 0.0000
# 2 17.3692 56.7103 10.1532 0.0000 -2.0571 0.0000
# 3 36.8116 10.1532 83.0235 0.0000 21.0385 0.0000
# 4 0.0000 0.0000 0.0000 17.6734 0.0000 10.0231
# 5 18.2042 -2.0571 21.0385 0.0000 34.9837 0.0000
# 6 0.0000 0.0000 0.0000 10.0231 0.0000 34.2596
#
#
#
# Elastic Compliance Matrix: (Units=1/GPa)
#
#
# Indices 1 2 3 4 5 6 
#
# 1 0.009209 -0.002398 -0.002997 0.000000 -0.003131 0.000000
# 2 -0.002398 0.018891 -0.002176 0.000000 0.003667 0.000000
# 3 -0.002997 -0.002176 0.015664 0.000000 -0.007989 0.000000
# 4 0.000000 0.000000 0.000000 0.067838 0.000000 -0.019847
# 5 -0.003131 0.003667 -0.007989 0.000000 0.035234 0.000000
# 6 0.000000 0.000000 0.000000 -0.019847 0.000000 0.034995
#
#
# Mechanical properties :
#
#
# Convention : Reuss Voigt Hill
#
# Bulk Modulus (GPa) = 34.93773 44.40851 39.67312
# Shear Modulus (GPa) = 24.21148 31.16163 27.68655
#
# Velocity S-wave (km/s) = 3.13969 3.56193 3.35745
# Velocity P-wave (km/s) = 5.23147 5.91585 5.58415
#
# Compressibility (1/GPa) = 0.02862235
#
# Stress axis : x y z
#
# Youngs Moduli (GPa) = 108.58503 52.93660 63.84064
#
# Poissons Ratio (x) = 0.12693 0.19131
# Poissons Ratio (y) = 0.26035 0.13894
# Poissons Ratio (z) = 0.32539 0.11521
#
# Static dielectric constant tensor:
#      x y z
#    x 1.977570 0.000000 -0.005650 
#    y 0.000000 1.977600 0.000000 
#    z -0.005650 0.000000 1.935390 
# 
# From -- ./inp_files/19708.got.cif
#   From: 2010.05.17/outbox.cif.g08.bks.cpg/sg14_10_cif.got.tgz:19708.got - 2010.06.03 17:49:19.
