data_PCOD9252291
_publ_section_title
;
Structure prediction by ZEFSAII (Michael W. Deem and Ramdas Pophale) SiO2 
 PCOD9252291
Probable space group: P 21/C
;
_chemical_formula_sum "Si O2"
_cell_formula_units_Z 32
_cell_length_a 8.056156
_cell_length_b 11.736986
_cell_length_c 17.512728
_cell_angle_alpha 90.000000
_cell_angle_beta 112.810786
_cell_angle_gamma 90.000000
_cell_volume 1526.406954
_symmetry_space_group_name_H-M "P 21/C"
_symmetry_group_IT_number 14
_symmetry_cell_setting 'monoclinic'
loop_
_space_group_symop_operation_xyz
x,y,z
-x,1/2+y,1/2-z
-x,-y,-z
x,1/2-y,1/2+z
loop_
_atom_site_type_symbol
_atom_site_label
_atom_site_fract_x
_atom_site_fract_y
_atom_site_fract_z
Si Si1 0.170640 0.688133 0.222378
Si Si2 0.034417 0.361629 0.103085
Si Si3 0.682903 0.511163 0.078456
Si Si4 0.005582 0.392513 0.657552
Si Si5 0.304788 0.934038 0.251488
Si Si6 0.125100 0.282335 0.951918
Si Si7 0.304486 0.047377 0.939645
Si Si8 0.662551 0.964998 0.234345
O O1 0.217110 0.813938 0.258062
O O2 0.340219 0.602588 0.253978
O O3 0.045342 0.625238 0.262396
O O4 0.068275 0.710906 0.124878
O O5 0.036677 0.232433 0.132480
O O6 0.174765 0.427288 0.182035
O O7 0.842286 0.425429 0.078196
O O8 0.101335 0.346512 0.028207
O O9 0.643362 0.490337 0.159685
O O10 0.750606 0.638420 0.077573
O O11 0.500000 0.500000 0.000000
O O12 0.166447 0.482722 0.684049
O O13 0.839599 0.445638 0.581404
O O14 0.477856 0.913084 0.230927
O O15 0.219046 0.157445 0.967442
O O16 0.309157 0.069554 0.848678
O O17 0.500000 0.000000 0.000000
#
# Coordination Sequence:
#
# PCOD9252291 Si02
#       8
#     4   4   4   4   4   4   4   4
#     4  11  23  47  70  97 139 185 229 288 350 419
#     4  12  26  45  70 102 143 186 232 290 356 422
#     4  12  26  43  69 105 141 177 235 292 355 416
#     4  11  24  45  70  95 138 184 232 284 351 422
#     4  12  25  44  74 103 135 189 236 283 361 420
#     4  12  25  44  72  98 143 185 230 295 351 416
#     4  11  27  47  69 102 141 187 237 293 353 416
#     4  11  27  45  72 101 143 184 237 289 352 424
#
# _framework density 20.964264
#
# number of rings (size 3 to 8) (size 9 to 14) (size 15 to 20)
#    0.000    0.500    5.000    2.625    7.000    2.500 
#    0.000    0.000    0.000    0.000    0.000    0.000 
#    0.000    0.000    0.000    0.000    0.000    0.000 
#
# Total GULP energy -178761.277124 kJ/mol
# GULP energy per Si atom -5586.289910 kJ/mol
# Density = 2.091655 g / cm^3
# Si number density = 20.964264 Si / 1000 Ang^3
#
#
#
# Elastic Constant Matrix: (Units=GPa)
#
#
# Indices 1 2 3 4 5 6 
#
# 1 54.9932 -0.9191 10.3013 0.0000 13.3589 0.0000
# 2 -0.9191 92.7096 -2.5973 0.0000 8.2116 0.0000
# 3 10.3013 -2.5973 88.8180 0.0000 15.5196 0.0000
# 4 0.0000 0.0000 0.0000 28.2403 0.0000 -5.3733
# 5 13.3589 8.2116 15.5196 0.0000 39.8624 0.0000
# 6 0.0000 0.0000 0.0000 -5.3733 0.0000 19.7308
#
#
#
# Elastic Compliance Matrix: (Units=1/GPa)
#
#
# Indices 1 2 3 4 5 6 
#
# 1 0.019968 0.000730 -0.001179 0.000000 -0.006383 0.000000
# 2 0.000730 0.011063 0.000729 0.000000 -0.002808 0.000000
# 3 -0.001179 0.000729 0.012205 0.000000 -0.004507 0.000000
# 4 0.000000 0.000000 0.000000 0.037345 0.000000 0.010170
# 5 -0.006383 -0.002808 -0.004507 0.000000 0.029558 0.000000
# 6 0.000000 0.000000 0.000000 0.010170 0.000000 0.053452
#
#
# Mechanical properties :
#
#
# Convention : Reuss Voigt Hill
#
# Bulk Modulus (GPa) = 22.83316 27.78784 25.31050
# Shear Modulus (GPa) = 28.14864 32.88242 30.51553
#
# Velocity S-wave (km/s) = 3.66826 3.96472 3.81937
# Velocity P-wave (km/s) = 5.37183 5.85170 5.61689
#
# Compressibility (1/GPa) = 0.04379596
#
# Stress axis : x y z
#
# Youngs Moduli (GPa) = 50.08079 90.39370 81.93671
#
# Poissons Ratio (x) = -0.06601 0.09662
# Poissons Ratio (y) = -0.03657 -0.05976
# Poissons Ratio (z) = 0.05906 -0.06593
#
# Static dielectric constant tensor:
#      x y z
#    x -0.080720 0.000000 -0.186770 
#    y 0.000000 1.733320 0.000000 
#    z -0.186770 0.000000 1.796590 
# 
# From -- ./inp_files/55614.got.cif
#   From: 2010.05.17/outbox.cif.g08.bks.cpg/sg14_28_cif.got.tgz:55614.got - 2010.06.03 17:49:19.
