data_PCOD9252477
_publ_section_title
;
Structure prediction by ZEFSAII (Michael W. Deem and Ramdas Pophale) SiO2 
 PCOD9252477
Probable space group: P 21/C
;
_chemical_formula_sum "Si O2"
_cell_formula_units_Z 16
_cell_length_a 9.746657
_cell_length_b 7.284048
_cell_length_c 17.503967
_cell_angle_alpha 90.000000
_cell_angle_beta 152.329204
_cell_angle_gamma 90.000000
_cell_volume 577.096549
_symmetry_space_group_name_H-M "P 21/C"
_symmetry_group_IT_number 14
_symmetry_cell_setting 'monoclinic'
loop_
_space_group_symop_operation_xyz
x,y,z
-x,1/2+y,1/2-z
-x,-y,-z
x,1/2-y,1/2+z
loop_
_atom_site_type_symbol
_atom_site_label
_atom_site_fract_x
_atom_site_fract_y
_atom_site_fract_z
Si Si1 0.052056 0.100636 0.294139
Si Si2 0.890639 0.284547 0.364306
Si Si3 0.542917 0.002121 0.799416
Si Si4 0.614162 0.242747 0.477250
O O1 0.323199 0.177881 0.378244
O O2 0.929055 0.246084 0.294992
O O3 0.777964 0.088846 0.101235
O O4 0.163456 0.928962 0.399559
O O5 0.638025 0.431127 0.262481
O O6 0.193120 0.362924 0.546852
O O7 0.763391 0.099024 0.338493
O O8 0.560844 0.175001 0.866792
#
# Coordination Sequence:
#
# PCOD9252477 Si02
#       4
#     4   4   4   4
#     4  11  24  44  72 104 140 179 226 281 340 407
#     4  11  26  46  70  99 138 181 229 282 340 404
#     4  11  27  47  70 100 137 182 230 282 342 406
#     4  11  25  45  72 105 139 180 227 280 342 407
#
# _framework density 27.724996000000001
#
# number of rings (size 3 to 8) (size 9 to 14) (size 15 to 20)
#    0.000    1.000    0.000    4.500    0.000   21.000 
#    0.000    0.000    0.000    0.000    0.000    0.000 
#    0.000    0.000    0.000    0.000    0.000    0.000 
#
# Total GULP energy -89738.598524 kJ/mol
# GULP energy per Si atom -5608.662408 kJ/mol
# Density = 2.766189 g / cm^3
# Si number density = 27.724996 Si / 1000 Ang^3
#
#
#
# Elastic Constant Matrix: (Units=GPa)
#
#
# Indices 1 2 3 4 5 6 
#
# 1 170.4830 55.7937 25.1477 0.0000 7.4906 0.0000
# 2 55.7937 126.0544 45.0285 0.0000 7.9726 0.0000
# 3 25.1477 45.0285 51.9410 0.0000 14.4782 0.0000
# 4 0.0000 0.0000 0.0000 65.3772 0.0000 18.1219
# 5 7.4906 7.9726 14.4782 0.0000 41.5030 0.0000
# 6 0.0000 0.0000 0.0000 18.1219 0.0000 58.2619
#
#
#
# Elastic Compliance Matrix: (Units=1/GPa)
#
#
# Indices 1 2 3 4 5 6 
#
# 1 0.006902 -0.002718 -0.000868 0.000000 -0.000421 0.000000
# 2 -0.002718 0.012637 -0.010079 0.000000 0.001579 0.000000
# 3 -0.000868 -0.010079 0.030825 0.000000 -0.008660 0.000000
# 4 0.000000 0.000000 0.000000 0.016739 0.000000 -0.005207
# 5 -0.000421 0.001579 -0.008660 0.000000 0.026888 0.000000
# 6 0.000000 0.000000 0.000000 -0.005207 0.000000 0.018783
#
#
# Mechanical properties :
#
#
# Convention : Reuss Voigt Hill
#
# Bulk Modulus (GPa) = 43.41648 66.71313 55.06481
# Shear Modulus (GPa) = 33.83368 47.86231 40.84799
#
# Velocity S-wave (km/s) = 3.49711 4.15941 3.84256
# Velocity P-wave (km/s) = 5.65686 6.86894 6.29215
#
# Compressibility (1/GPa) = 0.02303273
#
# Stress axis : x y z
#
# Youngs Moduli (GPa) = 144.89034 79.13431 32.44168
#
# Poissons Ratio (x) = 0.21511 0.02815
# Poissons Ratio (y) = 0.39385 0.32698
# Poissons Ratio (z) = 0.12574 0.79761
#
# Static dielectric constant tensor:
#      x y z
#    x 2.053610 0.000000 -0.017470 
#    y 0.000000 2.312310 0.000000 
#    z -0.017470 0.000000 2.078400 
# 
# From -- ./inp_files/54736.got.cif
#   From: 2010.05.17/outbox.cif.g08.bks.cpg/sg14_28_cif.got.tgz:54736.got - 2010.06.03 17:49:19.
