data_PCOD9252718
_publ_section_title
;
Structure prediction by ZEFSAII (Michael W. Deem and Ramdas Pophale) SiO2 
 PCOD9252718
Probable space group: P 21/C
;
_chemical_formula_sum "Si O2"
_cell_formula_units_Z 20
_cell_length_a 9.559802
_cell_length_b 9.162062
_cell_length_c 9.303284
_cell_angle_alpha 90.000000
_cell_angle_beta 76.761625
_cell_angle_gamma 90.000000
_cell_volume 793.197304
_symmetry_space_group_name_H-M "P 21/C"
_symmetry_group_IT_number 14
_symmetry_cell_setting 'monoclinic'
loop_
_space_group_symop_operation_xyz
x,y,z
-x,1/2+y,1/2-z
-x,-y,-z
x,1/2-y,1/2+z
loop_
_atom_site_type_symbol
_atom_site_label
_atom_site_fract_x
_atom_site_fract_y
_atom_site_fract_z
Si Si1 0.655946 0.495516 0.594349
Si Si2 0.788741 0.630760 0.306309
Si Si3 0.765317 0.421419 0.067551
Si Si4 0.880555 0.150962 0.225977
Si Si5 0.474443 0.204784 0.676127
O O1 0.710267 0.507233 0.420238
O O2 0.800034 0.473646 0.653538
O O3 0.554440 0.359573 0.655204
O O4 0.565948 0.637345 0.660300
O O5 0.793041 0.574303 0.140980
O O6 0.683016 0.767999 0.351177
O O7 0.948296 0.653400 0.324326
O O8 0.819904 0.300046 0.170400
O O9 0.594650 0.400912 0.082940
O O10 0.840631 0.381230 0.900655
#
# Coordination Sequence:
#
# PCOD9252718 Si02
#       5
#     4   4   4   4   4
#     4  11  26  47  74 106 143 192 241 302 357 432
#     4  12  26  46  75 103 148 189 244 295 365 426
#     4  11  25  48  68 109 145 191 239 302 355 430
#     4  11  27  45  75 102 149 185 244 299 363 427
#     4  11  25  44  75 105 145 189 240 295 359 427
#
# _framework density 25.214407999999999
#
# number of rings (size 3 to 8) (size 9 to 14) (size 15 to 20)
#    0.000    0.800    2.000    4.200   11.200    2.400 
#    0.000    0.000    0.000    0.000    0.000    0.000 
#    0.000    0.000    0.000    0.000    0.000    0.000 
#
# Total GULP energy -111893.932321 kJ/mol
# GULP energy per Si atom -5594.696616 kJ/mol
# Density = 2.515702 g / cm^3
# Si number density = 25.214408 Si / 1000 Ang^3
#
#
#
# Elastic Constant Matrix: (Units=GPa)
#
#
# Indices 1 2 3 4 5 6 
#
# 1 230.0482 32.8017 33.4350 0.0000 -4.6213 0.0000
# 2 32.8017 18.9385 -0.5380 0.0000 10.1943 0.0000
# 3 33.4350 -0.5380 103.9944 0.0000 -2.2493 0.0000
# 4 0.0000 0.0000 0.0000 27.3727 0.0000 7.0075
# 5 -4.6213 10.1943 -2.2493 0.0000 29.5725 0.0000
# 6 0.0000 0.0000 0.0000 7.0075 0.0000 32.0665
#
#
#
# Elastic Compliance Matrix: (Units=1/GPa)
#
#
# Indices 1 2 3 4 5 6 
#
# 1 0.007021 -0.015623 -0.002202 0.000000 0.006315 0.000000
# 2 -0.015623 0.099598 0.004751 0.000000 -0.036414 0.000000
# 3 -0.002202 0.004751 0.010322 0.000000 -0.001197 0.000000
# 4 0.000000 0.000000 0.000000 0.038698 0.000000 -0.008457
# 5 0.006315 -0.036414 -0.001197 0.000000 0.047264 0.000000
# 6 0.000000 0.000000 0.000000 -0.008457 0.000000 0.033033
#
#
# Mechanical properties :
#
#
# Convention : Reuss Voigt Hill
#
# Bulk Modulus (GPa) = 11.01399 53.81982 32.41691
# Shear Modulus (GPa) = 17.10279 36.95450 27.02865
#
# Velocity S-wave (km/s) = 2.60723 3.83248 3.27762
# Velocity P-wave (km/s) = 3.66622 6.40118 5.21614
#
# Compressibility (1/GPa) = 0.09079359
#
# Stress axis : x y z
#
# Youngs Moduli (GPa) = 142.42097 10.04033 96.87618
#
# Poissons Ratio (x) = 0.15686 0.21329
# Poissons Ratio (y) = 2.22508 -0.46023
# Poissons Ratio (z) = 0.31356 -0.04770
#
# Static dielectric constant tensor:
#      x y z
#    x 1.967790 0.000000 0.032890 
#    y 0.000000 2.035220 0.000000 
#    z 0.032890 0.000000 1.955080 
# 
# From -- ./inp_files/7846.got.cif
#   From: 2010.05.17/outbox.cif.g08.bks.cpg/sg14_4_cif.got.tgz:7846.got - 2010.06.03 17:49:19.
