data_PCOD9252865
_publ_section_title
;
Structure prediction by ZEFSAII (Michael W. Deem and Ramdas Pophale) SiO2 
 PCOD9252865
Probable space group: P 21/C
;
_chemical_formula_sum "Si O2"
_cell_formula_units_Z 28
_cell_length_a 5.324811
_cell_length_b 11.387229
_cell_length_c 18.153201
_cell_angle_alpha 90.000000
_cell_angle_beta 73.048726
_cell_angle_gamma 90.000000
_cell_volume 1052.893707
_symmetry_space_group_name_H-M "P 21/C"
_symmetry_group_IT_number 14
_symmetry_cell_setting 'monoclinic'
loop_
_space_group_symop_operation_xyz
x,y,z
-x,1/2+y,1/2-z
-x,-y,-z
x,1/2-y,1/2+z
loop_
_atom_site_type_symbol
_atom_site_label
_atom_site_fract_x
_atom_site_fract_y
_atom_site_fract_z
Si Si1 0.434164 0.112622 0.669039
Si Si2 0.218829 0.238277 0.999911
Si Si3 0.026081 0.289175 0.754331
Si Si4 0.500000 0.000000 0.500000
Si Si5 0.608330 0.495151 0.310271
Si Si6 0.786189 0.167036 0.136049
Si Si7 0.812340 0.317494 0.410678
Si Si8 0.000000 0.000000 0.500000
O O1 0.150617 0.168900 0.711001
O O2 0.451112 0.022325 0.600249
O O3 0.618929 0.220456 0.627180
O O4 0.537922 0.072749 0.740844
O O5 0.517058 0.203342 0.963596
O O6 0.027373 0.179835 0.956142
O O7 0.208663 0.383810 0.000652
O O8 0.081956 0.190535 0.085106
O O9 0.236589 0.390900 0.729390
O O10 0.787275 0.328586 0.724172
O O11 0.932219 0.276111 0.844176
O O12 0.223968 0.922342 0.516057
O O13 0.348184 0.545724 0.372574
O O14 0.773918 0.426461 0.357164
#
# Coordination Sequence:
#
# PCOD9252865 Si02
#       8
#     4   4   4   2   4   4   4   2
#     4  11  25  51  76 119 162 204 275 334 414 489
#     4  12  29  50  79 119 163 204 275 331 409 471
#     4  11  27  51  81 113 161 222 265 338 412 488
#     4  12  26  44  84 116 162 204 258 350 412 470
#     4  11  28  50  82 115 165 220 270 329 417 489
#     4  11  26  50  78 113 159 213 261 344 401 485
#     4  12  29  53  79 119 159 217 272 332 389 507
#     4  12  26  48  72 120 160 202 250 344 408 464
#
# _framework density 26.593377
#
# number of rings (size 3 to 8) (size 9 to 14) (size 15 to 20)
#    0.000    0.571    2.857    2.571   12.000    2.286 
#    0.000    0.000    0.000    0.000    0.000    0.000 
#    0.000    0.000    0.000    0.000    0.000    0.000 
#
# Total GULP energy -156007.442330 kJ/mol
# GULP energy per Si atom -5571.694369 kJ/mol
# Density = 2.653285 g / cm^3
# Si number density = 26.593377 Si / 1000 Ang^3
#
#
#
# Elastic Constant Matrix: (Units=GPa)
#
#
# Indices 1 2 3 4 5 6 
#
# 1 150.0808 31.6491 43.1106 0.0000 10.8820 0.0000
# 2 31.6491 100.4562 47.1115 0.0000 -9.0765 0.0000
# 3 43.1106 47.1115 128.6894 0.0000 -2.3386 0.0000
# 4 0.0000 0.0000 0.0000 40.9116 0.0000 -1.3135
# 5 10.8820 -9.0765 -2.3386 0.0000 58.1036 0.0000
# 6 0.0000 0.0000 0.0000 -1.3135 0.0000 44.3877
#
#
#
# Elastic Compliance Matrix: (Units=1/GPa)
#
#
# Indices 1 2 3 4 5 6 
#
# 1 0.007719 -0.001648 -0.002015 0.000000 -0.001784 0.000000
# 2 -0.001648 0.012540 -0.004000 0.000000 0.002107 0.000000
# 3 -0.002015 -0.004000 0.009913 0.000000 0.000151 0.000000
# 4 0.000000 0.000000 0.000000 0.024466 0.000000 0.000724
# 5 -0.001784 0.002107 0.000151 0.000000 0.017880 0.000000
# 6 0.000000 0.000000 0.000000 0.000724 0.000000 0.022550
#
#
# Mechanical properties :
#
#
# Convention : Reuss Voigt Hill
#
# Bulk Modulus (GPa) = 67.36212 69.21874 68.29043
# Shear Modulus (GPa) = 43.34885 45.83761 44.59323
#
# Velocity S-wave (km/s) = 4.04178 4.15619 4.09938
# Velocity P-wave (km/s) = 6.86780 7.00835 6.93843
#
# Compressibility (1/GPa) = 0.01484514
#
# Stress axis : x y z
#
# Youngs Moduli (GPa) = 129.55457 79.74313 100.87902
#
# Poissons Ratio (x) = 0.13143 0.20325
# Poissons Ratio (y) = 0.21352 0.40356
# Poissons Ratio (z) = 0.26103 0.31901
#
# Static dielectric constant tensor:
#      x y z
#    x -49.439150 0.000000 -1.203650 
#    y 0.000000 -43.905260 0.000000 
#    z -1.203650 0.000000 2.132590 
# 
# From -- ./inp_files/63307.got.cif
#   From: 2010.05.17/outbox.cif.g08.bks.cpg/sg14_32_cif.got.tgz:63307.got - 2010.06.03 17:49:19.
