data_PCOD9252868
_publ_section_title
;
Structure prediction by ZEFSAII (Michael W. Deem and Ramdas Pophale) SiO2 
 PCOD9252868
Probable space group: P 21/C
;
_chemical_formula_sum "Si O2"
_cell_formula_units_Z 24
_cell_length_a 4.876515
_cell_length_b 27.234370
_cell_length_c 7.223102
_cell_angle_alpha 90.000000
_cell_angle_beta 104.508885
_cell_angle_gamma 90.000000
_cell_volume 928.698650
_symmetry_space_group_name_H-M "P 21/C"
_symmetry_group_IT_number 14
_symmetry_cell_setting 'monoclinic'
loop_
_space_group_symop_operation_xyz
x,y,z
-x,1/2+y,1/2-z
-x,-y,-z
x,1/2-y,1/2+z
loop_
_atom_site_type_symbol
_atom_site_label
_atom_site_fract_x
_atom_site_fract_y
_atom_site_fract_z
Si Si1 0.999999 0.286228 0.750000
Si Si2 0.214444 0.354469 0.460206
Si Si3 0.308439 0.456813 0.384989
Si Si4 0.500001 0.710018 0.750000
Si Si5 0.785554 0.354469 0.039795
Si Si6 0.691561 0.456813 0.115010
O O1 0.746066 0.246957 0.729996
O O2 0.077956 0.322213 0.595517
O O3 0.253932 0.246957 0.770004
O O4 0.922042 0.322213 0.904484
O O5 0.266539 0.411234 0.516751
O O6 0.490245 0.326686 0.425260
O O7 0.999999 0.356362 0.250000
O O8 0.500000 0.500000 0.500000
O O9 0.500001 0.436273 0.250000
O O10 1.000000 0.527880 0.750000
O O11 0.490247 0.673314 0.925260
O O12 0.733461 0.411234 0.983249
O O13 0.500000 0.500000 0.000000
#
# Coordination Sequence:
#
# PCOD9252868 Si02
#       6
#     4   4   4   4   4   4
#     4  12  28  42  76 114 150 204 260 306 386 484
#     4  11  26  48  76 107 159 201 254 324 393 464
#     4  11  25  51  80 112 155 205 263 333 402 470
#     4  12  24  46  72 112 156 202 252 318 382 468
#     4  11  26  48  76 107 159 201 254 324 393 464
#     4  11  25  51  80 112 155 205 263 333 402 470
#
# _framework density 25.842611000000002
#
# number of rings (size 3 to 8) (size 9 to 14) (size 15 to 20)
#    0.000    0.667    3.333    3.000    4.667    0.000 
#   18.000    0.000    0.000    2.000    0.000    0.000 
#    0.000    0.000    0.000    0.000    0.000    0.000 
#
# Total GULP energy -134208.686442 kJ/mol
# GULP energy per Si atom -5592.028602 kJ/mol
# Density = 2.578379 g / cm^3
# Si number density = 25.842611 Si / 1000 Ang^3
#
#
#
# Elastic Constant Matrix: (Units=GPa)
#
#
# Indices 1 2 3 4 5 6 
#
# 1 185.5487 76.1571 42.7503 0.0000 -13.5810 0.0000
# 2 76.1571 250.9244 62.1352 0.0000 18.1659 0.0000
# 3 42.7503 62.1352 87.7954 0.0000 -18.6095 0.0000
# 4 0.0000 0.0000 0.0000 4.9435 0.0000 7.1984
# 5 -13.5810 18.1659 -18.6095 0.0000 41.4204 0.0000
# 6 0.0000 0.0000 0.0000 7.1984 0.0000 17.4395
#
#
#
# Elastic Compliance Matrix: (Units=1/GPa)
#
#
# Indices 1 2 3 4 5 6 
#
# 1 0.006643 -0.001826 -0.001449 0.000000 0.002328 0.000000
# 2 -0.001826 0.006034 -0.004498 0.000000 -0.005266 0.000000
# 3 -0.001449 -0.004498 0.017238 0.000000 0.009242 0.000000
# 4 0.000000 0.000000 0.000000 0.507043 0.000000 -0.209290
# 5 0.002328 -0.005266 0.009242 0.000000 0.031368 0.000000
# 6 0.000000 0.000000 0.000000 -0.209290 0.000000 0.143729
#
#
# Mechanical properties :
#
#
# Convention : Reuss Voigt Hill
#
# Bulk Modulus (GPa) = 69.58992 98.48374 84.03683
# Shear Modulus (GPa) = 6.82696 35.64239 21.23468
#
# Velocity S-wave (km/s) = 1.62711 3.71780 2.86963
# Velocity P-wave (km/s) = 5.52420 7.52470 6.60068
#
# Compressibility (1/GPa) = 0.01436990
#
# Stress axis : x y z
#
# Youngs Moduli (GPa) = 150.53188 165.71437 58.01134
#
# Poissons Ratio (x) = 0.30258 0.08406
# Poissons Ratio (y) = 0.27486 0.26093
# Poissons Ratio (z) = 0.21813 0.74536
#
# Static dielectric constant tensor:
#      x y z
#    x 2.233010 0.000000 0.243230 
#    y 0.000000 2.026140 0.000000 
#    z 0.243230 0.000000 2.197590 
# 
# From -- ./inp_files/6276.got.cif
#   From: 2010.05.17/outbox.cif.g08.bks.cpg/sg14_4_cif.got.tgz:6276.got - 2010.06.03 17:49:19.
