data_PCOD9252571
_publ_section_title
;
Structure prediction by ZEFSAII (Michael W. Deem and Ramdas Pophale) SiO2 
 PCOD9252571
Probable space group: P 21/C
;
_chemical_formula_sum "Si O2"
_cell_formula_units_Z 32
_cell_length_a 15.923586
_cell_length_b 8.564076
_cell_length_c 23.274761
_cell_angle_alpha 90.000000
_cell_angle_beta 152.230299
_cell_angle_gamma 90.000000
_cell_volume 1478.825222
_symmetry_space_group_name_H-M "P 21/C"
_symmetry_group_IT_number 14
_symmetry_cell_setting 'monoclinic'
loop_
_space_group_symop_operation_xyz
x,y,z
-x,1/2+y,1/2-z
-x,-y,-z
x,1/2-y,1/2+z
loop_
_atom_site_type_symbol
_atom_site_label
_atom_site_fract_x
_atom_site_fract_y
_atom_site_fract_z
Si Si1 0.067191 0.728996 0.653982
Si Si2 0.953129 0.582817 0.286811
Si Si3 0.791621 0.048182 0.863235
Si Si4 0.779656 0.243045 0.969837
Si Si5 0.232153 0.899546 0.851744
Si Si6 0.402864 0.269804 0.290267
Si Si7 0.836510 0.559166 0.941175
Si Si8 0.616146 0.776909 0.088757
O O1 0.031988 0.591420 0.678481
O O2 0.204412 0.661881 0.689517
O O3 0.140649 0.873124 0.734768
O O4 0.897941 0.790810 0.515137
O O5 0.746605 0.633943 0.150448
O O6 0.038018 0.688594 0.389088
O O7 0.079959 0.610765 0.308499
O O8 0.738922 0.138182 0.889087
O O9 0.674118 0.897723 0.776639
O O10 0.000000 0.000000 0.000000
O O11 0.616999 0.224989 0.915352
O O12 0.789223 0.419351 0.954524
O O13 0.317861 0.071754 0.906358
O O14 0.398691 0.776146 0.953127
O O15 0.321136 0.394427 0.197120
O O16 0.348174 0.300990 0.322100
O O17 0.000000 0.500000 0.000000
#
# Coordination Sequence:
#
# PCOD9252571 Si02
#       8
#     4   4   4   4   4   4   4   4
#     4  12  24  41  72  98 132 180 230 278 343 409
#     4  12  23  46  71  97 139 181 227 285 340 400
#     4  12  21  43  66  96 137 177 220 273 345 406
#     4  12  24  40  67 103 138 176 222 278 341 408
#     4  11  26  46  67 103 132 181 240 276 338 405
#     4  12  23  43  65 101 140 175 224 275 340 404
#     4  12  23  40  68 100 133 176 223 275 339 411
#     4  11  24  46  71  94 138 183 222 288 337 396
#
# _framework density 21.638798000000001
#
# number of rings (size 3 to 8) (size 9 to 14) (size 15 to 20)
#    0.000    0.250    6.250    3.750    0.000    0.500 
#    0.000    3.750    0.000    0.000    0.000    0.000 
#    0.000    0.000    0.000    0.000    0.000    0.000 
#
# Total GULP energy -178938.521304 kJ/mol
# GULP energy per Si atom -5591.828791 kJ/mol
# Density = 2.158955 g / cm^3
# Si number density = 21.638798 Si / 1000 Ang^3
#
#
#
# Elastic Constant Matrix: (Units=GPa)
#
#
# Indices 1 2 3 4 5 6 
#
# 1 108.5452 5.6027 12.7291 0.0000 13.2652 0.0000
# 2 5.6027 55.3241 -7.6789 0.0000 8.6092 0.0000
# 3 12.7291 -7.6789 58.6408 0.0000 13.1467 0.0000
# 4 0.0000 0.0000 0.0000 32.3928 0.0000 -6.1486
# 5 13.2652 8.6092 13.1467 0.0000 34.9090 0.0000
# 6 0.0000 0.0000 0.0000 -6.1486 0.0000 33.6118
#
#
#
# Elastic Compliance Matrix: (Units=1/GPa)
#
#
# Indices 1 2 3 4 5 6 
#
# 1 0.009795 -0.000750 -0.001563 0.000000 -0.002948 0.000000
# 2 -0.000750 0.019673 0.004110 0.000000 -0.006114 0.000000
# 3 -0.001563 0.004110 0.019687 0.000000 -0.007833 0.000000
# 4 0.000000 0.000000 0.000000 0.031982 0.000000 0.005850
# 5 -0.002948 -0.006114 -0.007833 0.000000 0.034224 0.000000
# 6 0.000000 0.000000 0.000000 0.005850 0.000000 0.030822
#
#
# Mechanical properties :
#
#
# Convention : Reuss Voigt Hill
#
# Bulk Modulus (GPa) = 18.95828 27.09066 23.02447
# Shear Modulus (GPa) = 31.21632 34.30654 32.76143
#
# Velocity S-wave (km/s) = 3.80229 3.98605 3.89525
# Velocity P-wave (km/s) = 5.29687 5.80788 5.55825
#
# Compressibility (1/GPa) = 0.05274740
#
# Stress axis : x y z
#
# Youngs Moduli (GPa) = 102.09163 50.83054 50.79569
#
# Poissons Ratio (x) = 0.03813 0.07942
# Poissons Ratio (y) = 0.07659 -0.20876
# Poissons Ratio (z) = 0.15962 -0.20890
#
# Static dielectric constant tensor:
#      x y z
#    x 1.706840 0.000000 0.027300 
#    y 0.000000 1.785360 0.000000 
#    z 0.027300 0.000000 1.773690 
# 
# From -- ./inp_files/73881.got.cif
#   From: 2010.05.17/outbox.cif.g08.bks.cpg/sg14_37_cif.got.tgz:73881.got - 2010.06.03 17:49:19.
