data_PCOD9252611
_publ_section_title
;
Structure prediction by ZEFSAII (Michael W. Deem and Ramdas Pophale) SiO2 
 PCOD9252611
Probable space group: P 21/C
;
_chemical_formula_sum "Si O2"
_cell_formula_units_Z 24
_cell_length_a 8.773946
_cell_length_b 11.847143
_cell_length_c 11.266274
_cell_angle_alpha 90.000000
_cell_angle_beta 105.767844
_cell_angle_gamma 90.000000
_cell_volume 1127.019079
_symmetry_space_group_name_H-M "P 21/C"
_symmetry_group_IT_number 14
_symmetry_cell_setting 'monoclinic'
loop_
_space_group_symop_operation_xyz
x,y,z
-x,1/2+y,1/2-z
-x,-y,-z
x,1/2-y,1/2+z
loop_
_atom_site_type_symbol
_atom_site_label
_atom_site_fract_x
_atom_site_fract_y
_atom_site_fract_z
Si Si1 0.275767 0.159840 0.912256
Si Si2 0.171667 0.009333 0.098528
Si Si3 0.240743 0.553082 0.260848
Si Si4 0.646396 0.183029 0.981494
Si Si5 0.112504 0.099638 0.350438
Si Si6 0.651648 0.052558 0.465076
O O1 0.188082 0.277802 0.884236
O O2 0.203267 0.070096 0.805314
O O3 0.261794 0.103511 0.039175
O O4 0.459924 0.170969 0.920927
O O5 0.154105 0.050005 0.229012
O O6 0.258705 0.889434 0.096854
O O7 0.000000 0.000000 0.000000
O O8 0.307539 0.624616 0.384423
O O9 0.363814 0.543498 0.179956
O O10 0.076531 0.604748 0.180406
O O11 0.678368 0.315632 0.995893
O O12 0.196025 0.018030 0.462089
O O13 0.500000 0.000000 0.500000
#
# Coordination Sequence:
#
# PCOD9252611 Si02
#       6
#     4   4   4   4   4   4
#     4  11  26  45  72 104 144 190 236 298 357 429
#     4  11  24  47  75 105 137 191 243 287 360 426
#     4  11  27  46  73 101 145 188 237 296 358 425
#     4  11  26  47  75 101 146 189 235 297 360 429
#     4  12  27  45  73 106 144 188 238 300 357 429
#     4  12  29  46  69 111 140 186 239 294 361 421
#
# _framework density 21.295114000000002
#
# number of rings (size 3 to 8) (size 9 to 14) (size 15 to 20)
#    0.000    0.667    5.000    2.500   14.000    0.000 
#    0.000    0.000    0.000    0.000    0.000    0.000 
#    0.000    0.000    0.000    0.000    0.000    0.000 
#
# Total GULP energy -134328.988503 kJ/mol
# GULP energy per Si atom -5597.041188 kJ/mol
# Density = 2.124664 g / cm^3
# Si number density = 21.295114 Si / 1000 Ang^3
#
#
#
# Elastic Constant Matrix: (Units=GPa)
#
#
# Indices 1 2 3 4 5 6 
#
# 1 88.8255 33.7577 -6.6853 0.0000 6.3949 0.0000
# 2 33.7577 173.9933 26.6661 0.0000 -2.0498 0.0000
# 3 -6.6853 26.6661 55.2480 0.0000 -18.2365 0.0000
# 4 0.0000 0.0000 0.0000 15.1754 0.0000 9.9044
# 5 6.3949 -2.0498 -18.2365 0.0000 53.9003 0.0000
# 6 0.0000 0.0000 0.0000 9.9044 0.0000 28.9067
#
#
#
# Elastic Compliance Matrix: (Units=1/GPa)
#
#
# Indices 1 2 3 4 5 6 
#
# 1 0.012598 -0.002862 0.002675 0.000000 -0.000698 0.000000
# 2 -0.002862 0.006894 -0.003912 0.000000 -0.000722 0.000000
# 3 0.002675 -0.003912 0.022693 0.000000 0.007212 0.000000
# 4 0.000000 0.000000 0.000000 0.084876 0.000000 -0.029082
# 5 -0.000698 -0.000722 0.007212 0.000000 0.021048 0.000000
# 6 0.000000 0.000000 0.000000 -0.029082 0.000000 0.044558
#
#
# Mechanical properties :
#
#
# Convention : Reuss Voigt Hill
#
# Bulk Modulus (GPa) = 29.42391 47.28263 38.35327
# Shear Modulus (GPa) = 23.56343 37.21836 30.39089
#
# Velocity S-wave (km/s) = 3.33005 4.18514 3.78184
# Velocity P-wave (km/s) = 5.35096 6.75319 6.09255
#
# Compressibility (1/GPa) = 0.03398597
#
# Stress axis : x y z
#
# Youngs Moduli (GPa) = 79.38082 145.05903 44.06732
#
# Poissons Ratio (x) = 0.41522 -0.11790
# Poissons Ratio (y) = 0.22722 0.17239
# Poissons Ratio (z) = -0.21238 0.56747
#
# Static dielectric constant tensor:
#      x y z
#    x 1.794020 0.000000 -0.021120 
#    y 0.000000 1.754630 0.000000 
#    z -0.021120 0.000000 1.744430 
# 
# From -- ./inp_files/24279.got.cif
#   From: 2010.05.17/outbox.cif.g08.bks.cpg/sg14_13_cif.got.tgz:24279.got - 2010.06.03 17:49:19.
