data_PCOD9252681
_publ_section_title
;
Structure prediction by ZEFSAII (Michael W. Deem and Ramdas Pophale) SiO2 
 PCOD9252681
Probable space group: P 21/C
;
_chemical_formula_sum "Si O2"
_cell_formula_units_Z 32
_cell_length_a 26.500523
_cell_length_b 7.138376
_cell_length_c 14.806074
_cell_angle_alpha 90.000000
_cell_angle_beta 29.518948
_cell_angle_gamma 90.000000
_cell_volume 1380.023111
_symmetry_space_group_name_H-M "P 21/C"
_symmetry_group_IT_number 14
_symmetry_cell_setting 'monoclinic'
loop_
_space_group_symop_operation_xyz
x,y,z
-x,1/2+y,1/2-z
-x,-y,-z
x,1/2-y,1/2+z
loop_
_atom_site_type_symbol
_atom_site_label
_atom_site_fract_x
_atom_site_fract_y
_atom_site_fract_z
Si Si1 0.158396 0.023462 0.726550
Si Si2 0.577269 0.846135 0.696609
Si Si3 0.311662 0.809602 0.357574
Si Si4 0.197956 0.862477 0.356793
Si Si5 0.360989 0.768056 0.956602
Si Si6 0.537276 0.788527 0.454854
Si Si7 0.287324 0.246465 0.666931
Si Si8 0.015589 0.801052 0.524944
O O1 0.207734 0.099696 0.744781
O O2 0.240212 0.962418 0.522408
O O3 0.083715 0.846280 0.860053
O O4 0.091462 0.196699 0.795299
O O5 0.458630 0.839825 0.856070
O O6 0.585085 0.788127 0.787986
O O7 0.644402 0.710533 0.528619
O O8 0.606176 0.055301 0.619236
O O9 0.244579 0.772784 0.374019
O O10 0.327420 0.655013 0.411329
O O11 0.431530 0.828004 0.139446
O O12 0.080480 0.830136 0.515327
O O13 0.225261 0.082680 0.307109
O O14 0.265741 0.781132 0.169823
O O15 0.623234 0.797075 0.399415
O O16 0.500000 0.000000 0.500000
O O17 0.000000 0.000000 0.500000
#
# Coordination Sequence:
#
# PCOD9252681 Si02
#       8
#     4   4   4   4   4   4   4   4
#     4  11  26  50  79 109 148 197 253 325 392 456
#     4  12  24  42  67  99 153 203 251 301 368 456
#     4  12  26  45  72 108 156 200 247 314 378 459
#     4  12  26  46  77 109 145 198 262 321 392 461
#     4  12  24  43  67 100 150 203 244 309 372 447
#     4  12  29  43  71 114 158 208 262 304 378 476
#     4  12  25  44  75 109 151 205 248 315 386 454
#     4  11  24  52  83 107 140 196 257 325 401 457
#
# _framework density 23.188018
#
# number of rings (size 3 to 8) (size 9 to 14) (size 15 to 20)
#    0.000    0.250    6.250    2.250    3.500    1.000 
#    2.250    0.000    0.000    0.000    0.000    0.000 
#    0.000    0.000    0.000    0.000    0.000    0.000 
#
# Total GULP energy -178518.480245 kJ/mol
# GULP energy per Si atom -5578.702508 kJ/mol
# Density = 2.313524 g / cm^3
# Si number density = 23.188018 Si / 1000 Ang^3
#
#
#
# Elastic Constant Matrix: (Units=GPa)
#
#
# Indices 1 2 3 4 5 6 
#
# 1 193.7470 22.4140 37.1129 0.0000 -10.3382 0.0000
# 2 22.4140 98.1991 24.4623 0.0000 -10.5756 0.0000
# 3 37.1129 24.4623 81.6362 0.0000 -17.6891 0.0000
# 4 0.0000 0.0000 0.0000 50.7836 0.0000 -6.6350
# 5 -10.3382 -10.5756 -17.6891 0.0000 51.0087 0.0000
# 6 0.0000 0.0000 0.0000 -6.6350 0.0000 20.5069
#
#
#
# Elastic Compliance Matrix: (Units=1/GPa)
#
#
# Indices 1 2 3 4 5 6 
#
# 1 0.005701 -0.000697 -0.002340 0.000000 0.000200 0.000000
# 2 -0.000697 0.011162 -0.002765 0.000000 0.001214 0.000000
# 3 -0.002340 -0.002765 0.015045 0.000000 0.004170 0.000000
# 4 0.000000 0.000000 0.000000 0.020561 0.000000 0.006652
# 5 0.000200 0.001214 0.004170 0.000000 0.021343 0.000000
# 6 0.000000 0.000000 0.000000 0.006652 0.000000 0.050916
#
#
# Mechanical properties :
#
#
# Convention : Reuss Voigt Hill
#
# Bulk Modulus (GPa) = 49.24810 60.17341 54.71076
# Shear Modulus (GPa) = 34.94094 43.76606 39.35350
#
# Velocity S-wave (km/s) = 3.88603 4.34918 4.12411
# Velocity P-wave (km/s) = 6.43581 7.15731 6.80613
#
# Compressibility (1/GPa) = 0.02030535
#
# Stress axis : x y z
#
# Youngs Moduli (GPa) = 175.41403 89.59005 66.46679
#
# Poissons Ratio (x) = 0.06244 0.15550
# Poissons Ratio (y) = 0.12225 0.18376
# Poissons Ratio (z) = 0.41040 0.24770
#
# Static dielectric constant tensor:
#      x y z
#    x 1.982860 0.000000 -0.046850 
#    y 0.000000 2.057730 0.000000 
#    z -0.046850 0.000000 1.892170 
# 
# From -- ./inp_files/51345.got.cif
#   From: 2010.05.17/outbox.cif.g08.bks.cpg/sg14_26_cif.got.tgz:51345.got - 2010.06.03 17:49:19.
