data_PCOD9252833
_publ_section_title
;
Structure prediction by ZEFSAII (Michael W. Deem and Ramdas Pophale) SiO2 
 PCOD9252833
Probable space group: P 21/C
;
_chemical_formula_sum "Si O2"
_cell_formula_units_Z 12
_cell_length_a 16.044362
_cell_length_b 5.025541
_cell_length_c 10.756565
_cell_angle_alpha 90.000000
_cell_angle_beta 30.853123
_cell_angle_gamma 90.000000
_cell_volume 444.795069
_symmetry_space_group_name_H-M "P 21/C"
_symmetry_group_IT_number 14
_symmetry_cell_setting 'monoclinic'
loop_
_space_group_symop_operation_xyz
x,y,z
-x,1/2+y,1/2-z
-x,-y,-z
x,1/2-y,1/2+z
loop_
_atom_site_type_symbol
_atom_site_label
_atom_site_fract_x
_atom_site_fract_y
_atom_site_fract_z
Si Si1 0.903982 0.753350 0.176130
Si Si2 0.716723 0.033177 0.589662
Si Si3 0.349907 0.613779 0.564664
O O1 0.863114 0.829813 0.371720
O O2 0.721729 0.685355 0.359574
O O3 0.000000 0.500000 0.000000
O O4 0.000000 0.000000 0.000000
O O5 0.725173 0.197291 0.706636
O O6 0.704125 0.227421 0.487752
O O7 0.543869 0.883832 0.822061
#
# Coordination Sequence:
#
# PCOD9252833 Si02
#       3
#     4   4   4
#     4  12  26  48  72 112 156 200 246 312 388 458
#     4  11  25  47  78 113 152 204 263 319 383 461
#     4  11  25  47  78 113 152 204 263 319 383 461
#
# _framework density 26.978715999999999
#
# number of rings (size 3 to 8) (size 9 to 14) (size 15 to 20)
#    0.000    0.667    6.667    0.000    0.000    6.667 
#    0.000    0.000    0.000    0.000    0.000    0.000 
#    0.000    0.000    0.000    0.000    0.000    0.000 
#
# Total GULP energy -67095.015589 kJ/mol
# GULP energy per Si atom -5591.251299 kJ/mol
# Density = 2.691731 g / cm^3
# Si number density = 26.978716 Si / 1000 Ang^3
#
#
#
# Elastic Constant Matrix: (Units=GPa)
#
#
# Indices 1 2 3 4 5 6 
#
# 1 98.0779 32.3179 52.3419 0.0000 41.9246 0.0000
# 2 32.3179 145.7083 81.9742 0.0000 17.3812 0.0000
# 3 52.3419 81.9742 263.5966 0.0000 40.7789 0.0000
# 4 0.0000 0.0000 0.0000 56.5675 0.0000 -1.9280
# 5 41.9246 17.3812 40.7789 0.0000 66.9709 0.0000
# 6 0.0000 0.0000 0.0000 -1.9280 0.0000 48.5906
#
#
#
# Elastic Compliance Matrix: (Units=1/GPa)
#
#
# Indices 1 2 3 4 5 6 
#
# 1 0.014855 -0.001663 -0.001171 0.000000 -0.008155 0.000000
# 2 -0.001663 0.008530 -0.002364 0.000000 0.000267 0.000000
# 3 -0.001171 -0.002364 0.005026 0.000000 -0.001714 0.000000
# 4 0.000000 0.000000 0.000000 0.017702 0.000000 0.000702
# 5 -0.008155 0.000267 -0.001714 0.000000 0.021011 0.000000
# 6 0.000000 0.000000 0.000000 0.000702 0.000000 0.020608
#
#
# Mechanical properties :
#
#
# Convention : Reuss Voigt Hill
#
# Bulk Modulus (GPa) = 55.50807 93.40564 74.45686
# Shear Modulus (GPa) = 48.01554 57.14238 52.57896
#
# Velocity S-wave (km/s) = 4.22329 4.60723 4.41943
# Velocity P-wave (km/s) = 6.66341 7.93720 7.32804
#
# Compressibility (1/GPa) = 0.01801540
#
# Stress axis : x y z
#
# Youngs Moduli (GPa) = 67.31874 117.23482 198.94896
#
# Poissons Ratio (x) = 0.19499 0.23295
# Poissons Ratio (y) = 0.11197 0.47024
# Poissons Ratio (z) = 0.07882 0.27710
#
# Static dielectric constant tensor:
#      x y z
#    x 2.255440 0.000000 -0.007890 
#    y 0.000000 2.210340 0.000000 
#    z -0.007890 0.000000 2.121550 
# 
# From -- ./inp_files/7066.got.cif
#   From: 2010.05.17/outbox.cif.g08.bks.cpg/sg14_4_cif.got.tgz:7066.got - 2010.06.03 17:49:19.
