data_PCOD9252177
_publ_section_title
;
Structure prediction by ZEFSAII (Michael W. Deem and Ramdas Pophale) SiO2 
 PCOD9252177
Probable space group: P 21/C
;
_chemical_formula_sum "Si O2"
_cell_formula_units_Z 30
_cell_length_a 15.207053
_cell_length_b 8.754407
_cell_length_c 11.487404
_cell_angle_alpha 90.000000
_cell_angle_beta 134.073052
_cell_angle_gamma 90.000000
_cell_volume 1098.733509
_symmetry_space_group_name_H-M "P 21/C"
_symmetry_group_IT_number 14
_symmetry_cell_setting 'monoclinic'
loop_
_space_group_symop_operation_xyz
x,y,z
-x,1/2+y,1/2-z
-x,-y,-z
x,1/2-y,1/2+z
loop_
_atom_site_type_symbol
_atom_site_label
_atom_site_fract_x
_atom_site_fract_y
_atom_site_fract_z
Si Si1 0.500000 0.500000 0.000000
Si Si2 0.155995 0.213115 0.189864
Si Si3 0.881108 0.307761 0.715125
Si Si4 0.644062 0.279240 0.128760
Si Si5 0.730230 0.508646 0.396716
Si Si6 0.692776 0.982646 0.281773
Si Si7 0.344612 0.199751 0.534566
Si Si8 0.953696 0.400497 0.100665
O O1 0.440490 0.632502 0.038196
O O2 0.426050 0.353279 0.001626
O O3 0.178965 0.100297 0.104932
O O4 0.244983 0.357996 0.245040
O O5 0.207884 0.156018 0.361114
O O6 0.019888 0.272646 0.082656
O O7 0.781164 0.240966 0.710265
O O8 0.799211 0.382538 0.535619
O O9 0.965431 0.447402 0.833381
O O10 0.959105 0.171361 0.733646
O O11 0.640727 0.425850 0.218777
O O12 0.614005 0.113907 0.148911
O O13 0.667391 0.627504 0.427003
O O14 0.813889 0.066571 0.443383
O O15 0.626346 0.897458 0.324268
#
# Coordination Sequence:
#
# PCOD9252177 Si02
#       8
#     2   4   4   4   4   4   4   4
#     4  12  28  48  82  98 138 194 244 326 390 428
#     4  11  23  44  71 104 155 196 246 303 376 454
#     4  12  27  44  69 112 157 196 258 311 372 468
#     4  12  26  49  72 107 146 193 253 321 376 443
#     4  11  25  45  74 101 148 197 241 312 373 446
#     4  11  24  44  73 107 153 192 247 310 371 462
#     4  11  24  50  71 106 146 183 251 319 366 454
#     4  12  24  40  73 109 154 207 242 307 382 457
#
# _framework density 27.304164
#
# number of rings (size 3 to 8) (size 9 to 14) (size 15 to 20)
#    0.000    0.533    5.333    2.000    3.733    1.600 
#    0.000    2.667    0.000    0.000    0.000    0.000 
#    0.000    0.000    0.000    0.000    0.000    0.000 
#
# Total GULP energy -167748.350282 kJ/mol
# GULP energy per Si atom -5591.611676 kJ/mol
# Density = 2.724202 g / cm^3
# Si number density = 27.304164 Si / 1000 Ang^3
#
#
#
# Elastic Constant Matrix: (Units=GPa)
#
#
# Indices 1 2 3 4 5 6 
#
# 1 71.6364 47.9426 10.1466 0.0000 -2.4794 0.0000
# 2 47.9426 141.1378 29.8900 0.0000 6.0002 0.0000
# 3 10.1466 29.8900 88.1808 0.0000 4.0710 0.0000
# 4 0.0000 0.0000 0.0000 54.3332 0.0000 -10.6149
# 5 -2.4794 6.0002 4.0710 0.0000 35.6948 0.0000
# 6 0.0000 0.0000 0.0000 -10.6149 0.0000 59.3852
#
#
#
# Elastic Compliance Matrix: (Units=1/GPa)
#
#
# Indices 1 2 3 4 5 6 
#
# 1 0.018257 -0.006284 -0.000078 0.000000 0.002333 0.000000
# 2 -0.006284 0.009832 -0.002526 0.000000 -0.001801 0.000000
# 3 -0.000078 -0.002526 0.012251 0.000000 -0.000978 0.000000
# 4 0.000000 0.000000 0.000000 0.019071 0.000000 0.003409
# 5 0.002333 -0.001801 -0.000978 0.000000 0.028592 0.000000
# 6 0.000000 0.000000 0.000000 0.003409 0.000000 0.017449
#
#
# Mechanical properties :
#
#
# Convention : Reuss Voigt Hill
#
# Bulk Modulus (GPa) = 44.32319 52.99040 48.65679
# Shear Modulus (GPa) = 38.24126 44.08100 41.16113
#
# Velocity S-wave (km/s) = 3.74647 4.02237 3.88687
# Velocity P-wave (km/s) = 5.91465 6.40486 6.16463
#
# Compressibility (1/GPa) = 0.02256155
#
# Stress axis : x y z
#
# Youngs Moduli (GPa) = 54.77352 101.71351 81.62722
#
# Poissons Ratio (x) = 0.63919 0.00640
# Poissons Ratio (y) = 0.34421 0.20621
# Poissons Ratio (z) = 0.00429 0.25696
#
# Static dielectric constant tensor:
#      x y z
#    x 2.167840 0.000000 0.071090 
#    y 0.000000 2.145150 0.000000 
#    z 0.071090 0.000000 2.436140 
# 
# From -- ./inp_files/31920.got.cif
#   From: 2010.05.17/outbox.cif.g08.bks.cpg/sg14_16_cif.got.tgz:31920.got - 2010.06.03 17:49:19.
