data_PCOD9252781
_publ_section_title
;
Structure prediction by ZEFSAII (Michael W. Deem and Ramdas Pophale) SiO2 
 PCOD9252781
Probable space group: P 21/C
;
_chemical_formula_sum "Si O2"
_cell_formula_units_Z 28
_cell_length_a 11.033978
_cell_length_b 5.549188
_cell_length_c 19.834166
_cell_angle_alpha 90.000000
_cell_angle_beta 69.392344
_cell_angle_gamma 90.000000
_cell_volume 1136.729552
_symmetry_space_group_name_H-M "P 21/C"
_symmetry_group_IT_number 14
_symmetry_cell_setting 'monoclinic'
loop_
_space_group_symop_operation_xyz
x,y,z
-x,1/2+y,1/2-z
-x,-y,-z
x,1/2-y,1/2+z
loop_
_atom_site_type_symbol
_atom_site_label
_atom_site_fract_x
_atom_site_fract_y
_atom_site_fract_z
Si Si1 0.190009 0.082756 0.246226
Si Si2 0.126448 0.339964 0.993004
Si Si3 0.410413 0.017003 0.115875
Si Si4 0.976650 0.763416 0.842038
Si Si5 0.795847 0.547175 0.653359
Si Si6 0.602403 0.821491 0.512889
Si Si7 0.458415 0.737617 0.293629
O O1 0.292596 0.918585 0.184831
O O2 0.128136 0.224638 0.195609
O O3 0.260051 0.242042 0.288794
O O4 0.071559 0.956784 0.307102
O O5 0.157701 0.150093 0.927558
O O6 0.086283 0.235650 0.072718
O O7 0.269023 0.446821 0.982781
O O8 0.000000 0.500000 0.000000
O O9 0.368123 0.121847 0.051648
O O10 0.474005 0.231443 0.146464
O O11 0.523750 0.824105 0.084729
O O12 0.077989 0.979833 0.827748
O O13 0.695461 0.326234 0.667837
O O14 0.500000 0.000000 0.500000
O O15 0.491599 0.991123 0.252841
#
# Coordination Sequence:
#
# PCOD9252781 Si02
#       7
#     4   4   4   4   4   4   4
#     4  12  24  45  72 107 145 195 261 316 394 477
#     4  12  26  49  75 110 152 199 263 327 403 479
#     4  11  25  46  71 107 150 198 263 316 402 481
#     4  12  26  45  73 104 147 199 253 319 395 480
#     4  12  26  45  72 108 148 198 253 325 393 466
#     4  11  27  47  75 107 152 206 258 327 402 485
#     4  12  27  46  77 114 156 203 260 332 402 471
#
# _framework density 24.632066999999999
#
# number of rings (size 3 to 8) (size 9 to 14) (size 15 to 20)
#    0.000    0.286    7.143    1.286    2.000    4.571 
#    0.000    0.000    0.000    0.000    0.000    0.000 
#    0.000    0.000    0.000    0.000    0.000    0.000 
#
# Total GULP energy -156475.955731 kJ/mol
# GULP energy per Si atom -5588.426990 kJ/mol
# Density = 2.457600 g / cm^3
# Si number density = 24.632067 Si / 1000 Ang^3
#
#
#
# Elastic Constant Matrix: (Units=GPa)
#
#
# Indices 1 2 3 4 5 6 
#
# 1 130.0753 20.1752 20.3653 0.0000 -10.6504 0.0000
# 2 20.1752 66.0757 28.5391 0.0000 -4.9385 0.0000
# 3 20.3653 28.5391 133.2882 0.0000 2.7890 0.0000
# 4 0.0000 0.0000 0.0000 31.4233 0.0000 2.4175
# 5 -10.6504 -4.9385 2.7890 0.0000 44.6589 0.0000
# 6 0.0000 0.0000 0.0000 2.4175 0.0000 46.9385
#
#
#
# Elastic Compliance Matrix: (Units=1/GPa)
#
#
# Indices 1 2 3 4 5 6 
#
# 1 0.008285 -0.002018 -0.000872 0.000000 0.001807 0.000000
# 2 -0.002018 0.017361 -0.003444 0.000000 0.001654 0.000000
# 3 -0.000872 -0.003444 0.008396 0.000000 -0.001113 0.000000
# 4 0.000000 0.000000 0.000000 0.031950 0.000000 -0.001646
# 5 0.001807 0.001654 -0.001113 0.000000 0.023075 0.000000
# 6 0.000000 0.000000 0.000000 -0.001646 0.000000 0.021389
#
#
# Mechanical properties :
#
#
# Convention : Reuss Voigt Hill
#
# Bulk Modulus (GPa) = 46.78120 51.95538 49.36829
# Shear Modulus (GPa) = 38.38777 41.96144 40.17461
#
# Velocity S-wave (km/s) = 3.95200 4.13186 4.04293
# Velocity P-wave (km/s) = 6.31329 6.62581 6.47144
#
# Compressibility (1/GPa) = 0.02137611
#
# Stress axis : x y z
#
# Youngs Moduli (GPa) = 120.69533 57.59934 119.09977
#
# Poissons Ratio (x) = 0.11625 0.10381
# Poissons Ratio (y) = 0.24360 0.41013
# Poissons Ratio (z) = 0.10520 0.19835
#
# Static dielectric constant tensor:
#      x y z
#    x 2.059440 0.000000 -0.033720 
#    y 0.000000 2.007900 0.000000 
#    z -0.033720 0.000000 1.973250 
# 
# From -- ./inp_files/66400.got.cif
#   From: 2010.05.17/outbox.cif.g08.bks.cpg/sg14_34_cif.got.tgz:66400.got - 2010.06.03 17:49:19.
