data_PCOD9252854
_publ_section_title
;
Structure prediction by ZEFSAII (Michael W. Deem and Ramdas Pophale) SiO2 
 PCOD9252854
Probable space group: P 21/C
;
_chemical_formula_sum "Si O2"
_cell_formula_units_Z 30
_cell_length_a 15.647682
_cell_length_b 5.180174
_cell_length_c 17.470262
_cell_angle_alpha 90.000000
_cell_angle_beta 59.394225
_cell_angle_gamma 90.000000
_cell_volume 1218.823714
_symmetry_space_group_name_H-M "P 21/C"
_symmetry_group_IT_number 14
_symmetry_cell_setting 'monoclinic'
loop_
_space_group_symop_operation_xyz
x,y,z
-x,1/2+y,1/2-z
-x,-y,-z
x,1/2-y,1/2+z
loop_
_atom_site_type_symbol
_atom_site_label
_atom_site_fract_x
_atom_site_fract_y
_atom_site_fract_z
Si Si1 0.209783 0.484506 0.631009
Si Si2 0.090824 0.601117 0.549867
Si Si3 0.683649 0.146009 0.312337
Si Si4 0.432868 0.584250 0.288763
Si Si5 0.500000 0.500000 0.000000
Si Si6 0.828709 0.919228 0.566696
Si Si7 0.654897 0.717742 0.049843
Si Si8 0.874592 0.803863 0.204294
O O1 0.159969 0.670780 0.591406
O O2 0.292113 0.595487 0.651053
O O3 0.265745 0.284539 0.551389
O O4 0.121573 0.364523 0.720893
O O5 0.125093 0.335913 0.494664
O O6 0.978796 0.586101 0.629702
O O7 0.107902 0.832141 0.483392
O O8 0.642208 0.156947 0.245272
O O9 0.602194 0.005079 0.401675
O O10 0.790262 0.011740 0.259423
O O11 0.495433 0.329648 0.234294
O O12 0.381294 0.478902 0.389938
O O13 0.563738 0.590598 0.047815
O O14 0.716517 0.939758 0.585431
O O15 0.832668 0.870181 0.654507
#
# Coordination Sequence:
#
# PCOD9252854 Si02
#       8
#     4   4   4   4   2   4   4   4
#     4  11  29  45  77 112 156 201 254 319 392 451
#     4  11  28  49  79 112 159 202 257 316 388 454
#     4  12  28  47  76 112 152 201 256 320 378 459
#     4  12  29  50  78 110 149 207 261 317 381 459
#     4  12  24  48  72 106 156 190 254 312 390 440
#     4  11  26  51  76 114 153 208 255 320 378 460
#     4  11  25  49  76 111 155 203 257 321 387 459
#     4  12  27  47  79 112 154 202 262 311 386 462
#
# _framework density 24.613896
#
# number of rings (size 3 to 8) (size 9 to 14) (size 15 to 20)
#    0.000    0.533    4.000    1.600   11.200    2.667 
#    0.000    0.000    0.000    0.000    0.000    0.000 
#    0.000    0.000    0.000    0.000    0.000    0.000 
#
# Total GULP energy -167533.970833 kJ/mol
# GULP energy per Si atom -5584.465694 kJ/mol
# Density = 2.455787 g / cm^3
# Si number density = 24.613896 Si / 1000 Ang^3
#
#
#
# Elastic Constant Matrix: (Units=GPa)
#
#
# Indices 1 2 3 4 5 6 
#
# 1 99.5708 25.8306 26.8424 0.0000 10.2682 0.0000
# 2 25.8306 76.5810 36.0072 0.0000 -5.9257 0.0000
# 3 26.8424 36.0072 111.5515 0.0000 12.8310 0.0000
# 4 0.0000 0.0000 0.0000 23.1513 0.0000 9.3510
# 5 10.2682 -5.9257 12.8310 0.0000 40.6783 0.0000
# 6 0.0000 0.0000 0.0000 9.3510 0.0000 25.7547
#
#
#
# Elastic Compliance Matrix: (Units=1/GPa)
#
#
# Indices 1 2 3 4 5 6 
#
# 1 0.011628 -0.003544 -0.001304 0.000000 -0.003040 0.000000
# 2 -0.003544 0.017113 -0.005251 0.000000 0.005044 0.000000
# 3 -0.001304 -0.005251 0.011438 0.000000 -0.004044 0.000000
# 4 0.000000 0.000000 0.000000 0.050617 0.000000 -0.018378
# 5 -0.003040 0.005044 -0.004044 0.000000 0.027361 0.000000
# 6 0.000000 0.000000 0.000000 -0.018378 0.000000 0.045501
#
#
# Mechanical properties :
#
#
# Convention : Reuss Voigt Hill
#
# Bulk Modulus (GPa) = 50.05010 51.67376 50.86193
# Shear Modulus (GPa) = 26.24450 31.18506 28.71478
#
# Velocity S-wave (km/s) = 3.26889 3.56331 3.41927
# Velocity P-wave (km/s) = 5.88436 6.16189 6.02473
#
# Compressibility (1/GPa) = 0.01997998
#
# Stress axis : x y z
#
# Youngs Moduli (GPa) = 86.00248 58.43616 87.42456
#
# Poissons Ratio (x) = 0.20709 0.11403
# Poissons Ratio (y) = 0.30478 0.45908
# Poissons Ratio (z) = 0.11218 0.30686
#
# Static dielectric constant tensor:
#      x y z
#    x 1.939560 0.000000 -0.002430 
#    y 0.000000 2.029260 0.000000 
#    z -0.002430 0.000000 1.911560 
# 
# From -- ./inp_files/58553.got.cif
#   From: 2010.05.17/outbox.cif.g08.bks.cpg/sg14_30_cif.got.tgz:58553.got - 2010.06.03 17:49:19.
