data_PCOD9252124
_publ_section_title
;
Structure prediction by ZEFSAII (Michael W. Deem and Ramdas Pophale) SiO2 
 PCOD9252124
Probable space group: P 21/C
;
_chemical_formula_sum "Si O2"
_cell_formula_units_Z 20
_cell_length_a 10.703700
_cell_length_b 8.288700
_cell_length_c 9.105061
_cell_angle_alpha 90.000000
_cell_angle_beta 91.199195
_cell_angle_gamma 90.000000
_cell_volume 807.621884
_symmetry_space_group_name_H-M "P 21/C"
_symmetry_group_IT_number 14
_symmetry_cell_setting 'monoclinic'
loop_
_space_group_symop_operation_xyz
x,y,z
-x,1/2+y,1/2-z
-x,-y,-z
x,1/2-y,1/2+z
loop_
_atom_site_type_symbol
_atom_site_label
_atom_site_fract_x
_atom_site_fract_y
_atom_site_fract_z
Si Si1 0.468955 0.014445 0.324406
Si Si2 0.684910 0.842843 0.184344
Si Si3 0.164270 0.164057 0.530595
Si Si4 0.079023 0.844002 0.040238
Si Si5 0.226656 0.651168 0.841415
O O1 0.591101 0.984128 0.228948
O O2 0.366670 0.875420 0.290229
O O3 0.500000 0.000000 0.500000
O O4 0.399505 0.182438 0.292126
O O5 0.746849 0.808538 0.028708
O O6 0.802180 0.848530 0.298512
O O7 0.022105 0.202754 0.489002
O O8 0.203971 0.002059 0.447792
O O9 0.132445 0.852200 0.203703
O O10 0.193754 0.808461 0.934184
O O11 0.000000 0.000000 0.000000
#
# Coordination Sequence:
#
# PCOD9252124 Si02
#       5
#     4   4   4   4   4
#     4  11  24  45  66 103 136 178 230 282 340 406
#     4  11  23  43  71  94 139 176 229 283 340 403
#     4  11  24  45  65  97 134 180 221 281 339 405
#     4  12  25  43  68 102 133 177 230 280 341 405
#     4  11  25  43  67  95 139 176 226 278 341 405
#
# _framework density 24.764064999999999
#
# number of rings (size 3 to 8) (size 9 to 14) (size 15 to 20)
#    0.000    0.800    4.000    5.400    2.800    4.000 
#    0.000    0.000    0.000    0.000    0.000    0.000 
#    0.000    0.000    0.000    0.000    0.000    0.000 
#
# Total GULP energy -112030.368778 kJ/mol
# GULP energy per Si atom -5601.518439 kJ/mol
# Density = 2.470770 g / cm^3
# Si number density = 24.764065 Si / 1000 Ang^3
#
#
#
# Elastic Constant Matrix: (Units=GPa)
#
#
# Indices 1 2 3 4 5 6 
#
# 1 103.1054 9.1445 -8.7752 0.0000 3.3367 0.0000
# 2 9.1445 70.8865 4.7813 0.0000 9.8679 0.0000
# 3 -8.7752 4.7813 88.2915 0.0000 30.0490 0.0000
# 4 0.0000 0.0000 0.0000 27.4929 0.0000 -5.0891
# 5 3.3367 9.8679 30.0490 0.0000 49.4105 0.0000
# 6 0.0000 0.0000 0.0000 -5.0891 0.0000 45.4973
#
#
#
# Elastic Compliance Matrix: (Units=1/GPa)
#
#
# Indices 1 2 3 4 5 6 
#
# 1 0.009979 -0.001201 0.001519 0.000000 -0.001358 0.000000
# 2 -0.001201 0.014659 0.000070 0.000000 -0.002889 0.000000
# 3 0.001519 0.000070 0.014518 0.000000 -0.008946 0.000000
# 4 0.000000 0.000000 0.000000 0.037142 0.000000 0.004155
# 5 -0.001358 -0.002889 -0.008946 0.000000 0.026348 0.000000
# 6 0.000000 0.000000 0.000000 0.004155 0.000000 0.022444
#
#
# Mechanical properties :
#
#
# Convention : Reuss Voigt Hill
#
# Bulk Modulus (GPa) = 25.04233 30.28717 27.66475
# Shear Modulus (GPa) = 36.33099 41.62234 38.97667
#
# Velocity S-wave (km/s) = 3.83441 4.10415 3.97157
# Velocity P-wave (km/s) = 5.45325 5.89199 5.67686
#
# Compressibility (1/GPa) = 0.03993239
#
# Stress axis : x y z
#
# Youngs Moduli (GPa) = 100.21537 68.21557 68.88090
#
# Poissons Ratio (x) = 0.08190 -0.10462
# Poissons Ratio (y) = 0.12033 -0.00483
# Poissons Ratio (z) = -0.15222 -0.00478
#
# Static dielectric constant tensor:
#      x y z
#    x 1.942330 0.000000 -0.060130 
#    y 0.000000 2.025910 0.000000 
#    z -0.060130 0.000000 1.863530 
# 
# From -- ./inp_files/11786.got.cif
#   From: 2010.05.17/outbox.cif.g08.bks.cpg/sg14_6_cif.got.tgz:11786.got - 2010.06.03 17:49:19.
