data_PCOD9252233
_publ_section_title
;
Structure prediction by ZEFSAII (Michael W. Deem and Ramdas Pophale) SiO2 
 PCOD9252233
Probable space group: P 21/C
;
_chemical_formula_sum "Si O2"
_cell_formula_units_Z 32
_cell_length_a 25.366939
_cell_length_b 9.931116
_cell_length_c 15.700578
_cell_angle_alpha 90.000000
_cell_angle_beta 22.943979
_cell_angle_gamma 90.000000
_cell_volume 1541.906503
_symmetry_space_group_name_H-M "P 21/C"
_symmetry_group_IT_number 14
_symmetry_cell_setting 'monoclinic'
loop_
_space_group_symop_operation_xyz
x,y,z
-x,1/2+y,1/2-z
-x,-y,-z
x,1/2-y,1/2+z
loop_
_atom_site_type_symbol
_atom_site_label
_atom_site_fract_x
_atom_site_fract_y
_atom_site_fract_z
Si Si1 0.597409 0.607533 0.316431
Si Si2 0.514396 0.902570 0.396051
Si Si3 0.949164 0.358567 0.951819
Si Si4 0.801642 0.539493 0.883700
Si Si5 0.202650 0.366102 0.825863
Si Si6 0.963609 0.622374 0.370827
Si Si7 0.785009 0.082195 0.222866
Si Si8 0.771727 0.851890 0.901047
O O1 0.500000 0.500000 0.500000
O O2 0.522694 0.745817 0.408099
O O3 0.709996 0.648199 0.218739
O O4 0.658846 0.530960 0.143206
O O5 0.376001 0.912919 0.548740
O O6 0.500000 0.000000 0.500000
O O7 0.654071 0.918463 0.133433
O O8 0.004263 0.342082 0.773675
O O9 0.078335 0.412291 0.813709
O O10 0.845297 0.481124 0.104505
O O11 0.867840 0.222999 0.098560
O O12 0.812819 0.489861 0.771158
O O13 0.812834 0.701034 0.869801
O O14 0.910081 0.455220 0.775674
O O15 0.274149 0.341379 0.628737
O O16 0.081646 0.257838 0.013710
O O17 0.843015 0.514603 0.562319
#
# Coordination Sequence:
#
# PCOD9252233 Si02
#       8
#     4   4   4   4   4   4   4   4
#     4  11  25  48  68  97 143 183 229 274 353 419
#     4  11  26  46  67 102 136 180 228 283 341 408
#     4  12  24  42  67 108 136 173 231 290 342 401
#     4  11  23  45  73  98 132 190 226 275 342 422
#     4  12  24  42  71 104 135 181 223 296 344 397
#     4  12  22  43  74  98 137 180 231 277 351 410
#     4  12  24  44  71 101 134 181 238 276 338 422
#     4  11  24  45  69 101 144 174 229 284 346 410
#
# _framework density 20.753526999999998
#
# number of rings (size 3 to 8) (size 9 to 14) (size 15 to 20)
#    0.000    0.500    3.750    6.000    1.750    0.000 
#    2.250    0.000    0.000    0.000    0.000    0.000 
#    0.000    0.000    0.000    0.000    0.000    0.000 
#
# Total GULP energy -178629.624198 kJ/mol
# GULP energy per Si atom -5582.175756 kJ/mol
# Density = 2.070629 g / cm^3
# Si number density = 20.753527 Si / 1000 Ang^3
#
#
#
# Elastic Constant Matrix: (Units=GPa)
#
#
# Indices 1 2 3 4 5 6 
#
# 1 66.7152 1.9309 22.5607 0.0000 5.0896 0.0000
# 2 1.9309 76.5084 47.5748 0.0000 10.2616 0.0000
# 3 22.5607 47.5748 79.0157 0.0000 13.3890 0.0000
# 4 0.0000 0.0000 0.0000 39.6479 0.0000 9.1805
# 5 5.0896 10.2616 13.3890 0.0000 38.7590 0.0000
# 6 0.0000 0.0000 0.0000 9.1805 0.0000 25.9800
#
#
#
# Elastic Compliance Matrix: (Units=1/GPa)
#
#
# Indices 1 2 3 4 5 6 
#
# 1 0.017438 0.004285 -0.007412 0.000000 -0.000864 0.000000
# 2 0.004285 0.022004 -0.014222 0.000000 -0.001475 0.000000
# 3 -0.007412 -0.014222 0.023933 0.000000 -0.003529 0.000000
# 4 0.000000 0.000000 0.000000 0.027470 0.000000 -0.009707
# 5 -0.000864 -0.001475 -0.003529 0.000000 0.027524 0.000000
# 6 0.000000 0.000000 0.000000 -0.009707 0.000000 0.041921
#
#
# Mechanical properties :
#
#
# Convention : Reuss Voigt Hill
#
# Bulk Modulus (GPa) = 34.87259 40.70802 37.79030
# Shear Modulus (GPa) = 24.44449 30.88890 27.66670
#
# Velocity S-wave (km/s) = 3.43570 3.86212 3.65514
# Velocity P-wave (km/s) = 5.70775 6.28853 6.00516
#
# Compressibility (1/GPa) = 0.02867581
#
# Stress axis : x y z
#
# Youngs Moduli (GPa) = 57.34746 45.44714 41.78363
#
# Poissons Ratio (x) = -0.19474 0.30972
# Poissons Ratio (y) = -0.24573 0.59423
# Poissons Ratio (z) = 0.42508 0.64633
#
# Static dielectric constant tensor:
#      x y z
#    x 1.746660 0.000000 0.011490 
#    y 0.000000 1.740210 0.000000 
#    z 0.011490 0.000000 1.894260 
# 
# From -- ./inp_files/62668.got.cif
#   From: 2010.05.17/outbox.cif.g08.bks.cpg/sg14_32_cif.got.tgz:62668.got - 2010.06.03 17:49:19.
