data_PCOD9252846
_publ_section_title
;
Structure prediction by ZEFSAII (Michael W. Deem and Ramdas Pophale) SiO2 
 PCOD9252846
Probable space group: P 21/C
;
_chemical_formula_sum "Si O2"
_cell_formula_units_Z 20
_cell_length_a 9.502164
_cell_length_b 5.241087
_cell_length_c 19.483070
_cell_angle_alpha 90.000000
_cell_angle_beta 54.452936
_cell_angle_gamma 90.000000
_cell_volume 789.464552
_symmetry_space_group_name_H-M "P 21/C"
_symmetry_group_IT_number 14
_symmetry_cell_setting 'monoclinic'
loop_
_space_group_symop_operation_xyz
x,y,z
-x,1/2+y,1/2-z
-x,-y,-z
x,1/2-y,1/2+z
loop_
_atom_site_type_symbol
_atom_site_label
_atom_site_fract_x
_atom_site_fract_y
_atom_site_fract_z
Si Si1 0.108172 0.207370 0.233241
Si Si2 0.119535 0.388657 0.383882
Si Si3 0.829687 0.321539 0.045426
Si Si4 0.474695 0.284663 0.803330
Si Si5 0.543484 0.932134 0.409546
O O1 0.139025 0.281863 0.303150
O O2 0.289676 0.250540 0.142549
O O3 0.025393 0.927855 0.253149
O O4 0.171600 0.681353 0.380495
O O5 0.270654 0.235094 0.381937
O O6 0.922683 0.373940 0.464180
O O7 0.635696 0.330448 0.071759
O O8 0.000000 0.500000 0.000000
O O9 0.490842 0.524868 0.747460
O O10 0.577762 0.338065 0.844455
O O11 0.500000 0.000000 0.500000
#
# Coordination Sequence:
#
# PCOD9252846 Si02
#       5
#     4   4   4   4   4
#     4  12  31  50  78 114 161 211 266 327 407 476
#     4  11  26  46  81 110 160 208 273 328 397 491
#     4  11  25  48  78 116 158 207 267 331 405 480
#     4  12  26  48  81 117 152 211 274 327 394 488
#     4  12  28  49  83 117 167 205 267 341 410 470
#
# _framework density 25.333629999999999
#
# number of rings (size 3 to 8) (size 9 to 14) (size 15 to 20)
#    0.000    0.400    4.000    2.400    8.400    0.000 
#    0.000    8.000    0.000    0.000    0.000    0.000 
#    0.000    0.000    0.000    0.000    0.000    0.000 
#
# Total GULP energy -111676.941207 kJ/mol
# GULP energy per Si atom -5583.847060 kJ/mol
# Density = 2.527597 g / cm^3
# Si number density = 25.333630 Si / 1000 Ang^3
#
#
#
# Elastic Constant Matrix: (Units=GPa)
#
#
# Indices 1 2 3 4 5 6 
#
# 1 118.2434 43.9717 41.1633 0.0000 -25.1315 0.0000
# 2 43.9717 55.8936 10.6871 0.0000 -25.2191 0.0000
# 3 41.1633 10.6871 109.0790 0.0000 -22.6595 0.0000
# 4 0.0000 0.0000 0.0000 25.9700 0.0000 -4.7038
# 5 -25.1315 -25.2191 -22.6595 0.0000 75.3343 0.0000
# 6 0.0000 0.0000 0.0000 -4.7038 0.0000 48.7883
#
#
#
# Elastic Compliance Matrix: (Units=1/GPa)
#
#
# Indices 1 2 3 4 5 6 
#
# 1 0.013582 -0.009906 -0.004163 0.000000 -0.000037 0.000000
# 2 -0.009906 0.028341 0.002396 0.000000 0.006903 0.000000
# 3 -0.004163 0.002396 0.011074 0.000000 0.002744 0.000000
# 4 0.000000 0.000000 0.000000 0.039190 0.000000 0.003778
# 5 -0.000037 0.006903 0.002744 0.000000 0.016398 0.000000
# 6 0.000000 0.000000 0.000000 0.003778 0.000000 0.020861
#
#
# Mechanical properties :
#
#
# Convention : Reuss Voigt Hill
#
# Bulk Modulus (GPa) = 33.72593 52.76225 43.24409
# Shear Modulus (GPa) = 30.73590 42.51145 36.62367
#
# Velocity S-wave (km/s) = 3.48695 4.10086 3.80630
# Velocity P-wave (km/s) = 5.43630 6.57989 6.03524
#
# Compressibility (1/GPa) = 0.02965078
#
# Stress axis : x y z
#
# Youngs Moduli (GPa) = 73.62610 35.28466 90.30245
#
# Poissons Ratio (x) = 0.34953 0.37590
# Poissons Ratio (y) = 0.72934 -0.21633
# Poissons Ratio (z) = 0.30648 -0.08453
#
# Static dielectric constant tensor:
#      x y z
#    x 2.104690 0.000000 -0.396650 
#    y 0.000000 2.862870 0.000000 
#    z -0.396650 0.000000 3.201850 
# 
# From -- ./inp_files/64104.got.cif
#   From: 2010.05.17/outbox.cif.g08.bks.cpg/sg14_33_cif.got.tgz:64104.got - 2010.06.03 17:49:19.
