data_PCOD9252341
_publ_section_title
;
Structure prediction by ZEFSAII (Michael W. Deem and Ramdas Pophale) SiO2 
 PCOD9252341
Probable space group: P 21/C
;
_chemical_formula_sum "Si O2"
_cell_formula_units_Z 28
_cell_length_a 13.955926
_cell_length_b 14.401808
_cell_length_c 21.698100
_cell_angle_alpha 90.000000
_cell_angle_beta 18.725711
_cell_angle_gamma 90.000000
_cell_volume 1400.083176
_symmetry_space_group_name_H-M "P 21/C"
_symmetry_group_IT_number 14
_symmetry_cell_setting 'monoclinic'
loop_
_space_group_symop_operation_xyz
x,y,z
-x,1/2+y,1/2-z
-x,-y,-z
x,1/2-y,1/2+z
loop_
_atom_site_type_symbol
_atom_site_label
_atom_site_fract_x
_atom_site_fract_y
_atom_site_fract_z
Si Si1 0.990458 0.595853 0.849748
Si Si2 0.629780 0.904196 0.030038
Si Si3 0.660825 0.250018 0.589165
Si Si4 0.756182 0.604502 0.592720
Si Si5 0.081348 0.112634 0.265946
Si Si6 0.692002 0.387292 0.460565
Si Si7 0.360623 0.895518 0.790506
O O1 0.286340 0.604504 0.713694
O O2 0.932951 0.487287 0.867477
O O3 0.053662 0.639236 0.743645
O O4 0.691596 0.628173 0.065181
O O5 0.664805 0.871940 0.078512
O O6 0.864781 0.860857 0.838042
O O7 0.731222 0.012793 0.968297
O O8 0.402887 0.179456 0.766521
O O9 0.600559 0.312898 0.566415
O O10 0.725504 0.320648 0.605126
O O11 0.932522 0.187101 0.400439
O O12 0.647810 0.500013 0.676090
O O13 0.110094 0.607045 0.389932
O O14 0.414453 0.095807 0.085493
#
# Coordination Sequence:
#
# PCOD9252341 Si02
#       7
#     4   4   4   4   4   4   4
#     4   9  19  40  66  88 117 158 207 256 305 363
#     4   9  19  40  66  88 117 158 207 256 305 363
#     4  12  22  38  62  90 126 168 204 248 306 374
#     4  11  24  41  60  93 133 165 203 254 308 365
#     4   9  19  37  62  90 115 154 210 259 301 358
#     4   9  19  37  62  90 115 154 210 259 301 358
#     4  11  24  41  60  93 133 165 203 254 308 365
#
# _framework density 19.998812000000001
#
# number of rings (size 3 to 8) (size 9 to 14) (size 15 to 20)
#    0.000    2.000    2.857    2.571    0.000    4.000 
#    0.000    8.571    0.000    0.000    0.000    0.000 
#    0.000    0.000    0.000    0.000    0.000    0.000 
#
# Total GULP energy -156039.292251 kJ/mol
# GULP energy per Si atom -5572.831866 kJ/mol
# Density = 1.995329 g / cm^3
# Si number density = 19.998812 Si / 1000 Ang^3
#
#
#
# Elastic Constant Matrix: (Units=GPa)
#
#
# Indices 1 2 3 4 5 6 
#
# 1 93.8245 25.3723 65.9418 0.0000 18.9177 0.0000
# 2 25.3723 93.0757 36.7282 0.0000 14.7148 0.0000
# 3 65.9418 36.7282 126.8955 0.0000 23.9944 0.0000
# 4 0.0000 0.0000 0.0000 27.3507 0.0000 21.9634
# 5 18.9177 14.7148 23.9944 0.0000 27.7567 0.0000
# 6 0.0000 0.0000 0.0000 21.9634 0.0000 10.0944
#
#
#
# Elastic Compliance Matrix: (Units=1/GPa)
#
#
# Indices 1 2 3 4 5 6 
#
# 1 0.017375 -0.000898 -0.007913 0.000000 -0.004525 0.000000
# 2 -0.000898 0.012571 -0.002423 0.000000 -0.003957 0.000000
# 3 -0.007913 -0.002423 0.013665 0.000000 -0.005135 0.000000
# 4 0.000000 0.000000 0.000000 -0.048929 0.000000 0.106461
# 5 -0.004525 -0.003957 -0.005135 0.000000 0.045648 0.000000
# 6 0.000000 0.000000 0.000000 0.106461 0.000000 -0.132575
#
#
# Mechanical properties :
#
#
# Convention : Reuss Voigt Hill
#
# Bulk Modulus (GPa) = 47.30222 63.32003 55.31113
# Shear Modulus (GPa) = -79.70910 25.42391 -27.14260
#
# Velocity S-wave (km/s) = -6.32008 3.56936 -3.68803
# Velocity P-wave (km/s) = 5.43637 6.97981 3.09545
#
# Compressibility (1/GPa) = 0.02114066
#
# Stress axis : x y z
#
# Youngs Moduli (GPa) = 57.55298 79.55016 73.17930
#
# Poissons Ratio (x) = 0.07147 0.57910
# Poissons Ratio (y) = 0.05170 0.17734
# Poissons Ratio (z) = 0.45544 0.19278
#
# Static dielectric constant tensor:
#      x y z
#    x 1.710320 0.000000 0.026420 
#    y 0.000000 1.785360 0.000000 
#    z 0.026420 0.000000 1.730170 
# 
# From -- ./inp_files/68591.got.cif
#   From: 2010.05.17/outbox.cif.g08.bks.cpg/sg14_35_cif.got.tgz:68591.got - 2010.06.03 17:49:19.
