data_PCOD9252876
_publ_section_title
;
Structure prediction by ZEFSAII (Michael W. Deem and Ramdas Pophale) SiO2 
 PCOD9252876
Probable space group: P 21/C
;
_chemical_formula_sum "Si O2"
_cell_formula_units_Z 20
_cell_length_a 4.976314
_cell_length_b 10.044255
_cell_length_c 18.473222
_cell_angle_alpha 90.000000
_cell_angle_beta 117.605235
_cell_angle_gamma 90.000000
_cell_volume 818.240380
_symmetry_space_group_name_H-M "P 21/C"
_symmetry_group_IT_number 14
_symmetry_cell_setting 'monoclinic'
loop_
_space_group_symop_operation_xyz
x,y,z
-x,1/2+y,1/2-z
-x,-y,-z
x,1/2-y,1/2+z
loop_
_atom_site_type_symbol
_atom_site_label
_atom_site_fract_x
_atom_site_fract_y
_atom_site_fract_z
Si Si1 0.553560 0.904979 0.073354
Si Si2 0.682743 0.753809 0.788334
Si Si3 0.188849 0.023305 0.596660
Si Si4 0.225649 0.138627 0.357103
Si Si5 0.778938 0.046317 0.832235
O O1 0.627614 0.749607 0.071809
O O2 0.268118 0.909199 0.090978
O O3 0.871624 0.958720 0.146661
O O4 0.500000 0.000000 0.000000
O O5 0.852253 0.667524 0.871115
O O6 0.821699 0.789393 0.726347
O O7 0.631348 0.901093 0.811328
O O8 0.404654 0.655921 0.735365
O O9 0.534384 0.980522 0.623828
O O10 0.067039 0.919533 0.641294
O O11 0.000000 0.000000 0.500000
#
# Coordination Sequence:
#
# PCOD9252876 Si02
#       5
#     4   4   4   4   4
#     4  11  26  44  73 103 145 187 247 307 377 441
#     4  11  26  48  75 104 148 193 257 299 376 450
#     4  12  28  47  75 111 152 196 248 320 377 442
#     4  11  26  47  71 104 147 194 254 303 374 451
#     4  11  26  44  74 103 139 198 243 307 367 451
#
# _framework density 24.442692999999998
#
# number of rings (size 3 to 8) (size 9 to 14) (size 15 to 20)
#    0.000    0.800    2.000    3.600   11.200    4.800 
#    0.000    0.000    0.000    0.000    0.000    0.000 
#    0.000    0.000    0.000    0.000    0.000    0.000 
#
# Total GULP energy -111834.288148 kJ/mol
# GULP energy per Si atom -5591.714407 kJ/mol
# Density = 2.438706 g / cm^3
# Si number density = 24.442693 Si / 1000 Ang^3
#
#
#
# Elastic Constant Matrix: (Units=GPa)
#
#
# Indices 1 2 3 4 5 6 
#
# 1 68.4376 7.3004 10.5109 0.0000 -5.6297 0.0000
# 2 7.3004 139.8499 6.5101 0.0000 10.9524 0.0000
# 3 10.5109 6.5101 73.6209 0.0000 6.6598 0.0000
# 4 0.0000 0.0000 0.0000 33.6482 0.0000 -7.9367
# 5 -5.6297 10.9524 6.6598 0.0000 9.9677 0.0000
# 6 0.0000 0.0000 0.0000 -7.9367 0.0000 38.5333
#
#
#
# Elastic Compliance Matrix: (Units=1/GPa)
#
#
# Indices 1 2 3 4 5 6 
#
# 1 0.016433 -0.001755 -0.003411 0.000000 0.013489 0.000000
# 2 -0.001755 0.008012 0.000456 0.000000 -0.010099 0.000000
# 3 -0.003411 0.000456 0.015166 0.000000 -0.012560 0.000000
# 4 0.000000 0.000000 0.000000 0.031237 0.000000 0.006434
# 5 0.013489 -0.010099 -0.012560 0.000000 0.127432 0.000000
# 6 0.000000 0.000000 0.000000 0.006434 0.000000 0.027277
#
#
# Mechanical properties :
#
#
# Convention : Reuss Voigt Hill
#
# Bulk Modulus (GPa) = 33.12466 36.72790 34.92628
# Shear Modulus (GPa) = 20.40481 33.60231 27.00356
#
# Velocity S-wave (km/s) = 2.89243 3.71177 3.32741
# Velocity P-wave (km/s) = 4.97355 5.78173 5.39280
#
# Compressibility (1/GPa) = 0.03018899
#
# Stress axis : x y z
#
# Youngs Moduli (GPa) = 60.85459 124.81466 65.93678
#
# Poissons Ratio (x) = 0.21910 0.22492
# Poissons Ratio (y) = 0.10683 -0.03005
# Poissons Ratio (z) = 0.20758 -0.05688
#
# Static dielectric constant tensor:
#      x y z
#    x 1.919010 0.000000 0.018710 
#    y 0.000000 1.952950 0.000000 
#    z 0.018710 0.000000 2.006510 
# 
# From -- ./inp_files/52627.got.cif
#   From: 2010.05.17/outbox.cif.g08.bks.cpg/sg14_27_cif.got.tgz:52627.got - 2010.06.03 17:49:19.
