data_PCOD9252685
_publ_section_title
;
Structure prediction by ZEFSAII (Michael W. Deem and Ramdas Pophale) SiO2 
 PCOD9252685
Probable space group: P 21/C
;
_chemical_formula_sum "Si O2"
_cell_formula_units_Z 28
_cell_length_a 13.553492
_cell_length_b 5.041690
_cell_length_c 17.921097
_cell_angle_alpha 90.000000
_cell_angle_beta 99.896505
_cell_angle_gamma 90.000000
_cell_volume 1206.371271
_symmetry_space_group_name_H-M "P 21/C"
_symmetry_group_IT_number 14
_symmetry_cell_setting 'monoclinic'
loop_
_space_group_symop_operation_xyz
x,y,z
-x,1/2+y,1/2-z
-x,-y,-z
x,1/2-y,1/2+z
loop_
_atom_site_type_symbol
_atom_site_label
_atom_site_fract_x
_atom_site_fract_y
_atom_site_fract_z
Si Si1 0.447627 0.665911 0.709152
Si Si2 0.712594 0.731663 0.152462
Si Si3 0.928483 0.966158 0.656078
Si Si4 0.735158 0.687730 0.324643
Si Si5 0.392132 0.754409 0.922270
Si Si6 0.401566 0.018198 0.574098
Si Si7 0.955347 0.969197 0.840070
O O1 0.486955 0.901199 0.767992
O O2 0.332942 0.573962 0.695113
O O3 0.656592 0.535409 0.601547
O O4 0.458632 0.796646 0.630057
O O5 0.818620 0.651078 0.130197
O O6 0.730485 0.817011 0.241110
O O7 0.650064 0.459135 0.142375
O O8 0.940020 0.972299 0.747954
O O9 0.009347 0.761121 0.634587
O O10 0.956965 0.257997 0.632599
O O11 0.848986 0.619912 0.358087
O O12 0.679454 0.851910 0.381639
O O13 0.512955 0.729598 0.938209
O O14 0.358967 0.628755 0.996821
#
# Coordination Sequence:
#
# PCOD9252685 Si02
#       7
#     4   4   4   4   4   4   4
#     4  12  26  40  65  96 132 167 212 276 318 370
#     4  11  25  41  69 100 126 171 223 273 325 381
#     4   9  18  37  60  92 129 159 205 271 328 383
#     4  11  26  39  70 101 128 170 221 273 327 376
#     4  11  28  44  65  91 136 183 216 258 328 403
#     4  11  28  45  64  94 137 180 218 261 328 392
#     4   9  19  35  61  93 128 160 205 267 332 383
#
# _framework density 23.210100000000001
#
# number of rings (size 3 to 8) (size 9 to 14) (size 15 to 20)
#    0.000    1.429    1.429    1.714   12.000    3.429 
#    0.000    0.000    0.000    5.143    0.000    0.000 
#    0.000    0.000    0.000    0.000    0.000    0.000 
#
# Total GULP energy -156629.736579 kJ/mol
# GULP energy per Si atom -5593.919164 kJ/mol
# Density = 2.315727 g / cm^3
# Si number density = 23.210100 Si / 1000 Ang^3
#
#
#
# Elastic Constant Matrix: (Units=GPa)
#
#
# Indices 1 2 3 4 5 6 
#
# 1 91.3327 -1.1924 -6.9316 0.0000 -9.4846 0.0000
# 2 -1.1924 88.6538 -11.2655 0.0000 2.5973 0.0000
# 3 -6.9316 -11.2655 55.8671 0.0000 -9.7620 0.0000
# 4 0.0000 0.0000 0.0000 7.6066 0.0000 3.8116
# 5 -9.4846 2.5973 -9.7620 0.0000 19.2601 0.0000
# 6 0.0000 0.0000 0.0000 3.8116 0.0000 27.8226
#
#
#
# Elastic Compliance Matrix: (Units=1/GPa)
#
#
# Indices 1 2 3 4 5 6 
#
# 1 0.011919 0.000305 0.002807 0.000000 0.007251 0.000000
# 2 0.000305 0.011587 0.002334 0.000000 -0.000229 0.000000
# 3 0.002807 0.002334 0.020742 0.000000 0.011581 0.000000
# 4 0.000000 0.000000 0.000000 0.141154 0.000000 -0.019338
# 5 0.007251 -0.000229 0.011581 0.000000 0.061392 0.000000
# 6 0.000000 0.000000 0.000000 -0.019338 0.000000 0.038591
#
#
# Mechanical properties :
#
#
# Convention : Reuss Voigt Hill
#
# Bulk Modulus (GPa) = 18.13536 21.89717 20.01627
# Shear Modulus (GPa) = 17.07216 27.95406 22.51311
#
# Velocity S-wave (km/s) = 2.71504 3.47420 3.11781
# Velocity P-wave (km/s) = 4.20228 5.05453 4.64798
#
# Compressibility (1/GPa) = 0.05514090
#
# Stress axis : x y z
#
# Youngs Moduli (GPa) = 83.89944 86.30155 48.21078
#
# Poissons Ratio (x) = -0.02629 -0.13534
# Poissons Ratio (y) = -0.02556 -0.11254
# Poissons Ratio (z) = -0.23553 -0.20145
#
# Static dielectric constant tensor:
#      x y z
#    x 1.887290 0.000000 -0.009940 
#    y 0.000000 1.864940 0.000000 
#    z -0.009940 0.000000 1.899370 
# 
# From -- ./inp_files/66289.got.cif
#   From: 2010.05.17/outbox.cif.g08.bks.cpg/sg14_34_cif.got.tgz:66289.got - 2010.06.03 17:49:19.
