data_PCOD9252491
_publ_section_title
;
Structure prediction by ZEFSAII (Michael W. Deem and Ramdas Pophale) SiO2 
 PCOD9252491
Probable space group: P 21/C
;
_chemical_formula_sum "Si O2"
_cell_formula_units_Z 32
_cell_length_a 8.665803
_cell_length_b 11.795891
_cell_length_c 14.590317
_cell_angle_alpha 90.000000
_cell_angle_beta 117.698207
_cell_angle_gamma 90.000000
_cell_volume 1320.528615
_symmetry_space_group_name_H-M "P 21/C"
_symmetry_group_IT_number 14
_symmetry_cell_setting 'monoclinic'
loop_
_space_group_symop_operation_xyz
x,y,z
-x,1/2+y,1/2-z
-x,-y,-z
x,1/2-y,1/2+z
loop_
_atom_site_type_symbol
_atom_site_label
_atom_site_fract_x
_atom_site_fract_y
_atom_site_fract_z
Si Si1 0.718755 0.309450 0.805108
Si Si2 0.416532 0.694347 0.569509
Si Si3 0.369964 0.393252 0.948860
Si Si4 0.887409 0.555413 0.389497
Si Si5 0.911259 0.043068 0.714646
Si Si6 0.149361 0.788634 0.849572
Si Si7 0.346430 0.244591 0.628264
Si Si8 0.707106 0.942264 0.244915
O O1 0.735235 0.241184 0.904229
O O2 0.858360 0.299497 0.762553
O O3 0.545567 0.255814 0.713534
O O4 0.687903 0.444902 0.801390
O O5 0.543247 0.803378 0.596456
O O6 0.328452 0.670276 0.447339
O O7 0.533570 0.592214 0.640733
O O8 0.189498 0.441857 0.862492
O O9 0.500000 0.500000 0.000000
O O10 0.338156 0.320566 0.030858
O O11 0.839619 0.462323 0.299171
O O12 0.736624 0.631167 0.391580
O O13 0.000000 0.500000 0.500000
O O14 0.002004 0.642740 0.360975
O O15 0.858002 0.153836 0.642901
O O16 0.121808 0.042001 0.771067
O O17 0.258700 0.163059 0.678924
#
# Coordination Sequence:
#
# PCOD9252491 Si02
#       8
#     4   4   4   4   4   4   4   4
#     4  11  24  44  75 101 141 193 249 304 375 444
#     4  11  26  45  72 105 145 190 249 312 368 447
#     4  12  24  46  75 108 148 192 247 311 374 445
#     4  12  30  47  72 111 154 200 247 318 390 448
#     4  12  26  47  73 104 152 194 250 306 378 452
#     4  12  26  48  72 112 143 196 258 305 378 458
#     4  11  25  46  71 111 148 191 249 310 377 457
#     4  11  25  44  71 102 146 191 243 308 375 444
#
# _framework density 24.232717999999998
#
# number of rings (size 3 to 8) (size 9 to 14) (size 15 to 20)
#    0.000    0.500    5.000    2.250    5.250    4.000 
#    0.000    0.000    0.000    0.000    0.000    0.000 
#    0.000    0.000    0.000    0.000    0.000    0.000 
#
# Total GULP energy -179040.351373 kJ/mol
# GULP energy per Si atom -5595.010980 kJ/mol
# Density = 2.417756 g / cm^3
# Si number density = 24.232718 Si / 1000 Ang^3
#
#
#
# Elastic Constant Matrix: (Units=GPa)
#
#
# Indices 1 2 3 4 5 6 
#
# 1 80.0810 35.1697 21.5178 0.0000 -9.6619 0.0000
# 2 35.1697 83.5421 22.1566 0.0000 -2.1679 0.0000
# 3 21.5178 22.1566 95.7257 0.0000 -10.3410 0.0000
# 4 0.0000 0.0000 0.0000 42.0499 0.0000 -3.1177
# 5 -9.6619 -2.1679 -10.3410 0.0000 36.6346 0.0000
# 6 0.0000 0.0000 0.0000 -3.1177 0.0000 52.5157
#
#
#
# Elastic Compliance Matrix: (Units=1/GPa)
#
#
# Indices 1 2 3 4 5 6 
#
# 1 0.016111 -0.006212 -0.001820 0.000000 0.003368 0.000000
# 2 -0.006212 0.015149 -0.002259 0.000000 -0.001380 0.000000
# 3 -0.001820 -0.002259 0.011668 0.000000 0.002680 0.000000
# 4 0.000000 0.000000 0.000000 0.023886 0.000000 0.001418
# 5 0.003368 -0.001380 0.002680 0.000000 0.028860 0.000000
# 6 0.000000 0.000000 0.000000 0.001418 0.000000 0.019126
#
#
# Mechanical properties :
#
#
# Convention : Reuss Voigt Hill
#
# Bulk Modulus (GPa) = 44.75192 46.33742 45.54467
# Shear Modulus (GPa) = 35.00660 38.27370 36.64015
#
# Velocity S-wave (km/s) = 3.80491 3.97851 3.89268
# Velocity P-wave (km/s) = 6.14905 6.34571 6.24815
#
# Compressibility (1/GPa) = 0.02234541
#
# Stress axis : x y z
#
# Youngs Moduli (GPa) = 62.06934 66.01274 85.70512
#
# Poissons Ratio (x) = 0.41010 0.15597
# Poissons Ratio (y) = 0.38560 0.19360
# Poissons Ratio (z) = 0.11295 0.14911
#
# Static dielectric constant tensor:
#      x y z
#    x 2.005610 0.000000 -0.069930 
#    y 0.000000 1.964790 0.000000 
#    z -0.069930 0.000000 1.932470 
# 
# From -- ./inp_files/40284.got.cif
#   From: 2010.05.17/outbox.cif.g08.bks.cpg/sg14_21_cif.got.tgz:40284.got - 2010.06.03 17:49:19.
