data_PCOD9252723
_publ_section_title
;
Structure prediction by ZEFSAII (Michael W. Deem and Ramdas Pophale) SiO2 
 PCOD9252723
Probable space group: P 21/C
;
_chemical_formula_sum "Si O2"
_cell_formula_units_Z 24
_cell_length_a 4.996849
_cell_length_b 8.461348
_cell_length_c 25.391612
_cell_angle_alpha 90.000000
_cell_angle_beta 70.521075
_cell_angle_gamma 90.000000
_cell_volume 1012.113327
_symmetry_space_group_name_H-M "P 21/C"
_symmetry_group_IT_number 14
_symmetry_cell_setting 'monoclinic'
loop_
_space_group_symop_operation_xyz
x,y,z
-x,1/2+y,1/2-z
-x,-y,-z
x,1/2-y,1/2+z
loop_
_atom_site_type_symbol
_atom_site_label
_atom_site_fract_x
_atom_site_fract_y
_atom_site_fract_z
Si Si1 0.612978 0.389715 0.038997
Si Si2 0.686463 0.427512 0.280212
Si Si3 0.370550 0.376617 0.612061
Si Si4 0.867197 0.794850 0.696468
Si Si5 0.065959 0.484777 0.435565
Si Si6 0.934731 0.659980 0.075353
O O1 0.359671 0.293769 0.083803
O O2 0.773116 0.502915 0.069547
O O3 0.500000 0.500000 0.000000
O O4 0.839329 0.301984 0.985931
O O5 0.716289 0.557103 0.325655
O O6 0.387869 0.333695 0.294523
O O7 0.748415 0.538940 0.226138
O O8 0.914153 0.291176 0.278592
O O9 0.711768 0.381346 0.593920
O O10 0.210463 0.492071 0.581783
O O11 0.020609 0.836626 0.630766
O O12 0.241084 0.322976 0.415738
O O13 0.000000 0.500000 0.500000
#
# Coordination Sequence:
#
# PCOD9252723 Si02
#       6
#     4   4   4   4   4   4
#     4  11  27  42  69 108 149 193 231 293 367 433
#     4  12  27  50  75 112 137 198 244 309 367 432
#     4  12  25  44  71 103 143 183 241 288 353 432
#     4  12  28  50  78 105 148 187 252 305 369 433
#     4  12  23  42  73 102 138 185 232 290 346 432
#     4  11  25  45  67 105 146 188 233 296 362 429
#
# _framework density 23.712759999999999
#
# number of rings (size 3 to 8) (size 9 to 14) (size 15 to 20)
#    0.000    0.333    5.000    2.500    9.333    1.333 
#    0.000    0.000    0.000    0.000    0.000    0.000 
#    0.000    0.000    0.000    0.000    0.000    0.000 
#
# Total GULP energy -133705.779480 kJ/mol
# GULP energy per Si atom -5571.074145 kJ/mol
# Density = 2.365879 g / cm^3
# Si number density = 23.712760 Si / 1000 Ang^3
#
#
#
# Elastic Constant Matrix: (Units=GPa)
#
#
# Indices 1 2 3 4 5 6 
#
# 1 82.4004 22.1312 3.0367 0.0000 3.6390 0.0000
# 2 22.1312 96.5431 36.1157 0.0000 0.5684 0.0000
# 3 3.0367 36.1157 69.1274 0.0000 13.7526 0.0000
# 4 0.0000 0.0000 0.0000 35.0152 0.0000 6.6375
# 5 3.6390 0.5684 13.7526 0.0000 21.6522 0.0000
# 6 0.0000 0.0000 0.0000 6.6375 0.0000 30.5421
#
#
#
# Elastic Compliance Matrix: (Units=1/GPa)
#
#
# Indices 1 2 3 4 5 6 
#
# 1 0.013230 -0.003793 0.002087 0.000000 -0.003449 0.000000
# 2 -0.003793 0.014357 -0.008454 0.000000 0.005631 0.000000
# 3 0.002087 -0.008454 0.021539 0.000000 -0.013809 0.000000
# 4 0.000000 0.000000 0.000000 0.029786 0.000000 -0.006473
# 5 -0.003449 0.005631 -0.013809 0.000000 0.055388 0.000000
# 6 0.000000 0.000000 0.000000 -0.006473 0.000000 0.034148
#
#
# Mechanical properties :
#
#
# Convention : Reuss Voigt Hill
#
# Bulk Modulus (GPa) = 34.71702 41.18201 37.94951
# Shear Modulus (GPa) = 25.20527 29.89439 27.54983
#
# Velocity S-wave (km/s) = 3.26381 3.55447 3.41224
# Velocity P-wave (km/s) = 5.37362 5.85238 5.61810
#
# Compressibility (1/GPa) = 0.02880431
#
# Stress axis : x y z
#
# Youngs Moduli (GPa) = 75.58543 69.65168 46.42802
#
# Poissons Ratio (x) = 0.26420 -0.09689
# Poissons Ratio (y) = 0.28671 0.39252
# Poissons Ratio (z) = -0.15773 0.58887
#
# Static dielectric constant tensor:
#      x y z
#    x 1.856370 0.000000 -0.122260 
#    y 0.000000 2.244350 0.000000 
#    z -0.122260 0.000000 2.143800 
# 
# From -- ./inp_files/70977.got.cif
#   From: 2010.05.17/outbox.cif.g08.bks.cpg/sg14_36_cif.got.tgz:70977.got - 2010.06.03 17:49:19.
