data_PCOD9252530
_publ_section_title
;
Structure prediction by ZEFSAII (Michael W. Deem and Ramdas Pophale) SiO2 
 PCOD9252530
Probable space group: P 21/C
;
_chemical_formula_sum "Si O2"
_cell_formula_units_Z 28
_cell_length_a 8.916277
_cell_length_b 10.875110
_cell_length_c 16.267753
_cell_angle_alpha 90.000000
_cell_angle_beta 125.000032
_cell_angle_gamma 90.000000
_cell_volume 1292.138688
_symmetry_space_group_name_H-M "P 21/C"
_symmetry_group_IT_number 14
_symmetry_cell_setting 'monoclinic'
loop_
_space_group_symop_operation_xyz
x,y,z
-x,1/2+y,1/2-z
-x,-y,-z
x,1/2-y,1/2+z
loop_
_atom_site_type_symbol
_atom_site_label
_atom_site_fract_x
_atom_site_fract_y
_atom_site_fract_z
Si Si1 0.923744 0.870533 0.450149
Si Si2 0.620094 0.644258 0.132959
Si Si3 0.387005 0.518441 0.547326
Si Si4 0.754595 0.277917 0.051812
Si Si5 0.140321 0.197765 0.922427
Si Si6 0.768356 0.123379 0.729413
Si Si7 0.549338 0.848527 0.244026
O O1 0.944791 0.785214 0.535963
O O2 0.714248 0.877636 0.356782
O O3 0.048700 0.824016 0.414799
O O4 0.000000 0.000000 0.500000
O O5 0.736235 0.722770 0.102309
O O6 0.708813 0.512621 0.179985
O O7 0.602258 0.726914 0.209390
O O8 0.412008 0.637150 0.033690
O O9 0.500000 0.500000 0.500000
O O10 0.276913 0.644618 0.497611
O O11 0.259723 0.400378 0.510743
O O12 0.513733 0.544831 0.665411
O O13 0.742624 0.282643 0.145953
O O14 0.978719 0.128689 0.823452
O O15 0.635867 0.161416 0.762056
#
# Coordination Sequence:
#
# PCOD9252530 Si02
#       7
#     4   4   4   4   4   4   4
#     4  12  27  48  72 104 144 183 241 294 359 430
#     4  11  24  48  68 107 144 184 242 292 359 423
#     4  11  25  47  74 103 149 182 241 295 355 422
#     4  11  24  45  72 102 142 188 235 294 356 423
#     4  12  26  45  75 109 141 194 236 297 360 424
#     4  12  27  43  75 104 146 187 237 294 354 430
#     4  11  26  45  70 104 139 192 233 295 361 418
#
# _framework density 21.669502999999999
#
# number of rings (size 3 to 8) (size 9 to 14) (size 15 to 20)
#    0.000    0.571    2.857    5.571    6.000    2.286 
#    0.000    0.000    0.000    0.000    0.000    0.000 
#    0.000    0.000    0.000    0.000    0.000    0.000 
#
# Total GULP energy -156751.457686 kJ/mol
# GULP energy per Si atom -5598.266346 kJ/mol
# Density = 2.162018 g / cm^3
# Si number density = 21.669503 Si / 1000 Ang^3
#
#
#
# Elastic Constant Matrix: (Units=GPa)
#
#
# Indices 1 2 3 4 5 6 
#
# 1 86.2547 10.8116 -12.5584 0.0000 -11.1280 0.0000
# 2 10.8116 86.6220 16.3451 0.0000 0.4052 0.0000
# 3 -12.5584 16.3451 39.4906 0.0000 -5.1063 0.0000
# 4 0.0000 0.0000 0.0000 35.2387 0.0000 0.0779
# 5 -11.1280 0.4052 -5.1063 0.0000 43.2169 0.0000
# 6 0.0000 0.0000 0.0000 0.0779 0.0000 18.6531
#
#
#
# Elastic Compliance Matrix: (Units=1/GPa)
#
#
# Indices 1 2 3 4 5 6 
#
# 1 0.013349 -0.002807 0.005946 0.000000 0.004166 0.000000
# 2 -0.002807 0.013136 -0.006539 0.000000 -0.001619 0.000000
# 3 0.005946 -0.006539 0.030593 0.000000 0.005207 0.000000
# 4 0.000000 0.000000 0.000000 0.028378 0.000000 -0.000118
# 5 0.004166 -0.001619 0.005207 0.000000 0.024842 0.000000
# 6 0.000000 0.000000 0.000000 -0.000118 0.000000 0.053611
#
#
# Mechanical properties :
#
#
# Convention : Reuss Voigt Hill
#
# Bulk Modulus (GPa) = 19.89017 26.84041 23.36529
# Shear Modulus (GPa) = 26.67093 32.60634 29.63864
#
# Velocity S-wave (km/s) = 3.51209 3.88327 3.70233
# Velocity P-wave (km/s) = 5.06411 5.70259 5.39280
#
# Compressibility (1/GPa) = 0.05027608
#
# Stress axis : x y z
#
# Youngs Moduli (GPa) = 74.91406 76.12486 32.68705
#
# Poissons Ratio (x) = 0.21372 -0.19435
# Poissons Ratio (y) = 0.21032 0.21375
# Poissons Ratio (z) = -0.44542 0.49780
#
# Static dielectric constant tensor:
#      x y z
#    x 1.755140 0.000000 0.005560 
#    y 0.000000 1.808560 0.000000 
#    z 0.005560 0.000000 1.761400 
# 
# From -- ./inp_files/40414.got.cif
#   From: 2010.05.17/outbox.cif.g08.bks.cpg/sg14_21_cif.got.tgz:40414.got - 2010.06.03 17:49:19.
