data_PCOD9252066
_publ_section_title
;
Structure prediction by ZEFSAII (Michael W. Deem and Ramdas Pophale) SiO2 
 PCOD9252066
Probable space group: P 21/C
;
_chemical_formula_sum "Si O2"
_cell_formula_units_Z 26
_cell_length_a 12.044060
_cell_length_b 11.841174
_cell_length_c 17.009591
_cell_angle_alpha 90.000000
_cell_angle_beta 32.209322
_cell_angle_gamma 90.000000
_cell_volume 1293.004735
_symmetry_space_group_name_H-M "P 21/C"
_symmetry_group_IT_number 14
_symmetry_cell_setting 'monoclinic'
loop_
_space_group_symop_operation_xyz
x,y,z
-x,1/2+y,1/2-z
-x,-y,-z
x,1/2-y,1/2+z
loop_
_atom_site_type_symbol
_atom_site_label
_atom_site_fract_x
_atom_site_fract_y
_atom_site_fract_z
Si Si1 0.500000 0.500000 0.000000
Si Si2 0.605421 0.866111 0.015386
Si Si3 0.720927 0.388709 0.427818
Si Si4 0.174444 0.144505 0.589894
Si Si5 0.523888 0.186040 0.621841
Si Si6 0.815148 0.649024 0.104504
Si Si7 0.287474 0.894651 0.334402
O O1 0.670156 0.560326 0.958605
O O2 0.516143 0.609620 0.929952
O O3 0.475060 0.875615 0.013531
O O4 0.436789 0.834227 0.182682
O O5 0.778397 0.770789 0.908070
O O6 0.700452 0.988206 0.978610
O O7 0.695890 0.282603 0.500136
O O8 0.935967 0.385572 0.251594
O O9 0.208468 0.147339 0.475733
O O10 0.321788 0.255407 0.772473
O O11 0.604315 0.111864 0.646293
O O12 0.744817 0.523970 0.174140
O O13 0.059820 0.659797 0.975046
#
# Coordination Sequence:
#
# PCOD9252066 Si02
#       7
#     2   4   4   4   4   4   4
#     4  12  28  44  64 108 144 180 222 302 362 406
#     4  11  23  43  69  98 138 182 239 281 344 422
#     4  11  26  42  66 103 136 183 233 288 345 417
#     4  12  25  44  70  98 142 182 228 293 354 411
#     4  12  25  44  69 101 144 178 229 292 353 417
#     4  11  24  43  70  99 133 185 233 280 344 421
#     4  11  23  42  70 100 134 182 231 282 342 423
#
# _framework density 20.108201999999999
#
# number of rings (size 3 to 8) (size 9 to 14) (size 15 to 20)
#    0.000    0.615    7.692    0.000    4.308    0.000 
#    0.000    0.000    0.000    5.538    0.000    0.000 
#    0.000    0.000    0.000    0.000    0.000    0.000 
#
# Total GULP energy -144774.401202 kJ/mol
# GULP energy per Si atom -5568.246200 kJ/mol
# Density = 2.006244 g / cm^3
# Si number density = 20.108202 Si / 1000 Ang^3
#
#
#
# Elastic Constant Matrix: (Units=GPa)
#
#
# Indices 1 2 3 4 5 6 
#
# 1 60.0223 12.3033 11.8919 0.0000 -10.0685 0.0000
# 2 12.3033 85.3071 51.1319 0.0000 -7.5543 0.0000
# 3 11.8919 51.1319 83.4637 0.0000 -1.2199 0.0000
# 4 0.0000 0.0000 0.0000 19.8476 0.0000 8.5602
# 5 -10.0685 -7.5543 -1.2199 0.0000 17.2596 0.0000
# 6 0.0000 0.0000 0.0000 8.5602 0.0000 27.2159
#
#
#
# Elastic Compliance Matrix: (Units=1/GPa)
#
#
# Indices 1 2 3 4 5 6 
#
# 1 0.019002 -0.000412 -0.002298 0.000000 0.010742 0.000000
# 2 -0.000412 0.019504 -0.011781 0.000000 0.007464 0.000000
# 3 -0.002298 -0.011781 0.019451 0.000000 -0.005122 0.000000
# 4 0.000000 0.000000 0.000000 0.058291 0.000000 -0.018334
# 5 0.010742 0.007464 -0.005122 0.000000 0.067110 0.000000
# 6 0.000000 0.000000 0.000000 -0.018334 0.000000 0.042510
#
#
# Mechanical properties :
#
#
# Convention : Reuss Voigt Hill
#
# Bulk Modulus (GPa) = 34.51179 42.16083 38.33631
# Shear Modulus (GPa) = 18.90298 23.09569 20.99933
#
# Velocity S-wave (km/s) = 3.06937 3.39273 3.23509
# Velocity P-wave (km/s) = 5.45543 6.02993 5.74986
#
# Compressibility (1/GPa) = 0.02897561
#
# Stress axis : x y z
#
# Youngs Moduli (GPa) = 52.62550 51.27161 51.41106
#
# Poissons Ratio (x) = 0.02111 0.11815
# Poissons Ratio (y) = 0.02167 0.60567
# Poissons Ratio (z) = 0.12094 0.60402
#
# Static dielectric constant tensor:
#      x y z
#    x 1.693600 0.000000 0.024610 
#    y 0.000000 1.725440 0.000000 
#    z 0.024610 0.000000 1.703640 
# 
# From -- ./inp_files/29237.got.cif
#   From: 2010.05.17/outbox.cif.g08.bks.cpg/sg14_15_cif.got.tgz:29237.got - 2010.06.03 17:49:19.
