data_PCOD9252696
_publ_section_title
;
Structure prediction by ZEFSAII (Michael W. Deem and Ramdas Pophale) SiO2 
 PCOD9252696
Probable space group: P 21/C
;
_chemical_formula_sum "Si O2"
_cell_formula_units_Z 24
_cell_length_a 17.225249
_cell_length_b 5.133239
_cell_length_c 9.684991
_cell_angle_alpha 90.000000
_cell_angle_beta 81.618166
_cell_angle_gamma 90.000000
_cell_volume 847.212567
_symmetry_space_group_name_H-M "P 21/C"
_symmetry_group_IT_number 14
_symmetry_cell_setting 'monoclinic'
loop_
_space_group_symop_operation_xyz
x,y,z
-x,1/2+y,1/2-z
-x,-y,-z
x,1/2-y,1/2+z
loop_
_atom_site_type_symbol
_atom_site_label
_atom_site_fract_x
_atom_site_fract_y
_atom_site_fract_z
Si Si1 0.134854 0.360785 0.986760
Si Si2 0.596475 0.778737 0.274969
Si Si3 0.272913 0.766205 0.570299
Si Si4 0.756372 0.972328 0.180062
Si Si5 0.951964 0.543435 0.246135
Si Si6 0.564544 0.217929 0.594033
O O1 0.080679 0.529171 0.898887
O O2 0.162615 0.164813 0.857141
O O3 0.210057 0.524803 0.024003
O O4 0.098112 0.185264 0.117707
O O5 0.529067 0.779894 0.410592
O O6 0.583109 0.516555 0.193195
O O7 0.689163 0.806546 0.274636
O O8 0.578230 0.019898 0.178340
O O9 0.264718 0.523439 0.472587
O O10 0.246579 0.760428 0.734651
O O11 0.367569 0.805429 0.537822
O O12 0.981553 0.264834 0.295600
#
# Coordination Sequence:
#
# PCOD9252696 Si02
#       6
#     4   4   4   4   4   4
#     4  12  26  46  78 108 146 194 236 302 362 442
#     4   9  18  37  63  98 143 192 245 300 358 417
#     4  11  25  43  70 106 147 195 248 301 360 425
#     4  11  25  43  70 106 147 195 248 301 360 425
#     4  12  30  52  78 112 146 186 236 296 374 452
#     4   9  18  37  63  98 143 192 245 300 358 417
#
# _framework density 28.328192000000001
#
# number of rings (size 3 to 8) (size 9 to 14) (size 15 to 20)
#    0.000    1.333    3.333    1.000    7.000    0.667 
#    0.000    0.000    0.000   11.000    0.000    0.000 
#    0.000    0.000    0.000    0.000    0.000    0.000 
#
# Total GULP energy -134208.103374 kJ/mol
# GULP energy per Si atom -5592.004307 kJ/mol
# Density = 2.826372 g / cm^3
# Si number density = 28.328192 Si / 1000 Ang^3
#
#
#
# Elastic Constant Matrix: (Units=GPa)
#
#
# Indices 1 2 3 4 5 6 
#
# 1 81.2546 13.3565 54.0161 0.0000 15.5971 0.0000
# 2 13.3565 121.2996 19.2392 0.0000 11.7595 0.0000
# 3 54.0161 19.2392 144.2964 0.0000 -12.0749 0.0000
# 4 0.0000 0.0000 0.0000 16.9835 0.0000 104.7569
# 5 15.5971 11.7595 -12.0749 0.0000 47.8871 0.0000
# 6 0.0000 0.0000 0.0000 104.7569 0.0000 -609.1249
#
#
#
# Elastic Compliance Matrix: (Units=1/GPa)
#
#
# Indices 1 2 3 4 5 6 
#
# 1 0.019084 -0.000069 -0.007818 0.000000 -0.008170 0.000000
# 2 -0.000069 0.008702 -0.001340 0.000000 -0.002452 0.000000
# 3 -0.007818 -0.001340 0.010498 0.000000 0.005523 0.000000
# 4 0.000000 0.000000 0.000000 0.028572 0.000000 0.004914
# 5 -0.008170 -0.002452 0.005523 0.000000 0.025538 0.000000
# 6 0.000000 0.000000 0.000000 0.004914 0.000000 -0.000797
#
#
# Mechanical properties :
#
#
# Convention : Reuss Voigt Hill
#
# Bulk Modulus (GPa) = 50.43035 57.78601 54.10818
# Shear Modulus (GPa) = 42.85905 -91.50160 -24.32128
#
# Velocity S-wave (km/s) = 3.89388 -5.68952 -2.93329
# Velocity P-wave (km/s) = 6.16905 4.76632 2.76942
#
# Compressibility (1/GPa) = 0.01982933
#
# Stress axis : x y z
#
# Youngs Moduli (GPa) = 52.39922 114.91805 95.25905
#
# Poissons Ratio (x) = 0.00796 0.74478
# Poissons Ratio (y) = 0.00363 0.12760
# Poissons Ratio (z) = 0.40968 0.15393
#
# Static dielectric constant tensor:
#      x y z
#    x 2.482000 0.000000 -0.028100 
#    y 0.000000 2.229620 0.000000 
#    z -0.028100 0.000000 2.136150 
# 
# From -- ./inp_files/33349.got.cif
#   From: 2010.05.17/outbox.cif.g08.bks.cpg/sg14_17_cif.got.tgz:33349.got - 2010.06.03 17:49:19.
