data_PCOD9252516
_publ_section_title
;
Structure prediction by ZEFSAII (Michael W. Deem and Ramdas Pophale) SiO2 
 PCOD9252516
Probable space group: P 21/C
;
_chemical_formula_sum "Si O2"
_cell_formula_units_Z 20
_cell_length_a 20.210680
_cell_length_b 5.107249
_cell_length_c 24.984757
_cell_angle_alpha 90.000000
_cell_angle_beta 163.664900
_cell_angle_gamma 90.000000
_cell_volume 725.341938
_symmetry_space_group_name_H-M "P 21/C"
_symmetry_group_IT_number 14
_symmetry_cell_setting 'monoclinic'
loop_
_space_group_symop_operation_xyz
x,y,z
-x,1/2+y,1/2-z
-x,-y,-z
x,1/2-y,1/2+z
loop_
_atom_site_type_symbol
_atom_site_label
_atom_site_fract_x
_atom_site_fract_y
_atom_site_fract_z
Si Si1 0.162705 0.363438 0.822671
Si Si2 0.754228 0.048361 0.491839
Si Si3 0.715458 0.005422 0.826046
Si Si4 0.108475 0.753374 0.192511
Si Si5 0.587859 0.997788 0.158971
O O1 0.183020 0.447486 0.899682
O O2 0.321278 0.101396 0.942766
O O3 0.887056 0.325644 0.595726
O O4 0.244568 0.569747 0.841557
O O5 0.476074 0.024440 0.274939
O O6 0.897067 0.897064 0.557788
O O7 0.630454 0.784885 0.717501
O O8 0.688166 0.292420 0.780214
O O9 0.975488 0.942207 0.047283
O O10 0.268645 0.556307 0.283339
#
# Coordination Sequence:
#
# PCOD9252516 Si02
#       5
#     4   4   4   4   4
#     4  11  24  45  70 104 147 192 243 301 365 433
#     4  11  25  43  72 100 146 187 238 297 363 432
#     4  11  28  48  74 104 152 190 244 302 371 438
#     4  12  27  44  76 108 142 195 248 301 368 443
#     4  11  27  50  73 105 148 195 242 305 366 439
#
# _framework density 27.573204
#
# number of rings (size 3 to 8) (size 9 to 14) (size 15 to 20)
#    0.000    0.800    2.000    3.000   14.000    0.800 
#    0.000    0.000    0.000    0.000    0.000    0.000 
#    0.000    0.000    0.000    0.000    0.000    0.000 
#
# Total GULP energy -112253.956024 kJ/mol
# GULP energy per Si atom -5612.697801 kJ/mol
# Density = 2.751045 g / cm^3
# Si number density = 27.573204 Si / 1000 Ang^3
#
#
#
# Elastic Constant Matrix: (Units=GPa)
#
#
# Indices 1 2 3 4 5 6 
#
# 1 137.2566 33.2484 42.5104 0.0000 23.0906 0.0000
# 2 33.2484 84.5429 9.3461 0.0000 -2.2526 0.0000
# 3 42.5104 9.3461 101.0349 0.0000 0.9531 0.0000
# 4 0.0000 0.0000 0.0000 40.7132 0.0000 -1.0224
# 5 23.0906 -2.2526 0.9531 0.0000 52.0978 0.0000
# 6 0.0000 0.0000 0.0000 -1.0224 0.0000 58.9011
#
#
#
# Elastic Compliance Matrix: (Units=1/GPa)
#
#
# Indices 1 2 3 4 5 6 
#
# 1 0.010155 -0.003686 -0.003888 0.000000 -0.004589 0.000000
# 2 -0.003686 0.013304 0.000299 0.000000 0.002203 0.000000
# 3 -0.003888 0.000299 0.011492 0.000000 0.001526 0.000000
# 4 0.000000 0.000000 0.000000 0.024573 0.000000 0.000427
# 5 -0.004589 0.002203 0.001526 0.000000 0.021296 0.000000
# 6 0.000000 0.000000 0.000000 0.000427 0.000000 0.016985
#
#
# Mechanical properties :
#
#
# Convention : Reuss Voigt Hill
#
# Bulk Modulus (GPa) = 49.01958 54.78269 51.90113
# Shear Modulus (GPa) = 41.96273 46.19106 44.07689
#
# Velocity S-wave (km/s) = 3.90534 4.09738 4.00251
# Velocity P-wave (km/s) = 6.17674 6.50353 6.34224
#
# Compressibility (1/GPa) = 0.02040001
#
# Stress axis : x y z
#
# Youngs Moduli (GPa) = 98.47560 75.16801 87.02083
#
# Poissons Ratio (x) = 0.27707 0.33837
# Poissons Ratio (y) = 0.36298 -0.02606
# Poissons Ratio (z) = 0.38291 -0.02251
#
# Static dielectric constant tensor:
#      x y z
#    x 2.128850 0.000000 -0.024080 
#    y 0.000000 2.146800 0.000000 
#    z -0.024080 0.000000 2.145310 
# 
# From -- ./inp_files/67927.got.cif
#   From: 2010.05.17/outbox.cif.g08.bks.cpg/sg14_34_cif.got.tgz:67927.got - 2010.06.03 17:49:19.
