data_PCOD9252507
_publ_section_title
;
Structure prediction by ZEFSAII (Michael W. Deem and Ramdas Pophale) SiO2 
 PCOD9252507
Probable space group: P 21/C
;
_chemical_formula_sum "Si O2"
_cell_formula_units_Z 24
_cell_length_a 21.350871
_cell_length_b 12.856094
_cell_length_c 10.739585
_cell_angle_alpha 90.000000
_cell_angle_beta 22.958414
_cell_angle_gamma 90.000000
_cell_volume 1149.864838
_symmetry_space_group_name_H-M "P 21/C"
_symmetry_group_IT_number 14
_symmetry_cell_setting 'monoclinic'
loop_
_space_group_symop_operation_xyz
x,y,z
-x,1/2+y,1/2-z
-x,-y,-z
x,1/2-y,1/2+z
loop_
_atom_site_type_symbol
_atom_site_label
_atom_site_fract_x
_atom_site_fract_y
_atom_site_fract_z
Si Si1 0.216974 0.792398 0.204466
Si Si2 0.085596 0.071969 0.169857
Si Si3 0.004060 0.913777 0.099962
Si Si4 0.300845 0.268690 0.792717
Si Si5 0.657392 0.432777 0.730834
Si Si6 0.504787 0.284912 0.171117
O O1 0.131535 0.680138 0.344794
O O2 0.074008 0.870893 0.497077
O O3 0.307379 0.832100 0.916386
O O4 0.354912 0.797835 0.056922
O O5 0.047081 0.983270 0.140663
O O6 0.206651 0.166039 0.914800
O O7 0.192903 0.007324 0.069690
O O8 0.833504 0.855291 0.430476
O O9 0.000000 0.000000 0.000000
O O10 0.408319 0.299515 0.476671
O O11 0.394911 0.241314 0.750766
O O12 0.500000 0.500000 0.000000
O O13 0.613311 0.386518 0.945595
#
# Coordination Sequence:
#
# PCOD9252507 Si02
#       6
#     4   4   4   4   4   4
#     4  11  26  44  71 100 140 184 237 297 348 432
#     4  11  24  45  69 100 135 190 237 283 350 434
#     4  11  26  44  68 105 145 182 233 300 368 415
#     4  11  26  46  73 103 144 186 236 296 351 432
#     4  12  24  44  71 103 136 188 241 284 352 433
#     4  12  23  46  69 102 142 182 234 291 352 416
#
# _framework density 20.872018000000001
#
# number of rings (size 3 to 8) (size 9 to 14) (size 15 to 20)
#    0.000    0.667    5.000    1.500    4.667    2.667 
#    0.000    1.667    0.000    0.000    0.000    0.000 
#    0.000    0.000    0.000    0.000    0.000    0.000 
#
# Total GULP energy -133661.330941 kJ/mol
# GULP energy per Si atom -5569.222123 kJ/mol
# Density = 2.082451 g / cm^3
# Si number density = 20.872018 Si / 1000 Ang^3
#
#
#
# Elastic Constant Matrix: (Units=GPa)
#
#
# Indices 1 2 3 4 5 6 
#
# 1 78.0877 47.4035 73.6680 0.0000 -10.6170 0.0000
# 2 47.4035 143.5412 74.5230 0.0000 -0.5766 0.0000
# 3 73.6680 74.5230 140.9085 0.0000 -10.6586 0.0000
# 4 0.0000 0.0000 0.0000 36.8366 0.0000 -3.7249
# 5 -10.6170 -0.5766 -10.6586 0.0000 33.0203 0.0000
# 6 0.0000 0.0000 0.0000 -3.7249 0.0000 32.0319
#
#
#
# Elastic Compliance Matrix: (Units=1/GPa)
#
#
# Indices 1 2 3 4 5 6 
#
# 1 0.026345 -0.002354 -0.012188 0.000000 0.004495 0.000000
# 2 -0.002354 0.009888 -0.004144 0.000000 -0.001922 0.000000
# 3 -0.012188 -0.004144 0.015743 0.000000 0.001090 0.000000
# 4 0.000000 0.000000 0.000000 0.027470 0.000000 0.003194
# 5 0.004495 -0.001922 0.001090 0.000000 0.032048 0.000000
# 6 0.000000 0.000000 0.000000 0.003194 0.000000 0.031590
#
#
# Mechanical properties :
#
#
# Convention : Reuss Voigt Hill
#
# Bulk Modulus (GPa) = 68.47993 83.74739 76.11366
# Shear Modulus (GPa) = 26.97974 31.50728 29.24351
#
# Velocity S-wave (km/s) = 3.59921 3.88950 3.74717
# Velocity P-wave (km/s) = 7.08189 7.77061 7.43423
#
# Compressibility (1/GPa) = 0.01460282
#
# Stress axis : x y z
#
# Youngs Moduli (GPa) = 37.95826 101.13400 63.52079
#
# Poissons Ratio (x) = 0.23811 0.77419
# Poissons Ratio (y) = 0.08937 0.26323
# Poissons Ratio (z) = 0.46263 0.41909
#
# Static dielectric constant tensor:
#      x y z
#    x 1.789250 0.000000 0.027890 
#    y 0.000000 1.907690 0.000000 
#    z 0.027890 0.000000 1.735350 
# 
# From -- ./inp_files/35893.got.cif
#   From: 2010.05.17/outbox.cif.g08.bks.cpg/sg14_18_cif.got.tgz:35893.got - 2010.06.03 17:49:19.
