data_PCOD9252269
_publ_section_title
;
Structure prediction by ZEFSAII (Michael W. Deem and Ramdas Pophale) SiO2 
 PCOD9252269
Probable space group: P 21/C
;
_chemical_formula_sum "Si O2"
_cell_formula_units_Z 24
_cell_length_a 17.039607
_cell_length_b 11.411347
_cell_length_c 11.264544
_cell_angle_alpha 90.000000
_cell_angle_beta 150.825928
_cell_angle_gamma 90.000000
_cell_volume 1067.709660
_symmetry_space_group_name_H-M "P 21/C"
_symmetry_group_IT_number 14
_symmetry_cell_setting 'monoclinic'
loop_
_space_group_symop_operation_xyz
x,y,z
-x,1/2+y,1/2-z
-x,-y,-z
x,1/2-y,1/2+z
loop_
_atom_site_type_symbol
_atom_site_label
_atom_site_fract_x
_atom_site_fract_y
_atom_site_fract_z
Si Si1 0.765316 0.766963 0.575124
Si Si2 0.096190 0.677509 0.913326
Si Si3 0.662465 0.986407 0.292433
Si Si4 0.491583 0.067646 0.293914
Si Si5 0.677701 0.397706 0.281364
Si Si6 0.896516 0.583521 0.447549
O O1 0.641309 0.661128 0.419531
O O2 0.774768 0.842388 0.707527
O O3 0.945667 0.717671 0.794077
O O4 0.714296 0.855581 0.400789
O O5 0.017338 0.663091 0.680157
O O6 0.187433 0.556597 0.065533
O O7 0.228526 0.778064 0.084828
O O8 0.620984 0.051519 0.361927
O O9 0.500000 0.000000 0.000000
O O10 0.565053 0.107993 0.516564
O O11 0.413724 0.941295 0.222312
O O12 0.802194 0.502113 0.415241
O O13 0.000000 0.500000 0.500000
#
# Coordination Sequence:
#
# PCOD9252269 Si02
#       6
#     4   4   4   4   4   4
#     4  12  26  45  72 105 142 185 243 295 360 428
#     4  12  25  43  75 102 138 185 239 296 362 430
#     4  12  28  47  69 106 147 188 244 298 355 432
#     4  11  26  45  73 101 144 193 238 297 363 427
#     4  11  23  46  71 102 139 191 241 289 369 422
#     4  12  22  46  70 104 144 188 235 300 359 428
#
# _framework density 22.478020999999998
#
# number of rings (size 3 to 8) (size 9 to 14) (size 15 to 20)
#    0.000    0.333    6.667    1.000    4.667    1.333 
#    0.000    1.667    0.000    0.000    0.000    0.000 
#    0.000    0.000    0.000    0.000    0.000    0.000 
#
# Total GULP energy -134366.495429 kJ/mol
# GULP energy per Si atom -5598.603976 kJ/mol
# Density = 2.242686 g / cm^3
# Si number density = 22.478021 Si / 1000 Ang^3
#
#
#
# Elastic Constant Matrix: (Units=GPa)
#
#
# Indices 1 2 3 4 5 6 
#
# 1 44.9021 7.1200 -14.0103 0.0000 13.8569 0.0000
# 2 7.1200 38.3577 5.9551 0.0000 11.5044 0.0000
# 3 -14.0103 5.9551 83.8156 0.0000 1.8320 0.0000
# 4 0.0000 0.0000 0.0000 56.3807 0.0000 10.4222
# 5 13.8569 11.5044 1.8320 0.0000 38.3255 0.0000
# 6 0.0000 0.0000 0.0000 10.4222 0.0000 31.8043
#
#
#
# Elastic Compliance Matrix: (Units=1/GPa)
#
#
# Indices 1 2 3 4 5 6 
#
# 1 0.027116 -0.003066 0.004950 0.000000 -0.009120 0.000000
# 2 -0.003066 0.029286 -0.002428 0.000000 -0.007566 0.000000
# 3 0.004950 -0.002428 0.012968 0.000000 -0.001681 0.000000
# 4 0.000000 0.000000 0.000000 0.018880 0.000000 -0.006187
# 5 -0.009120 -0.007566 -0.001681 0.000000 0.031741 0.000000
# 6 0.000000 0.000000 0.000000 -0.006187 0.000000 0.033470
#
#
# Mechanical properties :
#
#
# Convention : Reuss Voigt Hill
#
# Bulk Modulus (GPa) = 14.64555 18.35611 16.50083
# Shear Modulus (GPa) = 28.19926 36.50281 32.35104
#
# Velocity S-wave (km/s) = 3.54577 4.03418 3.79783
# Velocity P-wave (km/s) = 4.82628 5.46657 5.15637
#
# Compressibility (1/GPa) = 0.06828013
#
# Stress axis : x y z
#
# Youngs Moduli (GPa) = 36.87883 34.14624 77.11541
#
# Poissons Ratio (x) = 0.10470 -0.38170
# Poissons Ratio (y) = 0.11308 0.18723
# Poissons Ratio (z) = -0.18254 0.08291
#
# Static dielectric constant tensor:
#      x y z
#    x 1.852110 0.000000 0.027130 
#    y 0.000000 1.874480 0.000000 
#    z 0.027130 0.000000 1.840420 
# 
# From -- ./inp_files/28767.got.cif
#   From: 2010.05.17/outbox.cif.g08.bks.cpg/sg14_15_cif.got.tgz:28767.got - 2010.06.03 17:49:19.
