data_PCOD9252771
_publ_section_title
;
Structure prediction by ZEFSAII (Michael W. Deem and Ramdas Pophale) SiO2 
 PCOD9252771
Probable space group: P 21/C
;
_chemical_formula_sum "Si O2"
_cell_formula_units_Z 24
_cell_length_a 8.742935
_cell_length_b 13.452051
_cell_length_c 12.425004
_cell_angle_alpha 90.000000
_cell_angle_beta 58.521015
_cell_angle_gamma 90.000000
_cell_volume 1246.251379
_symmetry_space_group_name_H-M "P 21/C"
_symmetry_group_IT_number 14
_symmetry_cell_setting 'monoclinic'
loop_
_space_group_symop_operation_xyz
x,y,z
-x,1/2+y,1/2-z
-x,-y,-z
x,1/2-y,1/2+z
loop_
_atom_site_type_symbol
_atom_site_label
_atom_site_fract_x
_atom_site_fract_y
_atom_site_fract_z
Si Si1 0.844362 0.992330 0.649207
Si Si2 0.372927 0.810701 0.323191
Si Si3 0.971839 0.508585 0.687221
Si Si4 0.048368 0.661678 0.480888
Si Si5 0.300897 0.201294 0.400499
Si Si6 0.612037 0.907150 0.413778
O O1 0.717461 0.088494 0.687387
O O2 0.934304 0.989784 0.733228
O O3 0.732451 0.892889 0.665217
O O4 0.000000 0.000000 0.500000
O O5 0.515284 0.758243 0.192473
O O6 0.483099 0.840626 0.388703
O O7 0.213641 0.735573 0.408470
O O8 0.066336 0.592368 0.579346
O O9 0.773247 0.548971 0.784218
O O10 0.962309 0.410311 0.618335
O O11 0.865957 0.724998 0.553077
O O12 0.307923 0.155836 0.517343
O O13 0.500000 0.000000 0.500000
#
# Coordination Sequence:
#
# PCOD9252771 Si02
#       6
#     4   4   4   4   4   4
#     4  12  24  46  69  99 136 182 230 278 338 406
#     4  12  26  43  71 103 135 179 230 282 342 406
#     4  11  25  46  69  97 141 178 224 285 339 405
#     4  11  26  46  68 100 137 180 224 281 346 403
#     4  12  26  44  68 103 135 179 232 277 344 410
#     4  12  23  44  68  99 139 177 225 281 337 409
#
# _framework density 19.257752
#
# number of rings (size 3 to 8) (size 9 to 14) (size 15 to 20)
#    0.000    0.333    6.667    1.000    4.667    1.333 
#    0.000    1.667    0.000    0.000    0.000    0.000 
#    0.000    0.000    0.000    0.000    0.000    0.000 
#
# Total GULP energy -134292.634285 kJ/mol
# GULP energy per Si atom -5595.526429 kJ/mol
# Density = 1.921392 g / cm^3
# Si number density = 19.257752 Si / 1000 Ang^3
#
#
#
# Elastic Constant Matrix: (Units=GPa)
#
#
# Indices 1 2 3 4 5 6 
#
# 1 80.9960 52.1511 36.9021 0.0000 -7.7516 0.0000
# 2 52.1511 142.7896 58.3868 0.0000 -8.8487 0.0000
# 3 36.9021 58.3868 97.1665 0.0000 -2.0634 0.0000
# 4 0.0000 0.0000 0.0000 15.9035 0.0000 -14.1065
# 5 -7.7516 -8.8487 -2.0634 0.0000 47.8830 0.0000
# 6 0.0000 0.0000 0.0000 -14.1065 0.0000 37.0063
#
#
#
# Elastic Compliance Matrix: (Units=1/GPa)
#
#
# Indices 1 2 3 4 5 6 
#
# 1 0.017200 -0.004662 -0.003693 0.000000 0.001764 0.000000
# 2 -0.004662 0.010654 -0.004610 0.000000 0.001015 0.000000
# 3 -0.003693 -0.004610 0.014446 0.000000 -0.000827 0.000000
# 4 0.000000 0.000000 0.000000 0.095001 0.000000 0.036214
# 5 0.001764 0.001015 -0.000827 0.000000 0.021322 0.000000
# 6 0.000000 0.000000 0.000000 0.036214 0.000000 0.040827
#
#
# Mechanical properties :
#
#
# Convention : Reuss Voigt Hill
#
# Bulk Modulus (GPa) = 61.08773 68.42577 64.75675
# Shear Modulus (GPa) = 21.66033 31.72604 26.69318
#
# Velocity S-wave (km/s) = 3.35738 4.06327 3.72708
# Velocity P-wave (km/s) = 6.84246 7.59093 7.22640
#
# Compressibility (1/GPa) = 0.01636990
#
# Stress axis : x y z
#
# Youngs Moduli (GPa) = 58.14070 93.86153 69.22095
#
# Poissons Ratio (x) = 0.43763 0.25563
# Poissons Ratio (y) = 0.27108 0.31908
# Poissons Ratio (z) = 0.21471 0.43267
#
# Static dielectric constant tensor:
#      x y z
#    x 1.643090 0.000000 -0.005460 
#    y 0.000000 1.654140 0.000000 
#    z -0.005460 0.000000 1.661830 
# 
# From -- ./inp_files/24110.got.cif
#   From: 2010.05.17/outbox.cif.g08.bks.cpg/sg14_13_cif.got.tgz:24110.got - 2010.06.03 17:49:19.
