data_PCOD9252456
_publ_section_title
;
Structure prediction by ZEFSAII (Michael W. Deem and Ramdas Pophale) SiO2 
 PCOD9252456
Probable space group: P 21/C
;
_chemical_formula_sum "Si O2"
_cell_formula_units_Z 32
_cell_length_a 14.027941
_cell_length_b 9.199288
_cell_length_c 9.699958
_cell_angle_alpha 90.000000
_cell_angle_beta 95.659790
_cell_angle_gamma 90.000000
_cell_volume 1245.648899
_symmetry_space_group_name_H-M "P 21/C"
_symmetry_group_IT_number 14
_symmetry_cell_setting 'monoclinic'
loop_
_space_group_symop_operation_xyz
x,y,z
-x,1/2+y,1/2-z
-x,-y,-z
x,1/2-y,1/2+z
loop_
_atom_site_type_symbol
_atom_site_label
_atom_site_fract_x
_atom_site_fract_y
_atom_site_fract_z
Si Si1 0.887936 0.907468 0.708624
Si Si2 0.693082 0.176239 0.891608
Si Si3 0.553531 0.524736 0.227327
Si Si4 0.182191 0.005165 0.880991
Si Si5 0.123329 0.725614 0.718936
Si Si6 0.960798 0.719226 0.487862
Si Si7 0.359402 0.504794 0.061892
Si Si8 0.707893 0.757934 0.284451
O O1 0.907631 0.852498 0.556781
O O2 0.783843 0.870651 0.761284
O O3 0.914574 0.076373 0.717383
O O4 0.950356 0.804802 0.822998
O O5 0.764848 0.184086 0.774546
O O6 0.691666 0.341698 0.939757
O O7 0.594664 0.100008 0.833225
O O8 0.745078 0.079100 0.011281
O O9 0.439484 0.517531 0.195104
O O10 0.604889 0.677669 0.270678
O O11 0.591439 0.500577 0.078440
O O12 0.131063 0.889459 0.774801
O O13 0.098937 0.084835 0.955391
O O14 0.249094 0.122680 0.814362
O O15 0.067693 0.726203 0.564010
O O16 0.298694 0.358848 0.079854
#
# Coordination Sequence:
#
# PCOD9252456 Si02
#       8
#     4   4   4   4   4   4   4   4
#     4  11  25  44  70  98 138 187 232 285 349 412
#     4  12  24  44  71 100 137 179 228 281 348 403
#     4  11  25  46  70 100 133 183 218 288 347 413
#     4  11  25  44  67 103 134 185 233 277 343 417
#     4  12  23  43  68  97 143 177 230 287 338 410
#     4  11  25  44  67 103 137 187 235 285 345 409
#     4  11  26  45  69 100 138 170 236 276 348 421
#     4  11  24  44  68  98 136 176 227 282 340 417
#
# _framework density 25.689423999999999
#
# number of rings (size 3 to 8) (size 9 to 14) (size 15 to 20)
#    0.000    0.750    3.750    2.625    7.000    0.000 
#    0.000    4.375    0.000    0.000    0.000    0.000 
#    0.000    0.000    0.000    0.000    0.000    0.000 
#
# Total GULP energy -178878.288325 kJ/mol
# GULP energy per Si atom -5589.946510 kJ/mol
# Density = 2.563095 g / cm^3
# Si number density = 25.689424 Si / 1000 Ang^3
#
#
#
# Elastic Constant Matrix: (Units=GPa)
#
#
# Indices 1 2 3 4 5 6 
#
# 1 49.2699 7.8520 3.1005 0.0000 8.9114 0.0000
# 2 7.8520 144.1262 15.8866 0.0000 -8.0645 0.0000
# 3 3.1005 15.8866 61.2317 0.0000 19.9561 0.0000
# 4 0.0000 0.0000 0.0000 39.4610 0.0000 2.3675
# 5 8.9114 -8.0645 19.9561 0.0000 35.1721 0.0000
# 6 0.0000 0.0000 0.0000 2.3675 0.0000 29.1386
#
#
#
# Elastic Compliance Matrix: (Units=1/GPa)
#
#
# Indices 1 2 3 4 5 6 
#
# 1 0.021701 -0.001734 0.001561 0.000000 -0.006782 0.000000
# 2 -0.001734 0.007607 -0.003187 0.000000 0.003992 0.000000
# 3 0.001561 -0.003187 0.021404 0.000000 -0.013271 0.000000
# 4 0.000000 0.000000 0.000000 0.025466 0.000000 -0.002069
# 5 -0.006782 0.003992 -0.013271 0.000000 0.038595 0.000000
# 6 0.000000 0.000000 0.000000 -0.002069 0.000000 0.034487
#
#
# Mechanical properties :
#
#
# Convention : Reuss Voigt Hill
#
# Bulk Modulus (GPa) = 22.73052 34.25623 28.49337
# Shear Modulus (GPa) = 29.30079 35.94024 32.62051
#
# Velocity S-wave (km/s) = 3.38091 3.74442 3.56730
# Velocity P-wave (km/s) = 4.91000 5.66197 5.29934
#
# Compressibility (1/GPa) = 0.04399372
#
# Stress axis : x y z
#
# Youngs Moduli (GPa) = 46.08077 131.44967 46.71950
#
# Poissons Ratio (x) = 0.22791 -0.07294
# Poissons Ratio (y) = 0.07990 0.14889
# Poissons Ratio (z) = -0.07194 0.41893
#
# Static dielectric constant tensor:
#      x y z
#    x 2.147570 0.000000 0.027890 
#    y 0.000000 2.028680 0.000000 
#    z 0.027890 0.000000 2.034340 
# 
# From -- ./inp_files/31848.got.cif
#   From: 2010.05.17/outbox.cif.g08.bks.cpg/sg14_16_cif.got.tgz:31848.got - 2010.06.03 17:49:19.
