data_PCOD9252232
_publ_section_title
;
Structure prediction by ZEFSAII (Michael W. Deem and Ramdas Pophale) SiO2 
 PCOD9252232
Probable space group: P 21/C
;
_chemical_formula_sum "Si O2"
_cell_formula_units_Z 32
_cell_length_a 18.442990
_cell_length_b 14.034417
_cell_length_c 10.579871
_cell_angle_alpha 90.000000
_cell_angle_beta 30.342793
_cell_angle_gamma 90.000000
_cell_volume 1383.393206
_symmetry_space_group_name_H-M "P 21/C"
_symmetry_group_IT_number 14
_symmetry_cell_setting 'monoclinic'
loop_
_space_group_symop_operation_xyz
x,y,z
-x,1/2+y,1/2-z
-x,-y,-z
x,1/2-y,1/2+z
loop_
_atom_site_type_symbol
_atom_site_label
_atom_site_fract_x
_atom_site_fract_y
_atom_site_fract_z
Si Si1 0.455163 0.521000 0.421654
Si Si2 0.897851 0.180310 0.379989
Si Si3 0.283981 0.602916 0.065070
Si Si4 0.873877 0.019273 0.591711
Si Si5 0.471073 0.748525 0.386649
Si Si6 0.355408 0.267712 0.122810
Si Si7 0.907236 0.850341 0.362261
Si Si8 0.852607 0.586328 0.660981
O O1 0.500000 0.500000 0.500000
O O2 0.576788 0.463655 0.164066
O O3 0.291905 0.494158 0.629805
O O4 0.459533 0.634667 0.398911
O O5 0.762704 0.153975 0.495672
O O6 0.953578 0.287105 0.315269
O O7 0.879318 0.128785 0.541484
O O8 0.024563 0.124759 0.115233
O O9 0.327305 0.689699 0.089359
O O10 0.165114 0.527035 0.292239
O O11 0.912282 0.954343 0.413761
O O12 0.000000 0.000000 0.500000
O O13 0.539839 0.774384 0.416576
O O14 0.568608 0.772754 0.116900
O O15 0.224713 0.202620 0.369278
O O16 0.290795 0.369810 0.183872
O O17 0.873253 0.862361 0.265745
#
# Coordination Sequence:
#
# PCOD9252232 Si02
#       8
#     4   4   4   4   4   4   4   4
#     4  12  24  50  76 103 158 206 251 309 395 461
#     4  11  27  44  73 107 145 198 252 315 376 462
#     4  12  24  46  73 107 149 196 250 320 389 445
#     4  12  28  47  72 111 149 202 255 315 378 462
#     4  12  26  43  77 112 147 194 259 316 375 456
#     4  11  23  45  72 110 142 199 249 307 376 465
#     4  11  24  45  76 101 153 200 253 298 392 464
#     4  11  23  47  73 102 153 200 243 314 398 453
#
# _framework density 23.131530999999999
#
# number of rings (size 3 to 8) (size 9 to 14) (size 15 to 20)
#    0.000    0.500    5.000    2.625    5.250    2.500 
#    2.250    0.000    0.000    0.000    0.000    0.000 
#    0.000    0.000    0.000    0.000    0.000    0.000 
#
# Total GULP energy -179053.755825 kJ/mol
# GULP energy per Si atom -5595.429870 kJ/mol
# Density = 2.307888 g / cm^3
# Si number density = 23.131531 Si / 1000 Ang^3
#
#
#
# Elastic Constant Matrix: (Units=GPa)
#
#
# Indices 1 2 3 4 5 6 
#
# 1 110.0087 32.7976 31.4458 0.0000 -21.3208 0.0000
# 2 32.7976 128.4922 22.9616 0.0000 -12.1919 0.0000
# 3 31.4458 22.9616 113.2820 0.0000 -6.0301 0.0000
# 4 0.0000 0.0000 0.0000 36.6670 0.0000 -9.9543
# 5 -21.3208 -12.1919 -6.0301 0.0000 36.5898 0.0000
# 6 0.0000 0.0000 0.0000 -9.9543 0.0000 29.3768
#
#
#
# Elastic Compliance Matrix: (Units=1/GPa)
#
#
# Indices 1 2 3 4 5 6 
#
# 1 0.011474 -0.001950 -0.002490 0.000000 0.005626 0.000000
# 2 -0.001950 0.008629 -0.001125 0.000000 0.001554 0.000000
# 3 -0.002490 -0.001125 0.009735 0.000000 -0.000222 0.000000
# 4 0.000000 0.000000 0.000000 0.030035 0.000000 0.010177
# 5 0.005626 0.001554 -0.000222 0.000000 0.031089 0.000000
# 6 0.000000 0.000000 0.000000 0.010177 0.000000 0.037489
#
#
# Mechanical properties :
#
#
# Convention : Reuss Voigt Hill
#
# Bulk Modulus (GPa) = 53.45571 58.46586 55.96078
# Shear Modulus (GPa) = 34.28954 38.16527 36.22741
#
# Velocity S-wave (km/s) = 3.85434 4.06633 3.96175
# Velocity P-wave (km/s) = 6.55496 6.88310 6.72103
#
# Compressibility (1/GPa) = 0.01870708
#
# Stress axis : x y z
#
# Youngs Moduli (GPa) = 87.15626 115.89198 102.72171
#
# Poissons Ratio (x) = 0.22597 0.25581
# Poissons Ratio (y) = 0.16994 0.11557
# Poissons Ratio (z) = 0.21704 0.13038
#
# Static dielectric constant tensor:
#      x y z
#    x 1.854010 0.000000 0.012540 
#    y 0.000000 1.865730 0.000000 
#    z 0.012540 0.000000 2.118570 
# 
# From -- ./inp_files/34214.got.cif
#   From: 2010.05.17/outbox.cif.g08.bks.cpg/sg14_18_cif.got.tgz:34214.got - 2010.06.03 17:49:19.
