data_PCOD9252489
_publ_section_title
;
Structure prediction by ZEFSAII (Michael W. Deem and Ramdas Pophale) SiO2 
 PCOD9252489
Probable space group: P 21/C
;
_chemical_formula_sum "Si O2"
_cell_formula_units_Z 24
_cell_length_a 15.574373
_cell_length_b 11.854367
_cell_length_c 15.139764
_cell_angle_alpha 90.000000
_cell_angle_beta 18.675183
_cell_angle_gamma 90.000000
_cell_volume 895.020573
_symmetry_space_group_name_H-M "P 21/C"
_symmetry_group_IT_number 14
_symmetry_cell_setting 'monoclinic'
loop_
_space_group_symop_operation_xyz
x,y,z
-x,1/2+y,1/2-z
-x,-y,-z
x,1/2-y,1/2+z
loop_
_atom_site_type_symbol
_atom_site_label
_atom_site_fract_x
_atom_site_fract_y
_atom_site_fract_z
Si Si1 0.152089 0.751314 0.877694
Si Si2 0.102465 0.631682 0.099703
Si Si3 0.085064 0.067786 0.027216
Si Si4 0.419610 0.412266 0.973177
Si Si5 0.540605 0.300153 0.673043
Si Si6 0.960355 0.610947 0.918884
O O1 0.034967 0.725412 0.090029
O O2 0.316127 0.318415 0.818291
O O3 0.446446 0.806178 0.605882
O O4 0.113500 0.635367 0.861054
O O5 0.383789 0.676707 0.864844
O O6 0.110104 0.515756 0.039070
O O7 0.933437 0.610999 0.353519
O O8 0.869551 0.966000 0.230751
O O9 0.985346 0.162204 0.056515
O O10 0.824546 0.346353 0.362666
O O11 0.437277 0.373220 0.854898
O O12 0.631601 0.515182 0.775527
#
# Coordination Sequence:
#
# PCOD9252489 Si02
#       6
#     4   4   4   4   4   4
#     4  11  27  45  74 114 150 189 247 307 370 432
#     4  11  25  48  77 106 151 196 246 300 372 442
#     4  12  24  47  78 103 151 191 255 300 361 431
#     4  11  24  47  73 109 140 198 248 303 356 440
#     4  11  24  44  74 103 141 194 245 294 363 431
#     4  12  25  47  71 106 147 192 240 305 363 434
#
# _framework density 26.815026
#
# number of rings (size 3 to 8) (size 9 to 14) (size 15 to 20)
#    0.000    0.667    5.000    1.500    2.333    2.667 
#    0.000   11.667    0.000    0.000    0.000    0.000 
#    0.000    0.000    0.000    0.000    0.000    0.000 
#
# Total GULP energy -134436.854941 kJ/mol
# GULP energy per Si atom -5601.535623 kJ/mol
# Density = 2.675399 g / cm^3
# Si number density = 26.815026 Si / 1000 Ang^3
#
#
#
# Elastic Constant Matrix: (Units=GPa)
#
#
# Indices 1 2 3 4 5 6 
#
# 1 162.4692 72.5558 41.7149 0.0000 11.9918 0.0000
# 2 72.5558 143.4592 51.6343 0.0000 -5.4272 0.0000
# 3 41.7149 51.6343 106.6227 0.0000 -12.2062 0.0000
# 4 0.0000 0.0000 0.0000 32.0863 0.0000 8.7649
# 5 11.9918 -5.4272 -12.2062 0.0000 44.9297 0.0000
# 6 0.0000 0.0000 0.0000 8.7649 0.0000 65.2812
#
#
#
# Elastic Compliance Matrix: (Units=1/GPa)
#
#
# Indices 1 2 3 4 5 6 
#
# 1 0.008568 -0.003774 -0.001898 0.000000 -0.003258 0.000000
# 2 -0.003774 0.010104 -0.003263 0.000000 0.001341 0.000000
# 3 -0.001898 -0.003263 0.012091 0.000000 0.003397 0.000000
# 4 0.000000 0.000000 0.000000 0.032353 0.000000 -0.004344
# 5 -0.003258 0.001341 0.003397 0.000000 0.024211 0.000000
# 6 0.000000 0.000000 0.000000 -0.004344 0.000000 0.015902
#
#
# Mechanical properties :
#
#
# Convention : Reuss Voigt Hill
#
# Bulk Modulus (GPa) = 77.55733 82.70678 80.13206
# Shear Modulus (GPa) = 39.87378 44.90251 42.38815
#
# Velocity S-wave (km/s) = 3.86034 4.09654 3.98019
# Velocity P-wave (km/s) = 6.98967 7.29972 7.14638
#
# Compressibility (1/GPa) = 0.01289369
#
# Stress axis : x y z
#
# Youngs Moduli (GPa) = 116.71419 98.96640 82.70917
#
# Poissons Ratio (x) = 0.37346 0.15696
# Poissons Ratio (y) = 0.44043 0.26991
# Poissons Ratio (z) = 0.22149 0.32297
#
# Static dielectric constant tensor:
#      x y z
#    x 2.122470 0.000000 0.007350 
#    y 0.000000 2.204510 0.000000 
#    z 0.007350 0.000000 2.037230 
# 
# From -- ./inp_files/69727.got.cif
#   From: 2010.05.17/outbox.cif.g08.bks.cpg/sg14_35_cif.got.tgz:69727.got - 2010.06.03 17:49:19.
