data_PCOD9252047
_publ_section_title
;
Structure prediction by ZEFSAII (Michael W. Deem and Ramdas Pophale) SiO2 
 PCOD9252047
Probable space group: P 21/C
;
_chemical_formula_sum "Si O2"
_cell_formula_units_Z 20
_cell_length_a 9.065243
_cell_length_b 8.186427
_cell_length_c 11.758677
_cell_angle_alpha 90.000000
_cell_angle_beta 78.074053
_cell_angle_gamma 90.000000
_cell_volume 853.798977
_symmetry_space_group_name_H-M "P 21/C"
_symmetry_group_IT_number 14
_symmetry_cell_setting 'monoclinic'
loop_
_space_group_symop_operation_xyz
x,y,z
-x,1/2+y,1/2-z
-x,-y,-z
x,1/2-y,1/2+z
loop_
_atom_site_type_symbol
_atom_site_label
_atom_site_fract_x
_atom_site_fract_y
_atom_site_fract_z
Si Si1 0.328186 0.003862 0.486158
Si Si2 0.305091 0.222363 0.804029
Si Si3 0.548419 0.494907 0.362581
Si Si4 0.199277 0.827481 0.298553
Si Si5 0.908792 0.504266 0.771599
O O1 0.282870 0.861638 0.403973
O O2 0.500000 0.000000 0.500000
O O3 0.307235 0.169799 0.417064
O O4 0.212154 0.999298 0.607659
O O5 0.381289 0.337302 0.696195
O O6 0.407205 0.062420 0.809203
O O7 0.141583 0.158623 0.796110
O O8 0.500000 0.500000 0.500000
O O9 0.674675 0.356861 0.318064
O O10 0.115492 0.656895 0.298966
O O11 0.072536 0.964833 0.296870
#
# Coordination Sequence:
#
# PCOD9252047 Si02
#       5
#     4   4   4   4   4
#     4  11  24  45  71  99 133 175 220 276 335 393
#     4  11  24  41  66  99 129 172 224 271 327 397
#     4  11  23  42  65  96 131 170 219 270 324 388
#     4  11  25  44  68  99 134 179 224 272 333 397
#     4  12  25  46  68  97 140 176 220 279 332 395
#
# _framework density 23.424719
#
# number of rings (size 3 to 8) (size 9 to 14) (size 15 to 20)
#    0.000    0.800    0.000    9.000    0.000    6.400 
#    0.000    3.000    0.000    0.000    0.000    0.000 
#    0.000    0.000    0.000    0.000    0.000    0.000 
#
# Total GULP energy -112084.654867 kJ/mol
# GULP energy per Si atom -5604.232743 kJ/mol
# Density = 2.337140 g / cm^3
# Si number density = 23.424719 Si / 1000 Ang^3
#
#
#
# Elastic Constant Matrix: (Units=GPa)
#
#
# Indices 1 2 3 4 5 6 
#
# 1 126.7481 8.8471 23.3511 0.0000 28.7366 0.0000
# 2 8.8471 97.0287 16.8203 0.0000 28.9351 0.0000
# 3 23.3511 16.8203 89.5023 0.0000 20.0514 0.0000
# 4 0.0000 0.0000 0.0000 30.4457 0.0000 10.0465
# 5 28.7366 28.9351 20.0514 0.0000 33.3833 0.0000
# 6 0.0000 0.0000 0.0000 10.0465 0.0000 49.4806
#
#
#
# Elastic Compliance Matrix: (Units=1/GPa)
#
#
# Indices 1 2 3 4 5 6 
#
# 1 0.010208 0.002272 -0.000786 0.000000 -0.010284 0.000000
# 2 0.002272 0.014405 -0.000075 0.000000 -0.014397 0.000000
# 3 -0.000786 -0.000075 0.012971 0.000000 -0.007050 0.000000
# 4 0.000000 0.000000 0.000000 0.035204 0.000000 -0.007148
# 5 -0.010284 -0.014397 -0.007050 0.000000 0.055521 0.000000
# 6 0.000000 0.000000 0.000000 -0.007148 0.000000 0.021661
#
#
# Mechanical properties :
#
#
# Convention : Reuss Voigt Hill
#
# Bulk Modulus (GPa) = 24.74800 45.70179 35.22489
# Shear Modulus (GPa) = 31.13007 40.27928 35.70467
#
# Velocity S-wave (km/s) = 3.64942 4.15121 3.90838
# Velocity P-wave (km/s) = 5.32405 6.52144 5.95293
#
# Compressibility (1/GPa) = 0.04040731
#
# Stress axis : x y z
#
# Youngs Moduli (GPa) = 97.96690 69.41857 77.09266
#
# Poissons Ratio (x) = -0.15775 0.06061
# Poissons Ratio (y) = -0.22262 0.00576
# Poissons Ratio (z) = 0.07702 0.00518
#
# Static dielectric constant tensor:
#      x y z
#    x 1.861140 0.000000 0.028420 
#    y 0.000000 1.951960 0.000000 
#    z 0.028420 0.000000 1.848350 
# 
# From -- ./inp_files/22979.got.cif
#   From: 2010.05.17/outbox.cif.g08.bks.cpg/sg14_12_cif.got.tgz:22979.got - 2010.06.03 17:49:19.
