data_PCOD9252287
_publ_section_title
;
Structure prediction by ZEFSAII (Michael W. Deem and Ramdas Pophale) SiO2 
 PCOD9252287
Probable space group: P 21/C
;
_chemical_formula_sum "Si O2"
_cell_formula_units_Z 24
_cell_length_a 13.984082
_cell_length_b 14.038775
_cell_length_c 11.618809
_cell_angle_alpha 90.000000
_cell_angle_beta 29.851375
_cell_angle_gamma 90.000000
_cell_volume 1135.370680
_symmetry_space_group_name_H-M "P 21/C"
_symmetry_group_IT_number 14
_symmetry_cell_setting 'monoclinic'
loop_
_space_group_symop_operation_xyz
x,y,z
-x,1/2+y,1/2-z
-x,-y,-z
x,1/2-y,1/2+z
loop_
_atom_site_type_symbol
_atom_site_label
_atom_site_fract_x
_atom_site_fract_y
_atom_site_fract_z
Si Si1 0.163531 0.918901 0.323184
Si Si2 0.630669 0.479171 0.615993
Si Si3 0.476762 0.340991 0.968437
Si Si4 0.116511 0.061407 0.970228
Si Si5 0.188430 0.782235 0.705363
Si Si6 0.419941 0.838158 0.256101
O O1 0.097848 0.815302 0.346303
O O2 0.271253 0.894183 0.329356
O O3 0.000000 0.000000 0.500000
O O4 0.322078 0.947804 0.062311
O O5 0.513104 0.407820 0.819782
O O6 0.826253 0.496616 0.482002
O O7 0.530290 0.581333 0.710476
O O8 0.667806 0.327544 0.848465
O O9 0.444724 0.232438 0.958849
O O10 0.306484 0.391645 0.215656
O O11 0.978032 0.145488 0.151520
O O12 0.000000 0.000000 0.000000
O O13 0.310707 0.771192 0.461471
#
# Coordination Sequence:
#
# PCOD9252287 Si02
#       6
#     4   4   4   4   4   4
#     4  11  26  45  68 104 142 182 232 286 351 416
#     4  12  23  46  69 100 139 179 231 286 349 416
#     4  11  24  45  70 102 135 182 231 285 350 410
#     4  12  24  41  74 103 134 178 236 286 349 410
#     4  11  23  47  70 101 141 178 230 293 339 424
#     4  11  24  46  71  98 142 186 227 283 353 419
#
# _framework density 21.138470999999999
#
# number of rings (size 3 to 8) (size 9 to 14) (size 15 to 20)
#    0.000    0.667    5.000    3.000    2.333    0.000 
#    6.000    0.000    0.000    0.000    0.000    0.000 
#    0.000    0.000    0.000    0.000    0.000    0.000 
#
# Total GULP energy -134067.960344 kJ/mol
# GULP energy per Si atom -5586.165014 kJ/mol
# Density = 2.109036 g / cm^3
# Si number density = 21.138471 Si / 1000 Ang^3
#
#
#
# Elastic Constant Matrix: (Units=GPa)
#
#
# Indices 1 2 3 4 5 6 
#
# 1 92.7851 19.5615 1.8153 0.0000 13.0487 0.0000
# 2 19.5615 64.5237 3.4380 0.0000 -4.8995 0.0000
# 3 1.8153 3.4380 58.9313 0.0000 14.4742 0.0000
# 4 0.0000 0.0000 0.0000 46.7050 0.0000 3.3526
# 5 13.0487 -4.8995 14.4742 0.0000 25.9484 0.0000
# 6 0.0000 0.0000 0.0000 3.3526 0.0000 31.5830
#
#
#
# Elastic Compliance Matrix: (Units=1/GPa)
#
#
# Indices 1 2 3 4 5 6 
#
# 1 0.012912 -0.004661 0.001953 0.000000 -0.008463 0.000000
# 2 -0.004661 0.017594 -0.002636 0.000000 0.007136 0.000000
# 3 0.001953 -0.002636 0.020192 0.000000 -0.012743 0.000000
# 4 0.000000 0.000000 0.000000 0.021575 0.000000 -0.002290
# 5 -0.008463 0.007136 -0.012743 0.000000 0.051249 0.000000
# 6 0.000000 0.000000 0.000000 -0.002290 0.000000 0.031906
#
#
# Mechanical properties :
#
#
# Convention : Reuss Voigt Hill
#
# Bulk Modulus (GPa) = 24.99369 29.54108 27.26739
# Shear Modulus (GPa) = 27.86242 33.60896 30.73569
#
# Velocity S-wave (km/s) = 3.63449 3.99173 3.81729
# Velocity P-wave (km/s) = 5.42791 5.93722 5.68827
#
# Compressibility (1/GPa) = 0.04001009
#
# Stress axis : x y z
#
# Youngs Moduli (GPa) = 77.44606 56.83883 49.52368
#
# Poissons Ratio (x) = 0.26494 -0.09670
# Poissons Ratio (y) = 0.36099 0.13052
# Poissons Ratio (z) = -0.15123 0.14980
#
# Static dielectric constant tensor:
#      x y z
#    x 1.747770 0.000000 0.010400 
#    y 0.000000 1.798600 0.000000 
#    z 0.010400 0.000000 1.753300 
# 
# From -- ./inp_files/32684.got.cif
#   From: 2010.05.17/outbox.cif.g08.bks.cpg/sg14_17_cif.got.tgz:32684.got - 2010.06.03 17:49:19.
