data_PCOD9252431
_publ_section_title
;
Structure prediction by ZEFSAII (Michael W. Deem and Ramdas Pophale) SiO2 
 PCOD9252431
Probable space group: P 21/C
;
_chemical_formula_sum "Si O2"
_cell_formula_units_Z 28
_cell_length_a 16.948284
_cell_length_b 5.089848
_cell_length_c 24.696467
_cell_angle_alpha 90.000000
_cell_angle_beta 32.239379
_cell_angle_gamma 90.000000
_cell_volume 1136.489401
_symmetry_space_group_name_H-M "P 21/C"
_symmetry_group_IT_number 14
_symmetry_cell_setting 'monoclinic'
loop_
_space_group_symop_operation_xyz
x,y,z
-x,1/2+y,1/2-z
-x,-y,-z
x,1/2-y,1/2+z
loop_
_atom_site_type_symbol
_atom_site_label
_atom_site_fract_x
_atom_site_fract_y
_atom_site_fract_z
Si Si1 0.653211 0.641778 0.896561
Si Si2 0.912164 0.664189 0.320902
Si Si3 0.131301 0.324228 0.444439
Si Si4 0.369497 0.005161 0.259875
Si Si5 0.063917 0.052179 0.586926
Si Si6 0.733079 0.127933 0.788916
Si Si7 0.321928 0.778546 0.901965
O O1 0.755649 0.751035 0.885747
O O2 0.738840 0.402894 0.816869
O O3 0.628722 0.902097 0.874426
O O4 0.500000 0.500000 0.000000
O O5 0.906160 0.711785 0.388659
O O6 0.968874 0.375666 0.272115
O O7 0.237150 0.214514 0.337248
O O8 0.062040 0.106373 0.523709
O O9 0.237127 0.481896 0.423529
O O10 0.000000 0.500000 0.500000
O O11 0.528396 0.128928 0.157343
O O12 0.323153 0.811222 0.239066
O O13 0.368382 0.894868 0.322039
O O14 0.894092 0.987078 0.697997
O O15 0.205101 0.863092 0.508785
#
# Coordination Sequence:
#
# PCOD9252431 Si02
#       7
#     4   4   4   4   4   4   4
#     4  12  28  50  72 110 146 191 242 306 370 433
#     4  12  25  48  76 104 148 189 243 311 360 432
#     4  11  24  43  73 102 150 184 243 296 356 448
#     4  11  25  43  69 104 144 195 231 304 363 433
#     4  11  26  43  72 109 135 196 244 295 370 427
#     4  12  27  47  77 105 147 188 247 299 368 436
#     4  11  24  44  67 103 147 182 244 293 363 440
#
# _framework density 24.637276
#
# number of rings (size 3 to 8) (size 9 to 14) (size 15 to 20)
#    0.000    0.571    4.286    2.143   10.000    3.429 
#    0.000    0.000    0.000    0.000    0.000    0.000 
#    0.000    0.000    0.000    0.000    0.000    0.000 
#
# Total GULP energy -156677.626976 kJ/mol
# GULP energy per Si atom -5595.629535 kJ/mol
# Density = 2.458120 g / cm^3
# Si number density = 24.637276 Si / 1000 Ang^3
#
#
#
# Elastic Constant Matrix: (Units=GPa)
#
#
# Indices 1 2 3 4 5 6 
#
# 1 95.2459 -8.1803 20.9437 0.0000 -16.2076 0.0000
# 2 -8.1803 69.1011 9.5699 0.0000 2.7571 0.0000
# 3 20.9437 9.5699 85.8559 0.0000 -21.1275 0.0000
# 4 0.0000 0.0000 0.0000 33.9927 0.0000 0.5941
# 5 -16.2076 2.7571 -21.1275 0.0000 36.9848 0.0000
# 6 0.0000 0.0000 0.0000 0.5941 0.0000 32.6578
#
#
#
# Elastic Compliance Matrix: (Units=1/GPa)
#
#
# Indices 1 2 3 4 5 6 
#
# 1 0.011743 0.001526 -0.002090 0.000000 0.003838 0.000000
# 2 0.001526 0.015077 -0.002519 0.000000 -0.001894 0.000000
# 3 -0.002090 -0.002519 0.014264 0.000000 0.007420 0.000000
# 4 0.000000 0.000000 0.000000 0.029427 0.000000 -0.000535
# 5 0.003838 -0.001894 0.007420 0.000000 0.033100 0.000000
# 6 0.000000 0.000000 0.000000 -0.000535 0.000000 0.030630
#
#
# Mechanical properties :
#
#
# Convention : Reuss Voigt Hill
#
# Bulk Modulus (GPa) = 28.63824 32.76327 30.70076
# Shear Modulus (GPa) = 32.88472 35.91836 34.40154
#
# Velocity S-wave (km/s) = 3.65739 3.82237 3.74079
# Velocity P-wave (km/s) = 5.42997 5.72781 5.58088
#
# Compressibility (1/GPa) = 0.03491834
#
# Stress axis : x y z
#
# Youngs Moduli (GPa) = 85.15708 66.32756 70.10638
#
# Poissons Ratio (x) = -0.10125 0.14654
# Poissons Ratio (y) = -0.12999 0.17659
# Poissons Ratio (z) = 0.17800 0.16708
#
# Static dielectric constant tensor:
#      x y z
#    x 1.927630 0.000000 0.034000 
#    y 0.000000 1.971090 0.000000 
#    z 0.034000 0.000000 1.969870 
# 
# From -- ./inp_files/77701.got.cif
#   From: 2010.05.17/outbox.cif.g08.bks.cpg/sg14_39_cif.got.tgz:77701.got - 2010.06.03 17:49:19.
