data_PCOD9252993
_publ_section_title
;
Structure prediction by ZEFSAII (Michael W. Deem and Ramdas Pophale) SiO2 
 PCOD9252993
Probable space group: P 21/C
;
_chemical_formula_sum "Si O2"
_cell_formula_units_Z 20
_cell_length_a 7.311363
_cell_length_b 22.349322
_cell_length_c 6.927869
_cell_angle_alpha 90.000000
_cell_angle_beta 137.521943
_cell_angle_gamma 90.000000
_cell_volume 764.476484
_symmetry_space_group_name_H-M "P 21/C"
_symmetry_group_IT_number 14
_symmetry_cell_setting 'monoclinic'
loop_
_space_group_symop_operation_xyz
x,y,z
-x,1/2+y,1/2-z
-x,-y,-z
x,1/2-y,1/2+z
loop_
_atom_site_type_symbol
_atom_site_label
_atom_site_fract_x
_atom_site_fract_y
_atom_site_fract_z
Si Si1 0.612991 0.804718 0.532299
Si Si2 0.288632 0.892276 0.092462
Si Si3 0.800817 0.511032 0.665174
Si Si4 0.137302 0.797382 0.677126
Si Si5 0.123636 0.353852 0.405553
O O1 0.574024 0.870821 0.401705
O O2 0.366759 0.755098 0.332775
O O3 0.653578 0.820819 0.788888
O O4 0.884284 0.783582 0.627400
O O5 0.275965 0.854796 0.885201
O O6 0.105509 0.862286 0.112078
O O7 0.181413 0.958798 0.980643
O O8 0.500000 0.500000 0.500000
O O9 0.810418 0.578660 0.602939
O O10 0.000000 0.500000 0.000000
O O11 0.995949 0.679027 0.873713
#
# Coordination Sequence:
#
# PCOD9252993 Si02
#       5
#     4   4   4   4   4
#     4  11  29  52  82 126 169 223 285 350 422 518
#     4  11  27  51  82 126 163 218 284 345 427 510
#     4  12  27  53  88 122 169 222 284 359 433 516
#     4  11  27  56  78 124 171 221 282 345 427 504
#     4  11  27  53  88 119 169 224 281 353 429 506
#
# _framework density 26.161693
#
# number of rings (size 3 to 8) (size 9 to 14) (size 15 to 20)
#    0.000    0.800    2.000    1.800    8.400    8.800 
#    7.200    0.000    0.000    0.000    0.000    0.000 
#    0.000    0.000    0.000    0.000    0.000    0.000 
#
# Total GULP energy -111808.617724 kJ/mol
# GULP energy per Si atom -5590.430886 kJ/mol
# Density = 2.610215 g / cm^3
# Si number density = 26.161693 Si / 1000 Ang^3
#
#
#
# Elastic Constant Matrix: (Units=GPa)
#
#
# Indices 1 2 3 4 5 6 
#
# 1 126.3419 77.8880 66.2312 0.0000 -16.1095 0.0000
# 2 77.8880 209.0454 99.9075 0.0000 -25.3761 0.0000
# 3 66.2312 99.9075 198.8088 0.0000 -38.5199 0.0000
# 4 0.0000 0.0000 0.0000 37.6821 0.0000 3.6750
# 5 -16.1095 -25.3761 -38.5199 0.0000 55.1565 0.0000
# 6 0.0000 0.0000 0.0000 3.6750 0.0000 38.2519
#
#
#
# Elastic Compliance Matrix: (Units=1/GPa)
#
#
# Indices 1 2 3 4 5 6 
#
# 1 0.010905 -0.003049 -0.002030 0.000000 0.000365 0.000000
# 2 -0.003049 0.007178 -0.002457 0.000000 0.000696 0.000000
# 3 -0.002030 -0.002457 0.007641 0.000000 0.003613 0.000000
# 4 0.000000 0.000000 0.000000 0.026789 0.000000 -0.002574
# 5 0.000365 0.000696 0.003613 0.000000 0.021080 0.000000
# 6 0.000000 0.000000 0.000000 -0.002574 0.000000 0.026390
#
#
# Mechanical properties :
#
#
# Convention : Reuss Voigt Hill
#
# Bulk Modulus (GPa) = 93.86930 113.58329 103.72629
# Shear Modulus (GPa) = 42.15653 45.56273 43.85963
#
# Velocity S-wave (km/s) = 4.01856 4.17775 4.09893
# Velocity P-wave (km/s) = 7.58222 8.17200 7.88263
#
# Compressibility (1/GPa) = 0.01065311
#
# Stress axis : x y z
#
# Youngs Moduli (GPa) = 91.69875 139.31121 130.87378
#
# Poissons Ratio (x) = 0.42470 0.26572
# Poissons Ratio (y) = 0.27955 0.32152
# Poissons Ratio (z) = 0.18618 0.34225
#
# Static dielectric constant tensor:
#      x y z
#    x 2.121580 0.000000 0.119720 
#    y 0.000000 1.448640 0.000000 
#    z 0.119720 0.000000 2.186390 
# 
# From -- ./inp_files/10057.got.cif
#   From: 2010.05.17/outbox.cif.g08.bks.cpg/sg14_6_cif.got.tgz:10057.got - 2010.06.03 17:49:19.
