data_PCOD9252055
_publ_section_title
;
Structure prediction by ZEFSAII (Michael W. Deem and Ramdas Pophale) SiO2 
 PCOD9252055
Probable space group: P 21/C
;
_chemical_formula_sum "Si O2"
_cell_formula_units_Z 24
_cell_length_a 20.810225
_cell_length_b 4.944317
_cell_length_c 19.482680
_cell_angle_alpha 90.000000
_cell_angle_beta 150.472778
_cell_angle_gamma 90.000000
_cell_volume 987.950318
_symmetry_space_group_name_H-M "P 21/C"
_symmetry_group_IT_number 14
_symmetry_cell_setting 'monoclinic'
loop_
_space_group_symop_operation_xyz
x,y,z
-x,1/2+y,1/2-z
-x,-y,-z
x,1/2-y,1/2+z
loop_
_atom_site_type_symbol
_atom_site_label
_atom_site_fract_x
_atom_site_fract_y
_atom_site_fract_z
Si Si1 0.786227 0.685712 0.754861
Si Si2 0.210561 0.533748 0.935856
Si Si3 0.924232 0.178514 0.832830
Si Si4 0.390896 0.318575 0.282417
Si Si5 0.564730 0.668821 0.939947
Si Si6 0.820823 0.943207 0.005558
O O1 0.896527 0.477140 0.833508
O O2 0.712800 0.603836 0.755502
O O3 0.673934 0.710652 0.592490
O O4 0.853758 0.976618 0.819690
O O5 0.357643 0.454537 0.052279
O O6 0.142037 0.259141 0.897617
O O7 0.196319 0.758432 0.981037
O O8 0.148642 0.642315 0.808095
O O9 0.070033 0.091418 0.950860
O O10 0.469804 0.584015 0.334870
O O11 0.312380 0.175251 0.148642
O O12 0.487343 0.084567 0.400185
#
# Coordination Sequence:
#
# PCOD9252055 Si02
#       6
#     4   4   4   4   4   4
#     4  11  23  42  68  94 124 166 216 264 310 369
#     4  11  23  43  65  91 125 168 216 259 307 373
#     4  11  23  42  68  94 123 166 216 264 310 369
#     4  12  25  41  65  96 132 168 205 260 322 378
#     4  11  23  43  66  92 126 169 216 259 308 373
#     4  12  25  41  65  95 131 167 205 260 322 378
#
# _framework density 24.292717
#
# number of rings (size 3 to 8) (size 9 to 14) (size 15 to 20)
#    0.000    0.667    0.000   10.000    0.000    4.000 
#    0.000    1.667    0.000    0.000    0.000    0.000 
#    0.000    0.000    0.000    0.000    0.000    0.000 
#
# Total GULP energy -134529.719811 kJ/mol
# GULP energy per Si atom -5605.404992 kJ/mol
# Density = 2.423743 g / cm^3
# Si number density = 24.292717 Si / 1000 Ang^3
#
#
#
# Elastic Constant Matrix: (Units=GPa)
#
#
# Indices 1 2 3 4 5 6 
#
# 1 82.3364 9.1337 39.2745 0.0000 15.3476 0.0000
# 2 9.1337 114.5724 28.1557 0.0000 15.3920 0.0000
# 3 39.2745 28.1557 65.4179 0.0000 13.7253 0.0000
# 4 0.0000 0.0000 0.0000 9.2259 0.0000 15.6825
# 5 15.3476 15.3920 13.7253 0.0000 30.5360 0.0000
# 6 0.0000 0.0000 0.0000 15.6825 0.0000 44.0953
#
#
#
# Elastic Compliance Matrix: (Units=1/GPa)
#
#
# Indices 1 2 3 4 5 6 
#
# 1 0.017895 0.001841 -0.010439 0.000000 -0.005230 0.000000
# 2 0.001841 0.010270 -0.004687 0.000000 -0.003995 0.000000
# 3 -0.010439 -0.004687 0.024262 0.000000 -0.003296 0.000000
# 4 0.000000 0.000000 0.000000 0.274092 0.000000 -0.097481
# 5 -0.005230 -0.003995 -0.003296 0.000000 0.038872 0.000000
# 6 0.000000 0.000000 0.000000 -0.097481 0.000000 0.057347
#
#
# Mechanical properties :
#
#
# Convention : Reuss Voigt Hill
#
# Bulk Modulus (GPa) = 38.67279 46.16162 42.41720
# Shear Modulus (GPa) = 10.91874 29.15560 20.03717
#
# Velocity S-wave (km/s) = 2.12236 3.46812 2.87509
# Velocity P-wave (km/s) = 4.68614 5.92289 5.34044
#
# Compressibility (1/GPa) = 0.02585798
#
# Stress axis : x y z
#
# Youngs Moduli (GPa) = 55.88053 97.37140 41.21597
#
# Poissons Ratio (x) = -0.17929 0.43025
# Poissons Ratio (y) = -0.10290 0.19320
# Poissons Ratio (z) = 0.58333 0.45642
#
# Static dielectric constant tensor:
#      x y z
#    x 1.908810 0.000000 -0.014570 
#    y 0.000000 1.863090 0.000000 
#    z -0.014570 0.000000 2.006650 
# 
# From -- ./inp_files/69552.got.cif
#   From: 2010.05.17/outbox.cif.g08.bks.cpg/sg14_35_cif.got.tgz:69552.got - 2010.06.03 17:49:19.
