data_PCOD9252750
_publ_section_title
;
Structure prediction by ZEFSAII (Michael W. Deem and Ramdas Pophale) SiO2 
 PCOD9252750
Probable space group: P 21/C
;
_chemical_formula_sum "Si O2"
_cell_formula_units_Z 26
_cell_length_a 16.639179
_cell_length_b 7.337322
_cell_length_c 23.344058
_cell_angle_alpha 90.000000
_cell_angle_beta 159.733618
_cell_angle_gamma 90.000000
_cell_volume 987.200274
_symmetry_space_group_name_H-M "P 21/C"
_symmetry_group_IT_number 14
_symmetry_cell_setting 'monoclinic'
loop_
_space_group_symop_operation_xyz
x,y,z
-x,1/2+y,1/2-z
-x,-y,-z
x,1/2-y,1/2+z
loop_
_atom_site_type_symbol
_atom_site_label
_atom_site_fract_x
_atom_site_fract_y
_atom_site_fract_z
Si Si1 0.500000 0.500000 0.000000
Si Si2 0.243985 0.449402 0.635277
Si Si3 0.195199 0.094121 0.668781
Si Si4 0.955384 0.880684 0.115807
Si Si5 0.967430 0.959123 0.326416
Si Si6 0.400915 0.523248 0.043144
Si Si7 0.372968 0.123149 0.994835
O O1 0.784690 0.454931 0.207035
O O2 0.484874 0.646196 0.047496
O O3 0.303953 0.250636 0.701875
O O4 0.444900 0.557786 0.802130
O O5 0.000000 0.500000 0.500000
O O6 0.207201 0.456463 0.543751
O O7 0.389755 0.957207 0.822585
O O8 0.000000 0.000000 0.500000
O O9 0.056561 0.158392 0.632711
O O10 0.975094 0.664667 0.116837
O O11 0.819151 0.899605 0.084124
O O12 0.172750 0.903447 0.420503
O O13 0.736733 0.960358 0.134852
O O14 0.389791 0.342960 0.992688
#
# Coordination Sequence:
#
# PCOD9252750 Si02
#       7
#     2   4   4   4   4   4   4
#     4  12  22  46  70 102 138 186 230 286 360 416
#     4  12  26  46  69 103 143 189 237 299 357 424
#     4  12  26  47  72 104 141 195 237 290 363 419
#     4  11  25  45  73 105 144 181 240 295 352 426
#     4  11  25  48  71 107 141 185 243 292 352 425
#     4  11  26  44  71 106 142 184 236 293 355 426
#     4  11  26  45  72 104 143 188 233 298 351 424
#
# _framework density 26.337107
#
# number of rings (size 3 to 8) (size 9 to 14) (size 15 to 20)
#    0.000    0.615    4.615    2.308    6.462    0.000 
#    2.769    0.000    0.000    0.000    0.000    0.000 
#    0.000    0.000    0.000    0.000    0.000    0.000 
#
# Total GULP energy -145246.346686 kJ/mol
# GULP energy per Si atom -5586.397949 kJ/mol
# Density = 2.627716 g / cm^3
# Si number density = 26.337107 Si / 1000 Ang^3
#
#
#
# Elastic Constant Matrix: (Units=GPa)
#
#
# Indices 1 2 3 4 5 6 
#
# 1 179.7901 -4.7067 73.2845 0.0000 -2.4180 0.0000
# 2 -4.7067 63.0027 -5.6305 0.0000 -7.3828 0.0000
# 3 73.2845 -5.6305 157.4726 0.0000 -27.3057 0.0000
# 4 0.0000 0.0000 0.0000 31.2647 0.0000 -5.4595
# 5 -2.4180 -7.3828 -27.3057 0.0000 65.9714 0.0000
# 6 0.0000 0.0000 0.0000 -5.4595 0.0000 26.5653
#
#
#
# Elastic Compliance Matrix: (Units=1/GPa)
#
#
# Indices 1 2 3 4 5 6 
#
# 1 0.006947 0.000077 -0.003431 0.000000 -0.001157 0.000000
# 2 0.000077 0.016219 0.000926 0.000000 0.002201 0.000000
# 3 -0.003431 0.000926 0.008593 0.000000 0.003534 0.000000
# 4 0.000000 0.000000 0.000000 0.033176 0.000000 0.006818
# 5 -0.001157 0.002201 0.003534 0.000000 0.016825 0.000000
# 6 0.000000 0.000000 0.000000 0.006818 0.000000 0.039044
#
#
# Mechanical properties :
#
#
# Convention : Reuss Voigt Hill
#
# Bulk Modulus (GPa) = 37.17159 58.46222 47.81691
# Shear Modulus (GPa) = 37.13966 47.24817 42.19391
#
# Velocity S-wave (km/s) = 3.75929 4.24013 4.00693
# Velocity P-wave (km/s) = 5.74347 6.79834 6.29305
#
# Compressibility (1/GPa) = 0.02690226
#
# Stress axis : x y z
#
# Youngs Moduli (GPa) = 143.94863 61.65707 116.37498
#
# Poissons Ratio (x) = -0.00474 0.39926
# Poissons Ratio (y) = -0.01106 -0.10774
# Poissons Ratio (z) = 0.49386 -0.05708
#
# Static dielectric constant tensor:
#      x y z
#    x 1.375810 0.000000 0.593790 
#    y 0.000000 2.247100 0.000000 
#    z 0.593790 0.000000 1.997520 
# 
# From -- ./inp_files/74291.got.cif
#   From: 2010.05.17/outbox.cif.g08.bks.cpg/sg14_38_cif.got.tgz:74291.got - 2010.06.03 17:49:19.
