data_PCOD9252689
_publ_section_title
;
Structure prediction by ZEFSAII (Michael W. Deem and Ramdas Pophale) SiO2 
 PCOD9252689
Probable space group: P 21/C
;
_chemical_formula_sum "Si O2"
_cell_formula_units_Z 20
_cell_length_a 18.463166
_cell_length_b 8.705506
_cell_length_c 19.046603
_cell_angle_alpha 90.000000
_cell_angle_beta 14.818096
_cell_angle_gamma 90.000000
_cell_volume 782.952178
_symmetry_space_group_name_H-M "P 21/C"
_symmetry_group_IT_number 14
_symmetry_cell_setting 'monoclinic'
loop_
_space_group_symop_operation_xyz
x,y,z
-x,1/2+y,1/2-z
-x,-y,-z
x,1/2-y,1/2+z
loop_
_atom_site_type_symbol
_atom_site_label
_atom_site_fract_x
_atom_site_fract_y
_atom_site_fract_z
Si Si1 0.868353 0.913468 0.914744
Si Si2 0.641951 0.768145 0.414238
Si Si3 0.850100 0.430669 0.072313
Si Si4 0.265084 0.446090 0.299719
Si Si5 0.315522 0.421371 0.912710
O O1 0.848751 0.912102 0.017026
O O2 0.646918 0.043326 0.097563
O O3 0.754757 0.748840 0.996109
O O4 0.171268 0.955411 0.599835
O O5 0.615513 0.800521 0.355334
O O6 0.962708 0.716845 0.127390
O O7 0.505674 0.922363 0.574151
O O8 0.451706 0.630389 0.620079
O O9 0.821052 0.545563 0.035071
O O10 0.000000 0.500000 0.000000
O O11 0.000000 0.500000 0.500000
#
# Coordination Sequence:
#
# PCOD9252689 Si02
#       5
#     4   4   4   4   4
#     4  12  30  50  76 109 157 197 259 308 378 464
#     4  11  25  42  77 108 142 191 250 303 377 434
#     4  12  26  47  75 106 152 188 259 310 375 440
#     4  11  26  46  78 111 151 197 253 309 382 444
#     4  12  30  49  76 110 151 206 249 312 387 445
#
# _framework density 25.544343999999999
#
# number of rings (size 3 to 8) (size 9 to 14) (size 15 to 20)
#    0.000    0.400    2.000    4.200   14.000    1.600 
#    0.000    0.000    0.000    0.000    0.000    0.000 
#    0.000    0.000    0.000    0.000    0.000    0.000 
#
# Total GULP energy -112229.801540 kJ/mol
# GULP energy per Si atom -5611.490077 kJ/mol
# Density = 2.548620 g / cm^3
# Si number density = 25.544344 Si / 1000 Ang^3
#
#
#
# Elastic Constant Matrix: (Units=GPa)
#
#
# Indices 1 2 3 4 5 6 
#
# 1 107.0122 4.4526 7.8144 0.0000 15.8260 0.0000
# 2 4.4526 82.0806 1.8722 0.0000 2.4527 0.0000
# 3 7.8144 1.8722 98.4538 0.0000 8.1709 0.0000
# 4 0.0000 0.0000 0.0000 41.2003 0.0000 2.6083
# 5 15.8260 2.4527 8.1709 0.0000 43.6488 0.0000
# 6 0.0000 0.0000 0.0000 2.6083 0.0000 33.2962
#
#
#
# Elastic Compliance Matrix: (Units=1/GPa)
#
#
# Indices 1 2 3 4 5 6 
#
# 1 0.009913 -0.000423 -0.000490 0.000000 -0.003479 0.000000
# 2 -0.000423 0.012225 -0.000157 0.000000 -0.000504 0.000000
# 3 -0.000490 -0.000157 0.010344 0.000000 -0.001750 0.000000
# 4 0.000000 0.000000 0.000000 0.024393 0.000000 -0.001911
# 5 -0.003479 -0.000504 -0.001750 0.000000 0.024527 0.000000
# 6 0.000000 0.000000 0.000000 -0.001911 0.000000 0.030183
#
#
# Mechanical properties :
#
#
# Convention : Reuss Voigt Hill
#
# Bulk Modulus (GPa) = 32.95761 35.09166 34.02464
# Shear Modulus (GPa) = 40.37535 41.85621 41.11578
#
# Velocity S-wave (km/s) = 3.97999 4.05232 4.01632
# Velocity P-wave (km/s) = 5.83528 5.97180 5.90394
#
# Compressibility (1/GPa) = 0.03034201
#
# Stress axis : x y z
#
# Youngs Moduli (GPa) = 100.88234 81.80148 96.67296
#
# Poissons Ratio (x) = 0.03457 0.04737
# Poissons Ratio (y) = 0.04263 0.01518
# Poissons Ratio (z) = 0.04944 0.01285
#
# Static dielectric constant tensor:
#      x y z
#    x 2.011660 0.000000 0.019910 
#    y 0.000000 2.037680 0.000000 
#    z 0.019910 0.000000 1.931060 
# 
# From -- ./inp_files/60271.got.cif
#   From: 2010.05.17/outbox.cif.g08.bks.cpg/sg14_31_cif.got.tgz:60271.got - 2010.06.03 17:49:19.
