data_PCOD9252817
_publ_section_title
;
Structure prediction by ZEFSAII (Michael W. Deem and Ramdas Pophale) SiO2 
 PCOD9252817
Probable space group: P 21/C
;
_chemical_formula_sum "Si O2"
_cell_formula_units_Z 20
_cell_length_a 4.704620
_cell_length_b 21.058872
_cell_length_c 8.016422
_cell_angle_alpha 90.000000
_cell_angle_beta 67.392614
_cell_angle_gamma 90.000000
_cell_volume 733.191667
_symmetry_space_group_name_H-M "P 21/C"
_symmetry_group_IT_number 14
_symmetry_cell_setting 'monoclinic'
loop_
_space_group_symop_operation_xyz
x,y,z
-x,1/2+y,1/2-z
-x,-y,-z
x,1/2-y,1/2+z
loop_
_atom_site_type_symbol
_atom_site_label
_atom_site_fract_x
_atom_site_fract_y
_atom_site_fract_z
Si Si1 0.216541 0.562078 0.972417
Si Si2 0.603880 0.879573 0.666909
Si Si3 0.599250 0.427937 0.439679
Si Si4 0.940008 0.821773 0.131599
Si Si5 0.682396 0.249156 0.728948
O O1 0.407444 0.571449 0.760507
O O2 0.417779 0.568746 0.095638
O O3 0.000000 0.500000 0.000000
O O4 0.959316 0.616298 0.043576
O O5 0.591804 0.892473 0.869699
O O6 0.454084 0.812581 0.655740
O O7 0.500000 0.500000 0.500000
O O8 0.936387 0.394443 0.399216
O O9 0.010463 0.785823 0.285112
O O10 0.587128 0.803083 0.183727
O O11 0.188536 0.782324 0.966741
#
# Coordination Sequence:
#
# PCOD9252817 Si02
#       5
#     4   4   4   4   4
#     4  12  26  46  79 109 147 208 255 310 391 464
#     4  11  27  49  73 109 152 198 255 323 384 471
#     4  11  27  50  75 113 157 203 258 321 395 468
#     4  11  26  46  75 108 148 199 253 324 393 462
#     4  11  25  47  72 107 147 192 257 323 390 462
#
# _framework density 27.277999000000001
#
# number of rings (size 3 to 8) (size 9 to 14) (size 15 to 20)
#    0.000    0.800    2.000    3.000    8.400    7.200 
#    0.000    0.000    0.000    0.000    0.000    0.000 
#    0.000    0.000    0.000    0.000    0.000    0.000 
#
# Total GULP energy -111551.299786 kJ/mol
# GULP energy per Si atom -5577.564989 kJ/mol
# Density = 2.721591 g / cm^3
# Si number density = 27.277999 Si / 1000 Ang^3
#
#
#
# Elastic Constant Matrix: (Units=GPa)
#
#
# Indices 1 2 3 4 5 6 
#
# 1 81.8582 14.9732 27.3400 0.0000 10.4953 0.0000
# 2 14.9732 134.2322 41.9222 0.0000 -3.6079 0.0000
# 3 27.3400 41.9222 180.3883 0.0000 -6.5252 0.0000
# 4 0.0000 0.0000 0.0000 49.5554 0.0000 -11.3887
# 5 10.4953 -3.6079 -6.5252 0.0000 23.4231 0.0000
# 6 0.0000 0.0000 0.0000 -11.3887 0.0000 27.7129
#
#
#
# Elastic Compliance Matrix: (Units=1/GPa)
#
#
# Indices 1 2 3 4 5 6 
#
# 1 0.014030 -0.001090 -0.002128 0.000000 -0.007047 0.000000
# 2 -0.001090 0.008130 -0.001678 0.000000 0.001273 0.000000
# 3 -0.002128 -0.001678 0.006345 0.000000 0.002463 0.000000
# 4 0.000000 0.000000 0.000000 0.022284 0.000000 0.009158
# 5 -0.007047 0.001273 0.002463 0.000000 0.046733 0.000000
# 6 0.000000 0.000000 0.000000 0.009158 0.000000 0.039848
#
#
# Mechanical properties :
#
#
# Convention : Reuss Voigt Hill
#
# Bulk Modulus (GPa) = 53.43924 62.77216 58.10570
# Shear Modulus (GPa) = 32.59482 40.95449 36.77466
#
# Velocity S-wave (km/s) = 3.46050 3.87896 3.67569
# Velocity P-wave (km/s) = 5.96656 6.56687 6.27390
#
# Compressibility (1/GPa) = 0.01871284
#
# Stress axis : x y z
#
# Youngs Moduli (GPa) = 71.27645 123.00658 157.59938
#
# Poissons Ratio (x) = 0.13405 0.33538
# Poissons Ratio (y) = 0.07768 0.26447
# Poissons Ratio (z) = 0.15168 0.20642
#
# Static dielectric constant tensor:
#      x y z
#    x 2.150200 0.000000 0.140250 
#    y 0.000000 2.222770 0.000000 
#    z 0.140250 0.000000 2.231420 
# 
# From -- ./inp_files/6100.got.cif
#   From: 2010.05.17/outbox.cif.g08.bks.cpg/sg14_4_cif.got.tgz:6100.got - 2010.06.03 17:49:19.
