data_PCOD9252333
_publ_section_title
;
Structure prediction by ZEFSAII (Michael W. Deem and Ramdas Pophale) SiO2 
 PCOD9252333
Probable space group: P 21/C
;
_chemical_formula_sum "Si O2"
_cell_formula_units_Z 28
_cell_length_a 12.017237
_cell_length_b 12.812466
_cell_length_c 9.037574
_cell_angle_alpha 90.000000
_cell_angle_beta 70.105276
_cell_angle_gamma 90.000000
_cell_volume 1308.472638
_symmetry_space_group_name_H-M "P 21/C"
_symmetry_group_IT_number 14
_symmetry_cell_setting 'monoclinic'
loop_
_space_group_symop_operation_xyz
x,y,z
-x,1/2+y,1/2-z
-x,-y,-z
x,1/2-y,1/2+z
loop_
_atom_site_type_symbol
_atom_site_label
_atom_site_fract_x
_atom_site_fract_y
_atom_site_fract_z
Si Si1 0.318073 0.662646 0.641205
Si Si2 0.206096 0.970538 0.960918
Si Si3 0.091441 0.717146 0.336316
Si Si4 0.584721 0.363101 0.079140
Si Si5 0.677324 0.570522 0.878422
Si Si6 0.115756 0.366954 0.027225
Si Si7 0.964778 0.555642 0.227867
O O1 0.303139 0.565303 0.537658
O O2 0.186457 0.694401 0.756125
O O3 0.366696 0.760906 0.526410
O O4 0.392247 0.644071 0.756127
O O5 0.150322 0.863147 0.923477
O O6 0.259192 0.034352 0.800961
O O7 0.103574 0.032631 0.090923
O O8 0.967451 0.766423 0.441011
O O9 0.059283 0.647737 0.207900
O O10 0.446839 0.376854 0.104075
O O11 0.650413 0.465069 0.983674
O O12 0.763666 0.642078 0.937484
O O13 0.037844 0.454662 0.146424
O O14 0.127163 0.411262 0.856904
#
# Coordination Sequence:
#
# PCOD9252333 Si02
#       7
#     4   4   4   4   4   4   4
#     4  12  22  43  72  99 126 172 231 276 327 407
#     4  12  23  41  70 100 133 177 222 277 338 408
#     4  12  23  39  71 103 134 174 221 278 335 408
#     4  11  24  46  70  93 131 180 228 277 331 390
#     4  11  25  45  66  95 138 177 223 282 331 396
#     4  11  24  42  66 103 140 177 218 281 346 400
#     4  11  24  40  66 103 140 175 218 274 345 411
#
# _framework density 21.398996
#
# number of rings (size 3 to 8) (size 9 to 14) (size 15 to 20)
#    0.000    0.571    5.714    2.143    2.000    0.571 
#    5.143    0.000    0.000    0.000    0.000    0.000 
#    0.000    0.000    0.000    0.000    0.000    0.000 
#
# Total GULP energy -156716.710848 kJ/mol
# GULP energy per Si atom -5597.025387 kJ/mol
# Density = 2.135029 g / cm^3
# Si number density = 21.398996 Si / 1000 Ang^3
#
#
#
# Elastic Constant Matrix: (Units=GPa)
#
#
# Indices 1 2 3 4 5 6 
#
# 1 114.6403 5.4868 37.9391 0.0000 22.8078 0.0000
# 2 5.4868 19.1033 -2.3657 0.0000 1.5717 0.0000
# 3 37.9391 -2.3657 84.7982 0.0000 18.8407 0.0000
# 4 0.0000 0.0000 0.0000 16.3491 0.0000 -3.1446
# 5 22.8078 1.5717 18.8407 0.0000 35.9762 0.0000
# 6 0.0000 0.0000 0.0000 -3.1446 0.0000 23.2687
#
#
#
# Elastic Compliance Matrix: (Units=1/GPa)
#
#
# Indices 1 2 3 4 5 6 
#
# 1 0.011172 -0.003309 -0.004017 0.000000 -0.004835 0.000000
# 2 -0.003309 0.053893 0.003441 0.000000 -0.002059 0.000000
# 3 -0.004017 0.003441 0.014885 0.000000 -0.005399 0.000000
# 4 0.000000 0.000000 0.000000 0.062798 0.000000 0.008487
# 5 -0.004835 -0.002059 -0.005399 0.000000 0.033779 0.000000
# 6 0.000000 0.000000 0.000000 0.008487 0.000000 0.044123
#
#
# Mechanical properties :
#
#
# Convention : Reuss Voigt Hill
#
# Bulk Modulus (GPa) = 13.85372 33.40691 23.63031
# Shear Modulus (GPa) = 19.80360 26.95091 23.37725
#
# Velocity S-wave (km/s) = 3.04541 3.55272 3.30880
# Velocity P-wave (km/s) = 4.34213 5.69863 5.06599
#
# Compressibility (1/GPa) = 0.07218278
#
# Stress axis : x y z
#
# Youngs Moduli (GPa) = 89.50560 18.55536 67.17967
#
# Poissons Ratio (x) = 0.06139 0.26984
# Poissons Ratio (y) = 0.29614 -0.23118
# Poissons Ratio (z) = 0.35952 -0.06385
#
# Static dielectric constant tensor:
#      x y z
#    x 1.777350 0.000000 0.030910 
#    y 0.000000 1.783560 0.000000 
#    z 0.030910 0.000000 1.771790 
# 
# From -- ./inp_files/13043.got.cif
#   From: 2010.05.17/outbox.cif.g08.bks.cpg/sg14_7_cif.got.tgz:13043.got - 2010.06.03 17:49:19.
