data_PCOD9252184
_publ_section_title
;
Structure prediction by ZEFSAII (Michael W. Deem and Ramdas Pophale) SiO2 
 PCOD9252184
Probable space group: P 21/C
;
_chemical_formula_sum "Si O2"
_cell_formula_units_Z 28
_cell_length_a 9.837442
_cell_length_b 13.339071
_cell_length_c 22.208718
_cell_angle_alpha 90.000000
_cell_angle_beta 25.344225
_cell_angle_gamma 90.000000
_cell_volume 1247.473743
_symmetry_space_group_name_H-M "P 21/C"
_symmetry_group_IT_number 14
_symmetry_cell_setting 'monoclinic'
loop_
_space_group_symop_operation_xyz
x,y,z
-x,1/2+y,1/2-z
-x,-y,-z
x,1/2-y,1/2+z
loop_
_atom_site_type_symbol
_atom_site_label
_atom_site_fract_x
_atom_site_fract_y
_atom_site_fract_z
Si Si1 0.238390 0.834818 0.997807
Si Si2 0.826884 0.427679 0.151828
Si Si3 0.678574 0.477713 0.346081
Si Si4 0.450341 0.241247 0.747012
Si Si5 0.491352 0.228668 0.988058
Si Si6 0.564044 0.571397 0.167732
Si Si7 0.125669 0.625823 0.241596
O O1 0.387177 0.944406 0.951785
O O2 0.413112 0.790288 0.868754
O O3 0.329959 0.768764 0.019652
O O4 0.860773 0.825206 0.141907
O O5 0.808305 0.446611 0.229296
O O6 0.729334 0.317599 0.169632
O O7 0.565576 0.494581 0.221777
O O8 0.162708 0.458489 0.988963
O O9 0.580101 0.377049 0.420385
O O10 0.940746 0.541130 0.278043
O O11 0.343694 0.325795 0.836648
O O12 0.586855 0.323259 0.909950
O O13 0.120597 0.216593 0.149688
O O14 0.248850 0.584428 0.255431
#
# Coordination Sequence:
#
# PCOD9252184 Si02
#       7
#     4   4   4   4   4   4   4
#     4  11  23  44  72 102 138 185 229 288 347 416
#     4  11  26  45  70 104 142 181 235 289 343 425
#     4  11  25  48  71 106 140 181 241 287 345 419
#     4  12  24  44  73 100 142 183 231 285 355 408
#     4  11  26  45  73 102 144 180 240 287 346 419
#     4  11  26  45  67 106 140 182 234 286 348 419
#     4  11  26  47  73  99 145 185 228 292 352 409
#
# _framework density 22.445363
#
# number of rings (size 3 to 8) (size 9 to 14) (size 15 to 20)
#    0.000    0.857    2.857    4.286    8.000    2.286 
#    0.000    0.000    0.000    0.000    0.000    0.000 
#    0.000    0.000    0.000    0.000    0.000    0.000 
#
# Total GULP energy -156659.675098 kJ/mol
# GULP energy per Si atom -5594.988396 kJ/mol
# Density = 2.239428 g / cm^3
# Si number density = 22.445363 Si / 1000 Ang^3
#
#
#
# Elastic Constant Matrix: (Units=GPa)
#
#
# Indices 1 2 3 4 5 6 
#
# 1 120.7069 24.0765 25.2472 0.0000 5.4486 0.0000
# 2 24.0765 59.8318 -14.2484 0.0000 1.7300 0.0000
# 3 25.2472 -14.2484 40.6420 0.0000 1.2388 0.0000
# 4 0.0000 0.0000 0.0000 24.1304 0.0000 7.6162
# 5 5.4486 1.7300 1.2388 0.0000 38.6756 0.0000
# 6 0.0000 0.0000 0.0000 7.6162 0.0000 32.4844
#
#
#
# Elastic Compliance Matrix: (Units=1/GPa)
#
#
# Indices 1 2 3 4 5 6 
#
# 1 0.011771 -0.007027 -0.009744 0.000000 -0.001032 0.000000
# 2 -0.007027 0.022472 0.012256 0.000000 -0.000408 0.000000
# 3 -0.009744 0.012256 0.034964 0.000000 -0.000295 0.000000
# 4 0.000000 0.000000 0.000000 0.044753 0.000000 -0.010493
# 5 -0.001032 -0.000408 -0.000295 0.000000 0.026029 0.000000
# 6 0.000000 0.000000 0.000000 -0.010493 0.000000 0.033244
#
#
# Mechanical properties :
#
#
# Convention : Reuss Voigt Hill
#
# Bulk Modulus (GPa) = 16.61802 32.37016 24.49409
# Shear Modulus (GPa) = 24.71288 31.46511 28.08899
#
# Velocity S-wave (km/s) = 3.32177 3.74819 3.54141
# Velocity P-wave (km/s) = 4.70447 5.76064 5.25914
#
# Compressibility (1/GPa) = 0.06017562
#
# Stress axis : x y z
#
# Youngs Moduli (GPa) = 84.95467 44.50010 28.60065
#
# Poissons Ratio (x) = 0.31272 0.27870
# Poissons Ratio (y) = 0.59701 -0.35053
# Poissons Ratio (z) = 0.82784 -0.54540
#
# Static dielectric constant tensor:
#      x y z
#    x 1.787370 0.000000 -0.013360 
#    y 0.000000 1.898050 0.000000 
#    z -0.013360 0.000000 1.828050 
# 
# From -- ./inp_files/65899.got.cif
#   From: 2010.05.17/outbox.cif.g08.bks.cpg/sg14_33_cif.got.tgz:65899.got - 2010.06.03 17:49:19.
