data_PCOD9252459
_publ_section_title
;
Structure prediction by ZEFSAII (Michael W. Deem and Ramdas Pophale) SiO2 
 PCOD9252459
Probable space group: P 21/C
;
_chemical_formula_sum "Si O2"
_cell_formula_units_Z 20
_cell_length_a 4.816913
_cell_length_b 5.298345
_cell_length_c 28.055023
_cell_angle_alpha 90.000000
_cell_angle_beta 87.142745
_cell_angle_gamma 90.000000
_cell_volume 715.120824
_symmetry_space_group_name_H-M "P 21/C"
_symmetry_group_IT_number 14
_symmetry_cell_setting 'monoclinic'
loop_
_space_group_symop_operation_xyz
x,y,z
-x,1/2+y,1/2-z
-x,-y,-z
x,1/2-y,1/2+z
loop_
_atom_site_type_symbol
_atom_site_label
_atom_site_fract_x
_atom_site_fract_y
_atom_site_fract_z
Si Si1 0.260095 0.391623 0.468429
Si Si2 0.569687 0.141925 0.308545
Si Si3 0.538912 0.027459 0.592688
Si Si4 0.788222 0.136538 0.211229
Si Si5 0.040719 0.351387 0.614125
O O1 0.500000 0.500000 0.500000
O O2 0.387002 0.116483 0.455781
O O3 0.131365 0.450543 0.416131
O O4 0.000000 0.500000 0.500000
O O5 0.616395 0.133284 0.364843
O O6 0.822949 0.134516 0.268243
O O7 0.394535 0.391280 0.299444
O O8 0.391509 0.888242 0.298548
O O9 0.836865 0.114075 0.608608
O O10 0.338534 0.271779 0.591102
O O11 0.039686 0.115572 0.171345
#
# Coordination Sequence:
#
# PCOD9252459 Si02
#       5
#     4   4   4   4   4
#     4  12  26  44  70 102 136 188 246 310 372 438
#     4   9  18  38  67 101 141 188 238 296 369 449
#     4  11  24  44  68  99 141 187 237 306 372 447
#     4   9  18  38  67 101 141 188 238 296 369 449
#     4  11  24  44  68  99 141 187 237 306 372 447
#
# _framework density 27.967306000000001
#
# number of rings (size 3 to 8) (size 9 to 14) (size 15 to 20)
#    0.000    1.600    2.000    2.400    0.000    4.800 
#    0.000   16.000    0.000    0.000    0.000    0.000 
#    0.000    0.000    0.000    0.000    0.000    0.000 
#
# Total GULP energy -111697.794859 kJ/mol
# GULP energy per Si atom -5584.889743 kJ/mol
# Density = 2.790365 g / cm^3
# Si number density = 27.967306 Si / 1000 Ang^3
#
#
#
# Elastic Constant Matrix: (Units=GPa)
#
#
# Indices 1 2 3 4 5 6 
#
# 1 169.6327 34.9134 34.3236 0.0000 6.2584 0.0000
# 2 34.9134 128.5779 43.1396 0.0000 -1.0802 0.0000
# 3 34.3236 43.1396 156.4154 0.0000 -17.8134 0.0000
# 4 0.0000 0.0000 0.0000 58.9228 0.0000 0.6891
# 5 6.2584 -1.0802 -17.8134 0.0000 38.3296 0.0000
# 6 0.0000 0.0000 0.0000 0.6891 0.0000 34.9571
#
#
#
# Elastic Compliance Matrix: (Units=1/GPa)
#
#
# Indices 1 2 3 4 5 6 
#
# 1 0.006487 -0.001360 -0.001239 0.000000 -0.001673 0.000000
# 2 -0.001360 0.008885 -0.002216 0.000000 -0.000557 0.000000
# 3 -0.001239 -0.002216 0.007700 0.000000 0.003718 0.000000
# 4 0.000000 0.000000 0.000000 0.016975 0.000000 -0.000335
# 5 -0.001673 -0.000557 0.003718 0.000000 0.028075 0.000000
# 6 0.000000 0.000000 0.000000 -0.000335 0.000000 0.028613
#
#
# Mechanical properties :
#
#
# Convention : Reuss Voigt Hill
#
# Bulk Modulus (GPa) = 74.38725 75.48657 74.93691
# Shear Modulus (GPa) = 45.10755 49.25853 47.18304
#
# Velocity S-wave (km/s) = 4.02041 4.20133 4.11186
# Velocity P-wave (km/s) = 6.94314 7.11227 7.02822
#
# Compressibility (1/GPa) = 0.01344316
#
# Stress axis : x y z
#
# Youngs Moduli (GPa) = 154.14394 112.54492 129.87559
#
# Poissons Ratio (x) = 0.15305 0.16093
# Poissons Ratio (y) = 0.20962 0.28776
# Poissons Ratio (z) = 0.19100 0.24936
#
# Static dielectric constant tensor:
#      x y z
#    x 2.042700 0.000000 -0.063900 
#    y 0.000000 2.191600 0.000000 
#    z -0.063900 0.000000 2.345590 
# 
# From -- ./inp_files/75438.got.cif
#   From: 2010.05.17/outbox.cif.g08.bks.cpg/sg14_38_cif.got.tgz:75438.got - 2010.06.03 17:49:19.
