data_PCOD9252343
_publ_section_title
;
Structure prediction by ZEFSAII (Michael W. Deem and Ramdas Pophale) SiO2 
 PCOD9252343
Probable space group: P 21/C
;
_chemical_formula_sum "Si O2"
_cell_formula_units_Z 24
_cell_length_a 12.910686
_cell_length_b 8.860797
_cell_length_c 8.748071
_cell_angle_alpha 90.000000
_cell_angle_beta 101.156124
_cell_angle_gamma 90.000000
_cell_volume 981.859345
_symmetry_space_group_name_H-M "P 21/C"
_symmetry_group_IT_number 14
_symmetry_cell_setting 'monoclinic'
loop_
_space_group_symop_operation_xyz
x,y,z
-x,1/2+y,1/2-z
-x,-y,-z
x,1/2-y,1/2+z
loop_
_atom_site_type_symbol
_atom_site_label
_atom_site_fract_x
_atom_site_fract_y
_atom_site_fract_z
Si Si1 0.952752 0.881001 0.673228
Si Si2 0.080051 0.708670 0.929900
Si Si3 0.379972 0.391648 0.810506
Si Si4 0.746360 0.788148 0.009085
Si Si5 0.589948 0.288443 0.301916
Si Si6 0.716549 0.390313 0.616799
O O1 0.856223 0.794487 0.567412
O O2 0.986078 0.815965 0.844793
O O3 0.053966 0.849999 0.592135
O O4 0.925494 0.056477 0.671730
O O5 0.186342 0.798727 0.928222
O O6 0.284105 0.354208 0.664981
O O7 0.341900 0.330896 0.961987
O O8 0.406066 0.568173 0.810563
O O9 0.480721 0.298363 0.783087
O O10 0.741349 0.933221 0.119653
O O11 0.619179 0.359124 0.473989
O O12 0.679132 0.173393 0.267585
#
# Coordination Sequence:
#
# PCOD9252343 Si02
#       6
#     4   4   4   4   4   4
#     4  11  24  41  63  91 122 159 202 248 301 359
#     4  11  24  41  63  91 122 159 202 248 301 359
#     4  11  24  41  63  91 123 160 202 249 301 357
#     4  11  24  41  62  90 123 159 202 250 300 357
#     4  11  24  41  63  91 123 160 202 249 301 357
#     4  11  24  41  62  90 123 159 202 250 300 357
#
# _framework density 24.44342
#
# number of rings (size 3 to 8) (size 9 to 14) (size 15 to 20)
#    0.000    1.000    0.000    6.000    0.000   17.333 
#    0.000    0.000    0.000    0.000    0.000    0.000 
#    0.000    0.000    0.000    0.000    0.000    0.000 
#
# Total GULP energy -134498.228360 kJ/mol
# GULP energy per Si atom -5604.092848 kJ/mol
# Density = 2.438779 g / cm^3
# Si number density = 24.443420 Si / 1000 Ang^3
#
#
#
# Elastic Constant Matrix: (Units=GPa)
#
#
# Indices 1 2 3 4 5 6 
#
# 1 123.3222 48.7962 -36.8380 0.0000 -4.0842 0.0000
# 2 48.7962 177.6648 -37.1037 0.0000 -4.9750 0.0000
# 3 -36.8380 -37.1037 36.7404 0.0000 2.2486 0.0000
# 4 0.0000 0.0000 0.0000 32.3728 0.0000 -2.7522
# 5 -4.0842 -4.9750 2.2486 0.0000 29.7773 0.0000
# 6 0.0000 0.0000 0.0000 -2.7522 0.0000 20.2528
#
#
#
# Elastic Compliance Matrix: (Units=1/GPa)
#
#
# Indices 1 2 3 4 5 6 
#
# 1 0.011718 -0.000957 0.010744 0.000000 0.000636 0.000000
# 2 -0.000957 0.007224 0.006299 0.000000 0.000600 0.000000
# 3 0.010744 0.006299 0.044402 0.000000 -0.000827 0.000000
# 4 0.000000 0.000000 0.000000 0.031251 0.000000 0.004247
# 5 0.000636 0.000600 -0.000827 0.000000 0.033833 0.000000
# 6 0.000000 0.000000 0.000000 0.004247 0.000000 0.049953
#
#
# Mechanical properties :
#
#
# Convention : Reuss Voigt Hill
#
# Bulk Modulus (GPa) = 10.46952 31.93740 21.20346
# Shear Modulus (GPa) = 28.08248 40.67209 34.37728
#
# Velocity S-wave (km/s) = 3.39319 4.08355 3.75427
# Velocity P-wave (km/s) = 4.43216 5.94374 5.24272
#
# Compressibility (1/GPa) = 0.09551537
#
# Stress axis : x y z
#
# Youngs Moduli (GPa) = 85.34048 138.43406 22.52146
#
# Poissons Ratio (x) = 0.13245 -0.24196
# Poissons Ratio (y) = 0.08165 -0.14186
# Poissons Ratio (z) = -0.91687 -0.87200
#
# Static dielectric constant tensor:
#      x y z
#    x 1.905970 0.000000 0.000480 
#    y 0.000000 1.867070 0.000000 
#    z 0.000480 0.000000 1.957950 
# 
# From -- ./inp_files/15086.got.cif
#   From: 2010.05.17/outbox.cif.g08.bks.cpg/sg14_8_cif.got.tgz:15086.got - 2010.06.03 17:49:19.
