data_PCOD9252802
_publ_section_title
;
Structure prediction by ZEFSAII (Michael W. Deem and Ramdas Pophale) SiO2 
 PCOD9252802
Probable space group: P 21/C
;
_chemical_formula_sum "Si O2"
_cell_formula_units_Z 28
_cell_length_a 8.810675
_cell_length_b 24.704509
_cell_length_c 9.408482
_cell_angle_alpha 90.000000
_cell_angle_beta 43.031142
_cell_angle_gamma 90.000000
_cell_volume 1397.466141
_symmetry_space_group_name_H-M "P 21/C"
_symmetry_group_IT_number 14
_symmetry_cell_setting 'monoclinic'
loop_
_space_group_symop_operation_xyz
x,y,z
-x,1/2+y,1/2-z
-x,-y,-z
x,1/2-y,1/2+z
loop_
_atom_site_type_symbol
_atom_site_label
_atom_site_fract_x
_atom_site_fract_y
_atom_site_fract_z
Si Si1 0.304533 0.392268 0.372209
Si Si2 0.903644 0.092903 0.942442
Si Si3 0.910984 0.949421 0.474622
Si Si4 0.600367 0.309105 0.535744
Si Si5 0.674090 0.200397 0.653026
Si Si6 0.560701 0.488200 0.795633
Si Si7 0.117692 0.146260 0.295014
O O1 0.502086 0.348060 0.231600
O O2 0.395964 0.453507 0.305256
O O3 0.172241 0.381680 0.608270
O O4 0.128501 0.387282 0.364590
O O5 0.971306 0.059178 0.756506
O O6 0.749303 0.143003 0.001128
O O7 0.769905 0.051635 0.135418
O O8 0.955587 0.897288 0.538952
O O9 0.649183 0.958432 0.630570
O O10 0.000000 0.000000 0.500000
O O11 0.601042 0.256777 0.634961
O O12 0.683921 0.296820 0.317929
O O13 0.346931 0.327995 0.690578
O O14 0.915665 0.187617 0.423556
O O15 0.500000 0.500000 0.000000
#
# Coordination Sequence:
#
# PCOD9252802 Si02
#       7
#     4   4   4   4   4   4   4
#     4  11  27  44  71 106 139 181 236 278 350 415
#     4  12  26  46  68 107 141 184 232 288 346 421
#     4  12  25  42  73  98 143 186 224 287 345 411
#     4  11  27  46  70 102 136 183 236 285 349 413
#     4  11  27  47  72 100 137 183 235 287 347 411
#     4  12  26  43  69 106 141 185 228 283 346 417
#     4  11  25  47  68 102 139 180 231 286 345 412
#
# _framework density 20.036263999999999
#
# number of rings (size 3 to 8) (size 9 to 14) (size 15 to 20)
#    0.000    0.571    4.286    2.143   10.000    3.429 
#    0.000    0.000    0.000    0.000    0.000    0.000 
#    0.000    0.000    0.000    0.000    0.000    0.000 
#
# Total GULP energy -156669.683165 kJ/mol
# GULP energy per Si atom -5595.345827 kJ/mol
# Density = 1.999066 g / cm^3
# Si number density = 20.036264 Si / 1000 Ang^3
#
#
#
# Elastic Constant Matrix: (Units=GPa)
#
#
# Indices 1 2 3 4 5 6 
#
# 1 76.0607 26.7436 9.7553 0.0000 5.3793 0.0000
# 2 26.7436 99.6826 24.6458 0.0000 13.8941 0.0000
# 3 9.7553 24.6458 79.3908 0.0000 10.3627 0.0000
# 4 0.0000 0.0000 0.0000 25.2277 0.0000 8.2736
# 5 5.3793 13.8941 10.3627 0.0000 30.8263 0.0000
# 6 0.0000 0.0000 0.0000 8.2736 0.0000 37.9512
#
#
#
# Elastic Compliance Matrix: (Units=1/GPa)
#
#
# Indices 1 2 3 4 5 6 
#
# 1 0.014559 -0.003671 -0.000558 0.000000 -0.000699 0.000000
# 2 -0.003671 0.012268 -0.002844 0.000000 -0.003933 0.000000
# 3 -0.000558 -0.002844 0.013981 0.000000 -0.003321 0.000000
# 4 0.000000 0.000000 0.000000 0.042691 0.000000 -0.009307
# 5 -0.000699 -0.003933 -0.003321 0.000000 0.035451 0.000000
# 6 0.000000 0.000000 0.000000 -0.009307 0.000000 0.028379
#
#
# Mechanical properties :
#
#
# Convention : Reuss Voigt Hill
#
# Bulk Modulus (GPa) = 37.50668 41.93592 39.72130
# Shear Modulus (GPa) = 29.34934 31.73366 30.54150
#
# Velocity S-wave (km/s) = 3.83144 3.98403 3.90848
# Velocity P-wave (km/s) = 6.19139 6.49144 6.34319
#
# Compressibility (1/GPa) = 0.02666191
#
# Stress axis : x y z
#
# Youngs Moduli (GPa) = 68.68592 81.51316 71.52646
#
# Poissons Ratio (x) = 0.29920 0.03993
# Poissons Ratio (y) = 0.25212 0.20342
# Poissons Ratio (z) = 0.03835 0.23183
#
# Static dielectric constant tensor:
#      x y z
#    x -6.462170 0.000000 5.658900 
#    y 0.000000 1.636130 0.000000 
#    z 5.658900 0.000000 -2.239590 
# 
# From -- ./inp_files/11153.got.cif
#   From: 2010.05.17/outbox.cif.g08.bks.cpg/sg14_6_cif.got.tgz:11153.got - 2010.06.03 17:49:19.
