data_PCOD9252992
_publ_section_title
;
Structure prediction by ZEFSAII (Michael W. Deem and Ramdas Pophale) SiO2 
 PCOD9252992
Probable space group: P 21/C
;
_chemical_formula_sum "Si O2"
_cell_formula_units_Z 16
_cell_length_a 11.890783
_cell_length_b 8.885124
_cell_length_c 9.293375
_cell_angle_alpha 90.000000
_cell_angle_beta 141.334156
_cell_angle_gamma 90.000000
_cell_volume 613.440794
_symmetry_space_group_name_H-M "P 21/C"
_symmetry_group_IT_number 14
_symmetry_cell_setting 'monoclinic'
loop_
_space_group_symop_operation_xyz
x,y,z
-x,1/2+y,1/2-z
-x,-y,-z
x,1/2-y,1/2+z
loop_
_atom_site_type_symbol
_atom_site_label
_atom_site_fract_x
_atom_site_fract_y
_atom_site_fract_z
Si Si1 0.005306 0.441312 0.345303
Si Si2 0.893345 0.882388 0.494039
Si Si3 0.480230 0.287391 0.521953
Si Si4 0.609741 0.059776 0.878989
O O1 0.998302 0.262343 0.342006
O O2 0.195862 0.495006 0.469151
O O3 0.000000 0.500000 0.500000
O O4 0.855773 0.979508 0.598473
O O5 0.721219 0.810049 0.242865
O O6 0.000000 0.000000 0.500000
O O7 0.526276 0.137360 0.654578
O O8 0.494101 0.418977 0.654511
O O9 0.605703 0.324088 0.510386
#
# Coordination Sequence:
#
# PCOD9252992 Si02
#       4
#     4   4   4   4
#     4  12  29  48  83 118 168 219 276 345 424 492
#     4  12  27  55  79 123 162 218 281 346 417 510
#     4  11  27  53  82 120 171 215 288 336 421 495
#     4  11  27  51  80 121 165 223 269 350 409 501
#
# _framework density 26.082388000000002
#
# number of rings (size 3 to 8) (size 9 to 14) (size 15 to 20)
#    0.000    0.500    2.500    3.000    7.000    8.000 
#    0.000    0.000    0.000    0.000    0.000    0.000 
#    0.000    0.000    0.000    0.000    0.000    0.000 
#
# Total GULP energy -89697.242539 kJ/mol
# GULP energy per Si atom -5606.077659 kJ/mol
# Density = 2.602302 g / cm^3
# Si number density = 26.082388 Si / 1000 Ang^3
#
#
#
# Elastic Constant Matrix: (Units=GPa)
#
#
# Indices 1 2 3 4 5 6 
#
# 1 155.9561 25.9145 46.1230 0.0000 -18.2398 0.0000
# 2 25.9145 159.0061 76.1965 0.0000 -12.7641 0.0000
# 3 46.1230 76.1965 139.0788 0.0000 -8.2109 0.0000
# 4 0.0000 0.0000 0.0000 72.1143 0.0000 -18.8204
# 5 -18.2398 -12.7641 -8.2109 0.0000 51.7053 0.0000
# 6 0.0000 0.0000 0.0000 -18.8204 0.0000 40.1042
#
#
#
# Elastic Compliance Matrix: (Units=1/GPa)
#
#
# Indices 1 2 3 4 5 6 
#
# 1 0.007357 0.000118 -0.002372 0.000000 0.002248 0.000000
# 2 0.000118 0.008628 -0.004682 0.000000 0.001428 0.000000
# 3 -0.002372 -0.004682 0.010523 0.000000 -0.000321 0.000000
# 4 0.000000 0.000000 0.000000 0.015802 0.000000 0.007416
# 5 0.002248 0.001428 -0.000321 0.000000 0.020435 0.000000
# 6 0.000000 0.000000 0.000000 0.007416 0.000000 0.028415
#
#
# Mechanical properties :
#
#
# Convention : Reuss Voigt Hill
#
# Bulk Modulus (GPa) = 79.13605 83.38987 81.26296
# Shear Modulus (GPa) = 45.76957 53.17189 49.47073
#
# Velocity S-wave (km/s) = 4.19359 4.52000 4.35985
# Velocity P-wave (km/s) = 7.33859 7.69946 7.52119
#
# Compressibility (1/GPa) = 0.01263647
#
# Stress axis : x y z
#
# Youngs Moduli (GPa) = 135.92979 115.90140 95.03261
#
# Poissons Ratio (x) = -0.01367 0.22538
# Poissons Ratio (y) = -0.01603 0.44492
# Poissons Ratio (z) = 0.32238 0.54263
#
# Static dielectric constant tensor:
#      x y z
#    x 2.115610 0.000000 0.083910 
#    y 0.000000 4.988610 0.000000 
#    z 0.083910 0.000000 2.132970 
# 
# From -- ./inp_files/11920.got.cif
#   From: 2010.05.17/outbox.cif.g08.bks.cpg/sg14_6_cif.got.tgz:11920.got - 2010.06.03 17:49:19.
