data_PCOD9252387
_publ_section_title
;
Structure prediction by ZEFSAII (Michael W. Deem and Ramdas Pophale) SiO2 
 PCOD9252387
Probable space group: P 21/C
;
_chemical_formula_sum "Si O2"
_cell_formula_units_Z 24
_cell_length_a 12.424423
_cell_length_b 14.224442
_cell_length_c 9.582987
_cell_angle_alpha 90.000000
_cell_angle_beta 36.163394
_cell_angle_gamma 90.000000
_cell_volume 999.379899
_symmetry_space_group_name_H-M "P 21/C"
_symmetry_group_IT_number 14
_symmetry_cell_setting 'monoclinic'
loop_
_space_group_symop_operation_xyz
x,y,z
-x,1/2+y,1/2-z
-x,-y,-z
x,1/2-y,1/2+z
loop_
_atom_site_type_symbol
_atom_site_label
_atom_site_fract_x
_atom_site_fract_y
_atom_site_fract_z
Si Si1 0.307320 0.217395 0.223955
Si Si2 0.208691 0.366809 0.118996
Si Si3 0.498876 0.520594 0.837238
Si Si4 0.801620 0.122335 0.960865
Si Si5 0.032290 0.892089 0.503146
Si Si6 0.365352 0.818204 0.299156
O O1 0.258660 0.201050 0.435898
O O2 0.160212 0.157766 0.288781
O O3 0.275146 0.320478 0.193707
O O4 0.502264 0.176789 0.973640
O O5 0.326283 0.459301 0.964633
O O6 0.991352 0.384405 0.347836
O O7 0.683573 0.472575 0.586581
O O8 0.464038 0.626344 0.821480
O O9 0.500000 0.500000 0.000000
O O10 0.867977 0.148341 0.737640
O O11 0.675833 0.208302 0.140175
O O12 0.170096 0.867683 0.481266
O O13 0.000000 0.000000 0.500000
#
# Coordination Sequence:
#
# PCOD9252387 Si02
#       6
#     4   4   4   4   4   4
#     4  11  24  42  76 102 142 187 240 294 360 428
#     4  11  25  47  71 107 143 190 243 296 359 432
#     4  12  29  45  70 109 148 188 245 301 361 432
#     4  11  25  46  73 106 144 188 242 295 360 433
#     4  11  24  46  71 102 139 186 246 294 356 428
#     4  12  25  43  74 104 144 194 235 300 365 423
#
# _framework density 24.014892
#
# number of rings (size 3 to 8) (size 9 to 14) (size 15 to 20)
#    0.000    0.667    3.333    4.000    4.667    2.667 
#    0.000    0.000    0.000    0.000    0.000    0.000 
#    0.000    0.000    0.000    0.000    0.000    0.000 
#
# Total GULP energy -134317.469495 kJ/mol
# GULP energy per Si atom -5596.561229 kJ/mol
# Density = 2.396023 g / cm^3
# Si number density = 24.014892 Si / 1000 Ang^3
#
#
#
# Elastic Constant Matrix: (Units=GPa)
#
#
# Indices 1 2 3 4 5 6 
#
# 1 84.4380 -1.0655 12.3860 0.0000 -17.7969 0.0000
# 2 -1.0655 40.0268 18.1007 0.0000 -22.1712 0.0000
# 3 12.3860 18.1007 100.3941 0.0000 -24.4429 0.0000
# 4 0.0000 0.0000 0.0000 28.9851 0.0000 -6.0341
# 5 -17.7969 -22.1712 -24.4429 0.0000 46.6813 0.0000
# 6 0.0000 0.0000 0.0000 -6.0341 0.0000 38.5579
#
#
#
# Elastic Compliance Matrix: (Units=1/GPa)
#
#
# Indices 1 2 3 4 5 6 
#
# 1 0.013464 0.004522 -0.000807 0.000000 0.006858 0.000000
# 2 0.004522 0.035983 -0.002825 0.000000 0.017335 0.000000
# 3 -0.000807 -0.002825 0.011654 0.000000 0.004453 0.000000
# 4 0.000000 0.000000 0.000000 0.035662 0.000000 0.005581
# 5 0.006858 0.017335 0.004453 0.000000 0.034601 0.000000
# 6 0.000000 0.000000 0.000000 0.005581 0.000000 0.026808
#
#
# Mechanical properties :
#
#
# Convention : Reuss Voigt Hill
#
# Bulk Modulus (GPa) = 15.90285 31.52237 23.71261
# Shear Modulus (GPa) = 28.19245 35.87402 32.03323
#
# Velocity S-wave (km/s) = 3.43002 3.86919 3.65621
# Velocity P-wave (km/s) = 4.72474 5.75461 5.26492
#
# Compressibility (1/GPa) = 0.06288180
#
# Stress axis : x y z
#
# Youngs Moduli (GPa) = 74.27243 27.79081 85.80961
#
# Poissons Ratio (x) = -0.12567 0.06921
# Poissons Ratio (y) = -0.33587 0.24241
# Poissons Ratio (z) = 0.05991 0.07851
#
# Static dielectric constant tensor:
#      x y z
#    x 1.959810 0.000000 -0.035030 
#    y 0.000000 2.001730 0.000000 
#    z -0.035030 0.000000 1.906630 
# 
# From -- ./inp_files/32685.got.cif
#   From: 2010.05.17/outbox.cif.g08.bks.cpg/sg14_17_cif.got.tgz:32685.got - 2010.06.03 17:49:19.
