data_PCOD9252671
_publ_section_title
;
Structure prediction by ZEFSAII (Michael W. Deem and Ramdas Pophale) SiO2 
 PCOD9252671
Probable space group: P 21/C
;
_chemical_formula_sum "Si O2"
_cell_formula_units_Z 20
_cell_length_a 16.670113
_cell_length_b 4.917277
_cell_length_c 9.118871
_cell_angle_alpha 90.000000
_cell_angle_beta 77.265549
_cell_angle_gamma 90.000000
_cell_volume 729.101531
_symmetry_space_group_name_H-M "P 21/C"
_symmetry_group_IT_number 14
_symmetry_cell_setting 'monoclinic'
loop_
_space_group_symop_operation_xyz
x,y,z
-x,1/2+y,1/2-z
-x,-y,-z
x,1/2-y,1/2+z
loop_
_atom_site_type_symbol
_atom_site_label
_atom_site_fract_x
_atom_site_fract_y
_atom_site_fract_z
Si Si1 0.191488 0.392531 0.094604
Si Si2 0.945157 0.546362 0.274051
Si Si3 0.343383 0.416614 0.610958
Si Si4 0.796733 0.263276 0.167429
Si Si5 0.554876 0.968080 0.211208
O O1 0.110803 0.220889 0.091986
O O2 0.274535 0.231975 0.039192
O O3 0.192299 0.469671 0.266441
O O4 0.199320 0.673277 0.004714
O O5 0.877021 0.423208 0.193796
O O6 0.994402 0.282442 0.310686
O O7 0.289129 0.617418 0.734483
O O8 0.402453 0.532588 0.461221
O O9 0.388767 0.193107 0.694114
O O10 0.482236 0.747815 0.212992
#
# Coordination Sequence:
#
# PCOD9252671 Si02
#       5
#     4   4   4   4   4
#     4  11  26  46  77 109 149 204 248 302 372 437
#     4  11  24  50  72 115 150 192 246 315 368 434
#     4  11  26  46  72 109 150 198 246 305 362 456
#     4  11  26  46  77 109 149 204 248 302 372 437
#     4  12  28  48  76 110 148 192 244 306 376 436
#
# _framework density 27.431025000000002
#
# number of rings (size 3 to 8) (size 9 to 14) (size 15 to 20)
#    0.000    0.800    4.000    1.200    8.400    3.200 
#    0.000    0.000    0.000    0.000    0.000    0.000 
#    0.000    0.000    0.000    0.000    0.000    0.000 
#
# Total GULP energy -112077.116181 kJ/mol
# GULP energy per Si atom -5603.855809 kJ/mol
# Density = 2.736859 g / cm^3
# Si number density = 27.431025 Si / 1000 Ang^3
#
#
#
# Elastic Constant Matrix: (Units=GPa)
#
#
# Indices 1 2 3 4 5 6 
#
# 1 133.8313 34.4199 37.0101 0.0000 -14.4139 0.0000
# 2 34.4199 113.7431 1.0784 0.0000 -6.9771 0.0000
# 3 37.0101 1.0784 109.3203 0.0000 -8.2383 0.0000
# 4 0.0000 0.0000 0.0000 32.7176 0.0000 9.0397
# 5 -14.4139 -6.9771 -8.2383 0.0000 24.8558 0.0000
# 6 0.0000 0.0000 0.0000 9.0397 0.0000 39.6477
#
#
#
# Elastic Compliance Matrix: (Units=1/GPa)
#
#
# Indices 1 2 3 4 5 6 
#
# 1 0.009323 -0.002565 -0.002849 0.000000 0.003742 0.000000
# 2 -0.002565 0.009652 0.000887 0.000000 0.001516 0.000000
# 3 -0.002849 0.000887 0.010254 0.000000 0.001995 0.000000
# 4 0.000000 0.000000 0.000000 0.032619 0.000000 -0.007437
# 5 0.003742 0.001516 0.001995 0.000000 0.043489 0.000000
# 6 0.000000 0.000000 0.000000 -0.007437 0.000000 0.026918
#
#
# Mechanical properties :
#
#
# Convention : Reuss Voigt Hill
#
# Bulk Modulus (GPa) = 49.56319 55.76792 52.66556
# Shear Modulus (GPa) = 33.77640 38.40332 36.08986
#
# Velocity S-wave (km/s) = 3.51283 3.74571 3.63114
# Velocity P-wave (km/s) = 5.87884 6.25152 6.06804
#
# Compressibility (1/GPa) = 0.02017627
#
# Stress axis : x y z
#
# Youngs Moduli (GPa) = 107.26721 103.60110 97.52755
#
# Poissons Ratio (x) = 0.26569 0.27784
# Poissons Ratio (y) = 0.27509 -0.08653
# Poissons Ratio (z) = 0.30558 -0.09192
#
# Static dielectric constant tensor:
#      x y z
#    x 2.172900 0.000000 0.002190 
#    y 0.000000 2.061350 0.000000 
#    z 0.002190 0.000000 2.087540 
# 
# From -- ./inp_files/17237.got.cif
#   From: 2010.05.17/outbox.cif.g08.bks.cpg/sg14_9_cif.got.tgz:17237.got - 2010.06.03 17:49:19.
