data_PCOD9252385
_publ_section_title
;
Structure prediction by ZEFSAII (Michael W. Deem and Ramdas Pophale) SiO2 
 PCOD9252385
Probable space group: P 21/C
;
_chemical_formula_sum "Si O2"
_cell_formula_units_Z 16
_cell_length_a 13.858636
_cell_length_b 7.268495
_cell_length_c 17.180748
_cell_angle_alpha 90.000000
_cell_angle_beta 157.467236
_cell_angle_gamma 90.000000
_cell_volume 663.201944
_symmetry_space_group_name_H-M "P 21/C"
_symmetry_group_IT_number 14
_symmetry_cell_setting 'monoclinic'
loop_
_space_group_symop_operation_xyz
x,y,z
-x,1/2+y,1/2-z
-x,-y,-z
x,1/2-y,1/2+z
loop_
_atom_site_type_symbol
_atom_site_label
_atom_site_fract_x
_atom_site_fract_y
_atom_site_fract_z
Si Si1 0.922128 0.319545 0.894980
Si Si2 0.860801 0.295541 0.510503
Si Si3 0.662024 0.672970 0.408465
Si Si4 0.414521 0.305284 0.976647
O O1 0.872508 0.170207 0.926253
O O2 0.661617 0.322838 0.653289
O O3 0.000000 0.500000 0.000000
O O4 0.149990 0.267480 0.010697
O O5 0.778852 0.469212 0.501625
O O6 0.620308 0.161008 0.336843
O O7 0.146559 0.243830 0.742420
O O8 0.646339 0.787840 0.476333
O O9 0.500000 0.500000 0.000000
#
# Coordination Sequence:
#
# PCOD9252385 Si02
#       4
#     4   4   4   4
#     4  11  25  47  72 110 152 197 255 317 389 459
#     4  11  25  46  75 105 156 197 262 316 385 459
#     4  11  24  42  73 108 147 204 247 318 392 448
#     4  11  25  45  75 111 151 199 260 316 382 464
#
# _framework density 24.125381000000001
#
# number of rings (size 3 to 8) (size 9 to 14) (size 15 to 20)
#    0.000    1.000    2.500    3.750    3.500    9.000 
#    0.000    0.000    0.000    0.000    0.000    0.000 
#    0.000    0.000    0.000    0.000    0.000    0.000 
#
# Total GULP energy -89260.821315 kJ/mol
# GULP energy per Si atom -5578.801332 kJ/mol
# Density = 2.407047 g / cm^3
# Si number density = 24.125381 Si / 1000 Ang^3
#
#
#
# Elastic Constant Matrix: (Units=GPa)
#
#
# Indices 1 2 3 4 5 6 
#
# 1 134.9733 28.1039 36.0742 0.0000 26.6383 0.0000
# 2 28.1039 69.7682 50.3838 0.0000 2.0749 0.0000
# 3 36.0742 50.3838 254.1962 0.0000 36.9754 0.0000
# 4 0.0000 0.0000 0.0000 29.6125 0.0000 1.0609
# 5 26.6383 2.0749 36.9754 0.0000 47.9127 0.0000
# 6 0.0000 0.0000 0.0000 1.0609 0.0000 34.9904
#
#
#
# Elastic Compliance Matrix: (Units=1/GPa)
#
#
# Indices 1 2 3 4 5 6 
#
# 1 0.009117 -0.003638 0.000160 0.000000 -0.005035 0.000000
# 2 -0.003638 0.018363 -0.003719 0.000000 0.004098 0.000000
# 3 0.000160 -0.003719 0.005225 0.000000 -0.003960 0.000000
# 4 0.000000 0.000000 0.000000 0.033806 0.000000 -0.001025
# 5 -0.005035 0.004098 -0.003960 0.000000 0.026549 0.000000
# 6 0.000000 0.000000 0.000000 -0.001025 0.000000 0.028610
#
#
# Mechanical properties :
#
#
# Convention : Reuss Voigt Hill
#
# Bulk Modulus (GPa) = 54.61892 76.45129 65.53510
# Shear Modulus (GPa) = 35.16942 45.46150 40.31546
#
# Velocity S-wave (km/s) = 3.82223 4.34566 4.09232
# Velocity P-wave (km/s) = 6.49369 7.54570 7.03937
#
# Compressibility (1/GPa) = 0.01830868
#
# Stress axis : x y z
#
# Youngs Moduli (GPa) = 109.68048 54.45778 191.40578
#
# Poissons Ratio (x) = 0.19813 -0.03054
# Poissons Ratio (y) = 0.39903 0.71192
# Poissons Ratio (z) = -0.01750 0.20255
#
# Static dielectric constant tensor:
#      x y z
#    x 1.900680 0.000000 -0.037290 
#    y 0.000000 2.025700 0.000000 
#    z -0.037290 0.000000 1.980270 
# 
# From -- ./inp_files/31277.got.cif
#   From: 2010.05.17/outbox.cif.g08.bks.cpg/sg14_16_cif.got.tgz:31277.got - 2010.06.03 17:49:19.
