data_PCOD9252613
_publ_section_title
;
Structure prediction by ZEFSAII (Michael W. Deem and Ramdas Pophale) SiO2 
 PCOD9252613
Probable space group: P 21/C
;
_chemical_formula_sum "Si O2"
_cell_formula_units_Z 22
_cell_length_a 9.378281
_cell_length_b 6.812912
_cell_length_c 21.928658
_cell_angle_alpha 90.000000
_cell_angle_beta 38.447144
_cell_angle_gamma 90.000000
_cell_volume 871.191219
_symmetry_space_group_name_H-M "P 21/C"
_symmetry_group_IT_number 14
_symmetry_cell_setting 'monoclinic'
loop_
_space_group_symop_operation_xyz
x,y,z
-x,1/2+y,1/2-z
-x,-y,-z
x,1/2-y,1/2+z
loop_
_atom_site_type_symbol
_atom_site_label
_atom_site_fract_x
_atom_site_fract_y
_atom_site_fract_z
Si Si1 0.732173 0.216790 0.032098
Si Si2 0.719824 0.971385 0.291342
Si Si3 0.500000 0.500000 0.500000
Si Si4 0.157632 0.912303 0.219703
Si Si5 0.826573 0.548769 0.150995
Si Si6 0.702877 0.106612 0.169744
O O1 0.524095 0.368955 0.116287
O O2 0.683681 0.115713 0.983986
O O3 0.821735 0.318258 0.134971
O O4 0.729247 0.060235 0.089255
O O5 0.722616 0.204002 0.305710
O O6 0.787657 0.971340 0.196853
O O7 0.907656 0.887438 0.274699
O O8 0.686463 0.509533 0.383098
O O9 0.141812 0.036867 0.286648
O O10 0.568888 0.624024 0.224964
O O11 0.032957 0.661168 0.050174
#
# Coordination Sequence:
#
# PCOD9252613 Si02
#       6
#     4   4   2   4   4   4
#     4  12  26  47  76 115 149 201 251 313 382 458
#     4  11  26  47  75 103 155 196 253 312 380 443
#     4  12  26  42  76 108 144 196 252 306 384 442
#     4  11  25  46  69 107 147 202 252 319 368 461
#     4  11  25  48  75 107 154 196 256 310 386 446
#     4  11  24  47  75 110 148 201 243 318 372 452
#
# _framework density 25.252780999999999
#
# number of rings (size 3 to 8) (size 9 to 14) (size 15 to 20)
#    0.000    0.727    3.636    2.727    2.545    5.818 
#    3.273    1.818    0.000    0.000    0.000    1.273 
#    0.000    0.000    0.000    0.000    0.000    0.000 
#
# Total GULP energy -122787.653569 kJ/mol
# GULP energy per Si atom -5581.256980 kJ/mol
# Density = 2.519530 g / cm^3
# Si number density = 25.252781 Si / 1000 Ang^3
#
#
#
# Elastic Constant Matrix: (Units=GPa)
#
#
# Indices 1 2 3 4 5 6 
#
# 1 149.7841 52.7662 61.7809 0.0000 8.8158 0.0000
# 2 52.7662 68.8984 54.3666 0.0000 2.5321 0.0000
# 3 61.7809 54.3666 141.2825 0.0000 5.9578 0.0000
# 4 0.0000 0.0000 0.0000 18.7488 0.0000 -15.6832
# 5 8.8158 2.5321 5.9578 0.0000 52.8215 0.0000
# 6 0.0000 0.0000 0.0000 -15.6832 0.0000 41.5138
#
#
#
# Elastic Compliance Matrix: (Units=1/GPa)
#
#
# Indices 1 2 3 4 5 6 
#
# 1 0.009565 -0.005774 -0.001914 0.000000 -0.001104 0.000000
# 2 -0.005774 0.024330 -0.006861 0.000000 0.000571 0.000000
# 3 -0.001914 -0.006861 0.010578 0.000000 -0.000545 0.000000
# 4 0.000000 0.000000 0.000000 0.077979 0.000000 0.029459
# 5 -0.001104 0.000571 -0.000545 0.000000 0.019150 0.000000
# 6 0.000000 0.000000 0.000000 0.029459 0.000000 0.035217
#
#
# Mechanical properties :
#
#
# Convention : Reuss Voigt Hill
#
# Bulk Modulus (GPa) = 65.04766 77.53250 71.29008
# Shear Modulus (GPa) = 23.69190 35.35358 29.52274
#
# Velocity S-wave (km/s) = 3.06631 3.74570 3.42290
# Velocity P-wave (km/s) = 6.19281 7.03393 6.62673
#
# Compressibility (1/GPa) = 0.01537334
#
# Stress axis : x y z
#
# Youngs Moduli (GPa) = 104.54838 41.10217 94.53387
#
# Poissons Ratio (x) = 0.23734 0.18094
# Poissons Ratio (y) = 0.60371 0.64862
# Poissons Ratio (z) = 0.20011 0.28201
#
# Static dielectric constant tensor:
#      x y z
#    x 2.000690 0.000000 0.003050 
#    y 0.000000 2.085740 0.000000 
#    z 0.003050 0.000000 1.922440 
# 
# From -- ./inp_files/54778.got.cif
#   From: 2010.05.17/outbox.cif.g08.bks.cpg/sg14_28_cif.got.tgz:54778.got - 2010.06.03 17:49:19.
