data_PCOD9252502
_publ_section_title
;
Structure prediction by ZEFSAII (Michael W. Deem and Ramdas Pophale) SiO2 
 PCOD9252502
Probable space group: P 21/C
;
_chemical_formula_sum "Si O2"
_cell_formula_units_Z 20
_cell_length_a 4.888054
_cell_length_b 15.594962
_cell_length_c 10.542114
_cell_angle_alpha 90.000000
_cell_angle_beta 89.154531
_cell_angle_gamma 90.000000
_cell_volume 803.527490
_symmetry_space_group_name_H-M "P 21/C"
_symmetry_group_IT_number 14
_symmetry_cell_setting 'monoclinic'
loop_
_space_group_symop_operation_xyz
x,y,z
-x,1/2+y,1/2-z
-x,-y,-z
x,1/2-y,1/2+z
loop_
_atom_site_type_symbol
_atom_site_label
_atom_site_fract_x
_atom_site_fract_y
_atom_site_fract_z
Si Si1 0.754853 0.131457 0.795892
Si Si2 0.910418 0.807147 0.434852
Si Si3 0.557345 0.041543 0.184781
Si Si4 0.403336 0.686574 0.110143
Si Si5 0.934900 0.887444 0.942074
O O1 0.962761 0.136676 0.676990
O O2 0.590813 0.221113 0.819375
O O3 0.550564 0.051984 0.781799
O O4 0.938223 0.120048 0.920271
O O5 0.098593 0.822420 0.557238
O O6 0.948440 0.708976 0.389815
O O7 0.602894 0.814740 0.486936
O O8 0.519041 0.108945 0.298962
O O9 0.869347 0.051668 0.140781
O O10 0.370237 0.078175 0.070821
#
# Coordination Sequence:
#
# PCOD9252502 Si02
#       5
#     4   4   4   4   4
#     4  11  26  46  74 103 141 190 226 289 353 406
#     4  11  25  45  72  99 141 186 225 282 351 409
#     4  12  25  45  73 104 142 177 235 286 347 412
#     4  11  26  45  69 103 140 180 234 286 337 418
#     4  11  24  45  68 106 137 179 233 290 339 412
#
# _framework density 24.890253000000001
#
# number of rings (size 3 to 8) (size 9 to 14) (size 15 to 20)
#    0.000    0.800    2.000    4.800    2.800    8.000 
#    0.000    0.000    0.000    0.000    0.000    0.000 
#    0.000    0.000    0.000    0.000    0.000    0.000 
#
# Total GULP energy -112246.770385 kJ/mol
# GULP energy per Si atom -5612.338519 kJ/mol
# Density = 2.483360 g / cm^3
# Si number density = 24.890253 Si / 1000 Ang^3
#
#
#
# Elastic Constant Matrix: (Units=GPa)
#
#
# Indices 1 2 3 4 5 6 
#
# 1 89.2142 8.5579 5.9939 0.0000 -13.0358 0.0000
# 2 8.5579 106.2490 48.3085 0.0000 -7.0668 0.0000
# 3 5.9939 48.3085 94.8244 0.0000 -21.2726 0.0000
# 4 0.0000 0.0000 0.0000 31.1589 0.0000 -6.6205
# 5 -13.0358 -7.0668 -21.2726 0.0000 26.0446 0.0000
# 6 0.0000 0.0000 0.0000 -6.6205 0.0000 36.6732
#
#
#
# Elastic Compliance Matrix: (Units=1/GPa)
#
#
# Indices 1 2 3 4 5 6 
#
# 1 0.012240 -0.001145 0.001364 0.000000 0.006930 0.000000
# 2 -0.001145 0.012457 -0.006911 0.000000 -0.002838 0.000000
# 3 0.001364 -0.006911 0.016789 0.000000 0.012521 0.000000
# 4 0.000000 0.000000 0.000000 0.033374 0.000000 0.006025
# 5 0.006930 -0.002838 0.012521 0.000000 0.051321 0.000000
# 6 0.000000 0.000000 0.000000 0.006025 0.000000 0.028356
#
#
# Mechanical properties :
#
#
# Convention : Reuss Voigt Hill
#
# Bulk Modulus (GPa) = 35.58312 46.22315 40.90313
# Shear Modulus (GPa) = 28.20280 33.93714 31.06997
#
# Velocity S-wave (km/s) = 3.36979 3.69653 3.53693
# Velocity P-wave (km/s) = 5.42841 6.06879 5.75751
#
# Compressibility (1/GPa) = 0.02810321
#
# Stress axis : x y z
#
# Youngs Moduli (GPa) = 81.70096 80.27320 59.56247
#
# Poissons Ratio (x) = 0.09194 -0.08127
# Poissons Ratio (y) = 0.09357 0.41162
# Poissons Ratio (z) = -0.11148 0.55474
#
# Static dielectric constant tensor:
#      x y z
#    x 1.918010 0.000000 0.015870 
#    y 0.000000 1.971050 0.000000 
#    z 0.015870 0.000000 1.949910 
# 
# From -- ./inp_files/20665.got.cif
#   From: 2010.05.17/outbox.cif.g08.bks.cpg/sg14_11_cif.got.tgz:20665.got - 2010.06.03 17:49:19.
