data_PCOD9252812
_publ_section_title
;
Structure prediction by ZEFSAII (Michael W. Deem and Ramdas Pophale) SiO2 
 PCOD9252812
Probable space group: P 21/C
;
_chemical_formula_sum "Si O2"
_cell_formula_units_Z 20
_cell_length_a 4.876885
_cell_length_b 12.990739
_cell_length_c 12.785665
_cell_angle_alpha 90.000000
_cell_angle_beta 74.125716
_cell_angle_gamma 90.000000
_cell_volume 779.136306
_symmetry_space_group_name_H-M "P 21/C"
_symmetry_group_IT_number 14
_symmetry_cell_setting 'monoclinic'
loop_
_space_group_symop_operation_xyz
x,y,z
-x,1/2+y,1/2-z
-x,-y,-z
x,1/2-y,1/2+z
loop_
_atom_site_type_symbol
_atom_site_label
_atom_site_fract_x
_atom_site_fract_y
_atom_site_fract_z
Si Si1 0.988605 0.118623 0.966455
Si Si2 0.040642 0.121286 0.716336
Si Si3 0.599310 0.251904 0.159048
Si Si4 0.606702 0.702760 0.101573
Si Si5 0.139481 0.567375 0.077556
O O1 0.938765 0.120099 0.846657
O O2 0.283159 0.185174 0.947324
O O3 0.753858 0.178160 0.060743
O O4 0.000000 0.000000 0.000000
O O5 0.791581 0.148052 0.661304
O O6 0.278703 0.209210 0.675451
O O7 0.161647 0.010333 0.672435
O O8 0.594411 0.204348 0.276229
O O9 0.561584 0.371006 0.961656
O O10 0.897842 0.653072 0.112480
O O11 0.000000 0.500000 0.000000
#
# Coordination Sequence:
#
# PCOD9252812 Si02
#       5
#     4   4   4   4   4
#     4  11  26  48  76 107 147 197 248 306 371 441
#     4  11  26  47  74 110 143 190 249 299 370 453
#     4  11  25  48  72 104 148 187 238 306 367 434
#     4  11  25  47  71 107 145 189 244 306 376 448
#     4  12  25  46  75 106 147 195 245 307 375 450
#
# _framework density 25.669446000000001
#
# number of rings (size 3 to 8) (size 9 to 14) (size 15 to 20)
#    0.000    0.800    0.000    6.600    0.000   11.200 
#    0.000   13.000    0.000    0.000    0.000    0.000 
#    0.000    0.000    0.000    0.000    0.000    0.000 
#
# Total GULP energy -111986.374750 kJ/mol
# GULP energy per Si atom -5599.318738 kJ/mol
# Density = 2.561102 g / cm^3
# Si number density = 25.669446 Si / 1000 Ang^3
#
#
#
# Elastic Constant Matrix: (Units=GPa)
#
#
# Indices 1 2 3 4 5 6 
#
# 1 140.1137 42.7929 47.2134 0.0000 3.4522 0.0000
# 2 42.7929 163.3428 80.7321 0.0000 -14.4934 0.0000
# 3 47.2134 80.7321 194.6402 0.0000 -23.0641 0.0000
# 4 0.0000 0.0000 0.0000 54.4570 0.0000 -2.2273
# 5 3.4522 -14.4934 -23.0641 0.0000 44.5184 0.0000
# 6 0.0000 0.0000 0.0000 -2.2273 0.0000 36.7806
#
#
#
# Elastic Compliance Matrix: (Units=1/GPa)
#
#
# Indices 1 2 3 4 5 6 
#
# 1 0.008187 -0.001537 -0.001580 0.000000 -0.001954 0.000000
# 2 -0.001537 0.008024 -0.002804 0.000000 0.001279 0.000000
# 3 -0.001580 -0.002804 0.007021 0.000000 0.002847 0.000000
# 4 0.000000 0.000000 0.000000 0.018409 0.000000 0.001115
# 5 -0.001954 0.001279 0.002847 0.000000 0.024506 0.000000
# 6 0.000000 0.000000 0.000000 0.001115 0.000000 0.027256
#
#
# Mechanical properties :
#
#
# Convention : Reuss Voigt Hill
#
# Bulk Modulus (GPa) = 87.79207 93.28595 90.53901
# Shear Modulus (GPa) = 45.85427 48.97509 47.41468
#
# Velocity S-wave (km/s) = 4.23109 4.37271 4.30248
# Velocity P-wave (km/s) = 7.62527 7.86856 7.74787
#
# Compressibility (1/GPa) = 0.01139055
#
# Stress axis : x y z
#
# Youngs Moduli (GPa) = 122.14371 124.62465 142.42616
#
# Poissons Ratio (x) = 0.19160 0.22500
# Poissons Ratio (y) = 0.18779 0.39932
# Poissons Ratio (z) = 0.19296 0.34941
#
# Static dielectric constant tensor:
#      x y z
#    x 2.025240 0.000000 0.003600 
#    y 0.000000 2.059270 0.000000 
#    z 0.003600 0.000000 2.106890 
# 
# From -- ./inp_files/20755.got.cif
#   From: 2010.05.17/outbox.cif.g08.bks.cpg/sg14_11_cif.got.tgz:20755.got - 2010.06.03 17:49:19.
