data_PCOD9252219
_publ_section_title
;
Structure prediction by ZEFSAII (Michael W. Deem and Ramdas Pophale) SiO2 
 PCOD9252219
Probable space group: P 21/C
;
_chemical_formula_sum "Si O2"
_cell_formula_units_Z 24
_cell_length_a 8.368705
_cell_length_b 14.665058
_cell_length_c 13.932075
_cell_angle_alpha 90.000000
_cell_angle_beta 145.934258
_cell_angle_gamma 90.000000
_cell_volume 957.761487
_symmetry_space_group_name_H-M "P 21/C"
_symmetry_group_IT_number 14
_symmetry_cell_setting 'monoclinic'
loop_
_space_group_symop_operation_xyz
x,y,z
-x,1/2+y,1/2-z
-x,-y,-z
x,1/2-y,1/2+z
loop_
_atom_site_type_symbol
_atom_site_label
_atom_site_fract_x
_atom_site_fract_y
_atom_site_fract_z
Si Si1 0.256690 0.518870 0.058271
Si Si2 0.028858 0.043812 0.243857
Si Si3 0.558142 0.804194 0.649433
Si Si4 0.840703 0.752197 0.976059
Si Si5 0.165215 0.572897 0.642440
Si Si6 0.327129 0.685615 0.358308
O O1 0.359526 0.623466 0.107853
O O2 0.508726 0.449690 0.209078
O O3 0.179591 0.490428 0.913652
O O4 0.000000 0.500000 0.000000
O O5 0.208023 0.125976 0.281585
O O6 0.723735 0.087167 0.118252
O O7 0.054445 0.953551 0.192249
O O8 0.701436 0.737150 0.800527
O O9 0.388460 0.754254 0.478641
O O10 0.588141 0.794935 0.916233
O O11 0.073278 0.828846 0.066909
O O12 0.035071 0.694530 0.148328
O O13 0.000000 0.500000 0.500000
#
# Coordination Sequence:
#
# PCOD9252219 Si02
#       6
#     4   4   4   4   4   4
#     4  11  23  46  75 103 139 185 244 300 357 420
#     4  11  23  45  71 102 138 186 236 293 357 423
#     4  11  24  49  70 105 147 188 237 302 363 425
#     4  12  26  46  73 103 142 192 240 293 364 433
#     4  11  23  45  71 100 140 183 241 297 353 422
#     4  12  27  46  69 107 147 188 238 293 366 443
#
# _framework density 25.058433000000001
#
# number of rings (size 3 to 8) (size 9 to 14) (size 15 to 20)
#    0.000    0.667    5.000    5.000    2.333    0.667 
#    3.000    0.000    0.000    0.000    0.000    0.000 
#    0.000    0.000    0.000    0.000    0.000    0.000 
#
# Total GULP energy -134153.272000 kJ/mol
# GULP energy per Si atom -5589.719667 kJ/mol
# Density = 2.500140 g / cm^3
# Si number density = 25.058433 Si / 1000 Ang^3
#
#
#
# Elastic Constant Matrix: (Units=GPa)
#
#
# Indices 1 2 3 4 5 6 
#
# 1 110.1052 -6.9800 63.8628 0.0000 -13.5301 0.0000
# 2 -6.9800 57.1251 20.8390 0.0000 -26.5171 0.0000
# 3 63.8628 20.8390 109.3772 0.0000 -43.0412 0.0000
# 4 0.0000 0.0000 0.0000 32.3642 0.0000 -8.9247
# 5 -13.5301 -26.5171 -43.0412 0.0000 26.9355 0.0000
# 6 0.0000 0.0000 0.0000 -8.9247 0.0000 37.3590
#
#
#
# Elastic Compliance Matrix: (Units=1/GPa)
#
#
# Indices 1 2 3 4 5 6 
#
# 1 0.016912 -0.001816 -0.018559 0.000000 -0.022950 0.000000
# 2 -0.001816 0.051219 0.029055 0.000000 0.095939 0.000000
# 3 -0.018559 0.029055 0.059351 0.000000 0.114121 0.000000
# 4 0.000000 0.000000 0.000000 0.033077 0.000000 0.007902
# 5 -0.022950 0.095939 0.114121 0.000000 0.302404 0.000000
# 6 0.000000 0.000000 0.000000 0.007902 0.000000 0.028655
#
#
# Mechanical properties :
#
#
# Convention : Reuss Voigt Hill
#
# Bulk Modulus (GPa) = 6.90413 48.00567 27.45490
# Shear Modulus (GPa) = 9.56867 32.59077 21.07972
#
# Velocity S-wave (km/s) = 1.95623 3.61028 2.90353
# Velocity P-wave (km/s) = 2.80422 6.04797 4.71389
#
# Compressibility (1/GPa) = 0.14484089
#
# Stress axis : x y z
#
# Youngs Moduli (GPa) = 59.13107 19.52417 16.84890
#
# Poissons Ratio (x) = 0.03546 0.31270
# Poissons Ratio (y) = 0.10740 -0.48955
# Poissons Ratio (z) = 1.09742 -0.56728
#
# Static dielectric constant tensor:
#      x y z
#    x 1.883530 0.000000 0.023230 
#    y 0.000000 2.039050 0.000000 
#    z 0.023230 0.000000 1.995560 
# 
# From -- ./inp_files/41863.got.cif
#   From: 2010.05.17/outbox.cif.g08.bks.cpg/sg14_21_cif.got.tgz:41863.got - 2010.06.03 17:49:19.
