data_PCOD9252370
_publ_section_title
;
Structure prediction by ZEFSAII (Michael W. Deem and Ramdas Pophale) SiO2 
 PCOD9252370
Probable space group: P 21/C
;
_chemical_formula_sum "Si O2"
_cell_formula_units_Z 16
_cell_length_a 24.793777
_cell_length_b 5.148078
_cell_length_c 13.740501
_cell_angle_alpha 90.000000
_cell_angle_beta 25.146688
_cell_angle_gamma 90.000000
_cell_volume 745.272544
_symmetry_space_group_name_H-M "P 21/C"
_symmetry_group_IT_number 14
_symmetry_cell_setting 'monoclinic'
loop_
_space_group_symop_operation_xyz
x,y,z
-x,1/2+y,1/2-z
-x,-y,-z
x,1/2-y,1/2+z
loop_
_atom_site_type_symbol
_atom_site_label
_atom_site_fract_x
_atom_site_fract_y
_atom_site_fract_z
Si Si1 0.682387 0.091604 0.651584
Si Si2 0.691660 0.157206 0.858067
Si Si3 0.911189 0.246517 0.140403
Si Si4 0.562107 0.573981 0.755947
O O1 0.703147 0.046361 0.731450
O O2 0.809414 0.202456 0.393186
O O3 0.584343 0.323907 0.787506
O O4 0.627442 0.830371 0.693814
O O5 0.825244 0.245418 0.683766
O O6 0.585911 0.381105 0.021068
O O7 0.630960 0.975449 0.040260
O O8 0.000000 0.500000 0.000000
O O9 0.000000 0.000000 0.000000
#
# Coordination Sequence:
#
# PCOD9252370 Si02
#       4
#     4   4   4   4
#     4  11  25  43  69  99 131 171 218 268 333 397
#     4  11  24  44  70  95 136 176 208 275 336 379
#     4  11  25  43  62  93 130 170 224 264 304 382
#     4  11  24  42  67 105 131 161 218 271 331 404
#
# _framework density 21.468654000000001
#
# number of rings (size 3 to 8) (size 9 to 14) (size 15 to 20)
#    0.000    1.000    0.000    7.500    0.000   12.000 
#    0.000    0.000    0.000    0.000    0.000    0.000 
#    0.000    0.000    0.000    0.000    0.000    0.000 
#
# Total GULP energy -89555.562753 kJ/mol
# GULP energy per Si atom -5597.222672 kJ/mol
# Density = 2.141979 g / cm^3
# Si number density = 21.468654 Si / 1000 Ang^3
#
#
#
# Elastic Constant Matrix: (Units=GPa)
#
#
# Indices 1 2 3 4 5 6 
#
# 1 197.0929 52.2004 45.3662 0.0000 -13.9153 0.0000
# 2 52.2004 104.8990 19.6408 0.0000 -18.7527 0.0000
# 3 45.3662 19.6408 96.0361 0.0000 -34.6296 0.0000
# 4 0.0000 0.0000 0.0000 36.1096 0.0000 -0.0692
# 5 -13.9153 -18.7527 -34.6296 0.0000 40.8607 0.0000
# 6 0.0000 0.0000 0.0000 -0.0692 0.0000 27.0388
#
#
#
# Elastic Compliance Matrix: (Units=1/GPa)
#
#
# Indices 1 2 3 4 5 6 
#
# 1 0.006436 -0.002943 -0.003075 0.000000 -0.001765 0.000000
# 2 -0.002943 0.011753 0.000821 0.000000 0.005088 0.000000
# 3 -0.003075 0.000821 0.016497 0.000000 0.013311 0.000000
# 4 0.000000 0.000000 0.000000 0.027694 0.000000 0.000071
# 5 -0.001765 0.005088 0.013311 0.000000 0.037488 0.000000
# 6 0.000000 0.000000 0.000000 0.000071 0.000000 0.036984
#
#
# Mechanical properties :
#
#
# Convention : Reuss Voigt Hill
#
# Bulk Modulus (GPa) = 41.16348 70.27144 55.71746
# Shear Modulus (GPa) = 32.18669 39.52319 35.85494
#
# Velocity S-wave (km/s) = 3.87620 4.29531 4.09113
# Velocity P-wave (km/s) = 6.26488 7.57646 6.95167
#
# Compressibility (1/GPa) = 0.02429338
#
# Stress axis : x y z
#
# Youngs Moduli (GPa) = 155.36925 85.08405 60.61634
#
# Poissons Ratio (x) = 0.25037 0.18639
# Poissons Ratio (y) = 0.45719 -0.04976
# Poissons Ratio (z) = 0.47774 -0.06984
#
# Static dielectric constant tensor:
#      x y z
#    x 1.780360 0.000000 0.028580 
#    y 0.000000 1.776280 0.000000 
#    z 0.028580 0.000000 1.793480 
# 
# From -- ./inp_files/49421.got.cif
#   From: 2010.05.17/outbox.cif.g08.bks.cpg/sg14_25_cif.got.tgz:49421.got - 2010.06.03 17:49:19.
