data_PCOD9252390
_publ_section_title
;
Structure prediction by ZEFSAII (Michael W. Deem and Ramdas Pophale) SiO2 
 PCOD9252390
Probable space group: P 21/C
;
_chemical_formula_sum "Si O2"
_cell_formula_units_Z 32
_cell_length_a 14.235987
_cell_length_b 9.532340
_cell_length_c 12.143457
_cell_angle_alpha 90.000000
_cell_angle_beta 68.132805
_cell_angle_gamma 90.000000
_cell_volume 1529.328076
_symmetry_space_group_name_H-M "P 21/C"
_symmetry_group_IT_number 14
_symmetry_cell_setting 'monoclinic'
loop_
_space_group_symop_operation_xyz
x,y,z
-x,1/2+y,1/2-z
-x,-y,-z
x,1/2-y,1/2+z
loop_
_atom_site_type_symbol
_atom_site_label
_atom_site_fract_x
_atom_site_fract_y
_atom_site_fract_z
Si Si1 0.270358 0.869792 0.017381
Si Si2 0.325398 0.338017 0.094963
Si Si3 0.195023 0.591834 0.144526
Si Si4 0.590728 0.616374 0.161449
Si Si5 0.743415 0.925673 0.786720
Si Si6 0.904408 0.406766 0.582653
Si Si7 0.895232 0.075019 0.557968
Si Si8 0.470686 0.696152 0.863334
O O1 0.215643 0.756451 0.121211
O O2 0.290734 0.000024 0.086665
O O3 0.196245 0.920814 0.951252
O O4 0.370333 0.785132 0.935958
O O5 0.293609 0.498595 0.129088
O O6 0.242998 0.237428 0.187794
O O7 0.435551 0.296416 0.092814
O O8 0.333563 0.320034 0.961033
O O9 0.119547 0.563583 0.278509
O O10 0.161339 0.554140 0.034762
O O11 0.652225 0.570548 0.241177
O O12 0.548390 0.469660 0.135782
O O13 0.510812 0.733201 0.233194
O O14 0.833408 0.004137 0.684573
O O15 0.918322 0.238885 0.567028
O O16 0.000000 0.500000 0.500000
O O17 0.000000 0.000000 0.500000
#
# Coordination Sequence:
#
# PCOD9252390 Si02
#       8
#     4   4   4   4   4   4   4   4
#     4  11  25  45  70 100 140 189 227 293 351 422
#     4  11  25  41  66 101 136 184 238 286 345 422
#     4  11  24  46  72  96 145 183 232 289 352 421
#     4  11  24  43  62  99 138 183 232 289 349 414
#     4  11  25  44  66  98 139 179 230 288 362 417
#     4  11  27  45  71 109 134 182 241 286 355 429
#     4  11  25  46  70 101 141 182 226 297 366 413
#     4  11  26  39  69  98 140 182 236 288 349 418
#
# _framework density 20.924222
#
# number of rings (size 3 to 8) (size 9 to 14) (size 15 to 20)
#    0.000    1.000    3.750    1.125    8.750    3.000 
#    0.000    0.000    0.000    0.000    0.000    0.000 
#    0.000    0.000    0.000    0.000    0.000    0.000 
#
# Total GULP energy -178485.705426 kJ/mol
# GULP energy per Si atom -5577.678295 kJ/mol
# Density = 2.087660 g / cm^3
# Si number density = 20.924222 Si / 1000 Ang^3
#
#
#
# Elastic Constant Matrix: (Units=GPa)
#
#
# Indices 1 2 3 4 5 6 
#
# 1 64.2184 34.4530 14.4032 0.0000 -5.4204 0.0000
# 2 34.4530 76.8050 40.2539 0.0000 5.0089 0.0000
# 3 14.4032 40.2539 101.3654 0.0000 -14.8521 0.0000
# 4 0.0000 0.0000 0.0000 38.8074 0.0000 -7.3514
# 5 -5.4204 5.0089 -14.8521 0.0000 26.7417 0.0000
# 6 0.0000 0.0000 0.0000 -7.3514 0.0000 33.4203
#
#
#
# Elastic Compliance Matrix: (Units=1/GPa)
#
#
# Indices 1 2 3 4 5 6 
#
# 1 0.022012 -0.011877 0.002796 0.000000 0.008239 0.000000
# 2 -0.011877 0.024273 -0.009765 0.000000 -0.012377 0.000000
# 3 0.002796 -0.009765 0.014910 0.000000 0.010677 0.000000
# 4 0.000000 0.000000 0.000000 0.026889 0.000000 0.005915
# 5 0.008239 -0.012377 0.010677 0.000000 0.047313 0.000000
# 6 0.000000 0.000000 0.000000 0.005915 0.000000 0.031223
#
#
# Mechanical properties :
#
#
# Convention : Reuss Voigt Hill
#
# Bulk Modulus (GPa) = 42.54728 46.73435 44.64082
# Shear Modulus (GPa) = 23.56869 30.01247 26.79058
#
# Velocity S-wave (km/s) = 3.35980 3.79138 3.58210
# Velocity P-wave (km/s) = 5.95224 6.44590 6.20398
#
# Compressibility (1/GPa) = 0.02350326
#
# Stress axis : x y z
#
# Youngs Moduli (GPa) = 45.42963 41.19846 67.06799
#
# Poissons Ratio (x) = 0.48931 -0.18752
# Poissons Ratio (y) = 0.53956 0.65492
# Poissons Ratio (z) = -0.12702 0.40230
#
# Static dielectric constant tensor:
#      x y z
#    x 1.760440 0.000000 0.013380 
#    y 0.000000 1.765050 0.000000 
#    z 0.013380 0.000000 1.658970 
# 
# From -- ./inp_files/31798.got.cif
#   From: 2010.05.17/outbox.cif.g08.bks.cpg/sg14_16_cif.got.tgz:31798.got - 2010.06.03 17:49:19.
