data_PCOD9252792
_publ_section_title
;
Structure prediction by ZEFSAII (Michael W. Deem and Ramdas Pophale) SiO2 
 PCOD9252792
Probable space group: P 21/C
;
_chemical_formula_sum "Si O2"
_cell_formula_units_Z 24
_cell_length_a 25.483268
_cell_length_b 8.657405
_cell_length_c 8.258799
_cell_angle_alpha 90.000000
_cell_angle_beta 146.677253
_cell_angle_gamma 90.000000
_cell_volume 1000.950307
_symmetry_space_group_name_H-M "P 21/C"
_symmetry_group_IT_number 14
_symmetry_cell_setting 'monoclinic'
loop_
_space_group_symop_operation_xyz
x,y,z
-x,1/2+y,1/2-z
-x,-y,-z
x,1/2-y,1/2+z
loop_
_atom_site_type_symbol
_atom_site_label
_atom_site_fract_x
_atom_site_fract_y
_atom_site_fract_z
Si Si1 0.234250 0.478382 0.883323
Si Si2 0.547786 0.867501 0.519444
Si Si3 0.886237 0.476842 0.893791
Si Si4 0.926165 0.168482 0.155431
Si Si5 0.417858 0.579789 0.183991
Si Si6 0.735833 0.828614 0.188621
O O1 0.140228 0.581508 0.646701
O O2 0.215194 0.337593 0.708592
O O3 0.321294 0.582910 0.039676
O O4 0.261254 0.398631 0.123941
O O5 0.466937 0.742802 0.261299
O O6 0.500000 0.000000 0.500000
O O7 0.596031 0.961915 0.499005
O O8 0.630047 0.800057 0.846260
O O9 0.883498 0.387139 0.716637
O O10 0.789904 0.551669 0.711348
O O11 0.920384 0.349364 0.110660
O O12 0.966235 0.608396 0.081197
O O13 0.500000 0.500000 0.500000
#
# Coordination Sequence:
#
# PCOD9252792 Si02
#       6
#     4   4   4   4   4   4
#     4  12  26  46  73 104 147 192 245 299 367 435
#     4  12  27  46  72 104 143 193 246 305 370 440
#     4  11  25  46  75 108 148 187 241 294 363 434
#     4  11  25  46  74 110 144 190 237 298 359 436
#     4  12  25  46  72 103 145 192 246 305 366 440
#     4  12  26  47  72 104 146 195 240 303 364 437
#
# _framework density 23.977214
#
# number of rings (size 3 to 8) (size 9 to 14) (size 15 to 20)
#    0.000    0.333    1.667    7.000    2.333    5.333 
#    3.000    0.000    0.000    0.000    0.000    0.000 
#    0.000    0.000    0.000    0.000    0.000    0.000 
#
# Total GULP energy -134449.961713 kJ/mol
# GULP energy per Si atom -5602.081738 kJ/mol
# Density = 2.392264 g / cm^3
# Si number density = 23.977214 Si / 1000 Ang^3
#
#
#
# Elastic Constant Matrix: (Units=GPa)
#
#
# Indices 1 2 3 4 5 6 
#
# 1 125.8745 34.2427 27.9096 0.0000 -8.5129 0.0000
# 2 34.2427 108.7084 6.3602 0.0000 8.3697 0.0000
# 3 27.9096 6.3602 62.7453 0.0000 -8.7372 0.0000
# 4 0.0000 0.0000 0.0000 40.2240 0.0000 3.7355
# 5 -8.5129 8.3697 -8.7372 0.0000 16.3556 0.0000
# 6 0.0000 0.0000 0.0000 3.7355 0.0000 41.7012
#
#
#
# Elastic Compliance Matrix: (Units=1/GPa)
#
#
# Indices 1 2 3 4 5 6 
#
# 1 0.009941 -0.003324 -0.003379 0.000000 0.005070 0.000000
# 2 -0.003324 0.010877 -0.000691 0.000000 -0.007665 0.000000
# 3 -0.003379 -0.000691 0.018706 0.000000 0.008588 0.000000
# 4 0.000000 0.000000 0.000000 0.025069 0.000000 -0.002246
# 5 0.005070 -0.007665 0.008588 0.000000 0.072290 0.000000
# 6 0.000000 0.000000 0.000000 -0.002246 0.000000 0.024181
#
#
# Mechanical properties :
#
#
# Convention : Reuss Voigt Hill
#
# Bulk Modulus (GPa) = 40.42786 48.26146 44.34466
# Shear Modulus (GPa) = 27.15946 34.91056 31.03501
#
# Velocity S-wave (km/s) = 3.36924 3.81988 3.60162
# Velocity P-wave (km/s) = 5.65979 6.29500 5.98583
#
# Compressibility (1/GPa) = 0.02473542
#
# Stress axis : x y z
#
# Youngs Moduli (GPa) = 100.59647 91.94079 53.45787
#
# Poissons Ratio (x) = 0.30561 0.18062
# Poissons Ratio (y) = 0.33438 0.03696
# Poissons Ratio (z) = 0.33989 0.06356
#
# Static dielectric constant tensor:
#      x y z
#    x 2.001560 0.000000 -0.057200 
#    y 0.000000 1.165210 0.000000 
#    z -0.057200 0.000000 1.938790 
# 
# From -- ./inp_files/19700.got.cif
#   From: 2010.05.17/outbox.cif.g08.bks.cpg/sg14_10_cif.got.tgz:19700.got - 2010.06.03 17:49:19.
