data_PCOD9252372
_publ_section_title
;
Structure prediction by ZEFSAII (Michael W. Deem and Ramdas Pophale) SiO2 
 PCOD9252372
Probable space group: P 21/C
;
_chemical_formula_sum "Si O2"
_cell_formula_units_Z 16
_cell_length_a 8.418205
_cell_length_b 7.975075
_cell_length_c 9.595002
_cell_angle_alpha 90.000000
_cell_angle_beta 88.211152
_cell_angle_gamma 90.000000
_cell_volume 643.854359
_symmetry_space_group_name_H-M "P 21/C"
_symmetry_group_IT_number 14
_symmetry_cell_setting 'monoclinic'
loop_
_space_group_symop_operation_xyz
x,y,z
-x,1/2+y,1/2-z
-x,-y,-z
x,1/2-y,1/2+z
loop_
_atom_site_type_symbol
_atom_site_label
_atom_site_fract_x
_atom_site_fract_y
_atom_site_fract_z
Si Si1 0.517514 0.608479 0.218929
Si Si2 0.866822 0.602666 0.326634
Si Si3 0.385138 0.787723 0.448519
Si Si4 0.052022 0.734456 0.062755
O O1 0.688994 0.636595 0.281500
O O2 0.390329 0.628912 0.346260
O O3 0.525247 0.429793 0.142698
O O4 0.471408 0.732249 0.093487
O O5 0.885704 0.413215 0.380306
O O6 0.983040 0.632445 0.193073
O O7 0.920933 0.723773 0.450359
O O8 0.206621 0.844744 0.486323
#
# Coordination Sequence:
#
# PCOD9252372 Si02
#       4
#     4   4   4   4
#     4  11  24  42  67  95 129 170 214 262 319 379
#     4  11  24  42  67  95 129 170 214 262 319 379
#     4  11  25  44  66  95 132 169 212 266 318 378
#     4  11  25  44  66  95 132 169 212 266 318 378
#
# _framework density 24.850341
#
# number of rings (size 3 to 8) (size 9 to 14) (size 15 to 20)
#    0.000    1.000    0.000    6.000    0.000   16.000 
#    0.000    0.000    0.000    0.000    0.000    0.000 
#    0.000    0.000    0.000    0.000    0.000    0.000 
#
# Total GULP energy -89726.022890 kJ/mol
# GULP energy per Si atom -5607.876431 kJ/mol
# Density = 2.479378 g / cm^3
# Si number density = 24.850341 Si / 1000 Ang^3
#
#
#
# Elastic Constant Matrix: (Units=GPa)
#
#
# Indices 1 2 3 4 5 6 
#
# 1 77.6088 -6.1267 50.4695 0.0000 19.2747 0.0000
# 2 -6.1267 48.1923 26.7858 0.0000 -0.3254 0.0000
# 3 50.4695 26.7858 156.8563 0.0000 24.6161 0.0000
# 4 0.0000 0.0000 0.0000 54.5637 0.0000 -6.4536
# 5 19.2747 -0.3254 24.6161 0.0000 56.8430 0.0000
# 6 0.0000 0.0000 0.0000 -6.4536 0.0000 23.3577
#
#
#
# Elastic Compliance Matrix: (Units=1/GPa)
#
#
# Indices 1 2 3 4 5 6 
#
# 1 0.018333 0.005841 -0.006358 0.000000 -0.003430 0.000000
# 2 0.005841 0.024993 -0.006286 0.000000 0.000885 0.000000
# 3 -0.006358 -0.006286 0.009830 0.000000 -0.002137 0.000000
# 4 0.000000 0.000000 0.000000 0.018946 0.000000 0.005235
# 5 -0.003430 0.000885 -0.002137 0.000000 0.019686 0.000000
# 6 0.000000 0.000000 0.000000 0.005235 0.000000 0.044259
#
#
# Mechanical properties :
#
#
# Convention : Reuss Voigt Hill
#
# Bulk Modulus (GPa) = 25.28481 47.21273 36.24877
# Shear Modulus (GPa) = 30.70593 41.05479 35.88036
#
# Velocity S-wave (km/s) = 3.51897 4.06899 3.80394
# Velocity P-wave (km/s) = 5.16796 6.41215 5.82338
#
# Compressibility (1/GPa) = 0.03954943
#
# Stress axis : x y z
#
# Youngs Moduli (GPa) = 54.54756 40.01161 101.73147
#
# Poissons Ratio (x) = -0.23372 0.64680
# Poissons Ratio (y) = -0.31863 0.63951
# Poissons Ratio (z) = 0.34681 0.25152
#
# Static dielectric constant tensor:
#      x y z
#    x 1.896610 0.000000 -0.000580 
#    y 0.000000 2.024110 0.000000 
#    z -0.000580 0.000000 1.935870 
# 
# From -- ./inp_files/7242.got.cif
#   From: 2010.05.17/outbox.cif.g08.bks.cpg/sg14_4_cif.got.tgz:7242.got - 2010.06.03 17:49:19.
