data_PCOD9252928
_publ_section_title
;
Structure prediction by ZEFSAII (Michael W. Deem and Ramdas Pophale) SiO2 
 PCOD9252928
Probable space group: P 21/C
;
_chemical_formula_sum "Si O2"
_cell_formula_units_Z 28
_cell_length_a 11.034846
_cell_length_b 8.102412
_cell_length_c 14.978308
_cell_angle_alpha 90.000000
_cell_angle_beta 129.509930
_cell_angle_gamma 90.000000
_cell_volume 1033.207035
_symmetry_space_group_name_H-M "P 21/C"
_symmetry_group_IT_number 14
_symmetry_cell_setting 'monoclinic'
loop_
_space_group_symop_operation_xyz
x,y,z
-x,1/2+y,1/2-z
-x,-y,-z
x,1/2-y,1/2+z
loop_
_atom_site_type_symbol
_atom_site_label
_atom_site_fract_x
_atom_site_fract_y
_atom_site_fract_z
Si Si1 0.648290 0.554885 0.307394
Si Si2 0.916702 0.872520 0.048420
Si Si3 0.405192 0.094494 0.803216
Si Si4 0.806290 0.754327 0.660225
Si Si5 0.144053 0.777576 0.892847
Si Si6 0.358060 0.919084 0.377080
Si Si7 0.146430 0.878631 0.582370
O O1 0.830874 0.590103 0.414903
O O2 0.585705 0.727076 0.240087
O O3 0.568718 0.496094 0.362122
O O4 0.607556 0.420472 0.212105
O O5 0.898060 0.036395 0.098745
O O6 0.812268 0.744815 0.056704
O O7 0.922956 0.224549 0.893988
O O8 0.329705 0.139210 0.862983
O O9 0.280474 0.979407 0.694001
O O10 0.772825 0.938396 0.676649
O O11 0.978723 0.706822 0.777771
O O12 0.282983 0.741749 0.887377
O O13 0.192720 0.686696 0.006781
O O14 0.500000 0.000000 0.500000
O O15 0.000000 0.000000 0.500000
#
# Coordination Sequence:
#
# PCOD9252928 Si02
#       7
#     4   4   4   4   4   4   4
#     4  11  27  49  75 113 153 203 263 314 394 468
#     4  12  28  45  77 115 152 198 262 321 380 469
#     4  11  26  48  76 109 152 203 253 319 388 468
#     4  11  26  49  71 112 152 198 262 321 393 459
#     4  12  26  46  74 113 153 198 261 320 383 465
#     4  11  26  49  78 107 155 209 252 320 401 466
#     4  12  22  46  76 106 149 201 247 311 389 452
#
# _framework density 27.100086999999998
#
# number of rings (size 3 to 8) (size 9 to 14) (size 15 to 20)
#    0.000    0.571    2.857    3.857   10.000    2.857 
#    0.000    0.000    0.000    0.000    0.000    0.000 
#    0.000    0.000    0.000    0.000    0.000    0.000 
#
# Total GULP energy -157012.013260 kJ/mol
# GULP energy per Si atom -5607.571902 kJ/mol
# Density = 2.703841 g / cm^3
# Si number density = 27.100087 Si / 1000 Ang^3
#
#
#
# Elastic Constant Matrix: (Units=GPa)
#
#
# Indices 1 2 3 4 5 6 
#
# 1 110.0054 38.5881 40.3579 0.0000 -1.6548 0.0000
# 2 38.5881 107.8704 14.1294 0.0000 -7.1469 0.0000
# 3 40.3579 14.1294 93.1838 0.0000 1.3044 0.0000
# 4 0.0000 0.0000 0.0000 41.4713 0.0000 -2.6387
# 5 -1.6548 -7.1469 1.3044 0.0000 54.8762 0.0000
# 6 0.0000 0.0000 0.0000 -2.6387 0.0000 57.3337
#
#
#
# Elastic Compliance Matrix: (Units=1/GPa)
#
#
# Indices 1 2 3 4 5 6 
#
# 1 0.012113 -0.003720 -0.004682 0.000000 -0.000008 0.000000
# 2 -0.003720 0.010690 -0.000027 0.000000 0.001281 0.000000
# 3 -0.004682 -0.000027 0.012770 0.000000 -0.000448 0.000000
# 4 0.000000 0.000000 0.000000 0.024184 0.000000 0.001113
# 5 -0.000008 0.001281 -0.000448 0.000000 0.018400 0.000000
# 6 0.000000 0.000000 0.000000 0.001113 0.000000 0.017493
#
#
# Mechanical properties :
#
#
# Convention : Reuss Voigt Hill
#
# Bulk Modulus (GPa) = 53.43941 55.24557 54.34249
# Shear Modulus (GPa) = 42.10646 45.26853 43.68750
#
# Velocity S-wave (km/s) = 3.94603 4.09151 4.01943
# Velocity P-wave (km/s) = 6.36581 6.53840 6.45268
#
# Compressibility (1/GPa) = 0.01871278
#
# Stress axis : x y z
#
# Youngs Moduli (GPa) = 82.55542 93.54773 78.31062
#
# Poissons Ratio (x) = 0.34804 0.36664
# Poissons Ratio (y) = 0.30714 0.00215
# Poissons Ratio (z) = 0.38652 0.00257
#
# Static dielectric constant tensor:
#      x y z
#    x 2.150310 0.000000 -0.032950 
#    y 0.000000 2.132140 0.000000 
#    z -0.032950 0.000000 2.078400 
# 
# From -- ./inp_files/43813.got.cif
#   From: 2010.05.17/outbox.cif.g08.bks.cpg/sg14_22_cif.got.tgz:43813.got - 2010.06.03 17:49:19.
