data_PCOD9252035
_publ_section_title
;
Structure prediction by ZEFSAII (Michael W. Deem and Ramdas Pophale) SiO2 
 PCOD9252035
Probable space group: P 21/C
;
_chemical_formula_sum "Si O2"
_cell_formula_units_Z 22
_cell_length_a 5.163894
_cell_length_b 17.592289
_cell_length_c 9.059006
_cell_angle_alpha 90.000000
_cell_angle_beta 91.014555
_cell_angle_gamma 90.000000
_cell_volume 822.833807
_symmetry_space_group_name_H-M "P 21/C"
_symmetry_group_IT_number 14
_symmetry_cell_setting 'monoclinic'
loop_
_space_group_symop_operation_xyz
x,y,z
-x,1/2+y,1/2-z
-x,-y,-z
x,1/2-y,1/2+z
loop_
_atom_site_type_symbol
_atom_site_label
_atom_site_fract_x
_atom_site_fract_y
_atom_site_fract_z
Si Si1 0.187780 0.920587 0.281481
Si Si2 0.000000 0.500000 0.500000
Si Si3 0.057461 0.383159 0.724367
Si Si4 0.289159 0.401870 0.028924
Si Si5 0.399270 0.265067 0.602005
Si Si6 0.748373 0.258134 0.350530
O O1 0.200272 0.967496 0.130206
O O2 0.435005 0.920416 0.393197
O O3 0.142039 0.834355 0.219304
O O4 0.934815 0.938438 0.375353
O O5 0.109483 0.558770 0.372850
O O6 0.233735 0.341155 0.601438
O O7 0.890045 0.319135 0.807220
O O8 0.239689 0.417498 0.855962
O O9 0.263818 0.310528 0.044631
O O10 0.672479 0.268950 0.519302
O O11 0.465405 0.249331 0.772480
#
# Coordination Sequence:
#
# PCOD9252035 Si02
#       6
#     4   2   4   4   4   4
#     4  11  27  52  77 120 158 221 265 341 409 495
#     4  12  32  50  80 122 172 220 266 350 424 504
#     4  12  26  49  77 123 163 215 275 342 420 500
#     4  11  25  49  81 110 164 212 277 331 406 489
#     4  11  23  41  78 116 151 208 268 345 398 473
#     4  11  23  44  76 116 159 204 279 340 400 482
#
# _framework density 26.73687
#
# number of rings (size 3 to 8) (size 9 to 14) (size 15 to 20)
#    0.000    0.727    3.636    3.273    7.636    2.182 
#    3.273    0.000    0.000    0.000    0.000    0.000 
#    0.000    0.000    0.000    0.000    0.000    0.000 
#
# Total GULP energy -122625.101579 kJ/mol
# GULP energy per Si atom -5573.868254 kJ/mol
# Density = 2.667602 g / cm^3
# Si number density = 26.736870 Si / 1000 Ang^3
#
#
#
# Elastic Constant Matrix: (Units=GPa)
#
#
# Indices 1 2 3 4 5 6 
#
# 1 103.8904 28.0187 65.7364 0.0000 -6.9024 0.0000
# 2 28.0187 61.4813 54.0694 0.0000 -8.2103 0.0000
# 3 65.7364 54.0694 241.6360 0.0000 34.8159 0.0000
# 4 0.0000 0.0000 0.0000 38.6513 0.0000 5.5662
# 5 -6.9024 -8.2103 34.8159 0.0000 40.1290 0.0000
# 6 0.0000 0.0000 0.0000 5.5662 0.0000 21.0475
#
#
#
# Elastic Compliance Matrix: (Units=1/GPa)
#
#
# Indices 1 2 3 4 5 6 
#
# 1 0.012893 -0.001791 -0.003856 0.000000 0.005196 0.000000
# 2 -0.001791 0.024007 -0.006341 0.000000 0.010105 0.000000
# 3 -0.003856 -0.006341 0.007873 0.000000 -0.008791 0.000000
# 4 0.000000 0.000000 0.000000 0.026897 0.000000 -0.007113
# 5 0.005196 0.010105 -0.008791 0.000000 0.035508 0.000000
# 6 0.000000 0.000000 0.000000 -0.007113 0.000000 0.049393
#
#
# Mechanical properties :
#
#
# Convention : Reuss Voigt Hill
#
# Bulk Modulus (GPa) = 48.08028 78.07298 63.07663
# Shear Modulus (GPa) = 26.66984 37.24444 31.95714
#
# Velocity S-wave (km/s) = 3.16174 3.73634 3.46098
# Velocity P-wave (km/s) = 5.59916 6.91936 6.29397
#
# Compressibility (1/GPa) = 0.02079855
#
# Stress axis : x y z
#
# Youngs Moduli (GPa) = 77.55893 41.65460 127.02078
#
# Poissons Ratio (x) = 0.07461 0.48973
# Poissons Ratio (y) = 0.13893 0.80538
# Poissons Ratio (z) = 0.29903 0.26411
#
# Static dielectric constant tensor:
#      x y z
#    x 2.045210 0.000000 -0.003040 
#    y 0.000000 2.266520 0.000000 
#    z -0.003040 0.000000 1.998990 
# 
# From -- ./inp_files/6025.got.cif
#   From: 2010.05.17/outbox.cif.g08.bks.cpg/sg14_4_cif.got.tgz:6025.got - 2010.06.03 17:49:19.
