data_PCOD9252093
_publ_section_title
;
Structure prediction by ZEFSAII (Michael W. Deem and Ramdas Pophale) SiO2 
 PCOD9252093
Probable space group: P 21/C
;
_chemical_formula_sum "Si O2"
_cell_formula_units_Z 24
_cell_length_a 23.352178
_cell_length_b 5.490432
_cell_length_c 9.300529
_cell_angle_alpha 90.000000
_cell_angle_beta 70.588841
_cell_angle_gamma 90.000000
_cell_volume 1124.672276
_symmetry_space_group_name_H-M "P 21/C"
_symmetry_group_IT_number 14
_symmetry_cell_setting 'monoclinic'
loop_
_space_group_symop_operation_xyz
x,y,z
-x,1/2+y,1/2-z
-x,-y,-z
x,1/2-y,1/2+z
loop_
_atom_site_type_symbol
_atom_site_label
_atom_site_fract_x
_atom_site_fract_y
_atom_site_fract_z
Si Si1 0.681061 0.244866 0.851817
Si Si2 0.568945 0.988913 0.395284
Si Si3 0.634984 0.686521 0.585338
Si Si4 0.115404 0.016689 0.572033
Si Si5 0.741015 0.986525 0.554882
Si Si6 0.072875 0.511928 0.443316
O O1 0.613767 0.281093 0.839072
O O2 0.726623 0.184602 0.686763
O O3 0.716953 0.439666 0.918257
O O4 0.665408 0.035528 0.977905
O O5 0.605851 0.857827 0.490322
O O6 0.578203 0.861505 0.236235
O O7 0.500000 0.000000 0.500000
O O8 0.690836 0.782400 0.635605
O O9 0.188087 0.054194 0.507369
O O10 0.091174 0.263699 0.514378
O O11 0.095696 0.996480 0.757156
O O12 0.095569 0.764206 0.504520
O O13 0.000000 0.500000 0.500000
#
# Coordination Sequence:
#
# PCOD9252093 Si02
#       6
#     4   4   4   4   4   4
#     4  11  23  43  62  91 131 167 210 284 335 393
#     4  11  26  41  64  92 122 172 220 268 339 417
#     4  11  24  42  61  90 127 166 206 281 333 389
#     4  12  27  44  78 108 145 200 243 298 357 438
#     4  11  25  41  68  94 133 168 228 273 346 409
#     4  12  26  49  73 111 152 194 243 298 357 422
#
# _framework density 21.339549000000002
#
# number of rings (size 3 to 8) (size 9 to 14) (size 15 to 20)
#    0.000    0.667    3.333    3.500    7.000    0.667 
#    0.000    0.000    0.000    0.000    0.000    0.000 
#    0.000    0.000    0.000    0.000    0.000    0.000 
#
# Total GULP energy -133698.472484 kJ/mol
# GULP energy per Si atom -5570.769687 kJ/mol
# Density = 2.129098 g / cm^3
# Si number density = 21.339549 Si / 1000 Ang^3
#
#
#
# Elastic Constant Matrix: (Units=GPa)
#
#
# Indices 1 2 3 4 5 6 
#
# 1 129.5167 27.7343 25.0970 0.0000 -19.6992 0.0000
# 2 27.7343 62.1719 22.2659 0.0000 0.9485 0.0000
# 3 25.0970 22.2659 150.4726 0.0000 -2.1137 0.0000
# 4 0.0000 0.0000 0.0000 21.9579 0.0000 3.1715
# 5 -19.6992 0.9485 -2.1137 0.0000 32.8394 0.0000
# 6 0.0000 0.0000 0.0000 3.1715 0.0000 33.2127
#
#
#
# Elastic Compliance Matrix: (Units=1/GPa)
#
#
# Indices 1 2 3 4 5 6 
#
# 1 0.009662 -0.004067 -0.000927 0.000000 0.005854 0.000000
# 2 -0.004067 0.018711 -0.002134 0.000000 -0.003118 0.000000
# 3 -0.000927 -0.002134 0.007116 0.000000 -0.000037 0.000000
# 4 0.000000 0.000000 0.000000 0.046179 0.000000 -0.004410
# 5 0.005854 -0.003118 -0.000037 0.000000 0.034050 0.000000
# 6 0.000000 0.000000 0.000000 -0.004410 0.000000 0.030530
#
#
# Mechanical properties :
#
#
# Convention : Reuss Voigt Hill
#
# Bulk Modulus (GPa) = 47.10152 54.70619 50.90385
# Shear Modulus (GPa) = 29.83618 35.40628 32.62123
#
# Velocity S-wave (km/s) = 3.74326 4.07773 3.91407
# Velocity P-wave (km/s) = 6.38772 6.91825 6.65827
#
# Compressibility (1/GPa) = 0.02123074
#
# Stress axis : x y z
#
# Youngs Moduli (GPa) = 103.49816 53.44548 140.53463
#
# Poissons Ratio (x) = 0.21738 0.13034
# Poissons Ratio (y) = 0.42096 0.29991
# Poissons Ratio (z) = 0.09599 0.11406
#
# Static dielectric constant tensor:
#      x y z
#    x 1.759790 0.000000 -0.058180 
#    y 0.000000 2.179880 0.000000 
#    z -0.058180 0.000000 2.201580 
# 
# From -- ./inp_files/19253.got.cif
#   From: 2010.05.17/outbox.cif.g08.bks.cpg/sg14_10_cif.got.tgz:19253.got - 2010.06.03 17:49:19.
