data_PCOD9252981
_publ_section_title
;
Structure prediction by ZEFSAII (Michael W. Deem and Ramdas Pophale) SiO2 
 PCOD9252981
Probable space group: P 21/C
;
_chemical_formula_sum "Si O2"
_cell_formula_units_Z 20
_cell_length_a 11.939797
_cell_length_b 7.126384
_cell_length_c 9.710079
_cell_angle_alpha 90.000000
_cell_angle_beta 65.963057
_cell_angle_gamma 90.000000
_cell_volume 754.560917
_symmetry_space_group_name_H-M "P 21/C"
_symmetry_group_IT_number 14
_symmetry_cell_setting 'monoclinic'
loop_
_space_group_symop_operation_xyz
x,y,z
-x,1/2+y,1/2-z
-x,-y,-z
x,1/2-y,1/2+z
loop_
_atom_site_type_symbol
_atom_site_label
_atom_site_fract_x
_atom_site_fract_y
_atom_site_fract_z
Si Si1 0.611100 0.857288 0.784686
Si Si2 0.738657 0.889769 0.438175
Si Si3 0.018270 0.851989 0.370162
Si Si4 0.654530 0.315280 0.468025
Si Si5 0.120885 0.584929 0.512410
O O1 0.643225 0.854865 0.609020
O O2 0.703375 0.718218 0.817852
O O3 0.629962 0.064163 0.842387
O O4 0.475619 0.790591 0.892744
O O5 0.873317 0.809635 0.414380
O O6 0.725148 0.115271 0.422447
O O7 0.127925 0.743610 0.391710
O O8 0.000000 0.000000 0.500000
O O9 0.066139 0.889357 0.193690
O O10 0.738782 0.450323 0.521343
O O11 0.000000 0.500000 0.500000
#
# Coordination Sequence:
#
# PCOD9252981 Si02
#       5
#     4   4   4   4   4
#     4  11  28  47  76 115 140 202 252 303 369 449
#     4  12  26  50  78 104 157 190 250 311 372 440
#     4  12  24  45  70 108 140 187 245 293 369 438
#     4  11  27  48  75 106 155 194 248 304 377 439
#     4  12  26  45  75 104 145 191 242 307 366 441
#
# _framework density 26.505479999999999
#
# number of rings (size 3 to 8) (size 9 to 14) (size 15 to 20)
#    0.000    0.400    2.000    5.400    5.600    1.600 
#    0.000    0.000    0.000    0.000    0.000    0.000 
#    0.000    0.000    0.000    0.000    0.000    0.000 
#
# Total GULP energy -111599.535312 kJ/mol
# GULP energy per Si atom -5579.976766 kJ/mol
# Density = 2.644515 g / cm^3
# Si number density = 26.505480 Si / 1000 Ang^3
#
#
#
# Elastic Constant Matrix: (Units=GPa)
#
#
# Indices 1 2 3 4 5 6 
#
# 1 113.7311 -16.8764 -18.3302 0.0000 3.3343 0.0000
# 2 -16.8764 51.0682 10.0218 0.0000 7.8618 0.0000
# 3 -18.3302 10.0218 164.2662 0.0000 22.1184 0.0000
# 4 0.0000 0.0000 0.0000 21.7354 0.0000 7.5503
# 5 3.3343 7.8618 22.1184 0.0000 47.1053 0.0000
# 6 0.0000 0.0000 0.0000 7.5503 0.0000 34.0391
#
#
#
# Elastic Compliance Matrix: (Units=1/GPa)
#
#
# Indices 1 2 3 4 5 6 
#
# 1 0.009493 0.003186 0.001096 0.000000 -0.001718 0.000000
# 2 0.003186 0.021273 -0.000463 0.000000 -0.003559 0.000000
# 3 0.001096 -0.000463 0.006659 0.000000 -0.003127 0.000000
# 4 0.000000 0.000000 0.000000 0.049849 0.000000 -0.011057
# 5 -0.001718 -0.003559 -0.003127 0.000000 0.023413 0.000000
# 6 0.000000 0.000000 0.000000 -0.011057 0.000000 0.031831
#
#
# Mechanical properties :
#
#
# Convention : Reuss Voigt Hill
#
# Bulk Modulus (GPa) = 22.19051 30.96621 26.57836
# Shear Modulus (GPa) = 33.35555 44.19265 38.77410
#
# Velocity S-wave (km/s) = 3.55130 4.08769 3.82890
# Velocity P-wave (km/s) = 5.02054 5.82986 5.44027
#
# Compressibility (1/GPa) = 0.04506430
#
# Stress axis : x y z
#
# Youngs Moduli (GPa) = 105.34563 47.00707 150.16500
#
# Poissons Ratio (x) = -0.14978 -0.16462
# Poissons Ratio (y) = -0.33567 0.06955
# Poissons Ratio (z) = -0.11549 0.02177
#
# Static dielectric constant tensor:
#      x y z
#    x 1.980810 0.000000 -0.022000 
#    y 0.000000 2.739940 0.000000 
#    z -0.022000 0.000000 1.907490 
# 
# From -- ./inp_files/11793.got.cif
#   From: 2010.05.17/outbox.cif.g08.bks.cpg/sg14_6_cif.got.tgz:11793.got - 2010.06.03 17:49:19.
