data_PCOD9252147
_publ_section_title
;
Structure prediction by ZEFSAII (Michael W. Deem and Ramdas Pophale) SiO2 
 PCOD9252147
Probable space group: P 21/C
;
_chemical_formula_sum "Si O2"
_cell_formula_units_Z 32
_cell_length_a 17.600121
_cell_length_b 5.162561
_cell_length_c 14.469859
_cell_angle_alpha 90.000000
_cell_angle_beta 112.965611
_cell_angle_gamma 90.000000
_cell_volume 1210.547360
_symmetry_space_group_name_H-M "P 21/C"
_symmetry_group_IT_number 14
_symmetry_cell_setting 'monoclinic'
loop_
_space_group_symop_operation_xyz
x,y,z
-x,1/2+y,1/2-z
-x,-y,-z
x,1/2-y,1/2+z
loop_
_atom_site_type_symbol
_atom_site_label
_atom_site_fract_x
_atom_site_fract_y
_atom_site_fract_z
Si Si1 0.313073 0.051469 0.742287
Si Si2 0.145158 0.143753 0.729355
Si Si3 0.099257 0.198103 0.026199
Si Si4 0.523483 0.754204 0.633649
Si Si5 0.976432 0.263399 0.301036
Si Si6 0.267226 0.474707 0.420792
Si Si7 0.576050 0.764107 0.444170
Si Si8 0.210440 0.696591 0.046325
O O1 0.153234 0.052757 0.523864
O O2 0.394484 0.216947 0.766585
O O3 0.229571 0.216583 0.715524
O O4 0.315114 0.943775 0.848927
O O5 0.182400 0.170548 0.849864
O O6 0.115815 0.842024 0.721352
O O7 0.080192 0.262510 0.626789
O O8 0.023570 0.204653 0.919684
O O9 0.151262 0.938616 0.038897
O O10 0.556413 0.797599 0.544475
O O11 0.462388 0.989167 0.624232
O O12 0.285517 0.843895 0.654083
O O13 0.986573 0.516482 0.240747
O O14 0.326859 0.298594 0.511291
O O15 0.247154 0.733064 0.465184
O O16 0.526904 0.511052 0.389058
#
# Coordination Sequence:
#
# PCOD9252147 Si02
#       8
#     4   4   4   4   4   4   4   4
#     4   8  20  39  66  98 136 181 225 290 348 413
#     4   9  21  42  63  98 132 180 230 287 354 422
#     4  11  24  43  66  94 137 183 234 294 359 418
#     4   9  17  34  56  92 129 165 212 267 334 404
#     4  12  25  43  67  96 133 181 235 292 355 427
#     4   9  19  41  65 101 139 182 231 289 348 420
#     4   9  18  32  58  93 127 169 212 265 333 410
#     4  11  23  44  66 101 139 184 239 291 352 420
#
# _framework density 26.434324
#
# number of rings (size 3 to 8) (size 9 to 14) (size 15 to 20)
#    0.750    1.500    0.000    2.625    0.000    5.000 
#    6.750    4.375    0.000    4.500    0.000    0.000 
#    0.000    1.000    0.000    0.000    0.000    0.000 
#
# Total GULP energy -178744.222351 kJ/mol
# GULP energy per Si atom -5585.756948 kJ/mol
# Density = 2.637416 g / cm^3
# Si number density = 26.434324 Si / 1000 Ang^3
#
#
#
# Elastic Constant Matrix: (Units=GPa)
#
#
# Indices 1 2 3 4 5 6 
#
# 1 74.2611 41.5083 53.7096 0.0000 14.1351 0.0000
# 2 41.5083 137.8821 61.9011 0.0000 26.1819 0.0000
# 3 53.7096 61.9011 176.9404 0.0000 32.1369 0.0000
# 4 0.0000 0.0000 0.0000 41.2933 0.0000 9.2566
# 5 14.1351 26.1819 32.1369 0.0000 47.5944 0.0000
# 6 0.0000 0.0000 0.0000 9.2566 0.0000 40.1345
#
#
#
# Elastic Compliance Matrix: (Units=1/GPa)
#
#
# Indices 1 2 3 4 5 6 
#
# 1 0.018704 -0.003568 -0.004305 0.000000 -0.000686 0.000000
# 2 -0.003568 0.009699 -0.001748 0.000000 -0.003096 0.000000
# 3 -0.004305 -0.001748 0.008164 0.000000 -0.003273 0.000000
# 4 0.000000 0.000000 0.000000 0.025537 0.000000 -0.005890
# 5 -0.000686 -0.003096 -0.003273 0.000000 0.025127 0.000000
# 6 0.000000 0.000000 0.000000 -0.005890 0.000000 0.026275
#
#
# Mechanical properties :
#
#
# Convention : Reuss Voigt Hill
#
# Bulk Modulus (GPa) = 57.71581 78.14682 67.93132
# Shear Modulus (GPa) = 36.09485 41.26876 38.68181
#
# Velocity S-wave (km/s) = 3.69921 3.95546 3.82948
# Velocity P-wave (km/s) = 6.33456 7.10547 6.73106
#
# Compressibility (1/GPa) = 0.01732627
#
# Stress axis : x y z
#
# Youngs Moduli (GPa) = 53.46353 103.10114 122.48540
#
# Poissons Ratio (x) = 0.36786 0.52729
# Poissons Ratio (y) = 0.19076 0.21409
# Poissons Ratio (z) = 0.23016 0.18021
#
# Static dielectric constant tensor:
#      x y z
#    x 1.987120 0.000000 0.034860 
#    y 0.000000 2.040580 0.000000 
#    z 0.034860 0.000000 2.120400 
# 
# From -- ./inp_files/59974.got.cif
#   From: 2010.05.17/outbox.cif.g08.bks.cpg/sg14_30_cif.got.tgz:59974.got - 2010.06.03 17:49:19.
