data_PCOD9252265
_publ_section_title
;
Structure prediction by ZEFSAII (Michael W. Deem and Ramdas Pophale) SiO2 
 PCOD9252265
Probable space group: P 21/C
;
_chemical_formula_sum "Si O2"
_cell_formula_units_Z 30
_cell_length_a 18.095958
_cell_length_b 9.147692
_cell_length_c 11.955239
_cell_angle_alpha 90.000000
_cell_angle_beta 145.670569
_cell_angle_gamma 90.000000
_cell_volume 1116.072017
_symmetry_space_group_name_H-M "P 21/C"
_symmetry_group_IT_number 14
_symmetry_cell_setting 'monoclinic'
loop_
_space_group_symop_operation_xyz
x,y,z
-x,1/2+y,1/2-z
-x,-y,-z
x,1/2-y,1/2+z
loop_
_atom_site_type_symbol
_atom_site_label
_atom_site_fract_x
_atom_site_fract_y
_atom_site_fract_z
Si Si1 0.757649 0.595027 0.919583
Si Si2 0.941699 0.843783 0.459111
Si Si3 0.500000 0.000000 0.500000
Si Si4 0.347241 0.378582 0.589327
Si Si5 0.007721 0.416433 0.629177
Si Si6 0.279959 0.628209 0.754743
Si Si7 0.206427 0.670393 0.364044
Si Si8 0.580348 0.174672 0.214235
O O1 0.812002 0.650177 0.869253
O O2 0.884065 0.531744 0.146748
O O3 0.704552 0.727196 0.926784
O O4 0.643515 0.477277 0.755163
O O5 0.947505 0.742593 0.358296
O O6 0.054489 0.791029 0.688092
O O7 0.000000 0.000000 0.500000
O O8 0.581022 0.953637 0.716592
O O9 0.351812 0.011923 0.390926
O O10 0.244073 0.500474 0.418395
O O11 0.451206 0.348828 0.621596
O O12 0.854863 0.411657 0.476393
O O13 0.000000 0.500000 0.500000
O O14 0.238015 0.758806 0.782586
O O15 0.421465 0.695113 0.881351
O O16 0.304661 0.756696 0.566352
#
# Coordination Sequence:
#
# PCOD9252265 Si02
#       8
#     4   4   2   4   4   4   4   4
#     4  12  27  45  73 108 143 188 246 297 366 431
#     4  11  25  46  70 102 145 182 233 298 361 429
#     4  12  26  46  74 102 146 186 250 286 364 432
#     4  12  28  46  72 104 142 192 241 302 350 434
#     4  11  26  45  74 109 140 187 240 297 360 431
#     4  11  25  46  73 103 143 192 236 295 363 427
#     4  11  23  46  70  98 140 186 233 294 363 420
#     4  12  25  45  68 101 141 187 234 291 361 421
#
# _framework density 26.879985999999999
#
# number of rings (size 3 to 8) (size 9 to 14) (size 15 to 20)
#    0.000    0.533    2.667    5.600    1.867    2.667 
#    2.400    0.000    0.000    0.000    0.000    0.000 
#    0.000    0.000    0.000    0.000    0.000    0.000 
#
# Total GULP energy -167612.569120 kJ/mol
# GULP energy per Si atom -5587.085637 kJ/mol
# Density = 2.681881 g / cm^3
# Si number density = 26.879986 Si / 1000 Ang^3
#
#
#
# Elastic Constant Matrix: (Units=GPa)
#
#
# Indices 1 2 3 4 5 6 
#
# 1 107.3587 37.2766 28.0409 0.0000 52.9454 0.0000
# 2 37.2766 112.4500 21.6234 0.0000 32.8508 0.0000
# 3 28.0409 21.6234 143.3746 0.0000 6.5299 0.0000
# 4 0.0000 0.0000 0.0000 49.3893 0.0000 -23.6628
# 5 52.9454 32.8508 6.5299 0.0000 45.9568 0.0000
# 6 0.0000 0.0000 0.0000 -23.6628 0.0000 129.8260
#
#
#
# Elastic Compliance Matrix: (Units=1/GPa)
#
#
# Indices 1 2 3 4 5 6 
#
# 1 0.023094 0.000800 -0.003422 0.000000 -0.026691 0.000000
# 2 0.000800 0.011529 -0.001488 0.000000 -0.008951 0.000000
# 3 -0.003422 -0.001488 0.007690 0.000000 0.003913 0.000000
# 4 0.000000 0.000000 0.000000 0.022185 0.000000 0.004043
# 5 -0.026691 -0.008951 0.003913 0.000000 0.058352 0.000000
# 6 0.000000 0.000000 0.000000 0.004043 0.000000 0.008440
#
#
# Mechanical properties :
#
#
# Convention : Reuss Voigt Hill
#
# Bulk Modulus (GPa) = 29.33067 59.67389 44.50228
# Shear Modulus (GPa) = 33.14081 63.45058 48.29570
#
# Velocity S-wave (km/s) = 3.51510 4.86378 4.24337
# Velocity P-wave (km/s) = 5.23546 7.33418 6.37182
#
# Compressibility (1/GPa) = 0.03409400
#
# Stress axis : x y z
#
# Youngs Moduli (GPa) = 43.30219 86.74035 130.03779
#
# Poissons Ratio (x) = -0.06939 0.44494
# Poissons Ratio (y) = -0.03464 0.19343
# Poissons Ratio (z) = 0.14816 0.12903
#
# Static dielectric constant tensor:
#      x y z
#    x 2.263890 0.000000 -0.008070 
#    y 0.000000 2.148490 0.000000 
#    z -0.008070 0.000000 2.286140 
# 
# From -- ./inp_files/50301.got.cif
#   From: 2010.05.17/outbox.cif.g08.bks.cpg/sg14_26_cif.got.tgz:50301.got - 2010.06.03 17:49:19.
