data_PCOD9252117
_publ_section_title
;
Structure prediction by ZEFSAII (Michael W. Deem and Ramdas Pophale) SiO2 
 PCOD9252117
Probable space group: P 21/C
;
_chemical_formula_sum "Si O2"
_cell_formula_units_Z 16
_cell_length_a 7.521710
_cell_length_b 7.186793
_cell_length_c 20.548152
_cell_angle_alpha 90.000000
_cell_angle_beta 144.521717
_cell_angle_gamma 90.000000
_cell_volume 644.685136
_symmetry_space_group_name_H-M "P 21/C"
_symmetry_group_IT_number 14
_symmetry_cell_setting 'monoclinic'
loop_
_space_group_symop_operation_xyz
x,y,z
-x,1/2+y,1/2-z
-x,-y,-z
x,1/2-y,1/2+z
loop_
_atom_site_type_symbol
_atom_site_label
_atom_site_fract_x
_atom_site_fract_y
_atom_site_fract_z
Si Si1 0.800453 0.535413 0.504844
Si Si2 0.778809 0.547854 0.257088
Si Si3 0.889405 0.085957 0.399457
Si Si4 0.176474 0.611027 0.258604
O O1 0.449276 0.518396 0.381324
O O2 0.000000 0.500000 0.500000
O O3 0.950196 0.425963 0.609207
O O4 0.872644 0.748834 0.542027
O O5 0.464702 0.632177 0.190480
O O6 0.729879 0.322675 0.233478
O O7 0.885812 0.618656 0.218981
O O8 0.875805 0.996990 0.323555
O O9 0.000000 0.000000 0.500000
#
# Coordination Sequence:
#
# PCOD9252117 Si02
#       4
#     4   4   4   4
#     4  11  23  43  70  94 129 172 218 269 321 385
#     4  11  25  43  67  97 132 172 215 268 326 386
#     4  11  24  45  66  94 132 173 215 266 325 382
#     4  11  25  43  66  99 131 170 219 266 325 385
#
# _framework density 24.818315999999999
#
# number of rings (size 3 to 8) (size 9 to 14) (size 15 to 20)
#    0.000    1.000    5.000    0.750    3.500    3.000 
#    0.000    0.000    0.000    0.000    0.000    0.000 
#    0.000    0.000    0.000    0.000    0.000    0.000 
#
# Total GULP energy -89448.855541 kJ/mol
# GULP energy per Si atom -5590.553471 kJ/mol
# Density = 2.476183 g / cm^3
# Si number density = 24.818316 Si / 1000 Ang^3
#
#
#
# Elastic Constant Matrix: (Units=GPa)
#
#
# Indices 1 2 3 4 5 6 
#
# 1 167.3598 -8.8865 56.8724 0.0000 -28.7331 0.0000
# 2 -8.8865 62.0141 24.1624 0.0000 0.5723 0.0000
# 3 56.8724 24.1624 188.1485 0.0000 -31.5545 0.0000
# 4 0.0000 0.0000 0.0000 14.6104 0.0000 -1.9092
# 5 -28.7331 0.5723 -31.5545 0.0000 27.6195 0.0000
# 6 0.0000 0.0000 0.0000 -1.9092 0.0000 26.7721
#
#
#
# Elastic Compliance Matrix: (Units=1/GPa)
#
#
# Indices 1 2 3 4 5 6 
#
# 1 0.007628 0.001608 -0.001468 0.000000 0.006225 0.000000
# 2 0.001608 0.017594 -0.003125 0.000000 -0.002262 0.000000
# 3 -0.001468 -0.003125 0.007317 0.000000 0.006896 0.000000
# 4 0.000000 0.000000 0.000000 0.069088 0.000000 0.004927
# 5 0.006225 -0.002262 0.006896 0.000000 0.050608 0.000000
# 6 0.000000 0.000000 0.000000 0.004927 0.000000 0.037704
#
#
# Mechanical properties :
#
#
# Convention : Reuss Voigt Hill
#
# Bulk Modulus (GPa) = 37.63884 62.42434 50.03159
# Shear Modulus (GPa) = 24.41816 36.82533 30.62174
#
# Velocity S-wave (km/s) = 3.14008 3.85619 3.51641
# Velocity P-wave (km/s) = 5.32405 6.71074 6.05721
#
# Compressibility (1/GPa) = 0.02656830
#
# Stress axis : x y z
#
# Youngs Moduli (GPa) = 131.09233 56.83715 136.67446
#
# Poissons Ratio (x) = -0.09138 0.20068
# Poissons Ratio (y) = -0.21076 0.42708
# Poissons Ratio (z) = 0.19248 0.17761
#
# Static dielectric constant tensor:
#      x y z
#    x 1.874790 0.000000 -0.063780 
#    y 0.000000 1.995640 0.000000 
#    z -0.063780 0.000000 2.077140 
# 
# From -- ./inp_files/20140.got.cif
#   From: 2010.05.17/outbox.cif.g08.bks.cpg/sg14_11_cif.got.tgz:20140.got - 2010.06.03 17:49:19.
