data_PCOD9252033
_publ_section_title
;
Structure prediction by ZEFSAII (Michael W. Deem and Ramdas Pophale) SiO2 
 PCOD9252033
Probable space group: P 21/C
;
_chemical_formula_sum "Si O2"
_cell_formula_units_Z 32
_cell_length_a 9.668088
_cell_length_b 15.531984
_cell_length_c 9.598654
_cell_angle_alpha 90.000000
_cell_angle_beta 66.161090
_cell_angle_gamma 90.000000
_cell_volume 1318.407352
_symmetry_space_group_name_H-M "P 21/C"
_symmetry_group_IT_number 14
_symmetry_cell_setting 'monoclinic'
loop_
_space_group_symop_operation_xyz
x,y,z
-x,1/2+y,1/2-z
-x,-y,-z
x,1/2-y,1/2+z
loop_
_atom_site_type_symbol
_atom_site_label
_atom_site_fract_x
_atom_site_fract_y
_atom_site_fract_z
Si Si1 0.330978 0.013732 0.490579
Si Si2 0.819629 0.552037 0.453190
Si Si3 0.248312 0.923865 0.269994
Si Si4 0.365441 0.745797 0.269878
Si Si5 0.818337 0.425812 0.694053
Si Si6 0.063102 0.144391 0.508056
Si Si7 0.539536 0.677783 0.952041
Si Si8 0.830329 0.777637 0.822051
O O1 0.203203 0.084010 0.492414
O O2 0.445381 0.075785 0.529198
O O3 0.364556 0.969293 0.328566
O O4 0.245894 0.948452 0.628759
O O5 0.783102 0.484036 0.347538
O O6 0.771334 0.505286 0.613655
O O7 0.753232 0.643980 0.438408
O O8 0.999879 0.571726 0.383667
O O9 0.301449 0.828068 0.213331
O O10 0.089811 0.908665 0.413429
O O11 0.251057 0.665163 0.326117
O O12 0.414682 0.784656 0.398224
O O13 0.504722 0.711608 0.121568
O O14 0.064650 0.222475 0.618409
O O15 0.086491 0.182553 0.344866
O O16 0.697003 0.714134 0.830535
#
# Coordination Sequence:
#
# PCOD9252033 Si02
#       8
#     4   4   4   4   4   4   4   4
#     4  11  23  45  72 100 134 189 235 284 340 417
#     4  11  24  43  70 110 138 174 231 291 359 421
#     4  12  24  44  73 104 140 178 226 292 362 413
#     4  12  27  47  66 101 142 186 230 287 345 410
#     4  11  25  43  70 105 144 175 230 296 356 409
#     4  11  23  41  72 108 139 170 228 289 357 412
#     4  11  27  48  67  98 141 189 242 277 334 421
#     4  11  24  42  71 101 137 184 225 288 341 408
#
# _framework density 24.271711
#
# number of rings (size 3 to 8) (size 9 to 14) (size 15 to 20)
#    0.000    0.750    2.500    4.875    5.250    4.000 
#    0.000    1.250    0.000    0.000    0.000    0.000 
#    0.000    0.000    0.000    0.000    0.000    0.000 
#
# Total GULP energy -179175.331181 kJ/mol
# GULP energy per Si atom -5599.229099 kJ/mol
# Density = 2.421647 g / cm^3
# Si number density = 24.271711 Si / 1000 Ang^3
#
#
#
# Elastic Constant Matrix: (Units=GPa)
#
#
# Indices 1 2 3 4 5 6 
#
# 1 44.3598 13.2432 14.5619 0.0000 15.5086 0.0000
# 2 13.2432 123.8193 9.4708 0.0000 22.8764 0.0000
# 3 14.5619 9.4708 64.0961 0.0000 26.3361 0.0000
# 4 0.0000 0.0000 0.0000 42.7346 0.0000 12.6279
# 5 15.5086 22.8764 26.3361 0.0000 36.9218 0.0000
# 6 0.0000 0.0000 0.0000 12.6279 0.0000 34.5405
#
#
#
# Elastic Compliance Matrix: (Units=1/GPa)
#
#
# Indices 1 2 3 4 5 6 
#
# 1 0.026727 -0.001024 -0.002219 0.000000 -0.009009 0.000000
# 2 -0.001024 0.009246 0.001476 0.000000 -0.006352 0.000000
# 3 -0.002219 0.001476 0.022464 0.000000 -0.016006 0.000000
# 4 0.000000 0.000000 0.000000 0.026234 0.000000 -0.009591
# 5 -0.009009 -0.006352 -0.016006 0.000000 0.046221 0.000000
# 6 0.000000 0.000000 0.000000 -0.009591 0.000000 0.032458
#
#
# Mechanical properties :
#
#
# Convention : Reuss Voigt Hill
#
# Bulk Modulus (GPa) = 18.21392 34.09190 26.15291
# Shear Modulus (GPa) = 26.99982 35.83933 31.41958
#
# Velocity S-wave (km/s) = 3.33888 3.84681 3.60181
# Velocity P-wave (km/s) = 4.73124 5.81438 5.30055
#
# Compressibility (1/GPa) = 0.05490307
#
# Stress axis : x y z
#
# Youngs Moduli (GPa) = 37.41571 108.14946 44.51498
#
# Poissons Ratio (x) = 0.11079 0.09879
# Poissons Ratio (y) = 0.03833 -0.06572
# Poissons Ratio (z) = 0.08303 -0.15967
#
# Static dielectric constant tensor:
#      x y z
#    x 1.998040 0.000000 0.030130 
#    y 0.000000 1.932170 0.000000 
#    z 0.030130 0.000000 1.860930 
# 
# From -- ./inp_files/13308.got.cif
#   From: 2010.05.17/outbox.cif.g08.bks.cpg/sg14_7_cif.got.tgz:13308.got - 2010.06.03 17:49:19.
