data_PCOD9252036
_publ_section_title
;
Structure prediction by ZEFSAII (Michael W. Deem and Ramdas Pophale) SiO2 
 PCOD9252036
Probable space group: P 21/C
;
_chemical_formula_sum "Si O2"
_cell_formula_units_Z 32
_cell_length_a 22.070005
_cell_length_b 9.552830
_cell_length_c 8.667975
_cell_angle_alpha 90.000000
_cell_angle_beta 43.343618
_cell_angle_gamma 90.000000
_cell_volume 1254.330003
_symmetry_space_group_name_H-M "P 21/C"
_symmetry_group_IT_number 14
_symmetry_cell_setting 'monoclinic'
loop_
_space_group_symop_operation_xyz
x,y,z
-x,1/2+y,1/2-z
-x,-y,-z
x,1/2-y,1/2+z
loop_
_atom_site_type_symbol
_atom_site_label
_atom_site_fract_x
_atom_site_fract_y
_atom_site_fract_z
Si Si1 0.214235 0.711142 0.107487
Si Si2 0.507318 0.774855 0.039032
Si Si3 0.280246 0.050665 0.650188
Si Si4 0.236526 0.537158 0.755158
Si Si5 0.946926 0.605391 0.991211
Si Si6 0.494398 0.044492 0.246372
Si Si7 0.708854 0.783451 0.664870
Si Si8 0.987413 0.344862 0.460484
O O1 0.246338 0.603337 0.180899
O O2 0.253341 0.862711 0.077748
O O3 0.108336 0.713685 0.315860
O O4 0.238789 0.639561 0.900104
O O5 0.470009 0.627992 0.170349
O O6 0.509708 0.882665 0.179669
O O7 0.468986 0.866362 0.969363
O O8 0.608480 0.748732 0.808291
O O9 0.387252 0.051955 0.451498
O O10 0.248205 0.140963 0.854495
O O11 0.250700 0.139531 0.555427
O O12 0.293541 0.401346 0.695052
O O13 0.140265 0.469360 0.909289
O O14 0.003632 0.649231 0.738360
O O15 0.000000 0.500000 0.000000
O O16 0.937952 0.744963 0.107905
O O17 0.000000 0.500000 0.500000
#
# Coordination Sequence:
#
# PCOD9252036 Si02
#       8
#     4   4   4   4   4   4   4   4
#     4  11  23  42  58  85 117 149 189 237 286 342
#     4   9  18  34  55  82 115 148 188 230 278 330
#     4   9  20  38  58  82 114 148 190 231 283 333
#     4  11  24  40  59  84 116 151 191 237 289 343
#     4  12  25  43  62  89 115 151 192 239 292 342
#     4   9  18  34  56  82 114 150 185 233 276 332
#     4   9  20  37  57  83 112 148 190 233 279 339
#     4  12  24  42  63  87 117 149 191 239 287 345
#
# _framework density 25.511628000000002
#
# number of rings (size 3 to 8) (size 9 to 14) (size 15 to 20)
#    0.000    1.750    2.500    1.500    1.750    2.500 
#    0.000    0.000    0.000    0.000    0.000    0.000 
#    0.000    0.000    0.000    0.000    0.000    0.000 
#
# Total GULP energy -179046.299442 kJ/mol
# GULP energy per Si atom -5595.196858 kJ/mol
# Density = 2.545356 g / cm^3
# Si number density = 25.511628 Si / 1000 Ang^3
#
#
#
# Elastic Constant Matrix: (Units=GPa)
#
#
# Indices 1 2 3 4 5 6 
#
# 1 71.2347 20.3214 21.0353 0.0000 -3.6735 0.0000
# 2 20.3214 132.9154 15.5112 0.0000 19.1875 0.0000
# 3 21.0353 15.5112 37.2070 0.0000 2.3014 0.0000
# 4 0.0000 0.0000 0.0000 26.7461 0.0000 15.0407
# 5 -3.6735 19.1875 2.3014 0.0000 32.1273 0.0000
# 6 0.0000 0.0000 0.0000 15.0407 0.0000 46.1905
#
#
#
# Elastic Compliance Matrix: (Units=1/GPa)
#
#
# Indices 1 2 3 4 5 6 
#
# 1 0.017610 -0.002183 -0.009292 0.000000 0.003983 0.000000
# 2 -0.002183 0.008887 -0.002136 0.000000 -0.005404 0.000000
# 3 -0.009292 -0.002136 0.033155 0.000000 -0.002162 0.000000
# 4 0.000000 0.000000 0.000000 0.045770 0.000000 -0.014904
# 5 0.003983 -0.005404 -0.002162 0.000000 0.034964 0.000000
# 6 0.000000 0.000000 0.000000 -0.014904 0.000000 0.026502
#
#
# Mechanical properties :
#
#
# Convention : Reuss Voigt Hill
#
# Bulk Modulus (GPa) = 30.83753 39.45478 35.14616
# Shear Modulus (GPa) = 24.39969 33.31205 28.85587
#
# Velocity S-wave (km/s) = 3.09595 3.61745 3.36681
# Velocity P-wave (km/s) = 4.98936 5.73994 5.37776
#
# Compressibility (1/GPa) = 0.03242802
#
# Stress axis : x y z
#
# Youngs Moduli (GPa) = 56.78506 112.52674 30.16179
#
# Poissons Ratio (x) = 0.24564 0.28028
# Poissons Ratio (y) = 0.12396 0.06444
# Poissons Ratio (z) = 0.52767 0.24040
#
# Static dielectric constant tensor:
#      x y z
#    x 2.000420 0.000000 0.044730 
#    y 0.000000 2.004100 0.000000 
#    z 0.044730 0.000000 2.011770 
# 
# From -- ./inp_files/19654.got.cif
#   From: 2010.05.17/outbox.cif.g08.bks.cpg/sg14_10_cif.got.tgz:19654.got - 2010.06.03 17:49:19.
