data_PCOD9252221
_publ_section_title
;
Structure prediction by ZEFSAII (Michael W. Deem and Ramdas Pophale) SiO2 
 PCOD9252221
Probable space group: P 21/C
;
_chemical_formula_sum "Si O2"
_cell_formula_units_Z 28
_cell_length_a 13.903591
_cell_length_b 11.633830
_cell_length_c 9.588212
_cell_angle_alpha 90.000000
_cell_angle_beta 53.459365
_cell_angle_gamma 90.000000
_cell_volume 1246.057159
_symmetry_space_group_name_H-M "P 21/C"
_symmetry_group_IT_number 14
_symmetry_cell_setting 'monoclinic'
loop_
_space_group_symop_operation_xyz
x,y,z
-x,1/2+y,1/2-z
-x,-y,-z
x,1/2-y,1/2+z
loop_
_atom_site_type_symbol
_atom_site_label
_atom_site_fract_x
_atom_site_fract_y
_atom_site_fract_z
Si Si1 0.369797 0.510138 0.048254
Si Si2 0.463049 0.693060 0.773753
Si Si3 0.124372 0.231746 0.122333
Si Si4 0.662017 0.856410 0.679210
Si Si5 0.321722 0.451869 0.549408
Si Si6 0.271722 0.632810 0.372944
Si Si7 0.008153 0.637556 0.517098
O O1 0.372716 0.619888 0.945427
O O2 0.349431 0.403564 0.966932
O O3 0.500000 0.500000 0.000000
O O4 0.283969 0.528754 0.251308
O O5 0.550813 0.770944 0.793598
O O6 0.558191 0.608533 0.616139
O O7 0.378466 0.776418 0.756418
O O8 0.207835 0.129076 0.110445
O O9 0.080339 0.313909 0.285567
O O10 0.212271 0.293399 0.935935
O O11 0.018573 0.188235 0.113411
O O12 0.662773 0.950996 0.798251
O O13 0.298214 0.573973 0.498655
O O14 0.138572 0.674910 0.462019
O O15 0.000000 0.500000 0.500000
#
# Coordination Sequence:
#
# PCOD9252221 Si02
#       7
#     4   4   4   4   4   4   4
#     4  12  24  45  65 106 142 186 228 285 358 432
#     4  11  24  40  70 102 145 180 233 290 355 425
#     4  11  25  48  73 105 135 188 246 294 357 416
#     4  11  24  42  73  97 140 182 237 287 353 429
#     4  11  23  45  71 104 139 186 240 293 351 433
#     4  12  26  45  71 103 146 188 237 288 367 419
#     4  12  26  50  76 104 143 193 244 301 353 430
#
# _framework density 22.470880000000001
#
# number of rings (size 3 to 8) (size 9 to 14) (size 15 to 20)
#    0.000    0.571    5.714    1.714    4.000    3.429 
#    0.000    1.429    0.000    0.000    0.000    0.000 
#    0.000    0.000    0.000    0.000    0.000    0.000 
#
# Total GULP energy -156509.619108 kJ/mol
# GULP energy per Si atom -5589.629254 kJ/mol
# Density = 2.241974 g / cm^3
# Si number density = 22.470880 Si / 1000 Ang^3
#
#
#
# Elastic Constant Matrix: (Units=GPa)
#
#
# Indices 1 2 3 4 5 6 
#
# 1 123.3497 22.9303 23.5730 0.0000 -6.2650 0.0000
# 2 22.9303 46.2386 -4.4427 0.0000 0.5950 0.0000
# 3 23.5730 -4.4427 45.9064 0.0000 2.9077 0.0000
# 4 0.0000 0.0000 0.0000 33.5797 0.0000 5.2703
# 5 -6.2650 0.5950 2.9077 0.0000 37.2151 0.0000
# 6 0.0000 0.0000 0.0000 5.2703 0.0000 35.7481
#
#
#
# Elastic Compliance Matrix: (Units=1/GPa)
#
#
# Indices 1 2 3 4 5 6 
#
# 1 0.010467 -0.005805 -0.006084 0.000000 0.002330 0.000000
# 2 -0.005805 0.025060 0.005521 0.000000 -0.001809 0.000000
# 3 -0.006084 0.005521 0.025639 0.000000 -0.003116 0.000000
# 4 0.000000 0.000000 0.000000 0.030485 0.000000 -0.004494
# 5 0.002330 -0.001809 -0.003116 0.000000 0.027535 0.000000
# 6 0.000000 0.000000 0.000000 -0.004494 0.000000 0.028636
#
#
# Mechanical properties :
#
#
# Convention : Reuss Voigt Hill
#
# Bulk Modulus (GPa) = 20.64898 33.29065 26.96981
# Shear Modulus (GPa) = 28.29585 32.87087 30.58336
#
# Velocity S-wave (km/s) = 3.55240 3.82883 3.69321
# Velocity P-wave (km/s) = 5.10248 5.86462 5.49677
#
# Compressibility (1/GPa) = 0.04842855
#
# Stress axis : x y z
#
# Youngs Moduli (GPa) = 95.53474 39.90470 39.00237
#
# Poissons Ratio (x) = 0.23167 0.23731
# Poissons Ratio (y) = 0.55463 -0.21533
# Poissons Ratio (z) = 0.58128 -0.22031
#
# Static dielectric constant tensor:
#      x y z
#    x 1.853840 0.000000 -0.030830 
#    y 0.000000 1.939770 0.000000 
#    z -0.030830 0.000000 1.884470 
# 
# From -- ./inp_files/15458.got.cif
#   From: 2010.05.17/outbox.cif.g08.bks.cpg/sg14_8_cif.got.tgz:15458.got - 2010.06.03 17:49:19.
