data_PCOD9252627
_publ_section_title
;
Structure prediction by ZEFSAII (Michael W. Deem and Ramdas Pophale) SiO2 
 PCOD9252627
Probable space group: P 21/C
;
_chemical_formula_sum "Si O2"
_cell_formula_units_Z 24
_cell_length_a 17.600912
_cell_length_b 8.368171
_cell_length_c 13.806110
_cell_angle_alpha 90.000000
_cell_angle_beta 153.564313
_cell_angle_gamma 90.000000
_cell_volume 905.285088
_symmetry_space_group_name_H-M "P 21/C"
_symmetry_group_IT_number 14
_symmetry_cell_setting 'monoclinic'
loop_
_space_group_symop_operation_xyz
x,y,z
-x,1/2+y,1/2-z
-x,-y,-z
x,1/2-y,1/2+z
loop_
_atom_site_type_symbol
_atom_site_label
_atom_site_fract_x
_atom_site_fract_y
_atom_site_fract_z
Si Si1 0.764194 0.778589 0.706369
Si Si2 0.511462 0.975055 0.309886
Si Si3 0.894451 0.848799 0.526043
Si Si4 0.012183 0.811394 0.329979
Si Si5 0.268824 0.914024 0.206083
Si Si6 0.288438 0.715969 0.415079
O O1 0.626248 0.821433 0.469129
O O2 0.916555 0.700054 0.821834
O O3 0.803232 0.947762 0.805433
O O4 0.746356 0.664850 0.778021
O O5 0.412210 0.988101 0.300128
O O6 0.393763 0.929891 0.084082
O O7 0.635736 0.127114 0.443148
O O8 0.880654 0.718138 0.593881
O O9 0.086477 0.813773 0.703255
O O10 0.894195 0.022607 0.571097
O O11 0.139535 0.662744 0.481666
O O12 0.312965 0.767957 0.330514
#
# Coordination Sequence:
#
# PCOD9252627 Si02
#       6
#     4   4   4   4   4   4
#     4  11  25  45  73 101 140 191 234 288 357 419
#     4  11  27  45  71 106 140 190 232 295 354 425
#     4  12  27  44  71 107 139 187 238 295 352 426
#     4  12  26  43  74 103 142 182 240 295 350 420
#     4  11  24  48  72 106 143 184 237 296 356 425
#     4  11  25  46  71  99 147 181 235 293 351 421
#
# _framework density 26.510985999999999
#
# number of rings (size 3 to 8) (size 9 to 14) (size 15 to 20)
#    0.000    0.667    3.333    4.000    9.333    1.333 
#    0.000    1.667    0.000    0.000    0.000    0.000 
#    0.000    0.000    0.000    0.000    0.000    0.000 
#
# Total GULP energy -134217.936542 kJ/mol
# GULP energy per Si atom -5592.414023 kJ/mol
# Density = 2.645065 g / cm^3
# Si number density = 26.510986 Si / 1000 Ang^3
#
#
#
# Elastic Constant Matrix: (Units=GPa)
#
#
# Indices 1 2 3 4 5 6 
#
# 1 -176.8027 -36.3488 21.7182 0.0000 242.3234 0.0000
# 2 -36.3488 84.5170 5.5078 0.0000 43.7196 0.0000
# 3 21.7182 5.5078 80.7223 0.0000 -35.5729 0.0000
# 4 0.0000 0.0000 0.0000 51.4036 0.0000 -10.4484
# 5 242.3234 43.7196 -35.5729 0.0000 -220.3169 0.0000
# 6 0.0000 0.0000 0.0000 -10.4484 0.0000 24.6609
#
#
#
# Elastic Compliance Matrix: (Units=1/GPa)
#
#
# Indices 1 2 3 4 5 6 
#
# 1 0.011790 -0.001446 0.002348 0.000000 0.012301 0.000000
# 2 -0.001446 0.010911 -0.000095 0.000000 0.000590 0.000000
# 3 0.002348 -0.000095 0.012036 0.000000 0.000620 0.000000
# 4 0.000000 0.000000 0.000000 0.021287 0.000000 0.009019
# 5 0.012301 0.000590 0.000620 0.000000 0.009008 0.000000
# 6 0.000000 0.000000 0.000000 0.009019 0.000000 0.044371
#
#
# Mechanical properties :
#
#
# Convention : Reuss Voigt Hill
#
# Bulk Modulus (GPa) = 27.51046 -3.31212 12.09917
# Shear Modulus (GPa) = 41.69893 -29.01319 6.34287
#
# Velocity S-wave (km/s) = 3.97027 -3.31174 1.54846
# Velocity P-wave (km/s) = 5.60508 3.98441 2.78760
#
# Compressibility (1/GPa) = 0.03634981
#
# Stress axis : x y z
#
# Youngs Moduli (GPa) = 84.81945 91.65084 83.08285
#
# Poissons Ratio (x) = 0.13251 -0.19505
# Poissons Ratio (y) = 0.12264 0.00792
# Poissons Ratio (z) = -0.19913 0.00874
#
# Static dielectric constant tensor:
#      x y z
#    x 2.073160 0.000000 0.042570 
#    y 0.000000 2.049920 0.000000 
#    z 0.042570 0.000000 2.120090 
# 
# From -- ./inp_files/48661.got.cif
#   From: 2010.05.17/outbox.cif.g08.bks.cpg/sg14_25_cif.got.tgz:48661.got - 2010.06.03 17:49:19.
