data_PCOD9252220
_publ_section_title
;
Structure prediction by ZEFSAII (Michael W. Deem and Ramdas Pophale) SiO2 
 PCOD9252220
Probable space group: P 21/C
;
_chemical_formula_sum "Si O2"
_cell_formula_units_Z 28
_cell_length_a 6.506061
_cell_length_b 13.759849
_cell_length_c 19.822171
_cell_angle_alpha 90.000000
_cell_angle_beta 134.754229
_cell_angle_gamma 90.000000
_cell_volume 1260.152087
_symmetry_space_group_name_H-M "P 21/C"
_symmetry_group_IT_number 14
_symmetry_cell_setting 'monoclinic'
loop_
_space_group_symop_operation_xyz
x,y,z
-x,1/2+y,1/2-z
-x,-y,-z
x,1/2-y,1/2+z
loop_
_atom_site_type_symbol
_atom_site_label
_atom_site_fract_x
_atom_site_fract_y
_atom_site_fract_z
Si Si1 0.952968 0.114300 0.493935
Si Si2 0.865725 0.936390 0.266517
Si Si3 0.777636 0.561115 0.585112
Si Si4 0.993537 0.259693 0.868651
Si Si5 0.346624 0.218899 0.687915
Si Si6 0.666430 0.941147 0.797540
Si Si7 0.679652 0.588075 0.139563
O O1 0.943391 0.170456 0.420805
O O2 0.639029 0.120801 0.456774
O O3 0.215766 0.159485 0.596110
O O4 0.000000 0.000000 0.500000
O O5 0.811010 0.936228 0.174001
O O6 0.816580 0.829957 0.286124
O O7 0.620782 0.005007 0.243598
O O8 0.174150 0.987909 0.352368
O O9 0.500000 0.500000 0.500000
O O10 0.785952 0.672823 0.563846
O O11 0.057672 0.505966 0.621119
O O12 0.689772 0.209895 0.778479
O O13 0.107563 0.326570 0.834570
O O14 0.297212 0.332856 0.666005
O O15 0.656930 0.926428 0.714597
#
# Coordination Sequence:
#
# PCOD9252220 Si02
#       7
#     4   4   4   4   4   4   4
#     4  12  29  48  74 110 148 194 254 312 376 451
#     4  11  24  46  73 103 149 194 243 316 371 441
#     4  11  28  43  72 107 148 192 250 303 374 453
#     4  12  26  47  72 106 151 192 245 312 373 453
#     4  12  25  46  74 102 146 201 239 307 388 432
#     4  11  23  45  71 102 143 191 240 306 373 436
#     4  11  23  47  73 104 144 188 253 307 368 453
#
# _framework density 22.219541
#
# number of rings (size 3 to 8) (size 9 to 14) (size 15 to 20)
#    0.000    0.571    4.286    2.571    6.000    2.857 
#    0.000    0.000    0.000    0.000    0.000    0.000 
#    0.000    0.000    0.000    0.000    0.000    0.000 
#
# Total GULP energy -156681.092375 kJ/mol
# GULP energy per Si atom -5595.753299 kJ/mol
# Density = 2.216897 g / cm^3
# Si number density = 22.219541 Si / 1000 Ang^3
#
#
#
# Elastic Constant Matrix: (Units=GPa)
#
#
# Indices 1 2 3 4 5 6 
#
# 1 96.6011 42.5278 29.4574 0.0000 7.9454 0.0000
# 2 42.5278 111.0214 21.4356 0.0000 11.2401 0.0000
# 3 29.4574 21.4356 82.6487 0.0000 5.9823 0.0000
# 4 0.0000 0.0000 0.0000 26.1023 0.0000 1.0567
# 5 7.9454 11.2401 5.9823 0.0000 19.6474 0.0000
# 6 0.0000 0.0000 0.0000 1.0567 0.0000 51.0616
#
#
#
# Elastic Compliance Matrix: (Units=1/GPa)
#
#
# Indices 1 2 3 4 5 6 
#
# 1 0.013479 -0.004283 -0.003555 0.000000 -0.001919 0.000000
# 2 -0.004283 0.011303 -0.001086 0.000000 -0.004404 0.000000
# 3 -0.003555 -0.001086 0.013803 0.000000 -0.002144 0.000000
# 4 0.000000 0.000000 0.000000 0.038343 0.000000 -0.000794
# 5 -0.001919 -0.004404 -0.002144 0.000000 0.054845 0.000000
# 6 0.000000 0.000000 0.000000 -0.000794 0.000000 0.019601
#
#
# Mechanical properties :
#
#
# Convention : Reuss Voigt Hill
#
# Bulk Modulus (GPa) = 48.21991 53.01254 50.61622
# Shear Modulus (GPa) = 28.38736 32.48562 30.43649
#
# Velocity S-wave (km/s) = 3.57821 3.82780 3.70511
# Velocity P-wave (km/s) = 6.23058 6.59139 6.41352
#
# Compressibility (1/GPa) = 0.02073832
#
# Stress axis : x y z
#
# Youngs Moduli (GPa) = 74.18953 88.46869 72.44666
#
# Poissons Ratio (x) = 0.37889 0.25751
# Poissons Ratio (y) = 0.31773 0.07871
# Poissons Ratio (z) = 0.26371 0.09612
#
# Static dielectric constant tensor:
#      x y z
#    x 1.829780 0.000000 0.006450 
#    y 0.000000 1.815080 0.000000 
#    z 0.006450 0.000000 1.840280 
# 
# From -- ./inp_files/63810.got.cif
#   From: 2010.05.17/outbox.cif.g08.bks.cpg/sg14_32_cif.got.tgz:63810.got - 2010.06.03 17:49:19.
