data_PCOD9252068
_publ_section_title
;
Structure prediction by ZEFSAII (Michael W. Deem and Ramdas Pophale) SiO2 
 PCOD9252068
Probable space group: P 21/C
;
_chemical_formula_sum "Si O2"
_cell_formula_units_Z 20
_cell_length_a 8.162646
_cell_length_b 7.209241
_cell_length_c 19.080942
_cell_angle_alpha 90.000000
_cell_angle_beta 47.292943
_cell_angle_gamma 90.000000
_cell_volume 825.102349
_symmetry_space_group_name_H-M "P 21/C"
_symmetry_group_IT_number 14
_symmetry_cell_setting 'monoclinic'
loop_
_space_group_symop_operation_xyz
x,y,z
-x,1/2+y,1/2-z
-x,-y,-z
x,1/2-y,1/2+z
loop_
_atom_site_type_symbol
_atom_site_label
_atom_site_fract_x
_atom_site_fract_y
_atom_site_fract_z
Si Si1 0.942054 0.999844 0.681744
Si Si2 0.138154 0.221745 0.438542
Si Si3 0.724817 0.698134 0.833433
Si Si4 0.311605 0.644493 0.388548
Si Si5 0.606968 0.342867 0.789167
O O1 0.924420 0.880413 0.615834
O O2 0.896870 0.851375 0.756145
O O3 0.754433 0.158020 0.751208
O O4 0.177525 0.104521 0.625000
O O5 0.215867 0.437080 0.413282
O O6 0.371895 0.141044 0.397652
O O7 0.908644 0.227502 0.548274
O O8 0.481148 0.795203 0.900602
O O9 0.726038 0.530990 0.776572
O O10 0.448768 0.661042 0.277188
#
# Coordination Sequence:
#
# PCOD9252068 Si02
#       5
#     4   4   4   4   4
#     4  12  24  42  68 101 138 181 226 279 348 406
#     4  11  23  42  70 102 135 178 234 286 335 404
#     4  12  24  42  68 101 138 181 226 279 348 406
#     4  11  23  42  70 102 135 178 234 286 335 404
#     4  12  22  42  74  96 132 180 232 284 336 404
#
# _framework density 24.239415999999999
#
# number of rings (size 3 to 8) (size 9 to 14) (size 15 to 20)
#    0.000    0.400    8.000    1.200    0.000    4.000 
#    0.000    0.000    0.000    7.200    0.000    0.000 
#    0.000    0.000    0.000    0.000    0.000    0.000 
#
# Total GULP energy -111591.694282 kJ/mol
# GULP energy per Si atom -5579.584714 kJ/mol
# Density = 2.418425 g / cm^3
# Si number density = 24.239416 Si / 1000 Ang^3
#
#
#
# Elastic Constant Matrix: (Units=GPa)
#
#
# Indices 1 2 3 4 5 6 
#
# 1 123.6103 71.5486 22.1143 0.0000 -21.4866 0.0000
# 2 71.5486 154.7352 33.5324 0.0000 -9.4760 0.0000
# 3 22.1143 33.5324 62.0527 0.0000 -17.6099 0.0000
# 4 0.0000 0.0000 0.0000 23.1084 0.0000 -4.2592
# 5 -21.4866 -9.4760 -17.6099 0.0000 18.2546 0.0000
# 6 0.0000 0.0000 0.0000 -4.2592 0.0000 59.7997
#
#
#
# Elastic Compliance Matrix: (Units=1/GPa)
#
#
# Indices 1 2 3 4 5 6 
#
# 1 0.013843 -0.006044 0.002845 0.000000 0.015902 0.000000
# 2 -0.006044 0.009959 -0.005204 0.000000 -0.006965 0.000000
# 3 0.002845 -0.005204 0.024919 0.000000 0.024687 0.000000
# 4 0.000000 0.000000 0.000000 0.043850 0.000000 0.003123
# 5 0.015902 -0.006965 0.024687 0.000000 0.093698 0.000000
# 6 0.000000 0.000000 0.000000 0.003123 0.000000 0.016945
#
#
# Mechanical properties :
#
#
# Convention : Reuss Voigt Hill
#
# Bulk Modulus (GPa) = 31.33208 66.08765 48.70987
# Shear Modulus (GPa) = 21.67708 34.44606 28.06157
#
# Velocity S-wave (km/s) = 2.99371 3.77381 3.40617
# Velocity P-wave (km/s) = 4.99038 6.80533 5.96726
#
# Compressibility (1/GPa) = 0.03191617
#
# Stress axis : x y z
#
# Youngs Moduli (GPa) = 72.23664 100.41629 40.12924
#
# Poissons Ratio (x) = 0.60690 -0.11418
# Poissons Ratio (y) = 0.43659 0.20884
# Poissons Ratio (z) = -0.20554 0.52257
#
# Static dielectric constant tensor:
#      x y z
#    x 1.992790 0.000000 -0.035790 
#    y 0.000000 1.964960 0.000000 
#    z -0.035790 0.000000 1.895120 
# 
# From -- ./inp_files/64316.got.cif
#   From: 2010.05.17/outbox.cif.g08.bks.cpg/sg14_33_cif.got.tgz:64316.got - 2010.06.03 17:49:19.
