data_PCOD9252346
_publ_section_title
;
Structure prediction by ZEFSAII (Michael W. Deem and Ramdas Pophale) SiO2 
 PCOD9252346
Probable space group: P 21/C
;
_chemical_formula_sum "Si O2"
_cell_formula_units_Z 24
_cell_length_a 9.958583
_cell_length_b 13.956644
_cell_length_c 10.226760
_cell_angle_alpha 90.000000
_cell_angle_beta 73.993166
_cell_angle_gamma 90.000000
_cell_volume 1366.291581
_symmetry_space_group_name_H-M "P 21/C"
_symmetry_group_IT_number 14
_symmetry_cell_setting 'monoclinic'
loop_
_space_group_symop_operation_xyz
x,y,z
-x,1/2+y,1/2-z
-x,-y,-z
x,1/2-y,1/2+z
loop_
_atom_site_type_symbol
_atom_site_label
_atom_site_fract_x
_atom_site_fract_y
_atom_site_fract_z
Si Si1 0.252007 0.748428 0.679940
Si Si2 0.135475 0.550609 0.125840
Si Si3 0.447614 0.465009 0.654291
Si Si4 0.547212 0.256407 0.623336
Si Si5 0.407534 0.448166 0.135534
Si Si6 0.848877 0.444493 0.192254
O O1 0.172782 0.849425 0.686174
O O2 0.362864 0.749512 0.768609
O O3 0.342396 0.733863 0.524533
O O4 0.151493 0.659062 0.738123
O O5 0.249090 0.472334 0.141327
O O6 0.981705 0.509417 0.191381
O O7 0.152061 0.567036 0.965106
O O8 0.500000 0.500000 0.500000
O O9 0.453289 0.350632 0.655380
O O10 0.551227 0.504875 0.737685
O O11 0.295203 0.505562 0.727255
O O12 0.454798 0.161828 0.627347
O O13 0.500000 0.500000 0.000000
#
# Coordination Sequence:
#
# PCOD9252346 Si02
#       6
#     4   4   4   4   4   4
#     4  12  20  41  64  92 118 173 203 254 330 365
#     4  11  24  41  67  90 130 168 210 258 312 391
#     4  12  22  38  62  96 128 155 211 271 306 356
#     4  12  22  35  68  93 124 162 215 260 304 376
#     4  12  20  40  64  93 116 170 219 247 301 381
#     4  11  24  42  63  95 130 165 207 263 319 376
#
# _framework density 17.565795000000001
#
# number of rings (size 3 to 8) (size 9 to 14) (size 15 to 20)
#    0.000    0.333   10.000    0.000    0.000    1.333 
#    0.000    3.333    0.000    0.000    0.000    0.000 
#    0.000    0.000    0.000    0.000    0.000    0.000 
#
# Total GULP energy -134124.990595 kJ/mol
# GULP energy per Si atom -5588.541275 kJ/mol
# Density = 1.752581 g / cm^3
# Si number density = 17.565795 Si / 1000 Ang^3
#
#
#
# Elastic Constant Matrix: (Units=GPa)
#
#
# Indices 1 2 3 4 5 6 
#
# 1 84.6064 26.4241 9.7817 0.0000 -3.9317 0.0000
# 2 26.4241 145.0016 9.3734 0.0000 -6.4905 0.0000
# 3 9.7817 9.3734 76.0070 0.0000 6.6159 0.0000
# 4 0.0000 0.0000 0.0000 27.5912 0.0000 3.4607
# 5 -3.9317 -6.4905 6.6159 0.0000 22.0090 0.0000
# 6 0.0000 0.0000 0.0000 3.4607 0.0000 29.6149
#
#
#
# Elastic Compliance Matrix: (Units=1/GPa)
#
#
# Indices 1 2 3 4 5 6 
#
# 1 0.012764 -0.002130 -0.001565 0.000000 0.002122 0.000000
# 2 -0.002130 0.007430 -0.000821 0.000000 0.002057 0.000000
# 3 -0.001565 -0.000821 0.013868 0.000000 -0.004690 0.000000
# 4 0.000000 0.000000 0.000000 0.036783 0.000000 -0.004298
# 5 0.002122 0.002057 -0.004690 0.000000 0.047832 0.000000
# 6 0.000000 0.000000 0.000000 -0.004298 0.000000 0.034269
#
#
# Mechanical properties :
#
#
# Convention : Reuss Voigt Hill
#
# Bulk Modulus (GPa) = 39.95243 44.08593 42.01918
# Shear Modulus (GPa) = 29.35650 33.17874 31.26762
#
# Velocity S-wave (km/s) = 4.09250 4.35078 4.22362
# Velocity P-wave (km/s) = 6.71753 7.09867 6.91073
#
# Compressibility (1/GPa) = 0.02502977
#
# Stress axis : x y z
#
# Youngs Moduli (GPa) = 78.34422 134.59319 72.11055
#
# Poissons Ratio (x) = 0.28667 0.11284
# Poissons Ratio (y) = 0.16687 0.05922
# Poissons Ratio (z) = 0.12259 0.11053
#
# Static dielectric constant tensor:
#      x y z
#    x 1.568760 0.000000 0.009060 
#    y 0.000000 1.610080 0.000000 
#    z 0.009060 0.000000 1.585950 
# 
# From -- ./inp_files/8415.got.cif
#   From: 2010.05.17/outbox.cif.g08.bks.cpg/sg14_5_cif.got.tgz:8415.got - 2010.06.03 17:49:19.
