data_PCOD9252102
_publ_section_title
;
Structure prediction by ZEFSAII (Michael W. Deem and Ramdas Pophale) SiO2 
 PCOD9252102
Probable space group: P 21/C
;
_chemical_formula_sum "Si O2"
_cell_formula_units_Z 20
_cell_length_a 16.892550
_cell_length_b 5.573434
_cell_length_c 9.300317
_cell_angle_alpha 90.000000
_cell_angle_beta 78.488112
_cell_angle_gamma 90.000000
_cell_volume 858.005736
_symmetry_space_group_name_H-M "P 21/C"
_symmetry_group_IT_number 14
_symmetry_cell_setting 'monoclinic'
loop_
_space_group_symop_operation_xyz
x,y,z
-x,1/2+y,1/2-z
-x,-y,-z
x,1/2-y,1/2+z
loop_
_atom_site_type_symbol
_atom_site_label
_atom_site_fract_x
_atom_site_fract_y
_atom_site_fract_z
Si Si1 0.300987 0.974165 0.655899
Si Si2 0.908228 0.464665 0.076451
Si Si3 0.476427 0.931448 0.675772
Si Si4 0.252032 0.234199 0.422959
Si Si5 0.829646 0.125062 0.890589
O O1 0.308556 0.051941 0.487291
O O2 0.280914 0.211564 0.754606
O O3 0.381058 0.871488 0.694997
O O4 0.220133 0.817706 0.686362
O O5 0.840589 0.645862 0.039705
O O6 0.892080 0.479492 0.252325
O O7 0.880460 0.224369 0.005175
O O8 0.000000 0.500000 0.000000
O O9 0.512825 0.682474 0.733816
O O10 0.500000 0.000000 0.500000
O O11 0.243743 0.478854 0.512755
#
# Coordination Sequence:
#
# PCOD9252102 Si02
#       5
#     4   4   4   4   4
#     4  11  25  43  73  93 141 175 234 285 337 445
#     4  11  26  41  64  97 134 173 226 289 339 411
#     4  12  29  49  77 116 152 197 246 310 385 440
#     4  11  23  43  65  98 127 184 225 275 347 407
#     4  11  24  42  63  96 127 179 225 269 350 401
#
# _framework density 23.309866
#
# number of rings (size 3 to 8) (size 9 to 14) (size 15 to 20)
#    0.000    0.800    4.000    1.800    8.400    0.800 
#    0.000    0.000    0.000    0.000    0.000    0.000 
#    0.000    0.000    0.000    0.000    0.000    0.000 
#
# Total GULP energy -111472.182519 kJ/mol
# GULP energy per Si atom -5573.609126 kJ/mol
# Density = 2.325681 g / cm^3
# Si number density = 23.309866 Si / 1000 Ang^3
#
#
#
# Elastic Constant Matrix: (Units=GPa)
#
#
# Indices 1 2 3 4 5 6 
#
# 1 55.5675 -14.0776 -1.2578 0.0000 8.4267 0.0000
# 2 -14.0776 46.6151 18.3555 0.0000 13.6850 0.0000
# 3 -1.2578 18.3555 109.1232 0.0000 6.3524 0.0000
# 4 0.0000 0.0000 0.0000 31.5490 0.0000 -1.5440
# 5 8.4267 13.6850 6.3524 0.0000 24.0417 0.0000
# 6 0.0000 0.0000 0.0000 -1.5440 0.0000 16.4804
#
#
#
# Elastic Compliance Matrix: (Units=1/GPa)
#
#
# Indices 1 2 3 4 5 6 
#
# 1 0.023092 0.011542 -0.000835 0.000000 -0.014443 0.000000
# 2 0.011542 0.032941 -0.004145 0.000000 -0.021701 0.000000
# 3 -0.000835 -0.004145 0.009849 0.000000 0.000049 0.000000
# 4 0.000000 0.000000 0.000000 0.031843 0.000000 0.002983
# 5 -0.014443 -0.021701 0.000049 0.000000 0.058997 0.000000
# 6 0.000000 0.000000 0.000000 0.002983 0.000000 0.060958
#
#
# Mechanical properties :
#
#
# Convention : Reuss Voigt Hill
#
# Bulk Modulus (GPa) = 12.65695 24.14955 18.40325
# Shear Modulus (GPa) = 21.65554 28.29994 24.97774
#
# Velocity S-wave (km/s) = 3.05130 3.48814 3.27701
# Velocity P-wave (km/s) = 4.22559 5.15806 4.71493
#
# Compressibility (1/GPa) = 0.07900799
#
# Stress axis : x y z
#
# Youngs Moduli (GPa) = 43.30547 30.35729 101.53710
#
# Poissons Ratio (x) = -0.35040 0.08474
# Poissons Ratio (y) = -0.49985 0.42083
# Poissons Ratio (z) = 0.03614 0.12582
#
# Static dielectric constant tensor:
#      x y z
#    x 1.844020 0.000000 0.005590 
#    y 0.000000 2.033310 0.000000 
#    z 0.005590 0.000000 1.901820 
# 
# From -- ./inp_files/17145.got.cif
#   From: 2010.05.17/outbox.cif.g08.bks.cpg/sg14_9_cif.got.tgz:17145.got - 2010.06.03 17:49:19.
