data_PCOD9252534
_publ_section_title
;
Structure prediction by ZEFSAII (Michael W. Deem and Ramdas Pophale) SiO2 
 PCOD9252534
Probable space group: P 21/C
;
_chemical_formula_sum "Si O2"
_cell_formula_units_Z 30
_cell_length_a 16.221873
_cell_length_b 17.401782
_cell_length_c 12.787195
_cell_angle_alpha 90.000000
_cell_angle_beta 156.268906
_cell_angle_gamma 90.000000
_cell_volume 1452.700738
_symmetry_space_group_name_H-M "P 21/C"
_symmetry_group_IT_number 14
_symmetry_cell_setting 'monoclinic'
loop_
_space_group_symop_operation_xyz
x,y,z
-x,1/2+y,1/2-z
-x,-y,-z
x,1/2-y,1/2+z
loop_
_atom_site_type_symbol
_atom_site_label
_atom_site_fract_x
_atom_site_fract_y
_atom_site_fract_z
Si Si1 0.768800 0.278767 0.267025
Si Si2 0.528710 0.021922 0.652745
Si Si3 0.894681 0.578187 0.656561
Si Si4 0.131530 0.939347 0.219827
Si Si5 0.384148 0.810367 0.196420
Si Si6 0.992198 0.665925 0.097782
Si Si7 0.664836 0.761554 0.855679
Si Si8 0.000000 0.000000 0.500000
O O1 0.838054 0.364931 0.317773
O O2 0.728618 0.264692 0.342398
O O3 0.939465 0.222335 0.417589
O O4 0.542750 0.271647 0.953364
O O5 0.342293 0.981098 0.493171
O O6 0.500000 0.000000 0.500000
O O7 0.523317 0.112542 0.649362
O O8 0.734682 0.988711 0.939579
O O9 0.773004 0.658743 0.511414
O O10 0.989258 0.551512 0.876431
O O11 0.039499 0.584333 0.723745
O O12 0.000000 0.000000 0.000000
O O13 0.569849 0.771119 0.352198
O O14 0.204126 0.835021 0.909071
O O15 0.817742 0.705692 0.967888
O O16 0.946980 0.580021 0.005646
#
# Coordination Sequence:
#
# PCOD9252534 Si02
#       8
#     4   4   4   4   4   4   4   2
#     4  11  24  45  73 108 139 184 252 315 367 426
#     4  12  22  44  71 107 144 173 237 313 372 424
#     4  12  25  49  69 106 149 194 245 299 368 456
#     4  12  24  40  76 111 140 186 240 313 378 422
#     4  11  25  44  70 108 140 180 248 309 366 438
#     4  11  27  50  68 103 146 198 247 300 366 451
#     4  11  26  45  75 103 141 194 244 302 374 440
#     4  12  30  48  72 104 154 206 242 292 374 468
#
# _framework density 20.65119
#
# number of rings (size 3 to 8) (size 9 to 14) (size 15 to 20)
#    0.000    0.533    6.667    0.000    5.600    0.000 
#    0.000    3.333    0.000    0.000    0.000    0.000 
#    0.000    0.000    0.000    0.000    0.000    0.000 
#
# Total GULP energy -167019.944134 kJ/mol
# GULP energy per Si atom -5567.331471 kJ/mol
# Density = 2.060419 g / cm^3
# Si number density = 20.651190 Si / 1000 Ang^3
#
#
#
# Elastic Constant Matrix: (Units=GPa)
#
#
# Indices 1 2 3 4 5 6 
#
# 1 174.5098 55.8941 24.7292 0.0000 7.2118 0.0000
# 2 55.8941 103.0553 9.3442 0.0000 4.9588 0.0000
# 3 24.7292 9.3442 20.1250 0.0000 8.8198 0.0000
# 4 0.0000 0.0000 0.0000 24.4500 0.0000 -4.0337
# 5 7.2118 4.9588 8.8198 0.0000 35.5725 0.0000
# 6 0.0000 0.0000 0.0000 -4.0337 0.0000 42.4496
#
#
#
# Elastic Compliance Matrix: (Units=1/GPa)
#
#
# Indices 1 2 3 4 5 6 
#
# 1 0.008088 -0.003648 -0.008694 0.000000 0.001024 0.000000
# 2 -0.003648 0.011778 -0.000663 0.000000 -0.000738 0.000000
# 3 -0.008694 -0.000663 0.067165 0.000000 -0.014798 0.000000
# 4 0.000000 0.000000 0.000000 0.041551 0.000000 0.003948
# 5 0.001024 -0.000738 -0.014798 0.000000 0.031676 0.000000
# 6 0.000000 0.000000 0.000000 0.003948 0.000000 0.023933
#
#
# Mechanical properties :
#
#
# Convention : Reuss Voigt Hill
#
# Bulk Modulus (GPa) = 16.38745 53.06944 34.72845
# Shear Modulus (GPa) = 21.68816 34.34258 28.01537
#
# Velocity S-wave (km/s) = 3.24422 4.08239 3.68720
# Velocity P-wave (km/s) = 4.68890 6.92640 5.91443
#
# Compressibility (1/GPa) = 0.06102231
#
# Stress axis : x y z
#
# Youngs Moduli (GPa) = 123.63397 84.90683 14.88865
#
# Poissons Ratio (x) = 0.30973 0.12944
# Poissons Ratio (y) = 0.45100 0.00987
# Poissons Ratio (z) = 1.07487 0.05626
#
# Static dielectric constant tensor:
#      x y z
#    x 1.808740 0.000000 -0.003480 
#    y 0.000000 1.676720 0.000000 
#    z -0.003480 0.000000 1.752090 
# 
# From -- ./inp_files/33010.got.cif
#   From: 2010.05.17/outbox.cif.g08.bks.cpg/sg14_17_cif.got.tgz:33010.got - 2010.06.03 17:49:19.
