data_PCOD9252692
_publ_section_title
;
Structure prediction by ZEFSAII (Michael W. Deem and Ramdas Pophale) SiO2 
 PCOD9252692
Probable space group: P 21/C
;
_chemical_formula_sum "Si O2"
_cell_formula_units_Z 24
_cell_length_a 10.930858
_cell_length_b 11.886254
_cell_length_c 18.508419
_cell_angle_alpha 90.000000
_cell_angle_beta 30.689931
_cell_angle_gamma 90.000000
_cell_volume 1227.360866
_symmetry_space_group_name_H-M "P 21/C"
_symmetry_group_IT_number 14
_symmetry_cell_setting 'monoclinic'
loop_
_space_group_symop_operation_xyz
x,y,z
-x,1/2+y,1/2-z
-x,-y,-z
x,1/2-y,1/2+z
loop_
_atom_site_type_symbol
_atom_site_label
_atom_site_fract_x
_atom_site_fract_y
_atom_site_fract_z
Si Si1 0.329194 0.408126 0.123850
Si Si2 0.871380 0.037919 0.772051
Si Si3 0.123489 0.085710 0.492247
Si Si4 0.372939 0.333728 0.533853
Si Si5 0.653553 0.503725 0.729631
Si Si6 0.113423 0.154452 0.010396
O O1 0.365298 0.416789 0.190778
O O2 0.053200 0.433123 0.244264
O O3 0.500000 0.500000 0.000000
O O4 0.389178 0.289358 0.058297
O O5 0.638349 0.116679 0.889145
O O6 0.019532 0.055602 0.623904
O O7 0.771471 0.913540 0.837496
O O8 0.077308 0.217751 0.501466
O O9 0.406090 0.061940 0.346162
O O10 0.000000 0.000000 0.500000
O O11 0.233983 0.335684 0.528092
O O12 0.719974 0.580188 0.627137
O O13 0.863883 0.413521 0.638244
#
# Coordination Sequence:
#
# PCOD9252692 Si02
#       6
#     4   4   4   4   4   4
#     4  12  24  43  71  99 132 176 229 270 336 404
#     4  11  25  43  69 103 131 176 223 278 334 399
#     4  12  27  44  71  99 135 178 229 275 336 403
#     4  11  25  44  71  99 139 174 221 282 334 394
#     4  11  26  46  68 101 135 178 226 277 338 399
#     4  11  25  47  70  96 139 177 220 281 338 395
#
# _framework density 19.554151000000001
#
# number of rings (size 3 to 8) (size 9 to 14) (size 15 to 20)
#    0.000    0.667    5.000    1.000   11.667    0.000 
#    0.000    0.000    0.000    0.000    0.000    0.000 
#    0.000    0.000    0.000    0.000    0.000    0.000 
#
# Total GULP energy -134253.813536 kJ/mol
# GULP energy per Si atom -5593.908897 kJ/mol
# Density = 1.950965 g / cm^3
# Si number density = 19.554151 Si / 1000 Ang^3
#
#
#
# Elastic Constant Matrix: (Units=GPa)
#
#
# Indices 1 2 3 4 5 6 
#
# 1 68.9811 55.2799 25.1458 0.0000 -4.2551 0.0000
# 2 55.2799 186.2577 60.8382 0.0000 1.2499 0.0000
# 3 25.1458 60.8382 102.4443 0.0000 -0.2205 0.0000
# 4 0.0000 0.0000 0.0000 9.2320 0.0000 5.7432
# 5 -4.2551 1.2499 -0.2205 0.0000 28.7873 0.0000
# 6 0.0000 0.0000 0.0000 5.7432 0.0000 25.0158
#
#
#
# Elastic Compliance Matrix: (Units=1/GPa)
#
#
# Indices 1 2 3 4 5 6 
#
# 1 0.019516 -0.005273 -0.001652 0.000000 0.003101 0.000000
# 2 -0.005273 0.008089 -0.003512 0.000000 -0.001158 0.000000
# 3 -0.001652 -0.003512 0.012252 0.000000 0.000002 0.000000
# 4 0.000000 0.000000 0.000000 0.126366 0.000000 -0.029012
# 5 0.003101 -0.001158 0.000002 0.000000 0.035246 0.000000
# 6 0.000000 0.000000 0.000000 -0.029012 0.000000 0.046635
#
#
# Mechanical properties :
#
#
# Convention : Reuss Voigt Hill
#
# Bulk Modulus (GPa) = 52.67866 71.13454 61.90660
# Shear Modulus (GPa) = 18.16150 27.03497 22.59823
#
# Velocity S-wave (km/s) = 3.05089 3.72233 3.40321
# Velocity P-wave (km/s) = 6.27766 7.41158 6.86806
#
# Compressibility (1/GPa) = 0.01898302
#
# Stress axis : x y z
#
# Youngs Moduli (GPa) = 51.23928 123.62658 81.61642
#
# Poissons Ratio (x) = 0.65194 0.13483
# Poissons Ratio (y) = 0.27021 0.28662
# Poissons Ratio (z) = 0.08465 0.43415
#
# Static dielectric constant tensor:
#      x y z
#    x 1.679920 0.000000 0.007170 
#    y 0.000000 1.666960 0.000000 
#    z 0.007170 0.000000 1.671860 
# 
# From -- ./inp_files/57652.got.cif
#   From: 2010.05.17/outbox.cif.g08.bks.cpg/sg14_29_cif.got.tgz:57652.got - 2010.06.03 17:49:19.
