data_PCOD9252323
_publ_section_title
;
Structure prediction by ZEFSAII (Michael W. Deem and Ramdas Pophale) SiO2 
 PCOD9252323
Probable space group: P 21/C
;
_chemical_formula_sum "Si O2"
_cell_formula_units_Z 20
_cell_length_a 9.335629
_cell_length_b 11.830892
_cell_length_c 11.345021
_cell_angle_alpha 90.000000
_cell_angle_beta 38.484224
_cell_angle_gamma 90.000000
_cell_volume 779.768290
_symmetry_space_group_name_H-M "P 21/C"
_symmetry_group_IT_number 14
_symmetry_cell_setting 'monoclinic'
loop_
_space_group_symop_operation_xyz
x,y,z
-x,1/2+y,1/2-z
-x,-y,-z
x,1/2-y,1/2+z
loop_
_atom_site_type_symbol
_atom_site_label
_atom_site_fract_x
_atom_site_fract_y
_atom_site_fract_z
Si Si1 0.082809 0.542745 0.687626
Si Si2 0.589496 0.867551 0.433311
Si Si3 0.268480 0.787426 0.254115
Si Si4 0.182208 0.352826 0.817703
Si Si5 0.480173 0.477703 0.267220
O O1 0.207127 0.646433 0.673887
O O2 0.096181 0.437763 0.770468
O O3 0.827743 0.582570 0.826302
O O4 0.033562 0.793930 0.479739
O O5 0.381261 0.832739 0.654316
O O6 0.663196 0.744917 0.335221
O O7 0.512514 0.942809 0.372892
O O8 0.231270 0.512903 0.477014
O O9 0.450381 0.863838 0.207069
O O10 0.332250 0.430101 0.809959
#
# Coordination Sequence:
#
# PCOD9252323 Si02
#       5
#     4   4   4   4   4
#     4  11  23  50  81 113 158 204 260 326 390 463
#     4  12  27  47  82 119 153 204 269 317 384 467
#     4  11  25  50  77 105 158 211 250 314 396 454
#     4  11  25  52  78 109 165 208 251 323 396 464
#     4  11  23  50  81 113 158 204 260 326 390 463
#
# _framework density 25.648644000000001
#
# number of rings (size 3 to 8) (size 9 to 14) (size 15 to 20)
#    0.000    0.800    4.000    4.200    5.600    0.000 
#    7.200    8.000    0.000    0.000    0.000    0.000 
#    0.000    0.000    0.000    0.000    0.000    0.000 
#
# Total GULP energy -112320.918971 kJ/mol
# GULP energy per Si atom -5616.045949 kJ/mol
# Density = 2.559027 g / cm^3
# Si number density = 25.648644 Si / 1000 Ang^3
#
#
#
# Elastic Constant Matrix: (Units=GPa)
#
#
# Indices 1 2 3 4 5 6 
#
# 1 113.1419 64.7802 59.0586 0.0000 -11.5878 0.0000
# 2 64.7802 151.0421 67.4177 0.0000 -23.9702 0.0000
# 3 59.0586 67.4177 215.5036 0.0000 -19.8693 0.0000
# 4 0.0000 0.0000 0.0000 60.5081 0.0000 0.3712
# 5 -11.5878 -23.9702 -19.8693 0.0000 20.9861 0.0000
# 6 0.0000 0.0000 0.0000 0.3712 0.0000 25.9572
#
#
#
# Elastic Compliance Matrix: (Units=1/GPa)
#
#
# Indices 1 2 3 4 5 6 
#
# 1 0.012429 -0.004447 -0.002027 0.000000 -0.000136 0.000000
# 2 -0.004447 0.010402 -0.001278 0.000000 0.008216 0.000000
# 3 -0.002027 -0.001278 0.005870 0.000000 0.002979 0.000000
# 4 0.000000 0.000000 0.000000 0.016528 0.000000 -0.000236
# 5 -0.000136 0.008216 0.002979 0.000000 0.059780 0.000000
# 6 0.000000 0.000000 0.000000 -0.000236 0.000000 0.038528
#
#
# Mechanical properties :
#
#
# Convention : Reuss Voigt Hill
#
# Bulk Modulus (GPa) = 75.77902 95.80005 85.78953
# Shear Modulus (GPa) = 30.59177 40.71901 35.65539
#
# Velocity S-wave (km/s) = 3.45733 3.98875 3.73251
# Velocity P-wave (km/s) = 6.74883 7.65804 7.21776
#
# Compressibility (1/GPa) = 0.01319627
#
# Stress axis : x y z
#
# Youngs Moduli (GPa) = 80.45570 96.13175 170.34750
#
# Poissons Ratio (x) = 0.42754 0.34537
# Poissons Ratio (y) = 0.35782 0.21769
# Poissons Ratio (z) = 0.16312 0.12285
#
# Static dielectric constant tensor:
#      x y z
#    x 1.977780 0.000000 0.067590 
#    y 0.000000 2.076350 0.000000 
#    z 0.067590 0.000000 2.074650 
# 
# From -- ./inp_files/39167.got.cif
#   From: 2010.05.17/outbox.cif.g08.bks.cpg/sg14_20_cif.got.tgz:39167.got - 2010.06.03 17:49:19.
