data_PCOD9252321
_publ_section_title
;
Structure prediction by ZEFSAII (Michael W. Deem and Ramdas Pophale) SiO2 
 PCOD9252321
Probable space group: P 21/C
;
_chemical_formula_sum "Si O2"
_cell_formula_units_Z 28
_cell_length_a 7.003673
_cell_length_b 10.330770
_cell_length_c 23.756972
_cell_angle_alpha 90.000000
_cell_angle_beta 137.746962
_cell_angle_gamma 90.000000
_cell_volume 1155.796181
_symmetry_space_group_name_H-M "P 21/C"
_symmetry_group_IT_number 14
_symmetry_cell_setting 'monoclinic'
loop_
_space_group_symop_operation_xyz
x,y,z
-x,1/2+y,1/2-z
-x,-y,-z
x,1/2-y,1/2+z
loop_
_atom_site_type_symbol
_atom_site_label
_atom_site_fract_x
_atom_site_fract_y
_atom_site_fract_z
Si Si1 0.595416 0.787298 0.494672
Si Si2 0.509201 0.148750 0.650221
Si Si3 0.838222 0.417247 0.894415
Si Si4 0.369279 0.714327 0.559053
Si Si5 0.463995 0.583293 0.291550
Si Si6 0.887049 0.535752 0.687454
Si Si7 0.072961 0.486990 0.430230
O O1 0.437278 0.807938 0.401802
O O2 0.405020 0.789663 0.508231
O O3 0.838559 0.895205 0.551760
O O4 0.767220 0.649861 0.528843
O O5 0.434258 0.273131 0.670787
O O6 0.790714 0.079346 0.734254
O O7 0.247329 0.050754 0.595090
O O8 0.748293 0.302341 0.917142
O O9 0.659665 0.415397 0.797672
O O10 0.682717 0.661160 0.642135
O O11 0.185870 0.588685 0.500720
O O12 0.224880 0.548552 0.285272
O O13 0.731323 0.487052 0.356969
O O14 0.854508 0.471637 0.618555
#
# Coordination Sequence:
#
# PCOD9252321 Si02
#       7
#     4   4   4   4   4   4   4
#     4  11  25  48  72 107 149 189 238 301 358 435
#     4  12  27  47  71 107 145 190 241 297 376 429
#     4  12  28  45  68 109 146 190 237 294 375 432
#     4  11  25  45  77 106 144 184 243 304 352 428
#     4  12  26  47  76 102 149 191 243 310 351 439
#     4  11  25  46  74 107 139 189 250 296 356 431
#     4  11  23  49  80 109 137 192 258 288 356 430
#
# _framework density 24.225726999999999
#
# number of rings (size 3 to 8) (size 9 to 14) (size 15 to 20)
#    0.000    0.571    1.429    7.286    6.000    3.429 
#    2.571    0.000    0.000    0.000    0.000    0.000 
#    0.000    0.000    0.000    0.000    0.000    0.000 
#
# Total GULP energy -157029.203158 kJ/mol
# GULP energy per Si atom -5608.185827 kJ/mol
# Density = 2.417059 g / cm^3
# Si number density = 24.225727 Si / 1000 Ang^3
#
#
#
# Elastic Constant Matrix: (Units=GPa)
#
#
# Indices 1 2 3 4 5 6 
#
# 1 82.1898 20.2737 21.8286 0.0000 -22.4649 0.0000
# 2 20.2737 84.6262 24.8202 0.0000 -15.0940 0.0000
# 3 21.8286 24.8202 124.4794 0.0000 -23.0479 0.0000
# 4 0.0000 0.0000 0.0000 34.4840 0.0000 -0.8067
# 5 -22.4649 -15.0940 -23.0479 0.0000 53.6736 0.0000
# 6 0.0000 0.0000 0.0000 -0.8067 0.0000 36.0500
#
#
#
# Elastic Compliance Matrix: (Units=1/GPa)
#
#
# Indices 1 2 3 4 5 6 
#
# 1 0.014361 -0.002226 -0.001171 0.000000 0.004882 0.000000
# 2 -0.002226 0.013257 -0.001885 0.000000 0.001987 0.000000
# 3 -0.001171 -0.001885 0.009153 0.000000 0.002911 0.000000
# 4 0.000000 0.000000 0.000000 0.029014 0.000000 0.000649
# 5 0.004882 0.001987 0.002911 0.000000 0.022483 0.000000
# 6 0.000000 0.000000 0.000000 0.000649 0.000000 0.027754
#
#
# Mechanical properties :
#
#
# Convention : Reuss Voigt Hill
#
# Bulk Modulus (GPa) = 38.15610 47.23784 42.69697
# Shear Modulus (GPa) = 36.94849 39.79971 38.37410
#
# Velocity S-wave (km/s) = 3.90959 4.05763 3.98430
# Velocity P-wave (km/s) = 6.01367 6.44157 6.23130
#
# Compressibility (1/GPa) = 0.02620813
#
# Stress axis : x y z
#
# Youngs Moduli (GPa) = 69.63077 75.43008 109.24787
#
# Poissons Ratio (x) = 0.16794 0.12788
# Poissons Ratio (y) = 0.15503 0.20594
# Poissons Ratio (z) = 0.08150 0.14219
#
# Static dielectric constant tensor:
#      x y z
#    x 1.918460 0.000000 -0.013930 
#    y 0.000000 1.936770 0.000000 
#    z -0.013930 0.000000 1.896570 
# 
# From -- ./inp_files/63607.got.cif
#   From: 2010.05.17/outbox.cif.g08.bks.cpg/sg14_32_cif.got.tgz:63607.got - 2010.06.03 17:49:19.
