data_PCOD9252062
_publ_section_title
;
Structure prediction by ZEFSAII (Michael W. Deem and Ramdas Pophale) SiO2 
 PCOD9252062
Probable space group: P 21/C
;
_chemical_formula_sum "Si O2"
_cell_formula_units_Z 26
_cell_length_a 21.839137
_cell_length_b 9.059806
_cell_length_c 16.759172
_cell_angle_alpha 90.000000
_cell_angle_beta 161.846036
_cell_angle_gamma 90.000000
_cell_volume 1033.153145
_symmetry_space_group_name_H-M "P 21/C"
_symmetry_group_IT_number 14
_symmetry_cell_setting 'monoclinic'
loop_
_space_group_symop_operation_xyz
x,y,z
-x,1/2+y,1/2-z
-x,-y,-z
x,1/2-y,1/2+z
loop_
_atom_site_type_symbol
_atom_site_label
_atom_site_fract_x
_atom_site_fract_y
_atom_site_fract_z
Si Si1 0.895331 0.392615 0.935059
Si Si2 0.208122 0.917846 0.267290
Si Si3 0.372962 0.649059 0.141191
Si Si4 0.253234 0.070152 0.601417
Si Si5 0.500000 0.500000 0.000000
Si Si6 0.257328 0.313251 0.488799
Si Si7 0.187548 0.585408 0.489070
O O1 0.053883 0.307846 0.188679
O O2 0.772238 0.503099 0.841758
O O3 0.000000 0.500000 0.000000
O O4 0.791949 0.254168 0.763489
O O5 0.261163 0.908919 0.425786
O O6 0.380796 0.006256 0.437090
O O7 0.000000 0.000000 0.000000
O O8 0.565836 0.731640 0.349290
O O9 0.227147 0.750131 0.011046
O O10 0.420118 0.518203 0.261064
O O11 0.279510 0.239613 0.604862
O O12 0.041321 0.045382 0.296800
O O13 0.704379 0.444984 0.295663
O O14 0.277104 0.486032 0.529679
#
# Coordination Sequence:
#
# PCOD9252062 Si02
#       7
#     4   4   4   4   2   4   4
#     4  11  26  48  72 108 148 192 245 314 378 446
#     4  12  26  46  75 111 151 196 253 313 377 449
#     4  12  24  45  70 103 142 188 241 295 367 448
#     4  11  24  46  71 100 141 192 237 296 374 441
#     4  12  24  42  68 110 140 184 246 306 358 436
#     4  11  23  44  68 100 137 189 235 287 369 435
#     4  11  23  42  69  97 137 186 235 295 357 439
#
# _framework density 25.165679000000001
#
# number of rings (size 3 to 8) (size 9 to 14) (size 15 to 20)
#    0.000    0.615    1.538    8.308    2.154    1.231 
#    0.000    1.538    0.000    0.000    0.000    0.000 
#    0.000    0.000    0.000    0.000    0.000    0.000 
#
# Total GULP energy -144838.378217 kJ/mol
# GULP energy per Si atom -5570.706855 kJ/mol
# Density = 2.510840 g / cm^3
# Si number density = 25.165679 Si / 1000 Ang^3
#
#
#
# Elastic Constant Matrix: (Units=GPa)
#
#
# Indices 1 2 3 4 5 6 
#
# 1 112.2025 14.7139 17.9294 0.0000 -5.1760 0.0000
# 2 14.7139 85.6284 -6.9837 0.0000 10.0919 0.0000
# 3 17.9294 -6.9837 75.3431 0.0000 7.2253 0.0000
# 4 0.0000 0.0000 0.0000 16.7330 0.0000 0.0524
# 5 -5.1760 10.0919 7.2253 0.0000 35.1718 0.0000
# 6 0.0000 0.0000 0.0000 0.0524 0.0000 49.0519
#
#
#
# Elastic Compliance Matrix: (Units=1/GPa)
#
#
# Indices 1 2 3 4 5 6 
#
# 1 0.009770 -0.002218 -0.002784 0.000000 0.002646 0.000000
# 2 -0.002218 0.012755 0.002134 0.000000 -0.004425 0.000000
# 3 -0.002784 0.002134 0.014517 0.000000 -0.004004 0.000000
# 4 0.000000 0.000000 0.000000 0.059762 0.000000 -0.000064
# 5 0.002646 -0.004425 -0.004004 0.000000 0.030913 0.000000
# 6 0.000000 0.000000 0.000000 -0.000064 0.000000 0.020387
#
#
# Mechanical properties :
#
#
# Convention : Reuss Voigt Hill
#
# Bulk Modulus (GPa) = 31.94198 36.05480 33.99839
# Shear Modulus (GPa) = 30.43655 36.69229 33.56442
#
# Velocity S-wave (km/s) = 3.48148 3.82256 3.65600
# Velocity P-wave (km/s) = 5.37412 5.81727 5.60008
#
# Compressibility (1/GPa) = 0.03130676
#
# Stress axis : x y z
#
# Youngs Moduli (GPa) = 102.35098 78.40046 68.88433
#
# Poissons Ratio (x) = 0.17388 0.19180
# Poissons Ratio (y) = 0.22700 -0.14703
# Poissons Ratio (z) = 0.28498 -0.16734
#
# Static dielectric constant tensor:
#      x y z
#    x 2.008380 0.000000 0.040050 
#    y 0.000000 1.972800 0.000000 
#    z 0.040050 0.000000 1.982440 
# 
# From -- ./inp_files/61850.got.cif
#   From: 2010.05.17/outbox.cif.g08.bks.cpg/sg14_31_cif.got.tgz:61850.got - 2010.06.03 17:49:19.
