data_PCOD9252546
_publ_section_title
;
Structure prediction by ZEFSAII (Michael W. Deem and Ramdas Pophale) SiO2 
 PCOD9252546
Probable space group: P 21/C
;
_chemical_formula_sum "Si O2"
_cell_formula_units_Z 28
_cell_length_a 16.037193
_cell_length_b 8.100259
_cell_length_c 10.742090
_cell_angle_alpha 90.000000
_cell_angle_beta 57.964301
_cell_angle_gamma 90.000000
_cell_volume 1182.952560
_symmetry_space_group_name_H-M "P 21/C"
_symmetry_group_IT_number 14
_symmetry_cell_setting 'monoclinic'
loop_
_space_group_symop_operation_xyz
x,y,z
-x,1/2+y,1/2-z
-x,-y,-z
x,1/2-y,1/2+z
loop_
_atom_site_type_symbol
_atom_site_label
_atom_site_fract_x
_atom_site_fract_y
_atom_site_fract_z
Si Si1 0.421584 0.987509 0.953947
Si Si2 0.975165 0.633355 0.913134
Si Si3 0.268594 0.718114 0.471163
Si Si4 0.614378 0.691227 0.900963
Si Si5 0.802514 0.884573 0.112558
Si Si6 0.442201 0.584361 0.869268
Si Si7 0.105538 0.573352 0.232904
O O1 0.332081 0.860128 0.034334
O O2 0.480864 0.984316 0.776908
O O3 0.500000 0.000000 0.000000
O O4 0.372525 0.166892 0.008257
O O5 0.971271 0.527625 0.789690
O O6 0.057811 0.773232 0.842300
O O7 0.874827 0.743214 0.001753
O O8 0.000000 0.500000 0.000000
O O9 0.224169 0.556522 0.438656
O O10 0.361254 0.826064 0.345458
O O11 0.185498 0.844370 0.578290
O O12 0.700217 0.695979 0.733153
O O13 0.513838 0.693363 0.900095
O O14 0.612937 0.526837 0.985452
O O15 0.851154 0.948325 0.201757
#
# Coordination Sequence:
#
# PCOD9252546 Si02
#       7
#     4   4   4   4   4   4   4
#     4  12  26  40  69 100 148 201 249 300 360 431
#     4  12  28  53  81 108 146 189 239 316 388 463
#     4  12  26  44  71 109 147 196 250 305 358 449
#     4  11  25  43  68 102 151 199 247 309 356 444
#     4  12  27  47  75 113 143 191 251 308 376 451
#     4  11  24  46  65 102 153 200 247 301 368 424
#     4  12  27  50  78 110 145 189 244 311 383 453
#
# _framework density 23.669585999999999
#
# number of rings (size 3 to 8) (size 9 to 14) (size 15 to 20)
#    0.000    0.286    4.286    3.857    8.000    1.143 
#    0.000    0.000    0.000    0.000    0.000    0.000 
#    0.000    0.000    0.000    0.000    0.000    0.000 
#
# Total GULP energy -156354.897877 kJ/mol
# GULP energy per Si atom -5584.103496 kJ/mol
# Density = 2.361571 g / cm^3
# Si number density = 23.669586 Si / 1000 Ang^3
#
#
#
# Elastic Constant Matrix: (Units=GPa)
#
#
# Indices 1 2 3 4 5 6 
#
# 1 56.2613 -9.5235 -15.9659 0.0000 11.8375 0.0000
# 2 -9.5235 65.7656 -1.6910 0.0000 -6.5461 0.0000
# 3 -15.9659 -1.6910 43.3106 0.0000 -8.5340 0.0000
# 4 0.0000 0.0000 0.0000 37.4045 0.0000 8.9630
# 5 11.8375 -6.5461 -8.5340 0.0000 44.3215 0.0000
# 6 0.0000 0.0000 0.0000 8.9630 0.0000 51.3012
#
#
#
# Elastic Compliance Matrix: (Units=1/GPa)
#
#
# Indices 1 2 3 4 5 6 
#
# 1 0.021088 0.002855 0.007129 0.000000 -0.003838 0.000000
# 2 0.002855 0.015869 0.002062 0.000000 0.001978 0.000000
# 3 0.007129 0.002062 0.026487 0.000000 0.003501 0.000000
# 4 0.000000 0.000000 0.000000 0.027903 0.000000 -0.004875
# 5 -0.003838 0.001978 0.003501 0.000000 0.024554 0.000000
# 6 0.000000 0.000000 0.000000 -0.004875 0.000000 0.020344
#
#
# Mechanical properties :
#
#
# Convention : Reuss Voigt Hill
#
# Bulk Modulus (GPa) = 11.42383 12.33075 11.87729
# Shear Modulus (GPa) = 35.37767 39.43997 37.40882
#
# Velocity S-wave (km/s) = 3.87026 4.08643 3.97981
# Velocity P-wave (km/s) = 4.98084 5.24271 5.11345
#
# Compressibility (1/GPa) = 0.08753634
#
# Stress axis : x y z
#
# Youngs Moduli (GPa) = 47.42011 63.01643 37.75387
#
# Poissons Ratio (x) = -0.17992 -0.26915
# Poissons Ratio (y) = -0.13539 -0.07784
# Poissons Ratio (z) = -0.33806 -0.12993
#
# Static dielectric constant tensor:
#      x y z
#    x 1.893630 0.000000 -0.029040 
#    y 0.000000 2.011030 0.000000 
#    z -0.029040 0.000000 1.899210 
# 
# From -- ./inp_files/31480.got.cif
#   From: 2010.05.17/outbox.cif.g08.bks.cpg/sg14_16_cif.got.tgz:31480.got - 2010.06.03 17:49:19.
