data_PCOD9252786
_publ_section_title
;
Structure prediction by ZEFSAII (Michael W. Deem and Ramdas Pophale) SiO2 
 PCOD9252786
Probable space group: P 21/C
;
_chemical_formula_sum "Si O2"
_cell_formula_units_Z 24
_cell_length_a 14.185913
_cell_length_b 15.625893
_cell_length_c 8.837780
_cell_angle_alpha 90.000000
_cell_angle_beta 28.458112
_cell_angle_gamma 90.000000
_cell_volume 933.518531
_symmetry_space_group_name_H-M "P 21/C"
_symmetry_group_IT_number 14
_symmetry_cell_setting 'monoclinic'
loop_
_space_group_symop_operation_xyz
x,y,z
-x,1/2+y,1/2-z
-x,-y,-z
x,1/2-y,1/2+z
loop_
_atom_site_type_symbol
_atom_site_label
_atom_site_fract_x
_atom_site_fract_y
_atom_site_fract_z
Si Si1 0.870811 0.383518 0.278642
Si Si2 0.925423 0.638726 0.307640
Si Si3 0.393365 0.270598 0.772369
Si Si4 0.315188 0.700512 0.914786
Si Si5 0.481735 0.037995 0.195954
Si Si6 0.816530 0.485585 0.650294
O O1 0.801685 0.285856 0.372432
O O2 0.698115 0.440801 0.450211
O O3 0.877031 0.412841 0.444097
O O4 0.045235 0.387844 0.909331
O O5 0.817610 0.729891 0.466000
O O6 0.793440 0.570195 0.581366
O O7 0.137825 0.642503 0.095502
O O8 0.515744 0.199777 0.694528
O O9 0.538709 0.283707 0.428913
O O10 0.373482 0.368435 0.859109
O O11 0.367320 0.977549 0.476112
O O12 0.500000 0.000000 0.000000
O O13 0.000000 0.500000 0.500000
#
# Coordination Sequence:
#
# PCOD9252786 Si02
#       6
#     4   4   4   4   4   4
#     4  11  26  49  72 109 152 202 249 321 386 454
#     4  12  26  50  76 110 157 198 259 328 379 467
#     4  11  27  44  76 111 146 200 257 312 391 450
#     4  11  25  46  73 108 148 194 255 314 382 453
#     4  11  25  50  76 111 156 204 256 317 391 467
#     4  12  29  45  76 111 152 205 259 310 395 462
#
# _framework density 25.709182999999999
#
# number of rings (size 3 to 8) (size 9 to 14) (size 15 to 20)
#    0.000    0.667    3.333    4.000    9.333    1.333 
#    0.000    0.000    0.000    0.000    0.000    0.000 
#    0.000    0.000    0.000    0.000    0.000    0.000 
#
# Total GULP energy -134162.607094 kJ/mol
# GULP energy per Si atom -5590.108629 kJ/mol
# Density = 2.565067 g / cm^3
# Si number density = 25.709183 Si / 1000 Ang^3
#
#
#
# Elastic Constant Matrix: (Units=GPa)
#
#
# Indices 1 2 3 4 5 6 
#
# 1 80.5560 6.3043 26.0388 0.0000 2.1698 0.0000
# 2 6.3043 89.3167 17.7227 0.0000 -5.4093 0.0000
# 3 26.0388 17.7227 103.3716 0.0000 14.5646 0.0000
# 4 0.0000 0.0000 0.0000 39.6038 0.0000 0.3989
# 5 2.1698 -5.4093 14.5646 0.0000 43.9332 0.0000
# 6 0.0000 0.0000 0.0000 0.3989 0.0000 45.6286
#
#
#
# Elastic Compliance Matrix: (Units=1/GPa)
#
#
# Indices 1 2 3 4 5 6 
#
# 1 0.013529 -0.000248 -0.003427 0.000000 0.000437 0.000000
# 2 -0.000248 0.011799 -0.002273 0.000000 0.002219 0.000000
# 3 -0.003427 -0.002273 0.011478 0.000000 -0.003916 0.000000
# 4 0.000000 0.000000 0.000000 0.025252 0.000000 -0.000221
# 5 0.000437 0.002219 -0.003916 0.000000 0.024312 0.000000
# 6 0.000000 0.000000 0.000000 -0.000221 0.000000 0.021918
#
#
# Mechanical properties :
#
#
# Convention : Reuss Voigt Hill
#
# Bulk Modulus (GPa) = 40.14450 41.48621 40.81536
# Shear Modulus (GPa) = 38.91400 40.71168 39.81284
#
# Velocity S-wave (km/s) = 3.89475 3.98370 3.93947
# Velocity P-wave (km/s) = 5.98951 6.10995 6.05003
#
# Compressibility (1/GPa) = 0.02491001
#
# Stress axis : x y z
#
# Youngs Moduli (GPa) = 73.91474 84.75285 87.11957
#
# Poissons Ratio (x) = 0.02106 0.29855
# Poissons Ratio (y) = 0.01837 0.19801
# Poissons Ratio (z) = 0.25330 0.19263
#
# Static dielectric constant tensor:
#      x y z
#    x 2.080490 0.000000 0.056080 
#    y 0.000000 2.297180 0.000000 
#    z 0.056080 0.000000 1.996430 
# 
# From -- ./inp_files/16611.got.cif
#   From: 2010.05.17/outbox.cif.g08.bks.cpg/sg14_9_cif.got.tgz:16611.got - 2010.06.03 17:49:19.
