data_PCOD9252513
_publ_section_title
;
Structure prediction by ZEFSAII (Michael W. Deem and Ramdas Pophale) SiO2 
 PCOD9252513
Probable space group: P 21/C
;
_chemical_formula_sum "Si O2"
_cell_formula_units_Z 20
_cell_length_a 6.978362
_cell_length_b 6.717768
_cell_length_c 22.889403
_cell_angle_alpha 90.000000
_cell_angle_beta 123.408429
_cell_angle_gamma 90.000000
_cell_volume 895.732158
_symmetry_space_group_name_H-M "P 21/C"
_symmetry_group_IT_number 14
_symmetry_cell_setting 'monoclinic'
loop_
_space_group_symop_operation_xyz
x,y,z
-x,1/2+y,1/2-z
-x,-y,-z
x,1/2-y,1/2+z
loop_
_atom_site_type_symbol
_atom_site_label
_atom_site_fract_x
_atom_site_fract_y
_atom_site_fract_z
Si Si1 0.270047 0.801099 0.240215
Si Si2 0.424344 0.302361 0.421568
Si Si3 0.654416 0.568783 0.360958
Si Si4 0.150020 0.649814 0.432404
Si Si5 0.918175 0.468881 0.177836
O O1 0.503182 0.753758 0.313929
O O2 0.308551 0.929186 0.189355
O O3 0.102682 0.909378 0.258083
O O4 0.150096 0.591284 0.205741
O O5 0.516729 0.447562 0.386410
O O6 0.250876 0.434219 0.431699
O O7 0.648037 0.247389 0.496900
O O8 0.289791 0.116264 0.373290
O O9 0.907607 0.630294 0.424229
O O10 0.099941 0.776832 0.365961
#
# Coordination Sequence:
#
# PCOD9252513 Si02
#       5
#     4   4   4   4   4
#     4  12  24  40  70  96 140 168 222 270 330 398
#     4  11  24  45  69  97 135 173 221 274 327 389
#     4  12  23  44  64 104 127 176 218 276 326 388
#     4  11  24  45  69  97 135 173 221 274 327 389
#     4  12  23  46  66 102 129 184 212 272 334 390
#
# _framework density 22.328102999999999
#
# number of rings (size 3 to 8) (size 9 to 14) (size 15 to 20)
#    0.000    0.400    4.000    6.000    0.000    0.000 
#    0.000    2.000    0.000    0.000    0.000    0.000 
#    0.000    0.000    0.000    0.000    0.000    0.000 
#
# Total GULP energy -112056.339292 kJ/mol
# GULP energy per Si atom -5602.816965 kJ/mol
# Density = 2.227728 g / cm^3
# Si number density = 22.328103 Si / 1000 Ang^3
#
#
#
# Elastic Constant Matrix: (Units=GPa)
#
#
# Indices 1 2 3 4 5 6 
#
# 1 61.4276 4.4763 0.8452 0.0000 21.3687 0.0000
# 2 4.4763 42.3447 6.2451 0.0000 14.8492 0.0000
# 3 0.8452 6.2451 67.2433 0.0000 17.0716 0.0000
# 4 0.0000 0.0000 0.0000 35.1214 0.0000 7.8951
# 5 21.3687 14.8492 17.0716 0.0000 43.7593 0.0000
# 6 0.0000 0.0000 0.0000 7.8951 0.0000 38.2465
#
#
#
# Elastic Compliance Matrix: (Units=1/GPa)
#
#
# Indices 1 2 3 4 5 6 
#
# 1 0.020053 0.001462 0.002469 0.000000 -0.011251 0.000000
# 2 0.001462 0.026914 -0.000020 0.000000 -0.009839 0.000000
# 3 0.002469 -0.000020 0.016812 0.000000 -0.007757 0.000000
# 4 0.000000 0.000000 0.000000 0.029858 0.000000 -0.006164
# 5 -0.011251 -0.009839 -0.007757 0.000000 0.034712 0.000000
# 6 0.000000 0.000000 0.000000 -0.006164 0.000000 0.027419
#
#
# Mechanical properties :
#
#
# Convention : Reuss Voigt Hill
#
# Bulk Modulus (GPa) = 13.96656 21.57210 17.76933
# Shear Modulus (GPa) = 29.10136 34.05537 31.57837
#
# Velocity S-wave (km/s) = 3.61411 3.90965 3.76478
# Velocity P-wave (km/s) = 4.86667 5.48296 5.18398
#
# Compressibility (1/GPa) = 0.07159960
#
# Stress axis : x y z
#
# Youngs Moduli (GPa) = 49.86821 37.15475 59.48265
#
# Poissons Ratio (x) = -0.05431 -0.14684
# Poissons Ratio (y) = -0.07289 0.00119
# Poissons Ratio (z) = -0.12311 0.00075
#
# Static dielectric constant tensor:
#      x y z
#    x 1.803150 0.000000 0.031660 
#    y 0.000000 1.774310 0.000000 
#    z 0.031660 0.000000 1.824220 
# 
# From -- ./inp_files/76117.got.cif
#   From: 2010.05.17/outbox.cif.g08.bks.cpg/sg14_39_cif.got.tgz:76117.got - 2010.06.03 17:49:19.
