data_PCOD9252953
_publ_section_title
;
Structure prediction by ZEFSAII (Michael W. Deem and Ramdas Pophale) SiO2 
 PCOD9252953
Probable space group: P 21/C
;
_chemical_formula_sum "Si O2"
_cell_formula_units_Z 20
_cell_length_a 14.168082
_cell_length_b 7.779306
_cell_length_c 23.928506
_cell_angle_alpha 90.000000
_cell_angle_beta 17.968273
_cell_angle_gamma 90.000000
_cell_volume 813.596413
_symmetry_space_group_name_H-M "P 21/C"
_symmetry_group_IT_number 14
_symmetry_cell_setting 'monoclinic'
loop_
_space_group_symop_operation_xyz
x,y,z
-x,1/2+y,1/2-z
-x,-y,-z
x,1/2-y,1/2+z
loop_
_atom_site_type_symbol
_atom_site_label
_atom_site_fract_x
_atom_site_fract_y
_atom_site_fract_z
Si Si1 0.338685 0.116022 0.357638
Si Si2 0.853819 0.097007 0.156719
Si Si3 0.874469 0.691188 0.142053
Si Si4 0.791747 0.595714 0.311236
Si Si5 0.358964 0.104947 0.528053
O O1 0.654566 0.118183 0.212670
O O2 0.337391 0.146412 0.291844
O O3 0.137292 0.275020 0.494103
O O4 0.162930 0.936615 0.469625
O O5 0.635888 0.151897 0.330961
O O6 0.930229 0.895169 0.116715
O O7 0.723670 0.645467 0.286135
O O8 0.500000 0.500000 0.500000
O O9 0.828688 0.747926 0.334922
O O10 0.111512 0.497039 0.131481
O O11 0.500000 0.000000 0.500000
#
# Coordination Sequence:
#
# PCOD9252953 Si02
#       5
#     4   4   4   4   4
#     4  11  28  48  77 115 147 198 260 305 382 455
#     4  12  27  50  77 110 153 198 252 317 377 452
#     4  11  26  50  74 107 155 198 244 310 382 443
#     4  12  26  48  74 106 148 194 247 307 369 452
#     4  12  26  45  71 105 142 194 244 302 372 437
#
# _framework density 24.582211000000001
#
# number of rings (size 3 to 8) (size 9 to 14) (size 15 to 20)
#    0.000    0.400    4.000    3.000    8.400    1.600 
#    0.000    0.000    0.000    0.000    0.000    0.000 
#    0.000    0.000    0.000    0.000    0.000    0.000 
#
# Total GULP energy -112173.474172 kJ/mol
# GULP energy per Si atom -5608.673709 kJ/mol
# Density = 2.452626 g / cm^3
# Si number density = 24.582211 Si / 1000 Ang^3
#
#
#
# Elastic Constant Matrix: (Units=GPa)
#
#
# Indices 1 2 3 4 5 6 
#
# 1 91.6580 22.3627 46.7539 0.0000 49.0199 0.0000
# 2 22.3627 133.5769 33.0360 0.0000 6.6710 0.0000
# 3 46.7539 33.0360 104.7946 0.0000 28.5961 0.0000
# 4 0.0000 0.0000 0.0000 32.6567 0.0000 2.6518
# 5 49.0199 6.6710 28.5961 0.0000 58.5431 0.0000
# 6 0.0000 0.0000 0.0000 2.6518 0.0000 34.6295
#
#
#
# Elastic Compliance Matrix: (Units=1/GPa)
#
#
# Indices 1 2 3 4 5 6 
#
# 1 0.022634 -0.001710 -0.005123 0.000000 -0.016255 0.000000
# 2 -0.001710 0.008256 -0.002277 0.000000 0.001604 0.000000
# 3 -0.005123 -0.002277 0.013043 0.000000 -0.001822 0.000000
# 4 0.000000 0.000000 0.000000 0.030813 0.000000 -0.002360
# 5 -0.016255 0.001604 -0.001822 0.000000 0.031399 0.000000
# 6 0.000000 0.000000 0.000000 -0.002360 0.000000 0.029058
#
#
# Mechanical properties :
#
#
# Convention : Reuss Voigt Hill
#
# Bulk Modulus (GPa) = 38.89348 59.37053 49.13200
# Shear Modulus (GPa) = 30.86508 40.35765 35.61137
#
# Velocity S-wave (km/s) = 3.54727 4.05624 3.81026
# Velocity P-wave (km/s) = 5.71259 6.79277 6.27596
#
# Compressibility (1/GPa) = 0.02571125
#
# Stress axis : x y z
#
# Youngs Moduli (GPa) = 44.18115 121.12780 76.66823
#
# Poissons Ratio (x) = 0.20717 0.39280
# Poissons Ratio (y) = 0.07557 0.17458
# Poissons Ratio (z) = 0.22636 0.27582
#
# Static dielectric constant tensor:
#      x y z
#    x 1.831710 0.000000 -0.081890 
#    y 0.000000 1.899700 0.000000 
#    z -0.081890 0.000000 2.007280 
# 
# From -- ./inp_files/73692.got.cif
#   From: 2010.05.17/outbox.cif.g08.bks.cpg/sg14_37_cif.got.tgz:73692.got - 2010.06.03 17:49:19.
