data_PCOD9252618
_publ_section_title
;
Structure prediction by ZEFSAII (Michael W. Deem and Ramdas Pophale) SiO2 
 PCOD9252618
Probable space group: P 21/C
;
_chemical_formula_sum "Si O2"
_cell_formula_units_Z 20
_cell_length_a 7.224379
_cell_length_b 5.363968
_cell_length_c 20.128240
_cell_angle_alpha 90.000000
_cell_angle_beta 64.341817
_cell_angle_gamma 90.000000
_cell_volume 703.083361
_symmetry_space_group_name_H-M "P 21/C"
_symmetry_group_IT_number 14
_symmetry_cell_setting 'monoclinic'
loop_
_space_group_symop_operation_xyz
x,y,z
-x,1/2+y,1/2-z
-x,-y,-z
x,1/2-y,1/2+z
loop_
_atom_site_type_symbol
_atom_site_label
_atom_site_fract_x
_atom_site_fract_y
_atom_site_fract_z
Si Si1 0.695115 0.711455 0.161642
Si Si2 0.733137 0.078295 0.970591
Si Si3 0.116069 0.773548 0.916777
Si Si4 0.858717 0.760171 0.774852
Si Si5 0.393572 0.534849 0.090348
O O1 0.782514 0.983572 0.131696
O O2 0.521213 0.648662 0.133440
O O3 0.686433 0.711618 0.243065
O O4 0.847288 0.480277 0.125761
O O5 0.772319 0.251028 0.901565
O O6 0.880706 0.846593 0.961469
O O7 0.778425 0.244019 0.028407
O O8 0.500000 0.000000 0.000000
O O9 0.722698 0.704043 0.861610
O O10 0.003721 0.005771 0.755600
O O11 0.500000 0.500000 0.000000
#
# Coordination Sequence:
#
# PCOD9252618 Si02
#       5
#     4   4   4   4   4
#     4  12  27  54  84 123 171 230 290 366 454 534
#     4  11  24  47  82 129 176 224 288 372 444 517
#     4  11  26  48  82 123 174 222 289 356 446 527
#     4  12  31  59  85 123 180 239 296 366 461 544
#     4  12  28  55  94 130 175 231 310 374 440 535
#
# _framework density 28.446128999999999
#
# number of rings (size 3 to 8) (size 9 to 14) (size 15 to 20)
#    0.000    0.400    4.000    2.400    0.000   14.400 
#    0.000    0.000    0.000    0.000    0.000    0.000 
#    0.000    0.000    0.000    0.000    0.000    0.000 
#
# Total GULP energy -112090.191162 kJ/mol
# GULP energy per Si atom -5604.509558 kJ/mol
# Density = 2.838138 g / cm^3
# Si number density = 28.446129 Si / 1000 Ang^3
#
#
#
# Elastic Constant Matrix: (Units=GPa)
#
#
# Indices 1 2 3 4 5 6 
#
# 1 172.5993 55.7324 81.2735 0.0000 41.0867 0.0000
# 2 55.7324 167.8235 46.0077 0.0000 -1.6661 0.0000
# 3 81.2735 46.0077 198.8722 0.0000 31.9771 0.0000
# 4 0.0000 0.0000 0.0000 53.1779 0.0000 0.1019
# 5 41.0867 -1.6661 31.9771 0.0000 59.9565 0.0000
# 6 0.0000 0.0000 0.0000 0.1019 0.0000 43.2365
#
#
#
# Elastic Compliance Matrix: (Units=1/GPa)
#
#
# Indices 1 2 3 4 5 6 
#
# 1 0.008774 -0.002343 -0.002260 0.000000 -0.004872 0.000000
# 2 -0.002343 0.007049 -0.001053 0.000000 0.002363 0.000000
# 3 -0.002260 -0.001053 0.006510 0.000000 -0.001952 0.000000
# 4 0.000000 0.000000 0.000000 0.018805 0.000000 -0.000044
# 5 -0.004872 0.002363 -0.001952 0.000000 0.021125 0.000000
# 6 0.000000 0.000000 0.000000 -0.000044 0.000000 0.023129
#
#
# Mechanical properties :
#
#
# Convention : Reuss Voigt Hill
#
# Bulk Modulus (GPa) = 90.74206 100.59137 95.66671
# Shear Modulus (GPa) = 49.81209 55.02626 52.41918
#
# Velocity S-wave (km/s) = 4.18916 4.40296 4.29739
# Velocity P-wave (km/s) = 7.44094 7.82859 7.63723
#
# Compressibility (1/GPa) = 0.01102025
#
# Stress axis : x y z
#
# Youngs Moduli (GPa) = 113.96692 141.86812 153.61676
#
# Poissons Ratio (x) = 0.33234 0.34725
# Poissons Ratio (y) = 0.26698 0.16180
# Poissons Ratio (z) = 0.25762 0.14943
#
# Static dielectric constant tensor:
#      x y z
#    x 2.246440 0.000000 -0.052460 
#    y 0.000000 2.299740 0.000000 
#    z -0.052460 0.000000 2.267290 
# 
# From -- ./inp_files/64164.got.cif
#   From: 2010.05.17/outbox.cif.g08.bks.cpg/sg14_33_cif.got.tgz:64164.got - 2010.06.03 17:49:19.
