data_PCOD9252801
_publ_section_title
;
Structure prediction by ZEFSAII (Michael W. Deem and Ramdas Pophale) SiO2 
 PCOD9252801
Probable space group: P 21/C
;
_chemical_formula_sum "Si O2"
_cell_formula_units_Z 20
_cell_length_a 9.748237
_cell_length_b 12.447889
_cell_length_c 11.869318
_cell_angle_alpha 90.000000
_cell_angle_beta 34.785340
_cell_angle_gamma 90.000000
_cell_volume 821.685879
_symmetry_space_group_name_H-M "P 21/C"
_symmetry_group_IT_number 14
_symmetry_cell_setting 'monoclinic'
loop_
_space_group_symop_operation_xyz
x,y,z
-x,1/2+y,1/2-z
-x,-y,-z
x,1/2-y,1/2+z
loop_
_atom_site_type_symbol
_atom_site_label
_atom_site_fract_x
_atom_site_fract_y
_atom_site_fract_z
Si Si1 0.801732 0.066623 0.258737
Si Si2 0.122775 0.250001 0.000002
Si Si3 0.319208 0.433380 0.741265
Si Si4 0.531687 0.086391 0.663561
Si Si5 0.141191 0.586388 0.663559
O O1 0.625054 0.003839 0.296299
O O2 0.996734 0.979151 0.167204
O O3 0.695160 0.117768 0.446344
O O4 0.917908 0.164562 0.115392
O O5 0.034586 0.322208 0.166200
O O6 0.148695 0.335441 0.884609
O O7 0.366981 0.177792 0.833805
O O8 0.331135 0.520854 0.832803
O O9 0.217658 0.496162 0.703698
O O10 0.587852 0.382237 0.553662
#
# Coordination Sequence:
#
# PCOD9252801 Si02
#       5
#     4   4   4   4   4
#     4  11  25  47  68 101 139 176 232 281 331 411
#     4  12  24  44  74  98 138 192 212 282 356 384
#     4  11  25  47  68 101 139 176 232 281 331 411
#     4  11  25  47  68 101 139 176 232 281 331 411
#     4  11  25  47  68 101 139 176 232 281 331 411
#
# _framework density 24.340199999999999
#
# number of rings (size 3 to 8) (size 9 to 14) (size 15 to 20)
#    0.000    0.800    4.000    2.400    0.000    3.200 
#    0.000    0.000    0.000    0.000    0.000    0.000 
#    0.000    0.000    0.000    0.000    0.000    0.000 
#
# Total GULP energy -111801.365443 kJ/mol
# GULP energy per Si atom -5590.068272 kJ/mol
# Density = 2.428480 g / cm^3
# Si number density = 24.340200 Si / 1000 Ang^3
#
#
#
# Elastic Constant Matrix: (Units=GPa)
#
#
# Indices 1 2 3 4 5 6 
#
# 1 34.5466 -6.4524 -27.4756 0.0000 -1.5413 0.0000
# 2 -6.4524 120.8520 49.8628 0.0000 3.5358 0.0000
# 3 -27.4756 49.8628 132.9794 0.0000 7.7286 0.0000
# 4 0.0000 0.0000 0.0000 88.6541 0.0000 5.9429
# 5 -1.5413 3.5358 7.7286 0.0000 19.2700 0.0000
# 6 0.0000 0.0000 0.0000 5.9429 0.0000 -6.0156
#
#
#
# Elastic Compliance Matrix: (Units=1/GPa)
#
#
# Indices 1 2 3 4 5 6 
#
# 1 0.034813 -0.001312 0.007688 0.000000 -0.000058 0.000000
# 2 -0.001312 0.009841 -0.003942 0.000000 -0.000330 0.000000
# 3 0.007688 -0.003942 0.010760 0.000000 -0.002977 0.000000
# 4 0.000000 0.000000 0.000000 0.010579 0.000000 0.010451
# 5 -0.000058 -0.000330 -0.002977 0.000000 0.053144 0.000000
# 6 0.000000 0.000000 0.000000 0.010451 0.000000 -0.155910
#
#
# Mechanical properties :
#
#
# Convention : Reuss Voigt Hill
#
# Bulk Modulus (GPa) = 16.58843 35.58309 26.08576
# Shear Modulus (GPa) = -232.03504 38.54459 -96.74522
#
# Velocity S-wave (km/s) = -9.77430 3.98374 -6.31137
# Velocity P-wave (km/s) = 10.97964 5.98423 6.50928
#
# Compressibility (1/GPa) = 0.06028300
#
# Stress axis : x y z
#
# Youngs Moduli (GPa) = 28.72459 101.62057 92.94101
#
# Poissons Ratio (x) = 0.13330 -0.71455
# Poissons Ratio (y) = 0.03768 0.36635
# Poissons Ratio (z) = -0.22084 0.40056
#
# Static dielectric constant tensor:
#      x y z
#    x 1.868690 0.000000 0.018040 
#    y 0.000000 1.919960 0.000000 
#    z 0.018040 0.000000 2.155940 
# 
# From -- ./inp_files/44562.got.cif
#   From: 2010.05.17/outbox.cif.g08.bks.cpg/sg14_23_cif.got.tgz:44562.got - 2010.06.03 17:49:19.
