data_PCOD9252462
_publ_section_title
;
Structure prediction by ZEFSAII (Michael W. Deem and Ramdas Pophale) SiO2 
 PCOD9252462
Probable space group: P 21/C
;
_chemical_formula_sum "Si O2"
_cell_formula_units_Z 32
_cell_length_a 16.850863
_cell_length_b 11.448153
_cell_length_c 18.637390
_cell_angle_alpha 90.000000
_cell_angle_beta 153.368554
_cell_angle_gamma 90.000000
_cell_volume 1611.620326
_symmetry_space_group_name_H-M "P 21/C"
_symmetry_group_IT_number 14
_symmetry_cell_setting 'monoclinic'
loop_
_space_group_symop_operation_xyz
x,y,z
-x,1/2+y,1/2-z
-x,-y,-z
x,1/2-y,1/2+z
loop_
_atom_site_type_symbol
_atom_site_label
_atom_site_fract_x
_atom_site_fract_y
_atom_site_fract_z
Si Si1 0.192140 0.804098 0.673247
Si Si2 0.790415 0.267390 0.146848
Si Si3 0.493847 0.684939 0.823462
Si Si4 0.378765 0.032643 0.833197
Si Si5 0.346336 0.928488 0.064616
Si Si6 0.198575 0.230053 0.150267
Si Si7 0.481568 0.047462 0.404887
Si Si8 0.187927 0.327391 0.474778
O O1 0.216858 0.760243 0.774473
O O2 0.350246 0.757184 0.752137
O O3 0.004976 0.754777 0.494969
O O4 0.214902 0.943679 0.695756
O O5 0.983765 0.318617 0.287246
O O6 0.765959 0.150174 0.081048
O O7 0.628881 0.356121 0.003522
O O8 0.421235 0.657422 0.685613
O O9 0.507972 0.560540 0.873502
O O10 0.678303 0.753539 0.966484
O O11 0.496144 0.020238 0.856656
O O12 0.312164 0.165728 0.777426
O O13 0.500000 0.000000 0.000000
O O14 0.246558 0.037604 0.019437
O O15 0.289678 0.108750 0.245308
O O16 0.205105 0.226949 0.068642
O O17 0.500000 0.000000 0.500000
#
# Coordination Sequence:
#
# PCOD9252462 Si02
#       8
#     4   4   4   4   4   4   4   4
#     4  11  24  44  69 102 132 179 235 274 343 416
#     4  11  25  46  68 101 139 177 229 288 338 414
#     4  12  25  43  68  99 131 182 228 279 343 412
#     4  12  22  42  71  98 136 177 226 282 344 405
#     4  12  24  45  71  98 139 179 226 286 346 403
#     4  11  24  45  68  99 139 180 225 284 343 414
#     4  12  24  43  70  97 135 182 229 286 346 411
#     4  11  25  44  69 100 141 178 223 287 351 405
#
# _framework density 19.855792999999998
#
# number of rings (size 3 to 8) (size 9 to 14) (size 15 to 20)
#    0.000    0.500    7.500    0.375    1.750    1.500 
#    2.250    0.000    0.000    0.000    0.000    0.000 
#    0.000    0.000    0.000    0.000    0.000    0.000 
#
# Total GULP energy -178827.578079 kJ/mol
# GULP energy per Si atom -5588.361815 kJ/mol
# Density = 1.981060 g / cm^3
# Si number density = 19.855793 Si / 1000 Ang^3
#
#
#
# Elastic Constant Matrix: (Units=GPa)
#
#
# Indices 1 2 3 4 5 6 
#
# 1 82.7450 8.0047 26.6803 0.0000 9.3636 0.0000
# 2 8.0047 79.1612 18.0020 0.0000 6.7219 0.0000
# 3 26.6803 18.0020 79.9520 0.0000 8.5051 0.0000
# 4 0.0000 0.0000 0.0000 32.6861 0.0000 -7.4381
# 5 9.3636 6.7219 8.5051 0.0000 33.3865 0.0000
# 6 0.0000 0.0000 0.0000 -7.4381 0.0000 35.0272
#
#
#
# Elastic Compliance Matrix: (Units=1/GPa)
#
#
# Indices 1 2 3 4 5 6 
#
# 1 0.013790 -0.000191 -0.004267 0.000000 -0.002742 0.000000
# 2 -0.000191 0.013444 -0.002756 0.000000 -0.001951 0.000000
# 3 -0.004267 -0.002756 0.014766 0.000000 -0.002010 0.000000
# 4 0.000000 0.000000 0.000000 0.032147 0.000000 0.006827
# 5 -0.002742 -0.001951 -0.002010 0.000000 0.031626 0.000000
# 6 0.000000 0.000000 0.000000 0.006827 0.000000 0.029999
#
#
# Mechanical properties :
#
#
# Convention : Reuss Voigt Hill
#
# Bulk Modulus (GPa) = 36.26882 38.58137 37.42510
# Shear Modulus (GPa) = 31.36943 32.83138 32.10040
#
# Velocity S-wave (km/s) = 3.97906 4.07073 4.02515
# Velocity P-wave (km/s) = 6.27824 6.44728 6.36332
#
# Compressibility (1/GPa) = 0.02757189
#
# Stress axis : x y z
#
# Youngs Moduli (GPa) = 72.51645 74.38180 67.72447
#
# Poissons Ratio (x) = 0.01422 0.28898
# Poissons Ratio (y) = 0.01387 0.18663
# Poissons Ratio (z) = 0.30943 0.20498
#
# Static dielectric constant tensor:
#      x y z
#    x 1.694400 0.000000 -0.009230 
#    y 0.000000 1.693570 0.000000 
#    z -0.009230 0.000000 1.709930 
# 
# From -- ./inp_files/59418.got.cif
#   From: 2010.05.17/outbox.cif.g08.bks.cpg/sg14_30_cif.got.tgz:59418.got - 2010.06.03 17:49:19.
