data_PCOD9252904
_publ_section_title
;
Structure prediction by ZEFSAII (Michael W. Deem and Ramdas Pophale) SiO2 
 PCOD9252904
Probable space group: P 21/C
;
_chemical_formula_sum "Si O2"
_cell_formula_units_Z 20
_cell_length_a 7.320633
_cell_length_b 7.334777
_cell_length_c 14.983947
_cell_angle_alpha 90.000000
_cell_angle_beta 104.537706
_cell_angle_gamma 90.000000
_cell_volume 778.806118
_symmetry_space_group_name_H-M "P 21/C"
_symmetry_group_IT_number 14
_symmetry_cell_setting 'monoclinic'
loop_
_space_group_symop_operation_xyz
x,y,z
-x,1/2+y,1/2-z
-x,-y,-z
x,1/2-y,1/2+z
loop_
_atom_site_type_symbol
_atom_site_label
_atom_site_fract_x
_atom_site_fract_y
_atom_site_fract_z
Si Si1 0.175006 0.615027 0.796845
Si Si2 0.640765 0.267337 0.355360
Si Si3 0.782223 0.807644 0.202432
Si Si4 0.208649 0.461179 0.490201
Si Si5 0.438205 0.386628 0.079088
O O1 0.195030 0.403070 0.821444
O O2 0.364456 0.697545 0.861832
O O3 0.958847 0.663404 0.789812
O O4 0.206535 0.661674 0.696318
O O5 0.433310 0.316562 0.292344
O O6 0.668115 0.376037 0.451379
O O7 0.500000 0.000000 0.500000
O O8 0.646541 0.051030 0.371230
O O9 0.795844 0.934691 0.116916
O O10 0.293029 0.273421 0.540226
O O11 0.000000 0.500000 0.500000
#
# Coordination Sequence:
#
# PCOD9252904 Si02
#       5
#     4   4   4   4   4
#     4  11  26  47  72 114 149 200 263 311 392 469
#     4  11  26  48  78 110 155 201 262 324 388 472
#     4  11  26  48  74 112 150 203 252 323 395 453
#     4  12  25  50  79 115 153 205 264 318 399 479
#     4  11  26  49  78 109 155 209 253 319 403 463
#
# _framework density 25.680330000000001
#
# number of rings (size 3 to 8) (size 9 to 14) (size 15 to 20)
#    0.000    0.800    6.000    0.600    8.400    0.800 
#    0.000    0.000    0.000    0.000    0.000    0.000 
#    0.000    0.000    0.000    0.000    0.000    0.000 
#
# Total GULP energy -111987.756241 kJ/mol
# GULP energy per Si atom -5599.387812 kJ/mol
# Density = 2.562188 g / cm^3
# Si number density = 25.680330 Si / 1000 Ang^3
#
#
#
# Elastic Constant Matrix: (Units=GPa)
#
#
# Indices 1 2 3 4 5 6 
#
# 1 136.4660 50.1664 33.7241 0.0000 37.5525 0.0000
# 2 50.1664 167.5936 47.5777 0.0000 14.5576 0.0000
# 3 33.7241 47.5777 92.9651 0.0000 24.7296 0.0000
# 4 0.0000 0.0000 0.0000 49.6418 0.0000 10.2654
# 5 37.5525 14.5576 24.7296 0.0000 51.4943 0.0000
# 6 0.0000 0.0000 0.0000 10.2654 0.0000 39.2847
#
#
#
# Elastic Compliance Matrix: (Units=1/GPa)
#
#
# Indices 1 2 3 4 5 6 
#
# 1 0.010098 -0.002236 -0.000835 0.000000 -0.006331 0.000000
# 2 -0.002236 0.007480 -0.003311 0.000000 0.001106 0.000000
# 3 -0.000835 -0.003311 0.014151 0.000000 -0.005251 0.000000
# 4 0.000000 0.000000 0.000000 0.021295 0.000000 -0.005565
# 5 -0.006331 0.001106 -0.005251 0.000000 0.026246 0.000000
# 6 0.000000 0.000000 0.000000 -0.005565 0.000000 0.026909
#
#
# Mechanical properties :
#
#
# Convention : Reuss Voigt Hill
#
# Bulk Modulus (GPa) = 52.72747 73.32900 63.02823
# Shear Modulus (GPa) = 39.91539 45.78794 42.85167
#
# Velocity S-wave (km/s) = 3.94676 4.22714 4.08935
# Velocity P-wave (km/s) = 6.43009 7.24165 6.84790
#
# Compressibility (1/GPa) = 0.01896545
#
# Stress axis : x y z
#
# Youngs Moduli (GPa) = 99.02699 133.68946 70.66618
#
# Poissons Ratio (x) = 0.29890 0.05900
# Poissons Ratio (y) = 0.22140 0.23400
# Poissons Ratio (z) = 0.08267 0.44268
#
# Static dielectric constant tensor:
#      x y z
#    x 1.989470 0.000000 0.000030 
#    y 0.000000 1.936350 0.000000 
#    z 0.000030 0.000000 2.127190 
# 
# From -- ./inp_files/54715.got.cif
#   From: 2010.05.17/outbox.cif.g08.bks.cpg/sg14_28_cif.got.tgz:54715.got - 2010.06.03 17:49:19.
