data_PCOD9252261
_publ_section_title
;
Structure prediction by ZEFSAII (Michael W. Deem and Ramdas Pophale) SiO2 
 PCOD9252261
Probable space group: P 21/C
;
_chemical_formula_sum "Si O2"
_cell_formula_units_Z 24
_cell_length_a 16.167802
_cell_length_b 11.401200
_cell_length_c 16.544612
_cell_angle_alpha 90.000000
_cell_angle_beta 17.469934
_cell_angle_gamma 90.000000
_cell_volume 915.538222
_symmetry_space_group_name_H-M "P 21/C"
_symmetry_group_IT_number 14
_symmetry_cell_setting 'monoclinic'
loop_
_space_group_symop_operation_xyz
x,y,z
-x,1/2+y,1/2-z
-x,-y,-z
x,1/2-y,1/2+z
loop_
_atom_site_type_symbol
_atom_site_label
_atom_site_fract_x
_atom_site_fract_y
_atom_site_fract_z
Si Si1 0.037329 0.334590 0.245620
Si Si2 0.285086 0.504299 0.575858
Si Si3 0.799326 0.362891 0.642137
Si Si4 0.464297 0.323296 0.524153
Si Si5 0.719046 0.606815 0.701602
Si Si6 0.478265 0.679372 0.758418
O O1 0.941534 0.430940 0.268321
O O2 0.975541 0.373005 0.394980
O O3 0.823387 0.224806 0.437059
O O4 0.343971 0.286393 0.946310
O O5 0.241211 0.397996 0.681501
O O6 0.421422 0.599372 0.508587
O O7 0.492204 0.439342 0.320920
O O8 0.695950 0.229670 0.748491
O O9 0.603207 0.475978 0.816257
O O10 0.958522 0.392568 0.577134
O O11 0.370882 0.203098 0.650388
O O12 0.644740 0.654299 0.684446
#
# Coordination Sequence:
#
# PCOD9252261 Si02
#       6
#     4   4   4   4   4   4
#     4  12  26  49  73 108 149 190 243 299 363 434
#     4  11  24  46  73 109 142 194 237 309 358 434
#     4  11  24  44  71 104 146 196 243 299 361 434
#     4  11  23  46  70 106 145 187 246 298 368 425
#     4  11  24  44  71 104 146 196 243 299 361 434
#     4  12  26  49  73 108 149 190 243 299 363 434
#
# _framework density 26.214088
#
# number of rings (size 3 to 8) (size 9 to 14) (size 15 to 20)
#    0.000    0.667    5.000    2.500    0.000    1.333 
#    6.000    3.333    0.000    0.000    0.000    0.000 
#    0.000    0.000    0.000    0.000    0.000    0.000 
#
# Total GULP energy -134172.023321 kJ/mol
# GULP energy per Si atom -5590.500972 kJ/mol
# Density = 2.615442 g / cm^3
# Si number density = 26.214088 Si / 1000 Ang^3
#
#
#
# Elastic Constant Matrix: (Units=GPa)
#
#
# Indices 1 2 3 4 5 6 
#
# 1 180.7489 53.6954 13.0293 0.0000 3.1387 0.0000
# 2 53.6954 151.3173 29.2982 0.0000 -1.1005 0.0000
# 3 13.0293 29.2982 64.0377 0.0000 1.3316 0.0000
# 4 0.0000 0.0000 0.0000 23.7113 0.0000 13.0540
# 5 3.1387 -1.1005 1.3316 0.0000 27.7126 0.0000
# 6 0.0000 0.0000 0.0000 13.0540 0.0000 75.1701
#
#
#
# Elastic Compliance Matrix: (Units=1/GPa)
#
#
# Indices 1 2 3 4 5 6 
#
# 1 0.006206 -0.002158 -0.000259 0.000000 -0.000776 0.000000
# 2 -0.002158 0.008007 -0.003239 0.000000 0.000718 0.000000
# 3 -0.000259 -0.003239 0.017170 0.000000 -0.000924 0.000000
# 4 0.000000 0.000000 0.000000 0.046632 0.000000 -0.008098
# 5 -0.000776 0.000718 -0.000924 0.000000 0.036246 0.000000
# 6 0.000000 0.000000 0.000000 -0.008098 0.000000 0.014709
#
#
# Mechanical properties :
#
#
# Convention : Reuss Voigt Hill
#
# Bulk Modulus (GPa) = 49.82565 65.34997 57.58781
# Shear Modulus (GPa) = 34.02026 45.32420 39.67223
#
# Velocity S-wave (km/s) = 3.60639 4.16264 3.89446
# Velocity P-wave (km/s) = 6.03240 6.93447 6.49910
#
# Compressibility (1/GPa) = 0.02006998
#
# Stress axis : x y z
#
# Youngs Moduli (GPa) = 161.14349 124.89675 58.24203
#
# Poissons Ratio (x) = 0.26947 0.01511
# Poissons Ratio (y) = 0.34767 0.18865
# Poissons Ratio (z) = 0.04180 0.40455
#
# Static dielectric constant tensor:
#      x y z
#    x 2.030070 0.000000 0.005560 
#    y 0.000000 2.085800 0.000000 
#    z 0.005560 0.000000 2.275850 
# 
# From -- ./inp_files/60500.got.cif
#   From: 2010.05.17/outbox.cif.g08.bks.cpg/sg14_31_cif.got.tgz:60500.got - 2010.06.03 17:49:19.
