data_PCOD9252098
_publ_section_title
;
Structure prediction by ZEFSAII (Michael W. Deem and Ramdas Pophale) SiO2 
 PCOD9252098
Probable space group: P 21/C
;
_chemical_formula_sum "Si O2"
_cell_formula_units_Z 32
_cell_length_a 14.596458
_cell_length_b 15.542145
_cell_length_c 11.111121
_cell_angle_alpha 90.000000
_cell_angle_beta 143.399088
_cell_angle_gamma 90.000000
_cell_volume 1502.919484
_symmetry_space_group_name_H-M "P 21/C"
_symmetry_group_IT_number 14
_symmetry_cell_setting 'monoclinic'
loop_
_space_group_symop_operation_xyz
x,y,z
-x,1/2+y,1/2-z
-x,-y,-z
x,1/2-y,1/2+z
loop_
_atom_site_type_symbol
_atom_site_label
_atom_site_fract_x
_atom_site_fract_y
_atom_site_fract_z
Si Si1 0.407949 0.955469 0.798318
Si Si2 0.633422 0.874750 0.866288
Si Si3 0.084672 0.454447 0.976441
Si Si4 0.826602 0.607646 0.334847
Si Si5 0.233737 0.721068 0.145498
Si Si6 0.884904 0.037019 0.722830
Si Si7 0.680351 0.294836 0.007433
Si Si8 0.880560 0.697581 0.819215
O O1 0.529136 0.947649 0.818060
O O2 0.349998 0.860143 0.774794
O O3 0.254962 0.011410 0.629015
O O4 0.500000 0.000000 0.000000
O O5 0.713353 0.900313 0.827455
O O6 0.503067 0.804243 0.694828
O O7 0.759378 0.843721 0.097558
O O8 0.015739 0.489797 0.778480
O O9 0.103580 0.356605 0.039570
O O10 0.000000 0.500000 0.000000
O O11 0.796792 0.538798 0.199315
O O12 0.831140 0.705027 0.292703
O O13 0.994121 0.583275 0.562271
O O14 0.264809 0.770000 0.302377
O O15 0.269070 0.763867 0.052926
O O16 0.054300 0.695871 0.951822
O O17 0.766081 0.114065 0.568319
#
# Coordination Sequence:
#
# PCOD9252098 Si02
#       8
#     4   4   4   4   4   4   4   4
#     4  11  23  43  64 102 140 182 232 294 360 433
#     4  11  25  43  70 101 149 181 236 302 360 431
#     4  12  22  42  73 102 139 186 237 287 358 430
#     4  11  27  44  69 104 145 186 242 299 360 428
#     4  11  24  45  71 102 144 192 240 303 357 445
#     4  11  24  49  69 101 145 191 241 290 359 447
#     4  11  24  47  70 102 149 191 239 295 374 433
#     4  12  25  43  74 106 138 189 246 299 361 428
#
# _framework density 21.291893000000002
#
# number of rings (size 3 to 8) (size 9 to 14) (size 15 to 20)
#    0.000    0.750    6.250    1.500    5.250    0.500 
#    2.250    0.000    0.000    0.000    0.000    0.000 
#    0.000    0.000    0.000    0.000    0.000    0.000 
#
# Total GULP energy -178449.097502 kJ/mol
# GULP energy per Si atom -5576.534297 kJ/mol
# Density = 2.124343 g / cm^3
# Si number density = 21.291893 Si / 1000 Ang^3
#
#
#
# Elastic Constant Matrix: (Units=GPa)
#
#
# Indices 1 2 3 4 5 6 
#
# 1 156.0805 50.5010 30.1608 0.0000 -11.7391 0.0000
# 2 50.5010 69.1237 4.8865 0.0000 -11.2353 0.0000
# 3 30.1608 4.8865 91.8638 0.0000 -3.2366 0.0000
# 4 0.0000 0.0000 0.0000 27.0570 0.0000 -9.0421
# 5 -11.7391 -11.2353 -3.2366 0.0000 40.1892 0.0000
# 6 0.0000 0.0000 0.0000 -9.0421 0.0000 26.1463
#
#
#
# Elastic Compliance Matrix: (Units=1/GPa)
#
#
# Indices 1 2 3 4 5 6 
#
# 1 0.008989 -0.006276 -0.002594 0.000000 0.000662 0.000000
# 2 -0.006276 0.019577 0.001151 0.000000 0.003733 0.000000
# 3 -0.002594 0.001151 0.011694 0.000000 0.000506 0.000000
# 4 0.000000 0.000000 0.000000 0.041789 0.000000 0.014452
# 5 0.000662 0.003733 0.000506 0.000000 0.026160 0.000000
# 6 0.000000 0.000000 0.000000 0.014452 0.000000 0.043244
#
#
# Mechanical properties :
#
#
# Convention : Reuss Voigt Hill
#
# Bulk Modulus (GPa) = 40.28798 54.24051 47.26425
# Shear Modulus (GPa) = 28.54451 34.11314 31.32883
#
# Velocity S-wave (km/s) = 3.66543 4.00705 3.84004
# Velocity P-wave (km/s) = 6.07262 6.85118 6.47361
#
# Compressibility (1/GPa) = 0.02482130
#
# Stress axis : x y z
#
# Youngs Moduli (GPa) = 111.25114 51.07942 85.51421
#
# Poissons Ratio (x) = 0.32058 0.22182
# Poissons Ratio (y) = 0.69822 -0.09840
# Poissons Ratio (z) = 0.28859 -0.05878
#
# Static dielectric constant tensor:
#      x y z
#    x 1.074760 0.000000 1.260050 
#    y 0.000000 1.853420 0.000000 
#    z 1.260050 0.000000 -0.545440 
# 
# From -- ./inp_files/32783.got.cif
#   From: 2010.05.17/outbox.cif.g08.bks.cpg/sg14_17_cif.got.tgz:32783.got - 2010.06.03 17:49:19.
