data_PCOD9252142
_publ_section_title
;
Structure prediction by ZEFSAII (Michael W. Deem and Ramdas Pophale) SiO2 
 PCOD9252142
Probable space group: P 21/C
;
_chemical_formula_sum "Si O2"
_cell_formula_units_Z 24
_cell_length_a 7.919864
_cell_length_b 8.990744
_cell_length_c 15.223481
_cell_angle_alpha 90.000000
_cell_angle_beta 98.775876
_cell_angle_gamma 90.000000
_cell_volume 1071.304468
_symmetry_space_group_name_H-M "P 21/C"
_symmetry_group_IT_number 14
_symmetry_cell_setting 'monoclinic'
loop_
_space_group_symop_operation_xyz
x,y,z
-x,1/2+y,1/2-z
-x,-y,-z
x,1/2-y,1/2+z
loop_
_atom_site_type_symbol
_atom_site_label
_atom_site_fract_x
_atom_site_fract_y
_atom_site_fract_z
Si Si1 0.238516 0.097735 0.433711
Si Si2 0.041922 0.398048 0.421154
Si Si3 0.757957 0.117066 0.248557
Si Si4 0.946495 0.404077 0.227530
Si Si5 0.363246 0.911476 0.933853
Si Si6 0.635716 0.152340 0.433176
O O1 0.096799 0.226198 0.439640
O O2 0.429229 0.152510 0.423447
O O3 0.169711 0.996226 0.348556
O O4 0.278969 0.997729 0.522032
O O5 0.217647 0.470210 0.404400
O O6 0.000000 0.500000 0.500000
O O7 0.916430 0.426710 0.329719
O O8 0.901187 0.229435 0.218394
O O9 0.604047 0.131880 0.164815
O O10 0.691042 0.169915 0.337551
O O11 0.860982 0.962828 0.274402
O O12 0.306108 0.778483 0.993037
O O13 0.500000 0.000000 0.000000
#
# Coordination Sequence:
#
# PCOD9252142 Si02
#       6
#     4   4   4   4   4   4
#     4  11  24  47  67 100 143 175 237 292 336 433
#     4  11  24  43  68 101 134 181 225 287 352 408
#     4  11  25  43  71  99 135 184 227 288 356 409
#     4  11  23  45  66 100 137 173 231 286 335 424
#     4  11  23  44  64  98 142 170 229 288 337 424
#     4  11  25  45  71 100 135 188 230 289 355 408
#
# _framework density 22.402595999999999
#
# number of rings (size 3 to 8) (size 9 to 14) (size 15 to 20)
#    0.000    1.000    5.000    1.000    0.000    6.000 
#    0.000    0.000    0.000    0.000    0.000    0.000 
#    0.000    0.000    0.000    0.000    0.000    0.000 
#
# Total GULP energy -133711.184148 kJ/mol
# GULP energy per Si atom -5571.299340 kJ/mol
# Density = 2.235161 g / cm^3
# Si number density = 22.402596 Si / 1000 Ang^3
#
#
#
# Elastic Constant Matrix: (Units=GPa)
#
#
# Indices 1 2 3 4 5 6 
#
# 1 40.7562 30.5282 45.5792 0.0000 12.7773 0.0000
# 2 30.5282 106.5138 48.9993 0.0000 -9.0992 0.0000
# 3 45.5792 48.9993 189.0610 0.0000 9.7320 0.0000
# 4 0.0000 0.0000 0.0000 32.2062 0.0000 7.2069
# 5 12.7773 -9.0992 9.7320 0.0000 31.4800 0.0000
# 6 0.0000 0.0000 0.0000 7.2069 0.0000 32.8740
#
#
#
# Elastic Compliance Matrix: (Units=1/GPa)
#
#
# Indices 1 2 3 4 5 6 
#
# 1 0.048706 -0.012321 -0.007467 0.000000 -0.021022 0.000000
# 2 -0.012321 0.014295 -0.001224 0.000000 0.009511 0.000000
# 3 -0.007467 -0.001224 0.007386 0.000000 0.000393 0.000000
# 4 0.000000 0.000000 0.000000 0.032652 0.000000 -0.007158
# 5 -0.021022 0.009511 0.000393 0.000000 0.042926 0.000000
# 6 0.000000 0.000000 0.000000 -0.007158 0.000000 0.031988
#
#
# Mechanical properties :
#
#
# Convention : Reuss Voigt Hill
#
# Bulk Modulus (GPa) = 35.25570 65.17160 50.21365
# Shear Modulus (GPa) = 21.79293 33.39366 27.59330
#
# Velocity S-wave (km/s) = 3.12234 3.86504 3.51337
# Velocity P-wave (km/s) = 5.36378 7.00516 6.23869
#
# Compressibility (1/GPa) = 0.02836421
#
# Stress axis : x y z
#
# Youngs Moduli (GPa) = 20.53150 69.95244 135.38273
#
# Poissons Ratio (x) = 0.86185 1.01087
# Poissons Ratio (y) = 0.25296 0.16575
# Poissons Ratio (z) = 0.15330 0.08564
#
# Static dielectric constant tensor:
#      x y z
#    x 1.853030 0.000000 0.010350 
#    y 0.000000 2.119030 0.000000 
#    z 0.010350 0.000000 2.175330 
# 
# From -- ./inp_files/39036.got.cif
#   From: 2010.05.17/outbox.cif.g08.bks.cpg/sg14_20_cif.got.tgz:39036.got - 2010.06.03 17:49:19.
