data_PCOD9252637
_publ_section_title
;
Structure prediction by ZEFSAII (Michael W. Deem and Ramdas Pophale) SiO2 
 PCOD9252637
Probable space group: P 21/C
;
_chemical_formula_sum "Si O2"
_cell_formula_units_Z 16
_cell_length_a 9.290226
_cell_length_b 4.922032
_cell_length_c 17.757403
_cell_angle_alpha 90.000000
_cell_angle_beta 136.924811
_cell_angle_gamma 90.000000
_cell_volume 554.554019
_symmetry_space_group_name_H-M "P 21/C"
_symmetry_group_IT_number 14
_symmetry_cell_setting 'monoclinic'
loop_
_space_group_symop_operation_xyz
x,y,z
-x,1/2+y,1/2-z
-x,-y,-z
x,1/2-y,1/2+z
loop_
_atom_site_type_symbol
_atom_site_label
_atom_site_fract_x
_atom_site_fract_y
_atom_site_fract_z
Si Si1 0.054855 0.877906 0.224838
Si Si2 0.500705 0.926451 0.588858
Si Si3 0.612778 0.552312 0.752291
Si Si4 0.055744 0.779722 0.955363
O O1 0.976218 0.585881 0.218023
O O2 0.927297 0.018994 0.109654
O O3 0.303980 0.896024 0.303682
O O4 0.573478 0.632285 0.649562
O O5 0.263301 0.910914 0.530606
O O6 0.500000 0.000000 0.500000
O O7 0.491748 0.301630 0.741170
O O8 0.858522 0.579690 0.865886
O O9 0.000000 0.000000 0.000000
#
# Coordination Sequence:
#
# PCOD9252637 Si02
#       4
#     4   4   4   4
#     4  11  26  49  74 112 153 197 260 318 385 470
#     4  11  24  48  76 112 152 206 256 323 392 466
#     4  11  26  49  74 112 153 197 260 318 385 470
#     4  11  24  48  76 112 152 206 256 323 392 466
#
# _framework density 28.85201
#
# number of rings (size 3 to 8) (size 9 to 14) (size 15 to 20)
#    0.000    1.000    5.000    0.000    0.000   12.000 
#    0.000    0.000    0.000    0.000    0.000    0.000 
#    0.000    0.000    0.000    0.000    0.000    0.000 
#
# Total GULP energy -89622.032442 kJ/mol
# GULP energy per Si atom -5601.377028 kJ/mol
# Density = 2.878634 g / cm^3
# Si number density = 28.852010 Si / 1000 Ang^3
#
#
#
# Elastic Constant Matrix: (Units=GPa)
#
#
# Indices 1 2 3 4 5 6 
#
# 1 193.9912 52.4038 58.0491 0.0000 9.8496 0.0000
# 2 52.4038 145.1608 1.3834 0.0000 24.5917 0.0000
# 3 58.0491 1.3834 155.3279 0.0000 49.3780 0.0000
# 4 0.0000 0.0000 0.0000 27.9579 0.0000 7.2308
# 5 9.8496 24.5917 49.3780 0.0000 85.6303 0.0000
# 6 0.0000 0.0000 0.0000 7.2308 0.0000 73.3329
#
#
#
# Elastic Compliance Matrix: (Units=1/GPa)
#
#
# Indices 1 2 3 4 5 6 
#
# 1 0.006701 -0.002687 -0.003037 0.000000 0.001752 0.000000
# 2 -0.002687 0.008387 0.001955 0.000000 -0.003227 0.000000
# 3 -0.003037 0.001955 0.009334 0.000000 -0.005595 0.000000
# 4 0.000000 0.000000 0.000000 0.036704 0.000000 -0.003619
# 5 0.001752 -0.003227 -0.005595 0.000000 0.015629 0.000000
# 6 0.000000 0.000000 0.000000 -0.003619 0.000000 0.013993
#
#
# Mechanical properties :
#
#
# Convention : Reuss Voigt Hill
#
# Bulk Modulus (GPa) = 59.22745 79.79474 69.51110
# Shear Modulus (GPa) = 48.11668 62.89380 55.50524
#
# Velocity S-wave (km/s) = 4.08819 4.67398 4.39086
# Velocity P-wave (km/s) = 6.54652 7.53954 7.06051
#
# Compressibility (1/GPa) = 0.01688406
#
# Stress axis : x y z
#
# Youngs Moduli (GPa) = 149.24108 119.23298 107.13328
#
# Poissons Ratio (x) = 0.32036 0.32539
# Poissons Ratio (y) = 0.40099 -0.20948
# Poissons Ratio (z) = 0.45328 -0.23314
#
# Static dielectric constant tensor:
#      x y z
#    x 2.332450 0.000000 -0.027800 
#    y 0.000000 2.281740 0.000000 
#    z -0.027800 0.000000 2.348010 
# 
# From -- ./inp_files/626.got.cif
#   From: 2010.05.17/outbox.cif.g08.bks.cpg/sg14_1_cif.got.tgz:626.got - 2010.06.03 17:49:19.
