data_PCOD9252521
_publ_section_title
;
Structure prediction by ZEFSAII (Michael W. Deem and Ramdas Pophale) SiO2 
 PCOD9252521
Probable space group: P 21/C
;
_chemical_formula_sum "Si O2"
_cell_formula_units_Z 24
_cell_length_a 13.713986
_cell_length_b 16.142735
_cell_length_c 8.508407
_cell_angle_alpha 90.000000
_cell_angle_beta 29.403590
_cell_angle_gamma 90.000000
_cell_volume 924.769969
_symmetry_space_group_name_H-M "P 21/C"
_symmetry_group_IT_number 14
_symmetry_cell_setting 'monoclinic'
loop_
_space_group_symop_operation_xyz
x,y,z
-x,1/2+y,1/2-z
-x,-y,-z
x,1/2-y,1/2+z
loop_
_atom_site_type_symbol
_atom_site_label
_atom_site_fract_x
_atom_site_fract_y
_atom_site_fract_z
Si Si1 0.532486 0.423994 0.670260
Si Si2 0.236775 0.938367 0.484932
Si Si3 0.930016 0.445295 0.290700
Si Si4 0.826574 0.832246 0.743341
Si Si5 0.846931 0.304153 0.645423
Si Si6 0.427485 0.239640 0.183223
O O1 0.645267 0.425868 0.342947
O O2 0.362424 0.493006 0.904008
O O3 0.442355 0.331489 0.798773
O O4 0.702191 0.444009 0.557864
O O5 0.021446 0.975618 0.747351
O O6 0.216812 0.856232 0.613304
O O7 0.950428 0.368178 0.382505
O O8 0.078948 0.419411 0.938961
O O9 0.683137 0.803896 0.804396
O O10 0.009913 0.769859 0.506720
O O11 0.697010 0.818485 0.080604
O O12 0.650184 0.268562 0.841690
#
# Coordination Sequence:
#
# PCOD9252521 Si02
#       6
#     4   4   4   4   4   4
#     4  11  24  45  71 102 139 185 231 283 350 417
#     4  11  26  45  72 104 142 181 234 288 348 417
#     4  12  25  46  70 102 143 185 231 290 352 410
#     4  12  25  43  70 104 138 184 233 288 347 411
#     4  12  27  44  73 105 140 184 237 291 343 418
#     4  12  25  43  71 101 142 182 233 286 346 414
#
# _framework density 25.952400000000001
#
# number of rings (size 3 to 8) (size 9 to 14) (size 15 to 20)
#    0.000    0.333    5.000    3.000    7.000    2.000 
#    0.000    0.000    0.000    0.000    0.000    0.000 
#    0.000    0.000    0.000    0.000    0.000    0.000 
#
# Total GULP energy -134774.463789 kJ/mol
# GULP energy per Si atom -5615.602658 kJ/mol
# Density = 2.589333 g / cm^3
# Si number density = 25.952400 Si / 1000 Ang^3
#
#
#
# Elastic Constant Matrix: (Units=GPa)
#
#
# Indices 1 2 3 4 5 6 
#
# 1 129.9685 27.9614 18.4073 0.0000 -38.7278 0.0000
# 2 27.9614 82.2830 28.9285 0.0000 -8.3672 0.0000
# 3 18.4073 28.9285 61.2787 0.0000 -24.4023 0.0000
# 4 0.0000 0.0000 0.0000 36.2457 0.0000 -11.7299
# 5 -38.7278 -8.3672 -24.4023 0.0000 35.2066 0.0000
# 6 0.0000 0.0000 0.0000 -11.7299 0.0000 41.2448
#
#
#
# Elastic Compliance Matrix: (Units=1/GPa)
#
#
# Indices 1 2 3 4 5 6 
#
# 1 0.012836 -0.004356 0.004711 0.000000 0.016350 0.000000
# 2 -0.004356 0.016133 -0.009239 0.000000 -0.007361 0.000000
# 3 0.004711 -0.009239 0.028253 0.000000 0.022569 0.000000
# 4 0.000000 0.000000 0.000000 0.030386 0.000000 0.008642
# 5 0.016350 -0.007361 0.022569 0.000000 0.060283 0.000000
# 6 0.000000 0.000000 0.000000 0.008642 0.000000 0.026703
#
#
# Mechanical properties :
#
#
# Convention : Reuss Voigt Hill
#
# Bulk Modulus (GPa) = 25.34516 47.12496 36.23506
# Shear Modulus (GPa) = 24.32949 35.75497 30.04223
#
# Velocity S-wave (km/s) = 3.06513 3.71578 3.40603
# Velocity P-wave (km/s) = 4.72376 6.05038 5.42775
#
# Compressibility (1/GPa) = 0.03945526
#
# Stress axis : x y z
#
# Youngs Moduli (GPa) = 77.90603 61.98485 35.39492
#
# Poissons Ratio (x) = 0.26999 -0.16676
# Poissons Ratio (y) = 0.33934 0.32701
# Poissons Ratio (z) = -0.36705 0.57267
#
# Static dielectric constant tensor:
#      x y z
#    x 2.007960 0.000000 0.049260 
#    y 0.000000 2.026630 0.000000 
#    z 0.049260 0.000000 2.013800 
# 
# From -- ./inp_files/16620.got.cif
#   From: 2010.05.17/outbox.cif.g08.bks.cpg/sg14_9_cif.got.tgz:16620.got - 2010.06.03 17:49:19.
