data_PCOD9252520
_publ_section_title
;
Structure prediction by ZEFSAII (Michael W. Deem and Ramdas Pophale) SiO2 
 PCOD9252520
Probable space group: P 21/C
;
_chemical_formula_sum "Si O2"
_cell_formula_units_Z 24
_cell_length_a 14.442380
_cell_length_b 8.555224
_cell_length_c 17.747216
_cell_angle_alpha 90.000000
_cell_angle_beta 147.905115
_cell_angle_gamma 90.000000
_cell_volume 1165.088632
_symmetry_space_group_name_H-M "P 21/C"
_symmetry_group_IT_number 14
_symmetry_cell_setting 'monoclinic'
loop_
_space_group_symop_operation_xyz
x,y,z
-x,1/2+y,1/2-z
-x,-y,-z
x,1/2-y,1/2+z
loop_
_atom_site_type_symbol
_atom_site_label
_atom_site_fract_x
_atom_site_fract_y
_atom_site_fract_z
Si Si1 0.025342 0.926170 0.435191
Si Si2 0.561260 0.379449 0.107255
Si Si3 0.890524 0.527378 0.620011
Si Si4 0.836528 0.082344 0.925268
Si Si5 0.179574 0.123766 0.403866
Si Si6 0.305641 0.937493 0.870046
O O1 0.107623 0.756820 0.509103
O O2 0.142443 0.018817 0.453120
O O3 0.000000 0.000000 0.500000
O O4 0.830870 0.947472 0.266349
O O5 0.682599 0.434511 0.259376
O O6 0.672011 0.235558 0.148574
O O7 0.500000 0.500000 0.000000
O O8 0.377979 0.337925 0.020788
O O9 0.803724 0.506547 0.479984
O O10 0.910407 0.710034 0.647420
O O11 0.768359 0.442679 0.596818
O O12 0.081478 0.455116 0.765358
O O13 0.000000 0.000000 0.000000
O O14 0.500000 0.000000 0.000000
#
# Coordination Sequence:
#
# PCOD9252520 Si02
#       6
#     4   4   4   4   4   4
#     4  11  24  45  72  99 143 186 237 294 360 428
#     4  12  28  45  70 104 145 185 241 297 358 435
#     4  11  24  45  71 101 142 188 236 293 363 432
#     4  12  27  46  71 106 142 188 242 296 363 433
#     4  11  25  44  71 105 140 189 236 295 366 431
#     4  11  24  45  71 102 139 187 237 292 362 424
#
# _framework density 20.599291000000001
#
# number of rings (size 3 to 8) (size 9 to 14) (size 15 to 20)
#    0.000    0.667    3.333    4.000   11.667    2.667 
#    0.000    0.000    0.000    0.000    0.000    0.000 
#    0.000    0.000    0.000    0.000    0.000    0.000 
#
# Total GULP energy -133956.168296 kJ/mol
# GULP energy per Si atom -5581.507012 kJ/mol
# Density = 2.055241 g / cm^3
# Si number density = 20.599291 Si / 1000 Ang^3
#
#
#
# Elastic Constant Matrix: (Units=GPa)
#
#
# Indices 1 2 3 4 5 6 
#
# 1 87.3776 1.6050 41.7887 0.0000 -10.4618 0.0000
# 2 1.6050 101.4636 31.6340 0.0000 -9.4266 0.0000
# 3 41.7887 31.6340 148.5114 0.0000 -15.0342 0.0000
# 4 0.0000 0.0000 0.0000 31.5698 0.0000 -6.8309
# 5 -10.4618 -9.4266 -15.0342 0.0000 47.8081 0.0000
# 6 0.0000 0.0000 0.0000 -6.8309 0.0000 40.1245
#
#
#
# Elastic Compliance Matrix: (Units=1/GPa)
#
#
# Indices 1 2 3 4 5 6 
#
# 1 0.013500 0.001170 -0.003848 0.000000 0.001975 0.000000
# 2 0.001170 0.010752 -0.002457 0.000000 0.001603 0.000000
# 3 -0.003848 -0.002457 0.008475 0.000000 0.001339 0.000000
# 4 0.000000 0.000000 0.000000 0.032887 0.000000 0.005599
# 5 0.001975 0.001603 0.001339 0.000000 0.022086 0.000000
# 6 0.000000 0.000000 0.000000 0.005599 0.000000 0.025876
#
#
# Mechanical properties :
#
#
# Convention : Reuss Voigt Hill
#
# Bulk Modulus (GPa) = 44.53065 54.15645 49.34355
# Shear Modulus (GPa) = 38.07132 41.38881 39.73007
#
# Velocity S-wave (km/s) = 4.30372 4.48731 4.39647
# Velocity P-wave (km/s) = 6.80885 7.29352 7.05535
#
# Compressibility (1/GPa) = 0.02245644
#
# Stress axis : x y z
#
# Youngs Moduli (GPa) = 74.07528 93.00349 117.99251
#
# Poissons Ratio (x) = -0.10878 0.45402
# Poissons Ratio (y) = -0.08664 0.28992
# Poissons Ratio (z) = 0.28503 0.22852
#
# Static dielectric constant tensor:
#      x y z
#    x 1.733370 0.000000 -0.015630 
#    y 0.000000 1.790030 0.000000 
#    z -0.015630 0.000000 1.814820 
# 
# From -- ./inp_files/59150.got.cif
#   From: 2010.05.17/outbox.cif.g08.bks.cpg/sg14_30_cif.got.tgz:59150.got - 2010.06.03 17:49:19.
