data_PCOD9252549
_publ_section_title
;
Structure prediction by ZEFSAII (Michael W. Deem and Ramdas Pophale) SiO2 
 PCOD9252549
Probable space group: P 21/C
;
_chemical_formula_sum "Si O2"
_cell_formula_units_Z 26
_cell_length_a 14.149822
_cell_length_b 14.600002
_cell_length_c 9.173445
_cell_angle_alpha 90.000000
_cell_angle_beta 43.122802
_cell_angle_gamma 90.000000
_cell_volume 1295.435302
_symmetry_space_group_name_H-M "P 21/C"
_symmetry_group_IT_number 14
_symmetry_cell_setting 'monoclinic'
loop_
_space_group_symop_operation_xyz
x,y,z
-x,1/2+y,1/2-z
-x,-y,-z
x,1/2-y,1/2+z
loop_
_atom_site_type_symbol
_atom_site_label
_atom_site_fract_x
_atom_site_fract_y
_atom_site_fract_z
Si Si1 0.174480 0.835742 0.849688
Si Si2 0.469154 0.079619 0.147425
Si Si3 0.867443 0.855782 0.165748
Si Si4 0.811366 0.664822 0.073381
Si Si5 0.000000 0.500000 0.000000
Si Si6 0.776236 0.144716 0.861369
Si Si7 0.359398 0.502605 0.068733
O O1 0.181912 0.733269 0.780234
O O2 0.295300 0.896773 0.645258
O O3 0.189219 0.838072 0.007737
O O4 0.028303 0.880699 0.969408
O O5 0.351663 0.147134 0.219871
O O6 0.398640 0.031663 0.365348
O O7 0.612409 0.127413 0.029398
O O8 0.500000 0.000000 0.000000
O O9 0.846520 0.763028 0.100121
O O10 0.842281 0.836511 0.365538
O O11 0.759599 0.933740 0.238731
O O12 0.901622 0.584830 0.045805
O O13 0.138650 0.557674 0.792181
O O14 0.500000 0.500000 0.000000
#
# Coordination Sequence:
#
# PCOD9252549 Si02
#       7
#     4   4   4   4   2   4   4
#     4  12  25  47  69 106 135 188 230 296 343 415
#     4  11  25  45  68 100 135 188 222 286 351 408
#     4  11  24  46  68 105 135 182 231 286 346 409
#     4  11  25  43  72  98 139 177 231 284 350 413
#     4  12  22  46  68 106 134 178 232 284 344 418
#     4  12  27  44  74 102 143 178 241 285 351 415
#     4  11  26  46  67 102 141 181 234 281 350 412
#
# _framework density 20.070473
#
# number of rings (size 3 to 8) (size 9 to 14) (size 15 to 20)
#    0.000    0.615    6.154    0.462    4.308    2.462 
#    8.308    0.000    0.000    0.000    0.000    0.000 
#    0.000    0.000    0.000    0.000    0.000    0.000 
#
# Total GULP energy -144857.954125 kJ/mol
# GULP energy per Si atom -5571.459774 kJ/mol
# Density = 2.002479 g / cm^3
# Si number density = 20.070473 Si / 1000 Ang^3
#
#
#
# Elastic Constant Matrix: (Units=GPa)
#
#
# Indices 1 2 3 4 5 6 
#
# 1 96.8838 13.8140 13.6527 0.0000 -29.0370 0.0000
# 2 13.8140 51.5122 4.8862 0.0000 12.7624 0.0000
# 3 13.6527 4.8862 52.6928 0.0000 -25.7638 0.0000
# 4 0.0000 0.0000 0.0000 36.5630 0.0000 -9.2185
# 5 -29.0370 12.7624 -25.7638 0.0000 35.5943 0.0000
# 6 0.0000 0.0000 0.0000 -9.2185 0.0000 33.4702
#
#
#
# Elastic Compliance Matrix: (Units=1/GPa)
#
#
# Indices 1 2 3 4 5 6 
#
# 1 0.018697 -0.012417 0.009196 0.000000 0.026361 0.000000
# 2 -0.012417 0.032591 -0.016207 0.000000 -0.033546 0.000000
# 3 0.009196 -0.016207 0.038086 0.000000 0.040881 0.000000
# 4 0.000000 0.000000 0.000000 0.029391 0.000000 0.008095
# 5 0.026361 -0.033546 0.040881 0.000000 0.091217 0.000000
# 6 0.000000 0.000000 0.000000 0.008095 0.000000 0.032107
#
#
# Mechanical properties :
#
#
# Convention : Reuss Voigt Hill
#
# Bulk Modulus (GPa) = 19.79494 29.53275 24.66385
# Shear Modulus (GPa) = 16.79059 32.37454 24.58256
#
# Velocity S-wave (km/s) = 2.89551 4.02063 3.50353
# Velocity P-wave (km/s) = 4.58942 6.02498 5.35552
#
# Compressibility (1/GPa) = 0.05051795
#
# Stress axis : x y z
#
# Youngs Moduli (GPa) = 53.48495 30.68290 26.25610
#
# Poissons Ratio (x) = 0.38100 -0.24145
# Poissons Ratio (y) = 0.66414 0.42554
# Poissons Ratio (z) = -0.49185 0.49728
#
# Static dielectric constant tensor:
#      x y z
#    x 1.735280 0.000000 -0.028080 
#    y 0.000000 1.663130 0.000000 
#    z -0.028080 0.000000 1.684240 
# 
# From -- ./inp_files/16160.got.cif
#   From: 2010.05.17/outbox.cif.g08.bks.cpg/sg14_9_cif.got.tgz:16160.got - 2010.06.03 17:49:19.
