data_PCOD9252729
_publ_section_title
;
Structure prediction by ZEFSAII (Michael W. Deem and Ramdas Pophale) SiO2 
 PCOD9252729
Probable space group: P 21/C
;
_chemical_formula_sum "Si O2"
_cell_formula_units_Z 24
_cell_length_a 11.862314
_cell_length_b 11.266885
_cell_length_c 9.751458
_cell_angle_alpha 90.000000
_cell_angle_beta 70.170112
_cell_angle_gamma 90.000000
_cell_volume 1226.015032
_symmetry_space_group_name_H-M "P 21/C"
_symmetry_group_IT_number 14
_symmetry_cell_setting 'monoclinic'
loop_
_space_group_symop_operation_xyz
x,y,z
-x,1/2+y,1/2-z
-x,-y,-z
x,1/2-y,1/2+z
loop_
_atom_site_type_symbol
_atom_site_label
_atom_site_fract_x
_atom_site_fract_y
_atom_site_fract_z
Si Si1 0.915294 0.474788 0.664299
Si Si2 0.355712 0.870984 0.106358
Si Si3 0.775719 0.792054 0.204753
Si Si4 0.641060 0.859190 0.981885
Si Si5 0.992054 0.882363 0.593666
Si Si6 0.775505 0.238814 0.097398
O O1 0.851601 0.597285 0.732107
O O2 0.992889 0.420662 0.754825
O O3 0.815774 0.379436 0.661181
O O4 0.000000 0.500000 0.500000
O O5 0.291022 0.825445 0.269758
O O6 0.330211 0.009347 0.086996
O O7 0.498129 0.853442 0.058988
O O8 0.305508 0.797756 0.997699
O O9 0.687717 0.736744 0.353487
O O10 0.870784 0.690785 0.124064
O O11 0.706213 0.836891 0.099235
O O12 0.103569 0.799391 0.507360
O O13 0.000000 0.000000 0.500000
#
# Coordination Sequence:
#
# PCOD9252729 Si02
#       6
#     4   4   4   4   4   4
#     4  12  25  42  65  99 137 177 211 271 343 395
#     4  11  25  46  69  95 134 178 228 276 331 391
#     4  12  24  43  68  96 137 170 222 270 335 397
#     4  11  25  45  69  97 131 180 224 278 330 391
#     4  12  27  40  68 101 130 173 220 273 333 402
#     4  12  24  45  67  97 134 174 223 274 336 398
#
# _framework density 19.575617000000001
#
# number of rings (size 3 to 8) (size 9 to 14) (size 15 to 20)
#    0.000    0.333    5.000    4.000    4.667    0.000 
#    0.000    0.833    0.000    0.000    0.000    0.000 
#    0.000    0.000    0.000    0.000    0.000    0.000 
#
# Total GULP energy -134385.847987 kJ/mol
# GULP energy per Si atom -5599.410333 kJ/mol
# Density = 1.953106 g / cm^3
# Si number density = 19.575617 Si / 1000 Ang^3
#
#
#
# Elastic Constant Matrix: (Units=GPa)
#
#
# Indices 1 2 3 4 5 6 
#
# 1 86.9946 19.3804 16.0213 0.0000 8.0283 0.0000
# 2 19.3804 74.8834 13.6917 0.0000 -3.6783 0.0000
# 3 16.0213 13.6917 88.1136 0.0000 -4.6589 0.0000
# 4 0.0000 0.0000 0.0000 39.0528 0.0000 -3.1146
# 5 8.0283 -3.6783 -4.6589 0.0000 32.9210 0.0000
# 6 0.0000 0.0000 0.0000 -3.1146 0.0000 40.9127
#
#
#
# Elastic Compliance Matrix: (Units=1/GPa)
#
#
# Indices 1 2 3 4 5 6 
#
# 1 0.012928 -0.003156 -0.002061 0.000000 -0.003797 0.000000
# 2 -0.003156 0.014565 -0.001575 0.000000 0.002174 0.000000
# 3 -0.002061 -0.001575 0.012076 0.000000 0.002036 0.000000
# 4 0.000000 0.000000 0.000000 0.025763 0.000000 0.001961
# 5 -0.003797 0.002174 0.002036 0.000000 0.031833 0.000000
# 6 0.000000 0.000000 0.000000 0.001961 0.000000 0.024592
#
#
# Mechanical properties :
#
#
# Convention : Reuss Voigt Hill
#
# Bulk Modulus (GPa) = 38.48061 38.68651 38.58356
# Shear Modulus (GPa) = 34.72195 35.97051 35.34623
#
# Velocity S-wave (km/s) = 4.21614 4.29128 4.25387
# Velocity P-wave (km/s) = 6.58796 6.66025 6.62420
#
# Compressibility (1/GPa) = 0.02598712
#
# Stress axis : x y z
#
# Youngs Moduli (GPa) = 77.35206 68.65561 82.80859
#
# Poissons Ratio (x) = 0.21664 0.17067
# Poissons Ratio (y) = 0.24408 0.13039
# Poissons Ratio (z) = 0.15943 0.10810
#
# Static dielectric constant tensor:
#      x y z
#    x 1.658900 0.000000 0.002530 
#    y 0.000000 1.679610 0.000000 
#    z 0.002530 0.000000 1.650940 
# 
# From -- ./inp_files/12356.got.cif
#   From: 2010.05.17/outbox.cif.g08.bks.cpg/sg14_7_cif.got.tgz:12356.got - 2010.06.03 17:49:19.
