data_PCOD9252826
_publ_section_title
;
Structure prediction by ZEFSAII (Michael W. Deem and Ramdas Pophale) SiO2 
 PCOD9252826
Probable space group: P 21/C
;
_chemical_formula_sum "Si O2"
_cell_formula_units_Z 22
_cell_length_a 14.740237
_cell_length_b 4.755795
_cell_length_c 24.622864
_cell_angle_alpha 90.000000
_cell_angle_beta 27.557851
_cell_angle_gamma 90.000000
_cell_volume 798.570160
_symmetry_space_group_name_H-M "P 21/C"
_symmetry_group_IT_number 14
_symmetry_cell_setting 'monoclinic'
loop_
_space_group_symop_operation_xyz
x,y,z
-x,1/2+y,1/2-z
-x,-y,-z
x,1/2-y,1/2+z
loop_
_atom_site_type_symbol
_atom_site_label
_atom_site_fract_x
_atom_site_fract_y
_atom_site_fract_z
Si Si1 0.708673 0.275288 0.568722
Si Si2 0.500000 0.500000 0.500000
Si Si3 0.777466 0.178505 0.913289
Si Si4 0.770502 0.957454 0.313764
Si Si5 0.290487 0.100348 0.327389
Si Si6 0.111383 0.892088 0.867002
O O1 0.727802 0.178199 0.496077
O O2 0.706964 0.027576 0.613993
O O3 0.504964 0.434806 0.687652
O O4 0.896219 0.478747 0.475280
O O5 0.343896 0.394407 0.531784
O O6 0.628179 0.695995 0.388380
O O7 0.701410 0.306894 0.894788
O O8 0.009231 0.135909 0.786947
O O9 0.790303 0.085834 0.243877
O O10 0.132715 0.920788 0.377086
O O11 0.228437 0.418906 0.348528
#
# Coordination Sequence:
#
# PCOD9252826 Si02
#       6
#     4   2   4   4   4   4
#     4  11  27  50  78 115 153 208 259 327 384 457
#     4  12  24  44  70 104 144 196 242 304 378 446
#     4  11  25  48  74 110 153 201 252 314 389 458
#     4  11  25  47  75 112 150 199 255 317 380 473
#     4  12  26  52  77 116 152 203 269 318 382 468
#     4  11  28  49  82 111 158 203 257 322 395 455
#
# _framework density 27.549240000000001
#
# number of rings (size 3 to 8) (size 9 to 14) (size 15 to 20)
#    0.000    0.727    1.818    3.818    5.091    2.909 
#    9.818    0.000    0.000    0.000    0.000    0.000 
#    0.000    0.000    0.000    0.000    0.000    0.000 
#
# Total GULP energy -123144.932252 kJ/mol
# GULP energy per Si atom -5597.496921 kJ/mol
# Density = 2.748654 g / cm^3
# Si number density = 27.549240 Si / 1000 Ang^3
#
#
#
# Elastic Constant Matrix: (Units=GPa)
#
#
# Indices 1 2 3 4 5 6 
#
# 1 132.8788 22.5836 87.0262 0.0000 22.0877 0.0000
# 2 22.5836 91.0820 51.3149 0.0000 17.6076 0.0000
# 3 87.0262 51.3149 203.0532 0.0000 4.6169 0.0000
# 4 0.0000 0.0000 0.0000 36.2338 0.0000 2.2048
# 5 22.0877 17.6076 4.6169 0.0000 77.4011 0.0000
# 6 0.0000 0.0000 0.0000 2.2048 0.0000 29.6796
#
#
#
# Elastic Compliance Matrix: (Units=1/GPa)
#
#
# Indices 1 2 3 4 5 6 
#
# 1 0.011091 0.000548 -0.004823 0.000000 -0.003002 0.000000
# 2 0.000548 0.013429 -0.003560 0.000000 -0.002999 0.000000
# 3 -0.004823 -0.003560 0.007853 0.000000 0.001718 0.000000
# 4 0.000000 0.000000 0.000000 0.027724 0.000000 -0.002059
# 5 -0.003002 -0.002999 0.001718 0.000000 0.014356 0.000000
# 6 0.000000 0.000000 0.000000 -0.002059 0.000000 0.033846
#
#
# Mechanical properties :
#
#
# Convention : Reuss Voigt Hill
#
# Bulk Modulus (GPa) = 59.87882 83.20707 71.54295
# Shear Modulus (GPa) = 38.59906 46.40221 42.50063
#
# Velocity S-wave (km/s) = 3.74718 4.10852 3.93200
# Velocity P-wave (km/s) = 6.36429 7.26465 6.82933
#
# Compressibility (1/GPa) = 0.01670039
#
# Stress axis : x y z
#
# Youngs Moduli (GPa) = 90.16689 74.46649 127.34301
#
# Poissons Ratio (x) = -0.04080 0.61424
# Poissons Ratio (y) = -0.04941 0.45339
# Poissons Ratio (z) = 0.43492 0.26513
#
# Static dielectric constant tensor:
#      x y z
#    x 2.345710 0.000000 -0.295800 
#    y 0.000000 2.729480 0.000000 
#    z -0.295800 0.000000 2.525450 
# 
# From -- ./inp_files/73542.got.cif
#   From: 2010.05.17/outbox.cif.g08.bks.cpg/sg14_37_cif.got.tgz:73542.got - 2010.06.03 17:49:19.
