data_PCOD9252956
_publ_section_title
;
Structure prediction by ZEFSAII (Michael W. Deem and Ramdas Pophale) SiO2 
 PCOD9252956
Probable space group: P 21/C
;
_chemical_formula_sum "Si O2"
_cell_formula_units_Z 12
_cell_length_a 4.985287
_cell_length_b 10.378925
_cell_length_c 9.204212
_cell_angle_alpha 90.000000
_cell_angle_beta 65.083410
_cell_angle_gamma 90.000000
_cell_volume 431.915829
_symmetry_space_group_name_H-M "P 21/C"
_symmetry_group_IT_number 14
_symmetry_cell_setting 'monoclinic'
loop_
_space_group_symop_operation_xyz
x,y,z
-x,1/2+y,1/2-z
-x,-y,-z
x,1/2-y,1/2+z
loop_
_atom_site_type_symbol
_atom_site_label
_atom_site_fract_x
_atom_site_fract_y
_atom_site_fract_z
Si Si1 0.675965 0.663440 0.840008
Si Si2 0.634536 0.605215 0.178049
Si Si3 0.840435 0.470032 0.386842
O O1 0.529809 0.528787 0.822234
O O2 0.498293 0.780545 0.807521
O O3 0.007244 0.662465 0.697062
O O4 0.698034 0.667681 0.007805
O O5 0.891595 0.556215 0.229225
O O6 0.500000 0.500000 0.500000
O O7 0.000000 0.500000 0.500000
#
# Coordination Sequence:
#
# PCOD9252956 Si02
#       3
#     4   4   4
#     4  11  26  50  82 123 166 221 279 343 420 493
#     4  11  26  50  82 121 170 216 282 342 416 499
#     4  12  25  50  78 114 160 213 269 333 409 488
#
# _framework density 27.783193000000001
#
# number of rings (size 3 to 8) (size 9 to 14) (size 15 to 20)
#    0.000    0.667    3.333    3.000    0.000    2.667 
#   12.000    0.000    0.000    0.000    0.000    0.000 
#    0.000    0.000    0.000    0.000    0.000    0.000 
#
# Total GULP energy -67054.104043 kJ/mol
# GULP energy per Si atom -5587.842004 kJ/mol
# Density = 2.771996 g / cm^3
# Si number density = 27.783193 Si / 1000 Ang^3
#
#
#
# Elastic Constant Matrix: (Units=GPa)
#
#
# Indices 1 2 3 4 5 6 
#
# 1 152.2192 55.7979 62.0720 0.0000 44.3980 0.0000
# 2 55.7979 167.9891 65.5147 0.0000 21.9683 0.0000
# 3 62.0720 65.5147 226.5797 0.0000 68.8691 0.0000
# 4 0.0000 0.0000 0.0000 50.0962 0.0000 13.0886
# 5 44.3980 21.9683 68.8691 0.0000 64.9459 0.0000
# 6 0.0000 0.0000 0.0000 13.0886 0.0000 43.5232
#
#
#
# Elastic Compliance Matrix: (Units=1/GPa)
#
#
# Indices 1 2 3 4 5 6 
#
# 1 0.008978 -0.002210 -0.000269 0.000000 -0.005105 0.000000
# 2 -0.002210 0.007257 -0.001780 0.000000 0.000943 0.000000
# 3 -0.000269 -0.001780 0.007028 0.000000 -0.006667 0.000000
# 4 0.000000 0.000000 0.000000 0.021664 0.000000 -0.006515
# 5 -0.005105 0.000943 -0.006667 0.000000 0.025638 0.000000
# 6 0.000000 0.000000 0.000000 -0.006515 0.000000 0.024935
#
#
# Mechanical properties :
#
#
# Convention : Reuss Voigt Hill
#
# Bulk Modulus (GPa) = 67.81067 101.50636 84.65851
# Shear Modulus (GPa) = 45.89979 55.93996 50.91988
#
# Velocity S-wave (km/s) = 4.06898 4.49201 4.28572
# Velocity P-wave (km/s) = 6.82169 7.96986 7.41803
#
# Compressibility (1/GPa) = 0.01474694
#
# Stress axis : x y z
#
# Youngs Moduli (GPa) = 111.38245 137.78910 142.28534
#
# Poissons Ratio (x) = 0.30446 0.03828
# Poissons Ratio (y) = 0.24611 0.25323
# Poissons Ratio (z) = 0.02997 0.24523
#
# Static dielectric constant tensor:
#      x y z
#    x 2.283220 0.000000 -0.140890 
#    y 0.000000 2.332280 0.000000 
#    z -0.140890 0.000000 2.172700 
# 
# From -- ./inp_files/4794.got.cif
#   From: 2010.05.17/outbox.cif.g08.bks.cpg/sg14_3_cif.got.tgz:4794.got - 2010.06.03 17:49:19.
