data_PCOD9252084
_publ_section_title
;
Structure prediction by ZEFSAII (Michael W. Deem and Ramdas Pophale) SiO2 
 PCOD9252084
Probable space group: P 21/C
;
_chemical_formula_sum "Si O2"
_cell_formula_units_Z 20
_cell_length_a 8.527829
_cell_length_b 4.906580
_cell_length_c 25.660161
_cell_angle_alpha 90.000000
_cell_angle_beta 130.588501
_cell_angle_gamma 90.000000
_cell_volume 815.358163
_symmetry_space_group_name_H-M "P 21/C"
_symmetry_group_IT_number 14
_symmetry_cell_setting 'monoclinic'
loop_
_space_group_symop_operation_xyz
x,y,z
-x,1/2+y,1/2-z
-x,-y,-z
x,1/2-y,1/2+z
loop_
_atom_site_type_symbol
_atom_site_label
_atom_site_fract_x
_atom_site_fract_y
_atom_site_fract_z
Si Si1 0.863098 0.539019 0.211481
Si Si2 0.507265 0.043230 0.285462
Si Si3 0.788059 0.608455 0.930918
Si Si4 0.340367 0.880686 0.038553
Si Si5 0.664342 0.197829 0.566270
O O1 0.681521 0.500750 0.214973
O O2 0.795692 0.449801 0.138672
O O3 0.945719 0.846080 0.231038
O O4 0.524016 0.354696 0.271727
O O5 0.720903 0.943740 0.357888
O O6 0.764519 0.917099 0.943430
O O7 0.629197 0.407089 0.927211
O O8 0.000000 0.500000 0.000000
O O9 0.542556 0.049581 0.065831
O O10 0.217165 0.825972 0.958174
O O11 0.500000 0.000000 0.500000
#
# Coordination Sequence:
#
# PCOD9252084 Si02
#       5
#     4   4   4   4   4
#     4  12  29  47  74 110 150 191 248 305 367 438
#     4  12  27  50  72 102 150 198 237 296 367 439
#     4  12  26  46  73 103 142 188 243 294 358 436
#     4  11  23  42  74 101 137 174 240 290 363 411
#     4  11  24  45  77 103 141 187 233 304 368 424
#
# _framework density 24.529098999999999
#
# number of rings (size 3 to 8) (size 9 to 14) (size 15 to 20)
#    0.000    0.400    4.000    3.000    8.400    4.800 
#    0.000    0.000    0.000    0.000    0.000    0.000 
#    0.000    0.000    0.000    0.000    0.000    0.000 
#
# Total GULP energy -111873.045883 kJ/mol
# GULP energy per Si atom -5593.652294 kJ/mol
# Density = 2.447327 g / cm^3
# Si number density = 24.529099 Si / 1000 Ang^3
#
#
#
# Elastic Constant Matrix: (Units=GPa)
#
#
# Indices 1 2 3 4 5 6 
#
# 1 29.3382 0.3889 26.7965 0.0000 -1.7740 0.0000
# 2 0.3889 84.4262 -0.3554 0.0000 -1.8850 0.0000
# 3 26.7965 -0.3554 118.4298 0.0000 -2.1150 0.0000
# 4 0.0000 0.0000 0.0000 43.9280 0.0000 -8.4538
# 5 -1.7740 -1.8850 -2.1150 0.0000 26.4293 0.0000
# 6 0.0000 0.0000 0.0000 -8.4538 0.0000 51.8397
#
#
#
# Elastic Compliance Matrix: (Units=1/GPa)
#
#
# Indices 1 2 3 4 5 6 
#
# 1 0.043085 -0.000192 -0.009712 0.000000 0.002101 0.000000
# 2 -0.000192 0.011865 0.000094 0.000000 0.000841 0.000000
# 3 -0.009712 0.000094 0.010645 0.000000 0.000207 0.000000
# 4 0.000000 0.000000 0.000000 0.023502 0.000000 0.003833
# 5 0.002101 0.000841 0.000207 0.000000 0.038054 0.000000
# 6 0.000000 0.000000 0.000000 0.003833 0.000000 0.019915
#
#
# Mechanical properties :
#
#
# Convention : Reuss Voigt Hill
#
# Bulk Modulus (GPa) = 21.75090 31.76159 26.75624
# Shear Modulus (GPa) = 27.47073 38.13034 32.80054
#
# Velocity S-wave (km/s) = 3.35016 3.94698 3.66075
# Velocity P-wave (km/s) = 4.88379 5.80932 5.36654
#
# Compressibility (1/GPa) = 0.04597511
#
# Stress axis : x y z
#
# Youngs Moduli (GPa) = 23.20982 84.28344 93.93883
#
# Poissons Ratio (x) = 0.01622 0.91231
# Poissons Ratio (y) = 0.00447 -0.00885
# Poissons Ratio (z) = 0.22541 -0.00794
#
# Static dielectric constant tensor:
#      x y z
#    x 2.121740 0.000000 -0.000260 
#    y 0.000000 1.896640 0.000000 
#    z -0.000260 0.000000 1.988600 
# 
# From -- ./inp_files/75980.got.cif
#   From: 2010.05.17/outbox.cif.g08.bks.cpg/sg14_38_cif.got.tgz:75980.got - 2010.06.03 17:49:19.
