data_PCOD9252008
_publ_section_title
;
Structure prediction by ZEFSAII (Michael W. Deem and Ramdas Pophale) SiO2 
 PCOD9252008
Probable space group: P 21/C
;
_chemical_formula_sum "Si O2"
_cell_formula_units_Z 28
_cell_length_a 26.261030
_cell_length_b 7.217892
_cell_length_c 8.215147
_cell_angle_alpha 90.000000
_cell_angle_beta 41.263656
_cell_angle_gamma 90.000000
_cell_volume 1026.995951
_symmetry_space_group_name_H-M "P 21/C"
_symmetry_group_IT_number 14
_symmetry_cell_setting 'monoclinic'
loop_
_space_group_symop_operation_xyz
x,y,z
-x,1/2+y,1/2-z
-x,-y,-z
x,1/2-y,1/2+z
loop_
_atom_site_type_symbol
_atom_site_label
_atom_site_fract_x
_atom_site_fract_y
_atom_site_fract_z
Si Si1 0.563722 0.335824 0.182046
Si Si2 0.938269 0.824098 0.737527
Si Si3 0.250788 0.528187 0.039008
Si Si4 0.151195 0.025051 0.353138
Si Si5 0.291161 0.943569 0.822005
Si Si6 0.598748 0.528278 0.445505
Si Si7 0.913602 0.134189 0.042221
O O1 0.577849 0.421427 0.325929
O O2 0.473656 0.338301 0.354143
O O3 0.594415 0.126393 0.095978
O O4 0.617189 0.453457 0.928829
O O5 0.897230 0.925827 0.690814
O O6 0.017559 0.714779 0.513803
O O7 0.878028 0.680834 0.957142
O O8 0.954160 0.985388 0.829453
O O9 0.275276 0.729544 0.910252
O O10 0.314728 0.399830 0.795923
O O11 0.258727 0.519916 0.216223
O O12 0.160786 0.523633 0.213338
O O13 0.126981 0.812274 0.447430
O O14 0.240414 0.041244 0.083486
#
# Coordination Sequence:
#
# PCOD9252008 Si02
#       7
#     4   4   4   4   4   4   4
#     4   9  18  34  58  84 116 154 191 245 292 357
#     4  12  25  42  66  93 124 164 211 264 316 374
#     4   9  18  35  62  80 115 158 198 240 302 368
#     4  11  25  44  62  93 128 162 211 260 316 375
#     4   9  18  38  60  84 117 155 203 248 302 364
#     4   9  18  34  55  85 114 151 194 235 296 351
#     4  11  23  41  66  90 122 167 208 260 313 367
#
# _framework density 27.263983
#
# number of rings (size 3 to 8) (size 9 to 14) (size 15 to 20)
#    0.000    2.000    2.857    0.429    0.000    2.286 
#    5.143    0.000    0.000    0.000    0.000    0.000 
#    0.000    0.000    0.000    0.000    0.000    0.000 
#
# Total GULP energy -156685.139559 kJ/mol
# GULP energy per Si atom -5595.897841 kJ/mol
# Density = 2.720193 g / cm^3
# Si number density = 27.263983 Si / 1000 Ang^3
#
#
#
# Elastic Constant Matrix: (Units=GPa)
#
#
# Indices 1 2 3 4 5 6 
#
# 1 52.9650 20.8412 42.0450 0.0000 -12.3603 0.0000
# 2 20.8412 79.8663 39.4007 0.0000 1.6924 0.0000
# 3 42.0450 39.4007 169.6650 0.0000 -28.9269 0.0000
# 4 0.0000 0.0000 0.0000 55.0777 0.0000 -5.9138
# 5 -12.3603 1.6924 -28.9269 0.0000 39.6564 0.0000
# 6 0.0000 0.0000 0.0000 -5.9138 0.0000 32.7054
#
#
#
# Elastic Compliance Matrix: (Units=1/GPa)
#
#
# Indices 1 2 3 4 5 6 
#
# 1 0.025282 -0.004541 -0.004379 0.000000 0.004880 0.000000
# 2 -0.004541 0.015376 -0.003196 0.000000 -0.004403 0.000000
# 3 -0.004379 -0.003196 0.008579 0.000000 0.005029 0.000000
# 4 0.000000 0.000000 0.000000 0.018516 0.000000 0.003348
# 5 0.004880 -0.004403 0.005029 0.000000 0.030594 0.000000
# 6 0.000000 0.000000 0.000000 0.003348 0.000000 0.031181
#
#
# Mechanical properties :
#
#
# Convention : Reuss Voigt Hill
#
# Bulk Modulus (GPa) = 39.99110 56.34113 48.16611
# Shear Modulus (GPa) = 30.84644 38.83521 34.84082
#
# Velocity S-wave (km/s) = 3.36728 3.77824 3.57866
# Velocity P-wave (km/s) = 5.46059 6.30423 5.89751
#
# Compressibility (1/GPa) = 0.02500557
#
# Stress axis : x y z
#
# Youngs Moduli (GPa) = 39.55422 65.03709 116.56708
#
# Poissons Ratio (x) = 0.29530 0.51041
# Poissons Ratio (y) = 0.17960 0.37256
# Poissons Ratio (z) = 0.17320 0.20787
#
# Static dielectric constant tensor:
#      x y z
#    x 2.128470 0.000000 -0.019460 
#    y 0.000000 2.106510 0.000000 
#    z -0.019460 0.000000 2.215220 
# 
# From -- ./inp_files/19941.got.cif
#   From: 2010.05.17/outbox.cif.g08.bks.cpg/sg14_10_cif.got.tgz:19941.got - 2010.06.03 17:49:19.
