data_PCOD9252293
_publ_section_title
;
Structure prediction by ZEFSAII (Michael W. Deem and Ramdas Pophale) SiO2 
 PCOD9252293
Probable space group: P 21/C
;
_chemical_formula_sum "Si O2"
_cell_formula_units_Z 20
_cell_length_a 7.727200
_cell_length_b 6.866741
_cell_length_c 18.703337
_cell_angle_alpha 90.000000
_cell_angle_beta 115.296792
_cell_angle_gamma 90.000000
_cell_volume 897.245935
_symmetry_space_group_name_H-M "P 21/C"
_symmetry_group_IT_number 14
_symmetry_cell_setting 'monoclinic'
loop_
_space_group_symop_operation_xyz
x,y,z
-x,1/2+y,1/2-z
-x,-y,-z
x,1/2-y,1/2+z
loop_
_atom_site_type_symbol
_atom_site_label
_atom_site_fract_x
_atom_site_fract_y
_atom_site_fract_z
Si Si1 0.074573 0.890813 0.942664
Si Si2 0.625421 0.403773 0.959442
Si Si3 0.235929 0.329963 0.735601
Si Si4 0.673380 0.927218 0.128309
Si Si5 0.471989 0.682935 0.823159
O O1 0.915679 0.854696 0.854039
O O2 0.229243 0.027722 0.929895
O O3 0.175576 0.686539 0.980238
O O4 0.000000 0.000000 0.000000
O O5 0.503364 0.218499 0.911542
O O6 0.626289 0.563061 0.897197
O O7 0.500000 0.500000 0.000000
O O8 0.186679 0.181272 0.790657
O O9 0.296726 0.537182 0.778506
O O10 0.427993 0.245914 0.732260
O O11 0.600981 0.129329 0.147933
#
# Coordination Sequence:
#
# PCOD9252293 Si02
#       5
#     4   4   4   4   4
#     4  12  28  45  72 111 147 186 245 310 363 429
#     4  11  25  46  73 102 139 192 237 298 376 431
#     4  11  26  44  74 102 138 190 239 295 359 442
#     4  11  25  47  72  99 149 187 238 297 365 446
#     4  11  23  47  72 100 140 195 239 286 373 441
#
# _framework density 22.290431000000002
#
# number of rings (size 3 to 8) (size 9 to 14) (size 15 to 20)
#    0.000    0.800    4.000    1.800    8.400    0.800 
#    0.000    0.000    0.000    0.000    0.000    0.000 
#    0.000    0.000    0.000    0.000    0.000    0.000 
#
# Total GULP energy -111971.853224 kJ/mol
# GULP energy per Si atom -5598.592661 kJ/mol
# Density = 2.223970 g / cm^3
# Si number density = 22.290431 Si / 1000 Ang^3
#
#
#
# Elastic Constant Matrix: (Units=GPa)
#
#
# Indices 1 2 3 4 5 6 
#
# 1 43.1778 23.9445 3.2323 0.0000 -21.5304 0.0000
# 2 23.9445 153.4042 54.6259 0.0000 -3.5026 0.0000
# 3 3.2323 54.6259 115.5600 0.0000 3.7411 0.0000
# 4 0.0000 0.0000 0.0000 55.6360 0.0000 -13.9850
# 5 -21.5304 -3.5026 3.7411 0.0000 48.8312 0.0000
# 6 0.0000 0.0000 0.0000 -13.9850 0.0000 30.6238
#
#
#
# Elastic Compliance Matrix: (Units=1/GPa)
#
#
# Indices 1 2 3 4 5 6 
#
# 1 0.032998 -0.005216 0.001086 0.000000 0.014092 0.000000
# 2 -0.005216 0.008698 -0.003921 0.000000 -0.001375 0.000000
# 3 0.001086 -0.003921 0.010496 0.000000 -0.000606 0.000000
# 4 0.000000 0.000000 0.000000 0.020305 0.000000 0.009273
# 5 0.014092 -0.001375 -0.000606 0.000000 0.026640 0.000000
# 6 0.000000 0.000000 0.000000 0.009273 0.000000 0.036889
#
#
# Mechanical properties :
#
#
# Convention : Reuss Voigt Hill
#
# Bulk Modulus (GPa) = 27.70767 52.86083 40.28425
# Shear Modulus (GPa) = 30.45873 42.37414 36.41643
#
# Velocity S-wave (km/s) = 3.70056 4.36478 4.04632
# Velocity P-wave (km/s) = 5.54222 7.01197 6.31997
#
# Compressibility (1/GPa) = 0.03609109
#
# Stress axis : x y z
#
# Youngs Moduli (GPa) = 30.30493 114.97338 95.27203
#
# Poissons Ratio (x) = 0.59966 -0.10349
# Poissons Ratio (y) = 0.15806 0.37356
# Poissons Ratio (z) = -0.03292 0.45081
#
# Static dielectric constant tensor:
#      x y z
#    x 1.830310 0.000000 0.032400 
#    y 0.000000 1.800910 0.000000 
#    z 0.032400 0.000000 1.860990 
# 
# From -- ./inp_files/64222.got.cif
#   From: 2010.05.17/outbox.cif.g08.bks.cpg/sg14_33_cif.got.tgz:64222.got - 2010.06.03 17:49:19.
