data_PCOD9252863
_publ_section_title
;
Structure prediction by ZEFSAII (Michael W. Deem and Ramdas Pophale) SiO2 
 PCOD9252863
Probable space group: P 21/C
;
_chemical_formula_sum "Si O2"
_cell_formula_units_Z 16
_cell_length_a 5.260638
_cell_length_b 7.589035
_cell_length_c 15.721041
_cell_angle_alpha 90.000000
_cell_angle_beta 74.966263
_cell_angle_gamma 90.000000
_cell_volume 606.151872
_symmetry_space_group_name_H-M "P 21/C"
_symmetry_group_IT_number 14
_symmetry_cell_setting 'monoclinic'
loop_
_space_group_symop_operation_xyz
x,y,z
-x,1/2+y,1/2-z
-x,-y,-z
x,1/2-y,1/2+z
loop_
_atom_site_type_symbol
_atom_site_label
_atom_site_fract_x
_atom_site_fract_y
_atom_site_fract_z
Si Si1 0.294514 0.400737 0.268896
Si Si2 0.636875 0.008033 0.580894
Si Si3 0.067261 0.200484 0.019777
Si Si4 0.275698 0.437424 0.664279
O O1 0.423816 0.493709 0.174228
O O2 0.486504 0.436639 0.331489
O O3 0.273377 0.203394 0.239216
O O4 0.004441 0.469158 0.311029
O O5 0.826038 0.835983 0.560371
O O6 0.500000 0.000000 0.500000
O O7 0.820622 0.183446 0.577321
O O8 0.282849 0.165972 0.074799
O O9 0.000000 0.000000 0.000000
#
# Coordination Sequence:
#
# PCOD9252863 Si02
#       4
#     4   4   4   4
#     4  12  27  49  77 111 155 202 252 318 383 455
#     4  11  25  50  79 108 159 202 250 326 388 443
#     4  11  27  50  78 116 150 202 264 315 381 464
#     4  12  27  50  76 113 154 201 257 309 388 462
#
# _framework density 26.396025999999999
#
# number of rings (size 3 to 8) (size 9 to 14) (size 15 to 20)
#    0.000    0.500    2.500    4.500    7.000    3.000 
#    4.500    0.000    0.000    0.000    0.000    0.000 
#    0.000    0.000    0.000    0.000    0.000    0.000 
#
# Total GULP energy -89694.205744 kJ/mol
# GULP energy per Si atom -5605.887859 kJ/mol
# Density = 2.633595 g / cm^3
# Si number density = 26.396026 Si / 1000 Ang^3
#
#
#
# Elastic Constant Matrix: (Units=GPa)
#
#
# Indices 1 2 3 4 5 6 
#
# 1 160.5404 62.9463 17.7439 0.0000 25.2829 0.0000
# 2 62.9463 188.9839 16.4470 0.0000 12.9447 0.0000
# 3 17.7439 16.4470 73.2881 0.0000 35.9446 0.0000
# 4 0.0000 0.0000 0.0000 48.1912 0.0000 2.6615
# 5 25.2829 12.9447 35.9446 0.0000 51.9352 0.0000
# 6 0.0000 0.0000 0.0000 2.6615 0.0000 50.0075
#
#
#
# Elastic Compliance Matrix: (Units=1/GPa)
#
#
# Indices 1 2 3 4 5 6 
#
# 1 0.007641 -0.002343 0.000324 0.000000 -0.003360 0.000000
# 2 -0.002343 0.006136 -0.000937 0.000000 0.000260 0.000000
# 3 0.000324 -0.000937 0.020800 0.000000 -0.014320 0.000000
# 4 0.000000 0.000000 0.000000 0.020812 0.000000 -0.001108
# 5 -0.003360 0.000260 -0.014320 0.000000 0.030736 0.000000
# 6 0.000000 0.000000 0.000000 -0.001108 0.000000 0.020056
#
#
# Mechanical properties :
#
#
# Convention : Reuss Voigt Hill
#
# Bulk Modulus (GPa) = 34.88762 68.56519 51.72641
# Shear Modulus (GPa) = 41.10209 51.73845 46.42027
#
# Velocity S-wave (km/s) = 3.95033 4.43209 4.19813
# Velocity P-wave (km/s) = 5.83545 7.22656 6.56794
#
# Compressibility (1/GPa) = 0.02866346
#
# Stress axis : x y z
#
# Youngs Moduli (GPa) = 130.87287 162.98226 48.07708
#
# Poissons Ratio (x) = 0.38188 -0.01556
# Poissons Ratio (y) = 0.30665 0.04506
# Poissons Ratio (z) = -0.04236 0.15274
#
# Static dielectric constant tensor:
#      x y z
#    x 2.095340 0.000000 -0.037300 
#    y 0.000000 2.144500 0.000000 
#    z -0.037300 0.000000 2.118140 
# 
# From -- ./inp_files/52540.got.cif
#   From: 2010.05.17/outbox.cif.g08.bks.cpg/sg14_27_cif.got.tgz:52540.got - 2010.06.03 17:49:19.
