data_PCOD9252857
_publ_section_title
;
Structure prediction by ZEFSAII (Michael W. Deem and Ramdas Pophale) SiO2 
 PCOD9252857
Probable space group: P 21/C
;
_chemical_formula_sum "Si O2"
_cell_formula_units_Z 16
_cell_length_a 11.741916
_cell_length_b 9.334292
_cell_length_c 8.826714
_cell_angle_alpha 90.000000
_cell_angle_beta 140.538644
_cell_angle_gamma 90.000000
_cell_volume 614.857326
_symmetry_space_group_name_H-M "P 21/C"
_symmetry_group_IT_number 14
_symmetry_cell_setting 'monoclinic'
loop_
_space_group_symop_operation_xyz
x,y,z
-x,1/2+y,1/2-z
-x,-y,-z
x,1/2-y,1/2+z
loop_
_atom_site_type_symbol
_atom_site_label
_atom_site_fract_x
_atom_site_fract_y
_atom_site_fract_z
Si Si1 0.402868 0.231223 0.344330
Si Si2 0.105523 0.603796 0.722739
Si Si3 0.024818 0.341750 0.084778
Si Si4 0.482305 0.036803 0.695626
O O1 0.211833 0.277383 0.216605
O O2 0.507503 0.152950 0.587860
O O3 0.488200 0.371354 0.354452
O O4 0.394929 0.101406 0.211450
O O5 0.000000 0.500000 0.500000
O O6 0.129949 0.745053 0.648265
O O7 0.997103 0.654389 0.758517
O O8 0.281877 0.525772 0.965651
O O9 0.000000 0.500000 0.000000
#
# Coordination Sequence:
#
# PCOD9252857 Si02
#       4
#     4   4   4   4
#     4  11  25  50  73 111 152 204 252 315 391 457
#     4  12  25  46  77 113 151 199 259 320 389 462
#     4  12  24  47  77 111 151 200 259 323 381 458
#     4  11  26  49  74 112 157 203 258 317 384 471
#
# _framework density 26.022299
#
# number of rings (size 3 to 8) (size 9 to 14) (size 15 to 20)
#    0.000    0.500    5.000    3.000    0.000    5.000 
#    9.000    0.000    0.000    0.000    0.000    0.000 
#    0.000    0.000    0.000    0.000    0.000    0.000 
#
# Total GULP energy -89701.623495 kJ/mol
# GULP energy per Si atom -5606.351468 kJ/mol
# Density = 2.596307 g / cm^3
# Si number density = 26.022299 Si / 1000 Ang^3
#
#
#
# Elastic Constant Matrix: (Units=GPa)
#
#
# Indices 1 2 3 4 5 6 
#
# 1 199.1235 81.3450 65.6783 0.0000 -6.9800 0.0000
# 2 81.3450 201.4818 63.9907 0.0000 -8.5044 0.0000
# 3 65.6783 63.9907 93.3878 0.0000 -5.8869 0.0000
# 4 0.0000 0.0000 0.0000 64.6245 0.0000 -13.2472
# 5 -6.9800 -8.5044 -5.8869 0.0000 49.7537 0.0000
# 6 0.0000 0.0000 0.0000 -13.2472 0.0000 71.0424
#
#
#
# Elastic Compliance Matrix: (Units=1/GPa)
#
#
# Indices 1 2 3 4 5 6 
#
# 1 0.006921 -0.001588 -0.003763 0.000000 0.000254 0.000000
# 2 -0.001588 0.006725 -0.003458 0.000000 0.000517 0.000000
# 3 -0.003763 -0.003458 0.015771 0.000000 0.000747 0.000000
# 4 0.000000 0.000000 0.000000 0.016089 0.000000 0.003000
# 5 0.000254 0.000517 0.000747 0.000000 0.020312 0.000000
# 6 0.000000 0.000000 0.000000 0.003000 0.000000 0.014636
#
#
# Mechanical properties :
#
#
# Convention : Reuss Voigt Hill
#
# Bulk Modulus (GPa) = 84.76194 101.78011 93.27103
# Shear Modulus (GPa) = 49.01745 55.94939 52.48342
#
# Velocity S-wave (km/s) = 4.34484 4.64190 4.49582
# Velocity P-wave (km/s) = 7.60353 8.24180 7.92909
#
# Compressibility (1/GPa) = 0.01179775
#
# Stress axis : x y z
#
# Youngs Moduli (GPa) = 144.48822 148.70659 63.40675
#
# Poissons Ratio (x) = 0.23620 0.23860
# Poissons Ratio (y) = 0.22950 0.21927
# Poissons Ratio (z) = 0.54371 0.51425
#
# Static dielectric constant tensor:
#      x y z
#    x 2.073120 0.000000 -0.019080 
#    y 0.000000 1.986460 0.000000 
#    z -0.019080 0.000000 2.075350 
# 
# From -- ./inp_files/7275.got.cif
#   From: 2010.05.17/outbox.cif.g08.bks.cpg/sg14_4_cif.got.tgz:7275.got - 2010.06.03 17:49:19.
