data_PCOD9252635
_publ_section_title
;
Structure prediction by ZEFSAII (Michael W. Deem and Ramdas Pophale) SiO2 
 PCOD9252635
Probable space group: P 21/C
;
_chemical_formula_sum "Si O2"
_cell_formula_units_Z 20
_cell_length_a 17.360210
_cell_length_b 10.777099
_cell_length_c 14.957998
_cell_angle_alpha 90.000000
_cell_angle_beta 164.200704
_cell_angle_gamma 90.000000
_cell_volume 761.951968
_symmetry_space_group_name_H-M "P 21/C"
_symmetry_group_IT_number 14
_symmetry_cell_setting 'monoclinic'
loop_
_space_group_symop_operation_xyz
x,y,z
-x,1/2+y,1/2-z
-x,-y,-z
x,1/2-y,1/2+z
loop_
_atom_site_type_symbol
_atom_site_label
_atom_site_fract_x
_atom_site_fract_y
_atom_site_fract_z
Si Si1 0.235247 0.428584 0.161629
Si Si2 0.599570 0.733801 0.822424
Si Si3 0.186182 0.240105 0.245653
Si Si4 0.279952 0.597921 0.718808
Si Si5 0.240460 0.999164 0.989211
O O1 0.500000 0.500000 0.500000
O O2 0.301731 0.317642 0.163662
O O3 0.097038 0.360807 0.092035
O O4 0.031113 0.516945 0.876777
O O5 0.379608 0.626806 0.605634
O O6 0.811871 0.736461 0.144630
O O7 0.548657 0.882914 0.765767
O O8 0.506825 0.208303 0.574718
O O9 0.943002 0.140211 0.956538
O O10 0.144088 0.532431 0.481047
O O11 0.500000 0.500000 0.000000
#
# Coordination Sequence:
#
# PCOD9252635 Si02
#       5
#     4   4   4   4   4
#     4  12  28  47  82 119 165 230 283 351 433 518
#     4  11  26  50  76 120 162 219 274 358 414 514
#     4  11  26  46  75 112 164 210 280 338 425 496
#     4  11  24  48  75 115 156 217 272 351 421 503
#     4  11  27  49  82 114 173 212 290 347 430 508
#
# _framework density 26.248373999999998
#
# number of rings (size 3 to 8) (size 9 to 14) (size 15 to 20)
#    0.000    0.800    2.000    3.000    8.400    3.200 
#    0.000    0.000    0.000    0.000    0.000    0.000 
#    0.000    0.000    0.000    0.000    0.000    0.000 
#
# Total GULP energy -111712.061763 kJ/mol
# GULP energy per Si atom -5585.603088 kJ/mol
# Density = 2.618863 g / cm^3
# Si number density = 26.248374 Si / 1000 Ang^3
#
#
#
# Elastic Constant Matrix: (Units=GPa)
#
#
# Indices 1 2 3 4 5 6 
#
# 1 113.7076 43.5668 49.4638 0.0000 -28.5997 0.0000
# 2 43.5668 152.0524 64.2877 0.0000 2.9557 0.0000
# 3 49.4638 64.2877 130.4726 0.0000 -25.1512 0.0000
# 4 0.0000 0.0000 0.0000 45.4627 0.0000 -0.7981
# 5 -28.5997 2.9557 -25.1512 0.0000 52.1044 0.0000
# 6 0.0000 0.0000 0.0000 -0.7981 0.0000 46.9974
#
#
#
# Elastic Compliance Matrix: (Units=1/GPa)
#
#
# Indices 1 2 3 4 5 6 
#
# 1 0.012243 -0.002694 -0.002194 0.000000 0.005814 0.000000
# 2 -0.002694 0.009259 -0.004330 0.000000 -0.004094 0.000000
# 3 -0.002194 -0.004330 0.011516 0.000000 0.004601 0.000000
# 4 0.000000 0.000000 0.000000 0.022003 0.000000 0.000374
# 5 0.005814 -0.004094 0.004601 0.000000 0.024837 0.000000
# 6 0.000000 0.000000 0.000000 0.000374 0.000000 0.021284
#
#
# Mechanical properties :
#
#
# Convention : Reuss Voigt Hill
#
# Bulk Modulus (GPa) = 68.56830 78.98548 73.77689
# Shear Modulus (GPa) = 40.18086 44.84051 42.51069
#
# Velocity S-wave (km/s) = 3.91678 4.13766 4.02874
# Velocity P-wave (km/s) = 6.82894 7.27900 7.05756
#
# Compressibility (1/GPa) = 0.01458400
#
# Stress axis : x y z
#
# Youngs Moduli (GPa) = 81.67889 108.00542 86.83198
#
# Poissons Ratio (x) = 0.29092 0.19047
# Poissons Ratio (y) = 0.22001 0.37599
# Poissons Ratio (z) = 0.17917 0.46767
#
# Static dielectric constant tensor:
#      x y z
#    x 2.066410 0.000000 0.015210 
#    y 0.000000 2.270680 0.000000 
#    z 0.015210 0.000000 2.366650 
# 
# From -- ./inp_files/48820.got.cif
#   From: 2010.05.17/outbox.cif.g08.bks.cpg/sg14_25_cif.got.tgz:48820.got - 2010.06.03 17:49:19.
