data_PCOD9252912
_publ_section_title
;
Structure prediction by ZEFSAII (Michael W. Deem and Ramdas Pophale) SiO2 
 PCOD9252912
Probable space group: P 21/C
;
_chemical_formula_sum "Si O2"
_cell_formula_units_Z 20
_cell_length_a 11.375520
_cell_length_b 4.781835
_cell_length_c 19.066527
_cell_angle_alpha 90.000000
_cell_angle_beta 40.244436
_cell_angle_gamma 90.000000
_cell_volume 670.044233
_symmetry_space_group_name_H-M "P 21/C"
_symmetry_group_IT_number 14
_symmetry_cell_setting 'monoclinic'
loop_
_space_group_symop_operation_xyz
x,y,z
-x,1/2+y,1/2-z
-x,-y,-z
x,1/2-y,1/2+z
loop_
_atom_site_type_symbol
_atom_site_label
_atom_site_fract_x
_atom_site_fract_y
_atom_site_fract_z
Si Si1 0.047495 0.928029 0.117089
Si Si2 0.784198 0.157644 0.336754
Si Si3 0.000000 0.000000 0.500000
Si Si4 0.593413 0.759322 0.029326
Si Si5 0.407046 0.596083 0.827676
Si Si6 0.000000 0.500000 0.500000
O O1 0.886905 0.124123 0.216740
O O2 0.056433 0.727918 0.180914
O O3 0.264440 0.994302 0.018497
O O4 0.087218 0.241264 0.008570
O O5 0.610188 0.348857 0.397330
O O6 0.686059 0.903764 0.422333
O O7 0.034366 0.275097 0.416308
O O8 0.200255 0.798881 0.403881
O O9 0.572738 0.546949 0.105526
O O10 0.534658 0.860588 0.755116
#
# Coordination Sequence:
#
# PCOD9252912 Si02
#       6
#     4   4   2   4   4   2
#     4  12  25  50  75 116 149 212 254 332 391 484
#     4  11  26  47  77 105 154 203 259 318 402 466
#     4  12  26  52  76 116 164 214 252 344 394 490
#     4  11  26  49  72 110 153 200 266 320 386 483
#     4  12  29  50  78 120 163 209 269 333 407 476
#     4  12  28  46  88 114 164 204 274 326 408 466
#
# _framework density 29.848776999999998
#
# number of rings (size 3 to 8) (size 9 to 14) (size 15 to 20)
#    0.000    0.400    4.000    3.000    8.400    0.000 
#    0.000    0.000    0.000    0.000    0.000    0.000 
#    0.000    0.000    0.000    0.000    0.000    0.000 
#
# Total GULP energy -111448.052619 kJ/mol
# GULP energy per Si atom -5572.402631 kJ/mol
# Density = 2.978084 g / cm^3
# Si number density = 29.848777 Si / 1000 Ang^3
#
#
#
# Elastic Constant Matrix: (Units=GPa)
#
#
# Indices 1 2 3 4 5 6 
#
# 1 182.0975 -14.5137 78.6707 0.0000 -1.8257 0.0000
# 2 -14.5137 149.5280 4.8855 0.0000 0.3034 0.0000
# 3 78.6707 4.8855 209.4473 0.0000 3.2173 0.0000
# 4 0.0000 0.0000 0.0000 47.2499 0.0000 0.9557
# 5 -1.8257 0.3034 3.2173 0.0000 54.6021 0.0000
# 6 0.0000 0.0000 0.0000 0.9557 0.0000 24.7032
#
#
#
# Elastic Compliance Matrix: (Units=1/GPa)
#
#
# Indices 1 2 3 4 5 6 
#
# 1 0.006640 0.000726 -0.002517 0.000000 0.000366 0.000000
# 2 0.000726 0.006772 -0.000431 0.000000 0.000012 0.000000
# 3 -0.002517 -0.000431 0.005736 0.000000 -0.000420 0.000000
# 4 0.000000 0.000000 0.000000 0.021181 0.000000 -0.000819
# 5 0.000366 0.000012 -0.000420 0.000000 0.018351 0.000000
# 6 0.000000 0.000000 0.000000 -0.000819 0.000000 0.040512
#
#
# Mechanical properties :
#
#
# Convention : Reuss Voigt Hill
#
# Bulk Modulus (GPa) = 68.00068 75.46200 71.73134
# Shear Modulus (GPa) = 46.06671 56.77971 51.42321
#
# Velocity S-wave (km/s) = 3.93279 4.36621 4.15515
# Velocity P-wave (km/s) = 6.59194 7.12423 6.86325
#
# Compressibility (1/GPa) = 0.01470574
#
# Stress axis : x y z
#
# Youngs Moduli (GPa) = 150.59302 147.66178 174.32850
#
# Poissons Ratio (x) = -0.10721 0.43875
# Poissons Ratio (y) = -0.10933 0.07511
# Poissons Ratio (z) = 0.37901 0.06362
#
# Static dielectric constant tensor:
#      x y z
#    x 2.101810 0.000000 -0.335170 
#    y 0.000000 -1.734830 0.000000 
#    z -0.335170 0.000000 -0.056780 
# 
# From -- ./inp_files/66193.got.cif
#   From: 2010.05.17/outbox.cif.g08.bks.cpg/sg14_34_cif.got.tgz:66193.got - 2010.06.03 17:49:19.
