data_PCOD9252945
_publ_section_title
;
Structure prediction by ZEFSAII (Michael W. Deem and Ramdas Pophale) SiO2 
 PCOD9252945
Probable space group: P 21/C
;
_chemical_formula_sum "Si O2"
_cell_formula_units_Z 16
_cell_length_a 11.539584
_cell_length_b 7.617134
_cell_length_c 11.502108
_cell_angle_alpha 90.000000
_cell_angle_beta 138.575030
_cell_angle_gamma 90.000000
_cell_volume 668.929108
_symmetry_space_group_name_H-M "P 21/C"
_symmetry_group_IT_number 14
_symmetry_cell_setting 'monoclinic'
loop_
_space_group_symop_operation_xyz
x,y,z
-x,1/2+y,1/2-z
-x,-y,-z
x,1/2-y,1/2+z
loop_
_atom_site_type_symbol
_atom_site_label
_atom_site_fract_x
_atom_site_fract_y
_atom_site_fract_z
Si Si1 0.448054 0.485036 0.326751
Si Si2 0.921492 0.978148 0.790225
Si Si3 0.892099 0.390349 0.013960
Si Si4 0.728840 0.889543 0.857408
O O1 0.500000 0.500000 0.500000
O O2 0.357361 0.297755 0.233852
O O3 0.611097 0.514665 0.364455
O O4 0.300634 0.628143 0.183875
O O5 0.759049 0.985402 0.756404
O O6 0.009567 0.788612 0.879294
O O7 0.872730 0.008142 0.621325
O O8 0.074002 0.113871 0.941890
O O9 0.000000 0.500000 0.000000
#
# Coordination Sequence:
#
# PCOD9252945 Si02
#       4
#     4   4   4   4
#     4  12  27  48  74 110 155 195 248 306 371 447
#     4  11  26  49  78 107 148 198 252 306 372 434
#     4  12  25  46  78 107 150 194 251 306 365 448
#     4  11  26  50  73 107 151 193 248 303 373 434
#
# _framework density 23.918831000000001
#
# number of rings (size 3 to 8) (size 9 to 14) (size 15 to 20)
#    0.000    0.500    2.500    4.500    7.000    1.000 
#    4.500    0.000    0.000    0.000    0.000    0.000 
#    0.000    0.000    0.000    0.000    0.000    0.000 
#
# Total GULP energy -89671.594320 kJ/mol
# GULP energy per Si atom -5604.474645 kJ/mol
# Density = 2.386439 g / cm^3
# Si number density = 23.918831 Si / 1000 Ang^3
#
#
#
# Elastic Constant Matrix: (Units=GPa)
#
#
# Indices 1 2 3 4 5 6 
#
# 1 243.0139 59.5426 78.6887 0.0000 -27.4847 0.0000
# 2 59.5426 132.3565 49.1614 0.0000 -18.1611 0.0000
# 3 78.6887 49.1614 134.4646 0.0000 -44.6266 0.0000
# 4 0.0000 0.0000 0.0000 33.5969 0.0000 0.5648
# 5 -27.4847 -18.1611 -44.6266 0.0000 52.3779 0.0000
# 6 0.0000 0.0000 0.0000 0.5648 0.0000 33.5435
#
#
#
# Elastic Compliance Matrix: (Units=1/GPa)
#
#
# Indices 1 2 3 4 5 6 
#
# 1 0.005300 -0.001424 -0.002540 0.000000 0.000123 0.000000
# 2 -0.001424 0.009132 -0.002374 0.000000 0.000397 0.000000
# 3 -0.002540 -0.002374 0.012654 0.000000 0.008625 0.000000
# 4 0.000000 0.000000 0.000000 0.029773 0.000000 -0.000501
# 5 0.000123 0.000397 0.008625 0.000000 0.026643 0.000000
# 6 0.000000 0.000000 0.000000 -0.000501 0.000000 0.029820
#
#
# Mechanical properties :
#
#
# Convention : Reuss Voigt Hill
#
# Bulk Modulus (GPa) = 69.39493 98.29116 83.84305
# Shear Modulus (GPa) = 38.22555 45.39981 41.81268
#
# Velocity S-wave (km/s) = 4.00201 4.36142 4.18557
# Velocity P-wave (km/s) = 7.10144 8.15754 7.64774
#
# Compressibility (1/GPa) = 0.01441027
#
# Stress axis : x y z
#
# Youngs Moduli (GPa) = 188.66572 109.50380 79.02687
#
# Poissons Ratio (x) = 0.15594 0.20075
# Poissons Ratio (y) = 0.26866 0.18759
# Poissons Ratio (z) = 0.47926 0.25994
#
# Static dielectric constant tensor:
#      x y z
#    x 1.936600 0.000000 0.020720 
#    y 0.000000 1.986830 0.000000 
#    z 0.020720 0.000000 1.880750 
# 
# From -- ./inp_files/17639.got.cif
#   From: 2010.05.17/outbox.cif.g08.bks.cpg/sg14_9_cif.got.tgz:17639.got - 2010.06.03 17:49:19.
