data_PCOD9252666
_publ_section_title
;
Structure prediction by ZEFSAII (Michael W. Deem and Ramdas Pophale) SiO2 
 PCOD9252666
Probable space group: P 21/C
;
_chemical_formula_sum "Si O2"
_cell_formula_units_Z 18
_cell_length_a 7.155488
_cell_length_b 8.454606
_cell_length_c 13.228035
_cell_angle_alpha 90.000000
_cell_angle_beta 120.349197
_cell_angle_gamma 90.000000
_cell_volume 690.588988
_symmetry_space_group_name_H-M "P 21/C"
_symmetry_group_IT_number 14
_symmetry_cell_setting 'monoclinic'
loop_
_space_group_symop_operation_xyz
x,y,z
-x,1/2+y,1/2-z
-x,-y,-z
x,1/2-y,1/2+z
loop_
_atom_site_type_symbol
_atom_site_label
_atom_site_fract_x
_atom_site_fract_y
_atom_site_fract_z
Si Si1 0.525318 0.132523 0.591984
Si Si2 0.895803 0.404045 0.673070
Si Si3 0.042331 0.352096 0.937922
Si Si4 0.746586 0.046266 0.855978
Si Si5 0.500000 0.500000 0.500000
O O1 0.284854 0.199509 0.530417
O O2 0.587793 0.063415 0.716946
O O3 0.704729 0.267801 0.612107
O O4 0.500000 0.000000 0.500000
O O5 0.623870 0.481581 0.425244
O O6 0.735412 0.551623 0.619936
O O7 0.013370 0.402718 0.812509
O O8 0.075065 0.420133 0.635488
O O9 0.867449 0.214194 0.899994
O O10 0.000000 0.500000 0.000000
#
# Coordination Sequence:
#
# PCOD9252666 Si02
#       5
#     4   4   4   4   2
#     4  11  24  49  82 119 162 212 282 355 421 499
#     4  11  25  48  78 120 160 219 278 350 416 498
#     4  11  25  47  82 123 168 214 280 350 423 505
#     4  11  26  50  83 119 162 222 280 341 429 505
#     4  12  26  48  76 116 164 216 270 334 410 514
#
# _framework density 26.064706000000001
#
# number of rings (size 3 to 8) (size 9 to 14) (size 15 to 20)
#    0.000    0.889    2.222    3.333    3.111    0.000 
#    0.000    2.222    4.889    0.000    0.000    0.000 
#    0.000    0.000    0.000    0.000    0.000    0.000 
#
# Total GULP energy -100406.668630 kJ/mol
# GULP energy per Si atom -5578.148257 kJ/mol
# Density = 2.600538 g / cm^3
# Si number density = 26.064706 Si / 1000 Ang^3
#
#
#
# Elastic Constant Matrix: (Units=GPa)
#
#
# Indices 1 2 3 4 5 6 
#
# 1 228.7977 49.1508 126.4332 0.0000 -31.3665 0.0000
# 2 49.1508 94.9171 55.1180 0.0000 -19.6057 0.0000
# 3 126.4332 55.1180 243.5402 0.0000 -6.9133 0.0000
# 4 0.0000 0.0000 0.0000 46.2090 0.0000 5.7890
# 5 -31.3665 -19.6057 -6.9133 0.0000 77.2523 0.0000
# 6 0.0000 0.0000 0.0000 5.7890 0.0000 -2.5399
#
#
#
# Elastic Compliance Matrix: (Units=1/GPa)
#
#
# Indices 1 2 3 4 5 6 
#
# 1 0.006639 -0.001191 -0.003117 0.000000 0.002114 0.000000
# 2 -0.001191 0.012998 -0.002249 0.000000 0.002614 0.000000
# 3 -0.003117 -0.002249 0.006197 0.000000 -0.001282 0.000000
# 4 0.000000 0.000000 0.000000 0.016834 0.000000 0.038368
# 5 0.002114 0.002614 -0.001282 0.000000 0.014352 0.000000
# 6 0.000000 0.000000 0.000000 0.038368 0.000000 -0.306260
#
#
# Mechanical properties :
#
#
# Convention : Reuss Voigt Hill
#
# Bulk Modulus (GPa) = 78.61903 114.29546 96.45725
# Shear Modulus (GPa) = -21.56231 46.62112 12.52941
#
# Velocity S-wave (km/s) = -2.87933 4.23385 2.19487
# Velocity P-wave (km/s) = 4.37886 8.23690 6.59625
#
# Compressibility (1/GPa) = 0.01271957
#
# Stress axis : x y z
#
# Youngs Moduli (GPa) = 150.62937 76.93303 161.37056
#
# Poissons Ratio (x) = 0.09163 0.50298
# Poissons Ratio (y) = 0.17941 0.36296
# Poissons Ratio (z) = 0.46950 0.17304
#
# Static dielectric constant tensor:
#      x y z
#    x 2.137700 0.000000 -0.063400 
#    y 0.000000 1.898490 0.000000 
#    z -0.063400 0.000000 1.647170 
# 
# From -- ./inp_files/23179.got.cif
#   From: 2010.05.17/outbox.cif.g08.bks.cpg/sg14_12_cif.got.tgz:23179.got - 2010.06.03 17:49:19.
