data_PCOD9252795
_publ_section_title
;
Structure prediction by ZEFSAII (Michael W. Deem and Ramdas Pophale) SiO2 
 PCOD9252795
Probable space group: P 21/C
;
_chemical_formula_sum "Si O2"
_cell_formula_units_Z 16
_cell_length_a 5.343570
_cell_length_b 4.772929
_cell_length_c 31.808447
_cell_angle_alpha 90.000000
_cell_angle_beta 131.089693
_cell_angle_gamma 90.000000
_cell_volume 611.430187
_symmetry_space_group_name_H-M "P 21/C"
_symmetry_group_IT_number 14
_symmetry_cell_setting 'monoclinic'
loop_
_space_group_symop_operation_xyz
x,y,z
-x,1/2+y,1/2-z
-x,-y,-z
x,1/2-y,1/2+z
loop_
_atom_site_type_symbol
_atom_site_label
_atom_site_fract_x
_atom_site_fract_y
_atom_site_fract_z
Si Si1 0.763771 0.692222 0.504487
Si Si2 0.288075 0.931220 0.832471
Si Si3 0.610189 0.247157 0.741324
Si Si4 0.569129 0.418451 0.909060
O O1 0.500000 0.500000 0.500000
O O2 0.407087 0.072105 0.543577
O O3 0.952405 0.142023 0.437807
O O4 0.000000 0.500000 0.500000
O O5 0.056979 0.559985 0.722167
O O6 0.492048 0.919397 0.811422
O O7 0.361643 0.620166 0.856069
O O8 0.398029 0.121035 0.883442
O O9 0.647429 0.500058 0.778108
#
# Coordination Sequence:
#
# PCOD9252795 Si02
#       4
#     4   4   4   4
#     4  11  26  52  77 113 161 202 258 326 393 467
#     4  12  25  49  71 110 153 191 265 310 390 466
#     4  12  26  46  74 108 150 204 250 324 390 466
#     4  11  25  46  75 112 145 212 251 327 384 478
#
# _framework density 26.168156
#
# number of rings (size 3 to 8) (size 9 to 14) (size 15 to 20)
#    0.000    0.500    2.500    6.000    0.000   10.000 
#    9.000    0.000    0.000    0.000    0.000    0.000 
#    0.000    0.000    0.000    0.000    0.000    0.000 
#
# Total GULP energy -89315.526951 kJ/mol
# GULP energy per Si atom -5582.220434 kJ/mol
# Density = 2.610860 g / cm^3
# Si number density = 26.168156 Si / 1000 Ang^3
#
#
#
# Elastic Constant Matrix: (Units=GPa)
#
#
# Indices 1 2 3 4 5 6 
#
# 1 127.8872 73.6892 38.2530 0.0007 0.2040 -0.0001
# 2 73.6892 160.1608 28.4948 0.0005 -7.3065 -0.0005
# 3 38.2530 28.4948 85.1379 -0.0006 18.3690 -0.0045
# 4 0.0007 0.0005 -0.0006 49.6901 0.0025 -2.5650
# 5 0.2040 -7.3065 18.3690 0.0025 18.3273 -0.0011
# 6 -0.0001 -0.0005 -0.0045 -2.5650 -0.0011 60.8622
#
#
#
# Elastic Compliance Matrix: (Units=1/GPa)
#
#
# Indices 1 2 3 4 5 6 
#
# 1 0.011686 -0.004517 -0.004239 0.000000 0.002318 0.000000
# 2 -0.004517 0.008991 -0.002251 0.000000 0.005891 0.000000
# 3 -0.004239 -0.002251 0.018612 0.000001 -0.019504 0.000001
# 4 0.000000 0.000000 0.000001 0.020169 -0.000004 0.000850
# 5 0.002318 0.005891 -0.019504 -0.000004 0.076434 0.000000
# 6 0.000000 0.000000 0.000001 0.000850 0.000000 0.016466
#
#
# Mechanical properties :
#
#
# Convention : Reuss Voigt Hill
#
# Bulk Modulus (GPa) = 57.88440 72.67333 65.27887
# Shear Modulus (GPa) = 27.75769 41.29251 34.52510
#
# Velocity S-wave (km/s) = 3.26044 3.97667 3.63623
# Velocity P-wave (km/s) = 6.02844 6.99408 6.52914
#
# Compressibility (1/GPa) = 0.01727581
#
# Stress axis : x y z
#
# Youngs Moduli (GPa) = 85.57016 111.22145 53.72970
#
# Poissons Ratio (x) = 0.50237 0.22776
# Poissons Ratio (y) = 0.38651 0.12093
# Poissons Ratio (z) = 0.36274 0.25032
#
# Static dielectric constant tensor:
#      x y z
#    x 2.187970 0.000000 -0.075640 
#    y 0.000000 2.045280 0.000000 
#    z -0.075640 0.000000 2.110120 
# 
# From -- ./inp_files/371.got.cif
#   From: 2010.05.17/outbox.cif.g08.bks.cpg/sg14_1_cif.got.tgz:371.got - 2010.06.03 17:49:19.
