data_PCOD9252936
_publ_section_title
;
Structure prediction by ZEFSAII (Michael W. Deem and Ramdas Pophale) SiO2 
 PCOD9252936
Probable space group: P 21/C
;
_chemical_formula_sum "Si O2"
_cell_formula_units_Z 20
_cell_length_a 15.517947
_cell_length_b 4.841563
_cell_length_c 20.366998
_cell_angle_alpha 90.000000
_cell_angle_beta 153.474951
_cell_angle_gamma 90.000000
_cell_volume 683.368440
_symmetry_space_group_name_H-M "P 21/C"
_symmetry_group_IT_number 14
_symmetry_cell_setting 'monoclinic'
loop_
_space_group_symop_operation_xyz
x,y,z
-x,1/2+y,1/2-z
-x,-y,-z
x,1/2-y,1/2+z
loop_
_atom_site_type_symbol
_atom_site_label
_atom_site_fract_x
_atom_site_fract_y
_atom_site_fract_z
Si Si1 0.448083 0.254983 0.417241
Si Si2 0.663320 0.360440 0.931831
Si Si3 0.967447 0.709350 0.682018
Si Si4 0.129485 0.646783 0.158283
Si Si5 0.755989 0.983964 0.882579
O O1 0.500000 0.500000 0.500000
O O2 0.236289 0.353940 0.244640
O O3 0.500000 0.000000 0.500000
O O4 0.586641 0.251019 0.448880
O O5 0.770483 0.647291 0.022002
O O6 0.459946 0.382011 0.755971
O O7 0.796147 0.180795 0.972962
O O8 0.111514 0.730844 0.719292
O O9 0.970097 0.411915 0.716269
O O10 0.248338 0.823354 0.185740
O O11 0.087880 0.266393 0.015572
#
# Coordination Sequence:
#
# PCOD9252936 Si02
#       5
#     4   4   4   4   4
#     4  12  27  49  80 116 160 214 272 341 412 493
#     4  12  26  48  79 117 160 211 272 336 411 495
#     4  12  27  49  78 113 157 210 271 342 414 495
#     4  11  26  49  77 116 162 215 276 342 419 498
#     4  11  26  48  80 119 165 219 275 344 417 500
#
# _framework density 29.26679
#
# number of rings (size 3 to 8) (size 9 to 14) (size 15 to 20)
#    0.000    0.400    0.000    7.200    0.000   11.200 
#    0.000    0.000    0.000    0.000    0.000    0.000 
#    0.000    0.000    0.000    0.000    0.000    0.000 
#
# Total GULP energy -112083.336209 kJ/mol
# GULP energy per Si atom -5604.166810 kJ/mol
# Density = 2.920018 g / cm^3
# Si number density = 29.266790 Si / 1000 Ang^3
#
#
#
# Elastic Constant Matrix: (Units=GPa)
#
#
# Indices 1 2 3 4 5 6 
#
# 1 199.8081 54.7363 42.1803 0.0000 -32.0684 0.0000
# 2 54.7363 148.3502 34.0377 0.0000 -8.3015 0.0000
# 3 42.1803 34.0377 195.0138 0.0000 4.3718 0.0000
# 4 0.0000 0.0000 0.0000 65.8093 0.0000 -4.4750
# 5 -32.0684 -8.3015 4.3718 0.0000 84.1092 0.0000
# 6 0.0000 0.0000 0.0000 -4.4750 0.0000 55.2548
#
#
#
# Elastic Compliance Matrix: (Units=1/GPa)
#
#
# Indices 1 2 3 4 5 6 
#
# 1 0.006092 -0.001887 -0.001037 0.000000 0.002191 0.000000
# 2 -0.001887 0.007655 -0.000930 0.000000 0.000084 0.000000
# 3 -0.001037 -0.000930 0.005532 0.000000 -0.000775 0.000000
# 4 0.000000 0.000000 0.000000 0.015280 0.000000 0.001237
# 5 0.002191 0.000084 -0.000775 0.000000 0.012773 0.000000
# 6 0.000000 0.000000 0.000000 0.001237 0.000000 0.018198
#
#
# Mechanical properties :
#
#
# Convention : Reuss Voigt Hill
#
# Bulk Modulus (GPa) = 86.42747 89.45342 87.94045
# Shear Modulus (GPa) = 64.85400 68.51583 66.68491
#
# Velocity S-wave (km/s) = 4.71250 4.84372 4.77856
# Velocity P-wave (km/s) = 7.69450 7.86850 7.78198
#
# Compressibility (1/GPa) = 0.01157040
#
# Stress axis : x y z
#
# Youngs Moduli (GPa) = 164.13923 130.62997 180.76974
#
# Poissons Ratio (x) = 0.24654 0.18754
# Poissons Ratio (y) = 0.30978 0.16808
# Poissons Ratio (z) = 0.17029 0.12146
#
# Static dielectric constant tensor:
#      x y z
#    x 2.155690 0.000000 -0.007830 
#    y 0.000000 2.324660 0.000000 
#    z -0.007830 0.000000 2.464000 
# 
# From -- ./inp_files/56645.got.cif
#   From: 2010.05.17/outbox.cif.g08.bks.cpg/sg14_29_cif.got.tgz:56645.got - 2010.06.03 17:49:19.
