data_PCOD9252337
_publ_section_title
;
Structure prediction by ZEFSAII (Michael W. Deem and Ramdas Pophale) SiO2 
 PCOD9252337
Probable space group: P 21/C
;
_chemical_formula_sum "Si O2"
_cell_formula_units_Z 18
_cell_length_a 11.580389
_cell_length_b 7.705897
_cell_length_c 19.048680
_cell_angle_alpha 90.000000
_cell_angle_beta 155.378443
_cell_angle_gamma 90.000000
_cell_volume 708.197394
_symmetry_space_group_name_H-M "P 21/C"
_symmetry_group_IT_number 14
_symmetry_cell_setting 'monoclinic'
loop_
_space_group_symop_operation_xyz
x,y,z
-x,1/2+y,1/2-z
-x,-y,-z
x,1/2-y,1/2+z
loop_
_atom_site_type_symbol
_atom_site_label
_atom_site_fract_x
_atom_site_fract_y
_atom_site_fract_z
Si Si1 0.739540 0.872693 0.911614
Si Si2 0.641018 0.412369 0.233816
Si Si3 0.143024 0.160131 0.789514
Si Si4 0.500000 0.000000 0.500000
Si Si5 0.650463 0.123465 0.985125
O O1 0.590886 0.722764 0.872016
O O2 0.607942 0.916559 0.763741
O O3 0.061794 0.833361 0.080866
O O4 0.717049 0.047660 0.946290
O O5 0.657363 0.456827 0.161776
O O6 0.813904 0.196656 0.596373
O O7 0.222253 0.010852 0.887663
O O8 0.290923 0.332955 0.898279
O O9 0.321892 0.123665 0.818231
#
# Coordination Sequence:
#
# PCOD9252337 Si02
#       5
#     4   4   4   2   4
#     4  11  26  50  70 107 145 197 237 308 365 448
#     4  11  27  48  75 105 152 187 250 296 377 430
#     4  11  24  40  70 106 141 189 238 301 357 438
#     4  12  22  46  74 108 144 196 232 318 346 456
#     4  11  24  44  68 104 146 188 245 295 373 428
#
# _framework density 25.416643000000001
#
# number of rings (size 3 to 8) (size 9 to 14) (size 15 to 20)
#    0.000    0.889    4.444    1.333    3.111    0.889 
#    4.000    0.000    0.000    0.000    0.000    0.000 
#    0.000    0.000    0.000    0.000    0.000    0.000 
#
# Total GULP energy -100421.513257 kJ/mol
# GULP energy per Si atom -5578.972959 kJ/mol
# Density = 2.535879 g / cm^3
# Si number density = 25.416643 Si / 1000 Ang^3
#
#
#
# Elastic Constant Matrix: (Units=GPa)
#
#
# Indices 1 2 3 4 5 6 
#
# 1 124.0005 -4.3146 27.7366 0.0000 -3.6224 0.0000
# 2 -4.3146 80.4646 5.5527 0.0000 -1.6192 0.0000
# 3 27.7366 5.5527 71.3504 0.0000 6.6177 0.0000
# 4 0.0000 0.0000 0.0000 36.4476 0.0000 5.6633
# 5 -3.6224 -1.6192 6.6177 0.0000 61.2525 0.0000
# 6 0.0000 0.0000 0.0000 5.6633 0.0000 43.7602
#
#
#
# Elastic Compliance Matrix: (Units=1/GPa)
#
#
# Indices 1 2 3 4 5 6 
#
# 1 0.008927 0.000747 -0.003615 0.000000 0.000938 0.000000
# 2 0.000747 0.012569 -0.001317 0.000000 0.000519 0.000000
# 3 -0.003615 -0.001317 0.015704 0.000000 -0.001945 0.000000
# 4 0.000000 0.000000 0.000000 0.028000 0.000000 -0.003624
# 5 0.000938 0.000519 -0.001945 0.000000 0.016605 0.000000
# 6 0.000000 0.000000 0.000000 -0.003624 0.000000 0.023321
#
#
# Mechanical properties :
#
#
# Convention : Reuss Voigt Hill
#
# Bulk Modulus (GPa) = 34.68663 37.08497 35.88580
# Shear Modulus (GPa) = 40.61583 44.74810 42.68197
#
# Velocity S-wave (km/s) = 4.00184 4.20048 4.10236
# Velocity P-wave (km/s) = 5.91860 6.17640 6.04887
#
# Compressibility (1/GPa) = 0.02882955
#
# Stress axis : x y z
#
# Youngs Moduli (GPa) = 112.02543 79.55966 63.67961
#
# Poissons Ratio (x) = -0.05943 0.23022
# Poissons Ratio (y) = -0.08368 0.08384
# Poissons Ratio (z) = 0.40500 0.10475
#
# Static dielectric constant tensor:
#      x y z
#    x -3.695990 0.000000 -0.651550 
#    y 0.000000 2.261230 0.000000 
#    z -0.651550 0.000000 1.910080 
# 
# From -- ./inp_files/66746.got.cif
#   From: 2010.05.17/outbox.cif.g08.bks.cpg/sg14_34_cif.got.tgz:66746.got - 2010.06.03 17:49:19.
