data_PCOD9252281
_publ_section_title
;
Structure prediction by ZEFSAII (Michael W. Deem and Ramdas Pophale) SiO2 
 PCOD9252281
Probable space group: P 21/C
;
_chemical_formula_sum "Si O2"
_cell_formula_units_Z 20
_cell_length_a 7.381691
_cell_length_b 12.056561
_cell_length_c 8.737003
_cell_angle_alpha 90.000000
_cell_angle_beta 88.479890
_cell_angle_gamma 90.000000
_cell_volume 777.300467
_symmetry_space_group_name_H-M "P 21/C"
_symmetry_group_IT_number 14
_symmetry_cell_setting 'monoclinic'
loop_
_space_group_symop_operation_xyz
x,y,z
-x,1/2+y,1/2-z
-x,-y,-z
x,1/2-y,1/2+z
loop_
_atom_site_type_symbol
_atom_site_label
_atom_site_fract_x
_atom_site_fract_y
_atom_site_fract_z
Si Si1 0.321808 0.684047 0.480913
Si Si2 0.593537 0.095565 0.351220
Si Si3 0.872017 0.901465 0.317460
Si Si4 0.885326 0.679378 0.476983
Si Si5 0.262688 0.513698 0.738384
O O1 0.407065 0.650105 0.319044
O O2 0.384072 0.804532 0.532247
O O3 0.358638 0.596758 0.616168
O O4 0.104027 0.679122 0.466998
O O5 0.408422 0.026659 0.356924
O O6 0.763844 0.013421 0.345787
O O7 0.827571 0.802951 0.434611
O O8 0.829557 0.856623 0.147801
O O9 0.086778 0.927046 0.312819
O O10 0.813960 0.589679 0.357871
#
# Coordination Sequence:
#
# PCOD9252281 Si02
#       5
#     4   4   4   4   4
#     4  11  23  48  70 106 146 189 237 301 353 433
#     4  12  26  46  73 106 148 188 242 296 360 429
#     4  11  25  49  70 109 141 192 241 298 359 430
#     4  11  23  46  77  98 146 191 238 295 368 420
#     4  11  24  44  76  98 143 196 235 290 365 420
#
# _framework density 25.730073000000001
#
# number of rings (size 3 to 8) (size 9 to 14) (size 15 to 20)
#    0.000    0.800    4.000    4.200    2.800    0.800 
#    3.600    4.000    0.000    0.000    0.000    0.000 
#    0.000    0.000    0.000    0.000    0.000    0.000 
#
# Total GULP energy -112469.603948 kJ/mol
# GULP energy per Si atom -5623.480197 kJ/mol
# Density = 2.567151 g / cm^3
# Si number density = 25.730073 Si / 1000 Ang^3
#
#
#
# Elastic Constant Matrix: (Units=GPa)
#
#
# Indices 1 2 3 4 5 6 
#
# 1 63.4222 14.2150 31.6288 0.0000 1.7469 0.0000
# 2 14.2150 149.0994 41.3933 0.0000 -4.8276 0.0000
# 3 31.6288 41.3933 100.5892 0.0000 -5.1842 0.0000
# 4 0.0000 0.0000 0.0000 57.2600 0.0000 11.1002
# 5 1.7469 -4.8276 -5.1842 0.0000 40.4086 0.0000
# 6 0.0000 0.0000 0.0000 11.1002 0.0000 26.0548
#
#
#
# Elastic Compliance Matrix: (Units=1/GPa)
#
#
# Indices 1 2 3 4 5 6 
#
# 1 0.018805 -0.000203 -0.005912 0.000000 -0.001596 0.000000
# 2 -0.000203 0.007585 -0.003030 0.000000 0.000526 0.000000
# 3 -0.005912 -0.003030 0.013128 0.000000 0.001578 0.000000
# 4 0.000000 0.000000 0.000000 0.019036 0.000000 -0.008110
# 5 -0.001596 0.000526 0.001578 0.000000 0.025081 0.000000
# 6 0.000000 0.000000 0.000000 -0.008110 0.000000 0.041836
#
#
# Mechanical properties :
#
#
# Convention : Reuss Voigt Hill
#
# Bulk Modulus (GPa) = 47.10729 54.17611 50.64170
# Shear Modulus (GPa) = 33.14826 39.80293 36.47559
#
# Velocity S-wave (km/s) = 3.59319 3.93739 3.76922
# Velocity P-wave (km/s) = 5.96345 6.46312 6.21831
#
# Compressibility (1/GPa) = 0.02122814
#
# Stress axis : x y z
#
# Youngs Moduli (GPa) = 53.17746 131.84658 76.17054
#
# Poissons Ratio (x) = 0.02681 0.45028
# Poissons Ratio (y) = 0.01081 0.23080
# Poissons Ratio (z) = 0.31436 0.39950
#
# Static dielectric constant tensor:
#      x y z
#    x 1.980450 0.000000 0.009250 
#    y 0.000000 1.966550 0.000000 
#    z 0.009250 0.000000 2.001490 
# 
# From -- ./inp_files/7939.got.cif
#   From: 2010.05.17/outbox.cif.g08.bks.cpg/sg14_4_cif.got.tgz:7939.got - 2010.06.03 17:49:19.
