data_PCOD9252118
_publ_section_title
;
Structure prediction by ZEFSAII (Michael W. Deem and Ramdas Pophale) SiO2 
 PCOD9252118
Probable space group: P 21/C
;
_chemical_formula_sum "Si O2"
_cell_formula_units_Z 32
_cell_length_a 6.570007
_cell_length_b 13.662626
_cell_length_c 17.686758
_cell_angle_alpha 90.000000
_cell_angle_beta 78.013579
_cell_angle_gamma 90.000000
_cell_volume 1553.010904
_symmetry_space_group_name_H-M "P 21/C"
_symmetry_group_IT_number 14
_symmetry_cell_setting 'monoclinic'
loop_
_space_group_symop_operation_xyz
x,y,z
-x,1/2+y,1/2-z
-x,-y,-z
x,1/2-y,1/2+z
loop_
_atom_site_type_symbol
_atom_site_label
_atom_site_fract_x
_atom_site_fract_y
_atom_site_fract_z
Si Si1 0.965198 0.094745 0.451323
Si Si2 0.857915 0.665858 0.773425
Si Si3 0.310478 0.147230 0.308058
Si Si4 0.252647 0.884320 0.151147
Si Si5 0.171444 0.266340 0.055272
Si Si6 0.606544 0.992934 0.203397
Si Si7 0.580904 0.201372 0.433567
Si Si8 0.994777 0.951946 0.918039
O O1 0.728505 0.111789 0.444753
O O2 0.113226 0.098761 0.366202
O O3 0.034435 0.183394 0.500672
O O4 0.000000 0.000000 0.500000
O O5 0.766689 0.761647 0.736920
O O6 0.850515 0.680650 0.863029
O O7 0.727939 0.571023 0.756637
O O8 0.094970 0.651208 0.727984
O O9 0.441434 0.068967 0.250079
O O10 0.461737 0.182266 0.364056
O O11 0.275966 0.795984 0.090734
O O12 0.476732 0.915239 0.164236
O O13 0.149731 0.978321 0.121140
O O14 0.099666 0.155369 0.070438
O O15 0.407946 0.275779 0.008974
O O16 0.778690 0.045790 0.138449
O O17 0.000000 0.000000 0.000000
#
# Coordination Sequence:
#
# PCOD9252118 Si02
#       8
#     4   4   4   4   4   4   4   4
#     4  11  27  45  69  99 137 184 230 282 346 411
#     4  11  25  44  67 103 139 175 231 286 343 413
#     4  11  25  44  70 101 137 178 234 283 342 411
#     4  11  23  43  70  96 135 183 220 283 349 404
#     4  11  27  43  68 103 138 177 230 288 341 418
#     4  11  26  42  70 102 135 183 232 284 345 412
#     4  11  24  45  72  96 139 183 222 282 352 405
#     4  11  25  43  68 102 141 171 232 285 342 418
#
# _framework density 20.605136000000002
#
# number of rings (size 3 to 8) (size 9 to 14) (size 15 to 20)
#    0.000    1.000    2.500    2.250   10.500    7.000 
#    0.000    0.000    0.000    0.000    0.000    0.000 
#    0.000    0.000    0.000    0.000    0.000    0.000 
#
# Total GULP energy -179068.581383 kJ/mol
# GULP energy per Si atom -5595.893168 kJ/mol
# Density = 2.055824 g / cm^3
# Si number density = 20.605136 Si / 1000 Ang^3
#
#
#
# Elastic Constant Matrix: (Units=GPa)
#
#
# Indices 1 2 3 4 5 6 
#
# 1 80.2760 1.3536 20.1878 0.0000 -10.5468 0.0000
# 2 1.3536 59.0611 5.7721 0.0000 -13.6876 0.0000
# 3 20.1878 5.7721 101.9666 0.0000 -13.0453 0.0000
# 4 0.0000 0.0000 0.0000 36.3185 0.0000 -5.9510
# 5 -10.5468 -13.6876 -13.0453 0.0000 20.0115 0.0000
# 6 0.0000 0.0000 0.0000 -5.9510 0.0000 29.3535
#
#
#
# Elastic Compliance Matrix: (Units=1/GPa)
#
#
# Indices 1 2 3 4 5 6 
#
# 1 0.013845 0.001511 -0.001921 0.000000 0.007078 0.000000
# 2 0.001511 0.020329 0.000470 0.000000 0.015007 0.000000
# 3 -0.001921 0.000470 0.010989 0.000000 0.006473 0.000000
# 4 0.000000 0.000000 0.000000 0.028480 0.000000 0.005774
# 5 0.007078 0.015007 0.006473 0.000000 0.068186 0.000000
# 6 0.000000 0.000000 0.000000 0.005774 0.000000 0.035238
#
#
# Mechanical properties :
#
#
# Convention : Reuss Voigt Hill
#
# Bulk Modulus (GPa) = 22.08376 32.88119 27.48247
# Shear Modulus (GPa) = 26.03611 31.40273 28.71942
#
# Velocity S-wave (km/s) = 3.55853 3.90811 3.73741
# Velocity P-wave (km/s) = 5.25596 6.02966 5.65606
#
# Compressibility (1/GPa) = 0.04528215
#
# Stress axis : x y z
#
# Youngs Moduli (GPa) = 72.23083 49.19063 91.00047
#
# Poissons Ratio (x) = -0.07431 0.17481
# Poissons Ratio (y) = -0.10912 -0.04278
# Poissons Ratio (z) = 0.13876 -0.02313
#
# Static dielectric constant tensor:
#      x y z
#    x 1.742280 0.000000 0.008760 
#    y 0.000000 1.728400 0.000000 
#    z 0.008760 0.000000 1.705670 
# 
# From -- ./inp_files/53453.got.cif
#   From: 2010.05.17/outbox.cif.g08.bks.cpg/sg14_27_cif.got.tgz:53453.got - 2010.06.03 17:49:19.
