data_PCOD9252302
_publ_section_title
;
Structure prediction by ZEFSAII (Michael W. Deem and Ramdas Pophale) SiO2 
 PCOD9252302
Probable space group: P 21/C
;
_chemical_formula_sum "Si O2"
_cell_formula_units_Z 26
_cell_length_a 16.021059
_cell_length_b 5.040060
_cell_length_c 13.514675
_cell_angle_alpha 90.000000
_cell_angle_beta 113.731810
_cell_angle_gamma 90.000000
_cell_volume 998.992167
_symmetry_space_group_name_H-M "P 21/C"
_symmetry_group_IT_number 14
_symmetry_cell_setting 'monoclinic'
loop_
_space_group_symop_operation_xyz
x,y,z
-x,1/2+y,1/2-z
-x,-y,-z
x,1/2-y,1/2+z
loop_
_atom_site_type_symbol
_atom_site_label
_atom_site_fract_x
_atom_site_fract_y
_atom_site_fract_z
Si Si1 0.301131 0.948850 0.165867
Si Si2 0.462922 0.850981 0.679662
Si Si3 0.500000 0.500000 0.500000
Si Si4 0.844476 0.389811 0.850932
Si Si5 0.306385 0.219578 0.843870
Si Si6 0.793431 0.809119 0.521871
Si Si7 0.984324 0.786532 0.180914
O O1 0.348912 0.101197 0.277312
O O2 0.357337 0.693287 0.160794
O O3 0.201670 0.895917 0.162216
O O4 0.282817 0.126904 0.063732
O O5 0.511426 0.654549 0.784449
O O6 0.475367 0.724965 0.577336
O O7 0.609731 0.548054 0.575041
O O8 0.775533 0.546902 0.744703
O O9 0.946254 0.352156 0.862275
O O10 0.832112 0.499512 0.955895
O O11 0.257752 0.401708 0.903864
O O12 0.883933 0.647645 0.594719
O O13 0.972998 0.556961 0.257844
#
# Coordination Sequence:
#
# PCOD9252302 Si02
#       7
#     4   4   2   4   4   4   4
#     4  11  25  44  73 102 152 191 251 315 370 449
#     4  12  27  49  72 111 151 199 260 313 382 457
#     4  12  24  46  80 106 154 208 252 320 392 448
#     4  11  26  46  73 106 152 195 250 313 374 452
#     4  11  23  48  67 111 144 198 252 312 378 452
#     4  11  25  45  74 108 145 198 248 309 381 447
#     4  12  27  49  79 113 152 197 248 309 378 458
#
# _framework density 26.026226999999999
#
# number of rings (size 3 to 8) (size 9 to 14) (size 15 to 20)
#    0.000    0.615    4.615    2.308    6.462    2.462 
#    5.538    0.000    0.000    0.000    0.000    0.000 
#    0.000    0.000    0.000    0.000    0.000    0.000 
#
# Total GULP energy -144944.008302 kJ/mol
# GULP energy per Si atom -5574.769550 kJ/mol
# Density = 2.596699 g / cm^3
# Si number density = 26.026227 Si / 1000 Ang^3
#
#
#
# Elastic Constant Matrix: (Units=GPa)
#
#
# Indices 1 2 3 4 5 6 
#
# 1 109.8826 -3.1903 34.9769 0.0000 -9.3319 0.0000
# 2 -3.1903 59.1081 14.3796 0.0000 3.2684 0.0000
# 3 34.9769 14.3796 98.7754 0.0000 -2.9047 0.0000
# 4 0.0000 0.0000 0.0000 3.1691 0.0000 -1.9761
# 5 -9.3319 3.2684 -2.9047 0.0000 35.7170 0.0000
# 6 0.0000 0.0000 0.0000 -1.9761 0.0000 41.7083
#
#
#
# Elastic Compliance Matrix: (Units=1/GPa)
#
#
# Indices 1 2 3 4 5 6 
#
# 1 0.010572 0.001386 -0.003877 0.000000 0.002320 0.000000
# 2 0.001386 0.017839 -0.003133 0.000000 -0.001525 0.000000
# 3 -0.003877 -0.003133 0.011960 0.000000 0.000246 0.000000
# 4 0.000000 0.000000 0.000000 0.325150 0.000000 0.015405
# 5 0.002320 -0.001525 0.000246 0.000000 0.028764 0.000000
# 6 0.000000 0.000000 0.000000 0.015405 0.000000 0.024706
#
#
# Mechanical properties :
#
#
# Convention : Reuss Voigt Hill
#
# Bulk Modulus (GPa) = 34.33667 40.01094 37.17381
# Shear Modulus (GPa) = 11.36501 30.89221 21.12861
#
# Velocity S-wave (km/s) = 2.09194 3.44897 2.85234
# Velocity P-wave (km/s) = 4.36540 5.59171 5.01617
#
# Compressibility (1/GPa) = 0.02912338
#
# Stress axis : x y z
#
# Youngs Moduli (GPa) = 94.58948 56.05584 83.61109
#
# Poissons Ratio (x) = -0.07767 0.32417
# Poissons Ratio (y) = -0.13106 0.26191
# Poissons Ratio (z) = 0.36673 0.17560
#
# Static dielectric constant tensor:
#      x y z
#    x 1.995830 0.000000 0.025420 
#    y 0.000000 2.032060 0.000000 
#    z 0.025420 0.000000 2.133590 
# 
# From -- ./inp_files/33416.got.cif
#   From: 2010.05.17/outbox.cif.g08.bks.cpg/sg14_17_cif.got.tgz:33416.got - 2010.06.03 17:49:19.
