data_PCOD9252968
_publ_section_title
;
Structure prediction by ZEFSAII (Michael W. Deem and Ramdas Pophale) SiO2 
 PCOD9252968
Probable space group: P 21/C
;
_chemical_formula_sum "Si O2"
_cell_formula_units_Z 20
_cell_length_a 5.012605
_cell_length_b 17.648863
_cell_length_c 9.203519
_cell_angle_alpha 90.000000
_cell_angle_beta 62.866493
_cell_angle_gamma 90.000000
_cell_volume 724.599289
_symmetry_space_group_name_H-M "P 21/C"
_symmetry_group_IT_number 14
_symmetry_cell_setting 'monoclinic'
loop_
_space_group_symop_operation_xyz
x,y,z
-x,1/2+y,1/2-z
-x,-y,-z
x,1/2-y,1/2+z
loop_
_atom_site_type_symbol
_atom_site_label
_atom_site_fract_x
_atom_site_fract_y
_atom_site_fract_z
Si Si1 0.292614 0.433661 0.703937
Si Si2 0.558614 0.415825 0.180279
Si Si3 0.461692 0.159945 0.433620
Si Si4 0.903639 0.239985 0.653984
Si Si5 0.044430 0.607950 0.502236
O O1 0.274599 0.513326 0.790646
O O2 0.295453 0.370069 0.830369
O O3 0.627457 0.425412 0.551291
O O4 0.063901 0.419817 0.630541
O O5 0.717105 0.336932 0.183450
O O6 0.218890 0.414633 0.324158
O O7 0.556686 0.411346 0.006666
O O8 0.735441 0.210860 0.315438
O O9 0.241835 0.211305 0.585152
O O10 0.924374 0.301381 0.518273
#
# Coordination Sequence:
#
# PCOD9252968 Si02
#       5
#     4   4   4   4   4
#     4  11  28  52  77 118 154 206 257 324 387 466
#     4  12  27  47  81 112 156 205 258 323 389 459
#     4  11  28  46  79 108 158 200 267 317 390 459
#     4  11  27  45  74 111 154 201 257 315 387 453
#     4  11  27  50  78 111 161 202 259 312 395 463
#
# _framework density 27.601465999999999
#
# number of rings (size 3 to 8) (size 9 to 14) (size 15 to 20)
#    0.000    0.800    2.000    1.800   19.600    0.800 
#    0.000    0.000    0.000    0.000    0.000    0.000 
#    0.000    0.000    0.000    0.000    0.000    0.000 
#
# Total GULP energy -112340.054870 kJ/mol
# GULP energy per Si atom -5617.002743 kJ/mol
# Density = 2.753864 g / cm^3
# Si number density = 27.601466 Si / 1000 Ang^3
#
#
#
# Elastic Constant Matrix: (Units=GPa)
#
#
# Indices 1 2 3 4 5 6 
#
# 1 105.8246 36.2646 40.0939 0.0000 -4.1115 0.0000
# 2 36.2646 158.4799 27.3353 0.0000 -11.0513 0.0000
# 3 40.0939 27.3353 139.4239 0.0000 -10.9990 0.0000
# 4 0.0000 0.0000 0.0000 29.4987 0.0000 2.9968
# 5 -4.1115 -11.0513 -10.9990 0.0000 47.8652 0.0000
# 6 0.0000 0.0000 0.0000 2.9968 0.0000 52.7709
#
#
#
# Elastic Compliance Matrix: (Units=1/GPa)
#
#
# Indices 1 2 3 4 5 6 
#
# 1 0.011234 -0.002094 -0.002833 0.000000 -0.000170 0.000000
# 2 -0.002094 0.006994 -0.000668 0.000000 0.001281 0.000000
# 3 -0.002833 -0.000668 0.008236 0.000000 0.001495 0.000000
# 4 0.000000 0.000000 0.000000 0.034096 0.000000 -0.001936
# 5 -0.000170 0.001281 0.001495 0.000000 0.021517 0.000000
# 6 0.000000 0.000000 0.000000 -0.001936 0.000000 0.019060
#
#
# Mechanical properties :
#
#
# Convention : Reuss Voigt Hill
#
# Bulk Modulus (GPa) = 65.47329 67.90177 66.68753
# Shear Modulus (GPa) = 42.58283 46.02929 44.30606
#
# Velocity S-wave (km/s) = 3.93208 4.08810 4.01085
# Velocity P-wave (km/s) = 6.66239 6.85111 6.75741
#
# Compressibility (1/GPa) = 0.01527340
#
# Stress axis : x y z
#
# Youngs Moduli (GPa) = 89.01536 142.98739 121.41712
#
# Poissons Ratio (x) = 0.29938 0.34403
# Poissons Ratio (y) = 0.18638 0.08110
# Poissons Ratio (z) = 0.25222 0.09551
#
# Static dielectric constant tensor:
#      x y z
#    x 2.124830 0.000000 0.040580 
#    y 0.000000 2.106540 0.000000 
#    z 0.040580 0.000000 2.141960 
# 
# From -- ./inp_files/21137.got.cif
#   From: 2010.05.17/outbox.cif.g08.bks.cpg/sg14_11_cif.got.tgz:21137.got - 2010.06.03 17:49:19.
