data_PCOD9252389
_publ_section_title
;
Structure prediction by ZEFSAII (Michael W. Deem and Ramdas Pophale) SiO2 
 PCOD9252389
Probable space group: P 21/C
;
_chemical_formula_sum "Si O2"
_cell_formula_units_Z 20
_cell_length_a 22.041846
_cell_length_b 5.235907
_cell_length_c 11.929813
_cell_angle_alpha 90.000000
_cell_angle_beta 34.663784
_cell_angle_gamma 90.000000
_cell_volume 783.073221
_symmetry_space_group_name_H-M "P 21/C"
_symmetry_group_IT_number 14
_symmetry_cell_setting 'monoclinic'
loop_
_space_group_symop_operation_xyz
x,y,z
-x,1/2+y,1/2-z
-x,-y,-z
x,1/2-y,1/2+z
loop_
_atom_site_type_symbol
_atom_site_label
_atom_site_fract_x
_atom_site_fract_y
_atom_site_fract_z
Si Si1 0.856891 0.658584 0.531993
Si Si2 0.555578 0.191762 0.830734
Si Si3 0.746851 0.453418 0.492270
Si Si4 0.914913 0.335299 0.058382
Si Si5 0.639509 0.866450 0.499355
O O1 0.828753 0.609774 0.445525
O O2 0.933804 0.438339 0.469252
O O3 0.885563 0.953241 0.509251
O O4 0.748104 0.614816 0.766195
O O5 0.668500 0.305808 0.696785
O O6 0.456279 0.360262 0.943956
O O7 0.598027 0.069599 0.650946
O O8 0.500000 0.000000 0.000000
O O9 0.819280 0.301039 0.294117
O O10 0.666818 0.624648 0.538870
O O11 0.000000 0.500000 0.000000
#
# Coordination Sequence:
#
# PCOD9252389 Si02
#       5
#     4   4   4   4   4
#     4  11  26  44  73 101 138 180 231 293 354 421
#     4  12  25  39  69  97 145 193 238 281 351 416
#     4  11  26  43  67 101 140 183 239 291 347 423
#     4  11  26  49  73 102 137 177 232 299 364 425
#     4  11  24  43  62 102 142 188 232 291 343 420
#
# _framework density 25.540396999999999
#
# number of rings (size 3 to 8) (size 9 to 14) (size 15 to 20)
#    0.000    0.800    4.000    1.800   11.200    3.200 
#    0.000    0.000    0.000    0.000    0.000    0.000 
#    0.000    0.000    0.000    0.000    0.000    0.000 
#
# Total GULP energy -111714.181461 kJ/mol
# GULP energy per Si atom -5585.709073 kJ/mol
# Density = 2.548227 g / cm^3
# Si number density = 25.540397 Si / 1000 Ang^3
#
#
#
# Elastic Constant Matrix: (Units=GPa)
#
#
# Indices 1 2 3 4 5 6 
#
# 1 50.2937 -5.3579 -5.6234 0.0000 0.6846 0.0000
# 2 -5.3579 51.2142 12.1681 0.0000 13.7953 0.0000
# 3 -5.6234 12.1681 97.3332 0.0000 2.0180 0.0000
# 4 0.0000 0.0000 0.0000 26.4905 0.0000 7.1348
# 5 0.6846 13.7953 2.0180 0.0000 36.5715 0.0000
# 6 0.0000 0.0000 0.0000 7.1348 0.0000 40.3680
#
#
#
# Elastic Compliance Matrix: (Units=1/GPa)
#
#
# Indices 1 2 3 4 5 6 
#
# 1 0.020242 0.002244 0.000915 0.000000 -0.001276 0.000000
# 2 0.002244 0.022634 -0.002525 0.000000 -0.008441 0.000000
# 3 0.000915 -0.002525 0.010635 0.000000 0.000348 0.000000
# 4 0.000000 0.000000 0.000000 0.039636 0.000000 -0.007006
# 5 -0.001276 -0.008441 0.000348 0.000000 0.030532 0.000000
# 6 0.000000 0.000000 0.000000 -0.007006 0.000000 0.026010
#
#
# Mechanical properties :
#
#
# Convention : Reuss Voigt Hill
#
# Bulk Modulus (GPa) = 18.25487 22.35720 20.30603
# Shear Modulus (GPa) = 29.99733 33.86296 31.93014
#
# Velocity S-wave (km/s) = 3.43082 3.64518 3.53963
# Velocity P-wave (km/s) = 4.78090 5.14676 4.96720
#
# Compressibility (1/GPa) = 0.05477991
#
# Stress axis : x y z
#
# Youngs Moduli (GPa) = 49.40231 44.18119 94.02642
#
# Poissons Ratio (x) = -0.09914 -0.08607
# Poissons Ratio (y) = -0.11085 0.23741
# Poissons Ratio (z) = -0.04522 0.11156
#
# Static dielectric constant tensor:
#      x y z
#    x 1.962080 0.000000 0.070640 
#    y 0.000000 2.132770 0.000000 
#    z 0.070640 0.000000 1.916940 
# 
# From -- ./inp_files/34500.got.cif
#   From: 2010.05.17/outbox.cif.g08.bks.cpg/sg14_18_cif.got.tgz:34500.got - 2010.06.03 17:49:19.
