data_PCOD9252189
_publ_section_title
;
Structure prediction by ZEFSAII (Michael W. Deem and Ramdas Pophale) SiO2 
 PCOD9252189
Probable space group: P 21/C
;
_chemical_formula_sum "Si O2"
_cell_formula_units_Z 24
_cell_length_a 9.502216
_cell_length_b 17.708635
_cell_length_c 14.248176
_cell_angle_alpha 90.000000
_cell_angle_beta 152.204760
_cell_angle_gamma 90.000000
_cell_volume 1118.013168
_symmetry_space_group_name_H-M "P 21/C"
_symmetry_group_IT_number 14
_symmetry_cell_setting 'monoclinic'
loop_
_space_group_symop_operation_xyz
x,y,z
-x,1/2+y,1/2-z
-x,-y,-z
x,1/2-y,1/2+z
loop_
_atom_site_type_symbol
_atom_site_label
_atom_site_fract_x
_atom_site_fract_y
_atom_site_fract_z
Si Si1 0.117285 0.828164 0.045224
Si Si2 0.776621 0.102030 0.698804
Si Si3 0.194544 0.923913 0.607629
Si Si4 0.428514 0.087060 0.987615
Si Si5 0.682818 0.692646 0.749988
Si Si6 0.335493 0.061944 0.283262
O O1 0.170703 0.836464 0.188398
O O2 0.423634 0.806735 0.174881
O O3 0.849199 0.772913 0.853800
O O4 0.996088 0.908144 0.935660
O O5 0.507000 0.110623 0.464864
O O6 0.691878 0.023694 0.699381
O O7 0.086417 0.091216 0.824279
O O8 0.343637 0.899669 0.792835
O O9 0.458807 0.933410 0.687750
O O10 0.957009 0.862345 0.436223
O O11 0.000000 0.000000 0.500000
O O12 0.454562 0.152402 0.924072
O O13 0.500000 0.000000 0.000000
#
# Coordination Sequence:
#
# PCOD9252189 Si02
#       6
#     4   4   4   4   4   4
#     4  12  27  47  70  99 146 188 234 295 357 428
#     4  11  24  43  77 105 141 185 240 289 362 420
#     4  12  23  43  73 105 145 180 238 295 355 422
#     4  12  24  44  75 107 139 184 242 301 356 423
#     4  12  28  47  69 104 143 189 240 291 365 428
#     4  11  23  44  73 108 139 184 237 295 349 429
#
# _framework density 21.466653000000001
#
# number of rings (size 3 to 8) (size 9 to 14) (size 15 to 20)
#    0.000    0.333    5.000    3.500    0.000    5.333 
#    0.000    0.000    0.000    0.000    0.000    0.000 
#    0.000    0.000    0.000    0.000    0.000    0.000 
#
# Total GULP energy -134184.092679 kJ/mol
# GULP energy per Si atom -5591.003862 kJ/mol
# Density = 2.141779 g / cm^3
# Si number density = 21.466653 Si / 1000 Ang^3
#
#
#
# Elastic Constant Matrix: (Units=GPa)
#
#
# Indices 1 2 3 4 5 6 
#
# 1 116.0146 26.4771 11.2280 0.0000 3.0466 0.0000
# 2 26.4771 60.5450 -0.9120 0.0000 -9.9325 0.0000
# 3 11.2280 -0.9120 50.0524 0.0000 -12.8407 0.0000
# 4 0.0000 0.0000 0.0000 17.4686 0.0000 -8.8172
# 5 3.0466 -9.9325 -12.8407 0.0000 57.6510 0.0000
# 6 0.0000 0.0000 0.0000 -8.8172 0.0000 17.4962
#
#
#
# Elastic Compliance Matrix: (Units=1/GPa)
#
#
# Indices 1 2 3 4 5 6 
#
# 1 0.010032 -0.004756 -0.002846 0.000000 -0.001983 0.000000
# 2 -0.004756 0.019311 0.002478 0.000000 0.004130 0.000000
# 3 -0.002846 0.002478 0.022072 0.000000 0.005493 0.000000
# 4 0.000000 0.000000 0.000000 0.076774 0.000000 0.038690
# 5 -0.001983 0.004130 0.005493 0.000000 0.019386 0.000000
# 6 0.000000 0.000000 0.000000 0.038690 0.000000 0.076653
#
#
# Mechanical properties :
#
#
# Convention : Reuss Voigt Hill
#
# Bulk Modulus (GPa) = 24.29009 33.35535 28.82272
# Shear Modulus (GPa) = 20.14516 31.17775 25.66145
#
# Velocity S-wave (km/s) = 3.06672 3.81515 3.46122
# Velocity P-wave (km/s) = 4.88667 5.91431 5.42488
#
# Compressibility (1/GPa) = 0.04116906
#
# Stress axis : x y z
#
# Youngs Moduli (GPa) = 99.67661 51.78334 45.30637
#
# Poissons Ratio (x) = 0.24626 0.12894
# Poissons Ratio (y) = 0.47402 -0.11228
# Poissons Ratio (z) = 0.28368 -0.12833
#
# Static dielectric constant tensor:
#      x y z
#    x 1.775360 0.000000 -0.062150 
#    y 0.000000 1.592250 0.000000 
#    z -0.062150 0.000000 1.786520 
# 
# From -- ./inp_files/41858.got.cif
#   From: 2010.05.17/outbox.cif.g08.bks.cpg/sg14_21_cif.got.tgz:41858.got - 2010.06.03 17:49:19.
