data_PCOD9252196
_publ_section_title
;
Structure prediction by ZEFSAII (Michael W. Deem and Ramdas Pophale) SiO2 
 PCOD9252196
Probable space group: P 21/C
;
_chemical_formula_sum "Si O2"
_cell_formula_units_Z 20
_cell_length_a 17.149542
_cell_length_b 6.043915
_cell_length_c 13.309048
_cell_angle_alpha 90.000000
_cell_angle_beta 147.490145
_cell_angle_gamma 90.000000
_cell_volume 741.398362
_symmetry_space_group_name_H-M "P 21/C"
_symmetry_group_IT_number 14
_symmetry_cell_setting 'monoclinic'
loop_
_space_group_symop_operation_xyz
x,y,z
-x,1/2+y,1/2-z
-x,-y,-z
x,1/2-y,1/2+z
loop_
_atom_site_type_symbol
_atom_site_label
_atom_site_fract_x
_atom_site_fract_y
_atom_site_fract_z
Si Si1 0.293410 0.268478 0.229907
Si Si2 0.899276 0.116962 0.988529
Si Si3 0.088988 0.504301 0.869040
Si Si4 0.536180 0.240862 0.840469
Si Si5 0.833922 0.101240 0.243602
O O1 0.451633 0.268962 0.355426
O O2 0.251338 0.431266 0.274707
O O3 0.231203 0.032424 0.190993
O O4 0.195223 0.316623 0.023139
O O5 0.936387 0.261095 0.931714
O O6 0.033977 0.014771 0.196554
O O7 0.836038 0.280582 0.003983
O O8 0.942471 0.494705 0.778137
O O9 0.499078 0.491197 0.751089
O O10 0.705560 0.233068 0.050174
#
# Coordination Sequence:
#
# PCOD9252196 Si02
#       5
#     4   4   4   4   4
#     4  11  25  47  75 109 155 204 264 328 389 476
#     4  11  23  44  76 107 159 198 261 324 395 468
#     4  11  24  45  73 114 154 202 260 327 402 470
#     4  12  31  53  82 115 160 215 271 329 402 473
#     4  11  28  47  76 117 155 208 268 323 407 476
#
# _framework density 26.976049
#
# number of rings (size 3 to 8) (size 9 to 14) (size 15 to 20)
#    0.000    0.800    2.000    4.200   14.000    4.000 
#    0.000    0.000    0.000    0.000    0.000    0.000 
#    0.000    0.000    0.000    0.000    0.000    0.000 
#
# Total GULP energy -111653.871638 kJ/mol
# GULP energy per Si atom -5582.693582 kJ/mol
# Density = 2.691465 g / cm^3
# Si number density = 26.976049 Si / 1000 Ang^3
#
#
#
# Elastic Constant Matrix: (Units=GPa)
#
#
# Indices 1 2 3 4 5 6 
#
# 1 155.8570 26.2901 22.2218 0.0000 -7.8165 0.0000
# 2 26.2901 97.8653 36.4424 0.0000 -27.2878 0.0000
# 3 22.2218 36.4424 120.0094 0.0000 -6.5388 0.0000
# 4 0.0000 0.0000 0.0000 57.3044 0.0000 -15.3572
# 5 -7.8165 -27.2878 -6.5388 0.0000 54.0656 0.0000
# 6 0.0000 0.0000 0.0000 -15.3572 0.0000 40.7280
#
#
#
# Elastic Compliance Matrix: (Units=1/GPa)
#
#
# Indices 1 2 3 4 5 6 
#
# 1 0.006788 -0.001489 -0.000797 0.000000 0.000133 0.000000
# 2 -0.001489 0.013682 -0.003538 0.000000 0.006262 0.000000
# 3 -0.000797 -0.003538 0.009514 0.000000 -0.000750 0.000000
# 4 0.000000 0.000000 0.000000 0.019412 0.000000 0.007320
# 5 0.000133 0.006262 -0.000750 0.000000 0.021585 0.000000
# 6 0.000000 0.000000 0.000000 0.007320 0.000000 0.027313
#
#
# Mechanical properties :
#
#
# Convention : Reuss Voigt Hill
#
# Bulk Modulus (GPa) = 54.54239 60.40449 57.47344
# Shear Modulus (GPa) = 43.08341 49.67142 46.37742
#
# Velocity S-wave (km/s) = 4.00071 4.29571 4.15083
# Velocity P-wave (km/s) = 6.45008 6.85891 6.65764
#
# Compressibility (1/GPa) = 0.01833436
#
# Stress axis : x y z
#
# Youngs Moduli (GPa) = 147.32467 73.09069 105.11166
#
# Poissons Ratio (x) = 0.10886 0.08381
# Poissons Ratio (y) = 0.21942 0.37185
# Poissons Ratio (z) = 0.11747 0.25857
#
# Static dielectric constant tensor:
#      x y z
#    x 2.093050 0.000000 -0.008530 
#    y 0.000000 2.459290 0.000000 
#    z -0.008530 0.000000 2.038980 
# 
# From -- ./inp_files/49771.got.cif
#   From: 2010.05.17/outbox.cif.g08.bks.cpg/sg14_25_cif.got.tgz:49771.got - 2010.06.03 17:49:19.
