data_PCOD9252564
_publ_section_title
;
Structure prediction by ZEFSAII (Michael W. Deem and Ramdas Pophale) SiO2 
 PCOD9252564
Probable space group: P 21/C
;
_chemical_formula_sum "Si O2"
_cell_formula_units_Z 28
_cell_length_a 7.290580
_cell_length_b 22.615209
_cell_length_c 11.148248
_cell_angle_alpha 90.000000
_cell_angle_beta 136.580098
_cell_angle_gamma 90.000000
_cell_volume 1263.399876
_symmetry_space_group_name_H-M "P 21/C"
_symmetry_group_IT_number 14
_symmetry_cell_setting 'monoclinic'
loop_
_space_group_symop_operation_xyz
x,y,z
-x,1/2+y,1/2-z
-x,-y,-z
x,1/2-y,1/2+z
loop_
_atom_site_type_symbol
_atom_site_label
_atom_site_fract_x
_atom_site_fract_y
_atom_site_fract_z
Si Si1 0.232844 0.533758 0.332672
Si Si2 0.284901 0.305025 0.659396
Si Si3 0.011336 0.149289 0.258914
Si Si4 0.599312 0.130250 0.588903
Si Si5 0.413067 0.578293 0.168396
Si Si6 0.774363 0.253436 0.290153
Si Si7 0.175347 0.520058 0.697360
O O1 0.500000 0.500000 0.500000
O O2 0.175139 0.595820 0.373270
O O3 0.243203 0.552825 0.198154
O O4 0.992489 0.493148 0.262577
O O5 0.138359 0.310481 0.716485
O O6 0.054602 0.280129 0.465660
O O7 0.541786 0.262242 0.774950
O O8 0.383488 0.372262 0.680276
O O9 0.279227 0.121095 0.442829
O O10 0.844295 0.190858 0.265151
O O11 0.696171 0.112622 0.500642
O O12 0.736198 0.087682 0.751042
O O13 0.656069 0.198148 0.644000
O O14 0.572181 0.522956 0.189805
O O15 0.000000 0.500000 0.500000
#
# Coordination Sequence:
#
# PCOD9252564 Si02
#       7
#     4   4   4   4   4   4   4
#     4  12  25  43  75 106 141 199 244 298 378 447
#     4  11  25  44  76 102 149 193 242 310 373 440
#     4  11  26  46  69 106 150 184 250 312 368 448
#     4  11  26  46  72 108 145 198 239 310 376 433
#     4  11  24  46  70 106 152 185 241 313 369 445
#     4  12  25  46  73 107 144 196 251 297 381 450
#     4  12  24  47  72 103 149 186 246 308 372 439
#
# _framework density 22.162421999999999
#
# number of rings (size 3 to 8) (size 9 to 14) (size 15 to 20)
#    0.000    0.571    7.143    1.286    4.000    0.571 
#    0.000    0.000    0.000    0.000    0.000    0.000 
#    0.000    0.000    0.000    0.000    0.000    0.000 
#
# Total GULP energy -156360.325758 kJ/mol
# GULP energy per Si atom -5584.297349 kJ/mol
# Density = 2.211198 g / cm^3
# Si number density = 22.162422 Si / 1000 Ang^3
#
#
#
# Elastic Constant Matrix: (Units=GPa)
#
#
# Indices 1 2 3 4 5 6 
#
# 1 115.8265 21.7843 20.9838 0.0000 11.6029 0.0000
# 2 21.7843 92.6628 47.1405 0.0000 -2.1467 0.0000
# 3 20.9838 47.1405 57.4453 0.0000 -4.7299 0.0000
# 4 0.0000 0.0000 0.0000 34.4846 0.0000 -0.7638
# 5 11.6029 -2.1467 -4.7299 0.0000 17.6876 0.0000
# 6 0.0000 0.0000 0.0000 -0.7638 0.0000 33.4463
#
#
#
# Elastic Compliance Matrix: (Units=1/GPa)
#
#
# Indices 1 2 3 4 5 6 
#
# 1 0.010236 -0.000614 -0.003880 0.000000 -0.007827 0.000000
# 2 -0.000614 0.018623 -0.015173 0.000000 -0.001394 0.000000
# 3 -0.003880 -0.015173 0.032039 0.000000 0.009271 0.000000
# 4 0.000000 0.000000 0.000000 0.029013 0.000000 0.000663
# 5 -0.007827 -0.001394 0.009271 0.000000 0.063981 0.000000
# 6 0.000000 0.000000 0.000000 0.000663 0.000000 0.029914
#
#
# Mechanical properties :
#
#
# Convention : Reuss Voigt Hill
#
# Bulk Modulus (GPa) = 46.37034 49.52800 47.94917
# Shear Modulus (GPa) = 21.70828 28.85873 25.28351
#
# Velocity S-wave (km/s) = 3.13311 3.61244 3.38128
# Velocity P-wave (km/s) = 5.83582 6.30840 6.07671
#
# Compressibility (1/GPa) = 0.02156551
#
# Stress axis : x y z
#
# Youngs Moduli (GPa) = 97.69462 53.69812 31.21176
#
# Poissons Ratio (x) = 0.03297 0.12109
# Poissons Ratio (y) = 0.05999 0.47356
# Poissons Ratio (z) = 0.37901 0.81474
#
# Static dielectric constant tensor:
#      x y z
#    x 1.828790 0.000000 -0.019880 
#    y 0.000000 1.822260 0.000000 
#    z -0.019880 0.000000 1.867010 
# 
# From -- ./inp_files/42079.got.cif
#   From: 2010.05.17/outbox.cif.g08.bks.cpg/sg14_22_cif.got.tgz:42079.got - 2010.06.03 17:49:19.
