data_PCOD9252648
_publ_section_title
;
Structure prediction by ZEFSAII (Michael W. Deem and Ramdas Pophale) SiO2 
 PCOD9252648
Probable space group: P 21/C
;
_chemical_formula_sum "Si O2"
_cell_formula_units_Z 16
_cell_length_a 11.841224
_cell_length_b 11.999215
_cell_length_c 4.814827
_cell_angle_alpha 90.000000
_cell_angle_beta 66.007647
_cell_angle_gamma 90.000000
_cell_volume 625.008730
_symmetry_space_group_name_H-M "P 21/C"
_symmetry_group_IT_number 14
_symmetry_cell_setting 'monoclinic'
loop_
_space_group_symop_operation_xyz
x,y,z
-x,1/2+y,1/2-z
-x,-y,-z
x,1/2-y,1/2+z
loop_
_atom_site_type_symbol
_atom_site_label
_atom_site_fract_x
_atom_site_fract_y
_atom_site_fract_z
Si Si1 0.614582 0.971964 0.176307
Si Si2 0.569712 0.177458 0.834266
Si Si3 0.069712 0.822542 0.526310
Si Si4 0.114581 0.471964 0.594529
O O1 0.500000 0.000000 0.500000
O O2 0.573751 0.857107 0.067274
O O3 0.618307 0.067598 0.936999
O O4 0.750000 0.965075 0.172623
O O5 0.604907 0.220209 0.496552
O O6 0.104907 0.720209 0.293633
O O7 0.118307 0.932402 0.326387
O O8 0.926249 0.857107 0.714776
O O9 0.000000 0.500000 0.500000
#
# Coordination Sequence:
#
# PCOD9252648 Si02
#       4
#     4   4   4   4
#     4  11  26  47  76 114 153 195 248 310 372 447
#     4  11  24  49  70 104 144 199 246 301 362 436
#     4  11  24  49  70 104 144 199 246 301 362 436
#     4  11  26  47  76 114 153 195 248 310 372 447
#
# _framework density 25.599641999999999
#
# number of rings (size 3 to 8) (size 9 to 14) (size 15 to 20)
#    0.000    1.000    5.000    0.000    0.000   12.000 
#    0.000    0.000    0.000    0.000    0.000    0.000 
#    0.000    0.000    0.000    0.000    0.000    0.000 
#
# Total GULP energy -89205.607061 kJ/mol
# GULP energy per Si atom -5575.350441 kJ/mol
# Density = 2.554138 g / cm^3
# Si number density = 25.599642 Si / 1000 Ang^3
#
#
#
# Elastic Constant Matrix: (Units=GPa)
#
#
# Indices 1 2 3 4 5 6 
#
# 1 173.1381 31.9004 86.9008 0.0000 -38.3935 0.0000
# 2 31.9004 68.6365 27.5562 0.0000 -3.7621 0.0000
# 3 86.9008 27.5562 126.5799 0.0000 -1.9266 0.0000
# 4 0.0000 0.0000 0.0000 36.3206 0.0000 21.5597
# 5 -38.3935 -3.7621 -1.9266 0.0000 52.5333 0.0000
# 6 0.0000 0.0000 0.0000 21.5597 0.0000 11.4262
#
#
#
# Elastic Compliance Matrix: (Units=1/GPa)
#
#
# Indices 1 2 3 4 5 6 
#
# 1 0.011696 -0.001990 -0.007473 0.000000 0.008132 0.000000
# 2 -0.001990 0.016358 -0.002200 0.000000 -0.000364 0.000000
# 3 -0.007473 -0.002200 0.013431 0.000000 -0.005126 0.000000
# 4 0.000000 0.000000 0.000000 -0.229382 0.000000 0.432811
# 5 0.008132 -0.000364 -0.005126 0.000000 0.024764 0.000000
# 6 0.000000 0.000000 0.000000 0.432811 0.000000 -0.729136
#
#
# Mechanical properties :
#
#
# Convention : Reuss Voigt Hill
#
# Bulk Modulus (GPa) = 55.06907 73.45216 64.26062
# Shear Modulus (GPa) = -5.79450 34.85583 14.53067
#
# Velocity S-wave (km/s) = -1.50613 3.69396 2.38505
# Velocity P-wave (km/s) = 4.30509 6.85191 5.72200
#
# Compressibility (1/GPa) = 0.01815901
#
# Stress axis : x y z
#
# Youngs Moduli (GPa) = 85.49660 61.13241 74.45208
#
# Poissons Ratio (x) = 0.12167 0.55637
# Poissons Ratio (y) = 0.17016 0.16381
# Poissons Ratio (z) = 0.63890 0.13451
#
# Static dielectric constant tensor:
#      x y z
#    x 2.088050 0.000000 -0.030100 
#    y 0.000000 2.070030 0.000000 
#    z -0.030100 0.000000 2.053300 
# 
# From -- ./inp_files/2370.got.cif
#   From: 2010.05.17/outbox.cif.g08.bks.cpg/sg14_2_cif.got.tgz:2370.got - 2010.06.03 17:49:19.
