data_PCOD9252422
_publ_section_title
;
Structure prediction by ZEFSAII (Michael W. Deem and Ramdas Pophale) SiO2 
 PCOD9252422
Probable space group: P 21/C
;
_chemical_formula_sum "Si O2"
_cell_formula_units_Z 26
_cell_length_a 11.750131
_cell_length_b 16.531290
_cell_length_c 11.401938
_cell_angle_alpha 90.000000
_cell_angle_beta 32.327791
_cell_angle_gamma 90.000000
_cell_volume 1184.374072
_symmetry_space_group_name_H-M "P 21/C"
_symmetry_group_IT_number 14
_symmetry_cell_setting 'monoclinic'
loop_
_space_group_symop_operation_xyz
x,y,z
-x,1/2+y,1/2-z
-x,-y,-z
x,1/2-y,1/2+z
loop_
_atom_site_type_symbol
_atom_site_label
_atom_site_fract_x
_atom_site_fract_y
_atom_site_fract_z
Si Si1 0.030106 0.247891 0.745564
Si Si2 0.419159 0.480326 0.297084
Si Si3 0.609190 0.632209 0.473010
Si Si4 0.715687 0.129942 0.386893
Si Si5 0.000000 0.500000 0.500000
Si Si6 0.661180 0.267865 0.718855
Si Si7 0.345213 0.361037 0.843151
O O1 0.865645 0.303858 0.818294
O O2 0.218624 0.305487 0.624444
O O3 0.126709 0.175310 0.584713
O O4 0.903455 0.217131 0.970047
O O5 0.374774 0.449916 0.467834
O O6 0.578144 0.556197 0.164221
O O7 0.205471 0.499867 0.413462
O O8 0.540698 0.408216 0.124217
O O9 0.386488 0.677115 0.697329
O O10 0.649352 0.626709 0.300378
O O11 0.600926 0.175087 0.379360
O O12 0.864617 0.059791 0.206198
O O13 0.520870 0.295035 0.730104
#
# Coordination Sequence:
#
# PCOD9252422 Si02
#       7
#     4   4   4   4   2   4   4
#     4  11  24  45  71 106 142 194 241 292 362 440
#     4  12  26  48  72 108 146 191 239 306 365 427
#     4  11  24  45  70 100 146 191 241 294 360 434
#     4  12  25  45  75 102 141 187 246 297 355 436
#     4  12  26  44  72 104 140 184 236 298 364 416
#     4  11  24  43  71 101 140 192 240 297 357 426
#     4  11  26  44  70 107 146 190 240 296 367 432
#
# _framework density 21.952521999999998
#
# number of rings (size 3 to 8) (size 9 to 14) (size 15 to 20)
#    0.000    0.615    4.615    2.769    4.308    1.231 
#    0.000    0.769    0.000    0.000    0.000    0.000 
#    0.000    0.000    0.000    0.000    0.000    0.000 
#
# Total GULP energy -144911.515230 kJ/mol
# GULP energy per Si atom -5573.519817 kJ/mol
# Density = 2.190256 g / cm^3
# Si number density = 21.952522 Si / 1000 Ang^3
#
#
#
# Elastic Constant Matrix: (Units=GPa)
#
#
# Indices 1 2 3 4 5 6 
#
# 1 119.5551 34.8989 23.9867 0.0000 6.6038 0.0000
# 2 34.8989 53.2791 16.0999 0.0000 3.6144 0.0000
# 3 23.9867 16.0999 66.6652 0.0000 4.0375 0.0000
# 4 0.0000 0.0000 0.0000 21.4637 0.0000 -6.0826
# 5 6.6038 3.6144 4.0375 0.0000 22.5203 0.0000
# 6 0.0000 0.0000 0.0000 -6.0826 0.0000 27.7815
#
#
#
# Elastic Compliance Matrix: (Units=1/GPa)
#
#
# Indices 1 2 3 4 5 6 
#
# 1 0.010731 -0.006231 -0.002251 0.000000 -0.001743 0.000000
# 2 -0.006231 0.023993 -0.003468 0.000000 -0.001402 0.000000
# 3 -0.002251 -0.003468 0.016756 0.000000 -0.001788 0.000000
# 4 0.000000 0.000000 0.000000 0.049672 0.000000 0.010875
# 5 -0.001743 -0.001402 -0.001788 0.000000 0.045461 0.000000
# 6 0.000000 0.000000 0.000000 0.010875 0.000000 0.038376
#
#
# Mechanical properties :
#
#
# Convention : Reuss Voigt Hill
#
# Bulk Modulus (GPa) = 36.25566 43.27446 39.76506
# Shear Modulus (GPa) = 22.92718 25.32071 24.12395
#
# Velocity S-wave (km/s) = 3.23522 3.39990 3.31858
# Velocity P-wave (km/s) = 5.52330 5.93026 5.73040
#
# Compressibility (1/GPa) = 0.02758190
#
# Stress axis : x y z
#
# Youngs Moduli (GPa) = 93.18823 41.67839 59.68039
#
# Poissons Ratio (x) = 0.25968 0.13433
# Poissons Ratio (y) = 0.58062 0.20695
# Poissons Ratio (z) = 0.20975 0.14453
#
# Static dielectric constant tensor:
#      x y z
#    x 1.787440 0.000000 0.004000 
#    y 0.000000 1.837920 0.000000 
#    z 0.004000 0.000000 1.819070 
# 
# From -- ./inp_files/30385.got.cif
#   From: 2010.05.17/outbox.cif.g08.bks.cpg/sg14_16_cif.got.tgz:30385.got - 2010.06.03 17:49:19.
