data_PCOD9252579
_publ_section_title
;
Structure prediction by ZEFSAII (Michael W. Deem and Ramdas Pophale) SiO2 
 PCOD9252579
Probable space group: P 21/C
;
_chemical_formula_sum "Si O2"
_cell_formula_units_Z 16
_cell_length_a 6.492993
_cell_length_b 12.026280
_cell_length_c 10.476944
_cell_angle_alpha 90.000000
_cell_angle_beta 46.883503
_cell_angle_gamma 90.000000
_cell_volume 597.190941
_symmetry_space_group_name_H-M "P 21/C"
_symmetry_group_IT_number 14
_symmetry_cell_setting 'monoclinic'
loop_
_space_group_symop_operation_xyz
x,y,z
-x,1/2+y,1/2-z
-x,-y,-z
x,1/2-y,1/2+z
loop_
_atom_site_type_symbol
_atom_site_label
_atom_site_fract_x
_atom_site_fract_y
_atom_site_fract_z
Si Si1 0.104362 0.370107 0.464922
Si Si2 0.282001 0.079666 0.528377
Si Si3 0.667552 0.013115 0.772324
Si Si4 0.194411 0.290305 0.685391
O O1 0.438642 0.395208 0.335606
O O2 0.993948 0.326163 0.649737
O O3 0.078377 0.275474 0.362556
O O4 0.000000 0.500000 0.500000
O O5 0.275947 0.050199 0.384463
O O6 0.374494 0.198203 0.537574
O O7 0.500000 0.000000 0.500000
O O8 0.956787 0.061447 0.706033
O O9 0.614008 0.900560 0.875099
#
# Coordination Sequence:
#
# PCOD9252579 Si02
#       4
#     4   4   4   4
#     4  12  28  50  75 115 155 196 262 318 379 470
#     4  11  24  46  75 106 149 195 250 312 376 458
#     4  11  26  47  72 110 149 195 255 310 373 459
#     4  12  25  48  76 107 150 208 241 318 391 443
#
# _framework density 26.792100000000001
#
# number of rings (size 3 to 8) (size 9 to 14) (size 15 to 20)
#    0.000    0.500    5.000    2.250    0.000    6.000 
#    0.000    0.000    0.000    0.000    0.000    0.000 
#    0.000    0.000    0.000    0.000    0.000    0.000 
#
# Total GULP energy -89185.478300 kJ/mol
# GULP energy per Si atom -5574.092394 kJ/mol
# Density = 2.673112 g / cm^3
# Si number density = 26.792100 Si / 1000 Ang^3
#
#
#
# Elastic Constant Matrix: (Units=GPa)
#
#
# Indices 1 2 3 4 5 6 
#
# 1 91.5619 47.5367 36.7295 0.0000 12.4131 0.0000
# 2 47.5367 181.8122 26.1792 0.0000 14.7667 0.0000
# 3 36.7295 26.1792 75.0769 0.0000 16.6631 0.0000
# 4 0.0000 0.0000 0.0000 49.1687 0.0000 20.9127
# 5 12.4131 14.7667 16.6631 0.0000 54.1743 0.0000
# 6 0.0000 0.0000 0.0000 20.9127 0.0000 69.7577
#
#
#
# Elastic Compliance Matrix: (Units=1/GPa)
#
#
# Indices 1 2 3 4 5 6 
#
# 1 0.015040 -0.002986 -0.006153 0.000000 -0.000740 0.000000
# 2 -0.002986 0.006438 -0.000586 0.000000 -0.000890 0.000000
# 3 -0.006153 -0.000586 0.017372 0.000000 -0.003774 0.000000
# 4 0.000000 0.000000 0.000000 0.023310 0.000000 -0.006988
# 5 -0.000740 -0.000890 -0.003774 0.000000 0.020032 0.000000
# 6 0.000000 0.000000 0.000000 -0.006988 0.000000 0.016430
#
#
# Mechanical properties :
#
#
# Convention : Reuss Voigt Hill
#
# Bulk Modulus (GPa) = 51.54829 63.26020 57.40424
# Shear Modulus (GPa) = 40.14797 50.48719 45.31758
#
# Velocity S-wave (km/s) = 3.87525 4.34568 4.11719
# Velocity P-wave (km/s) = 6.26939 6.98876 6.63882
#
# Compressibility (1/GPa) = 0.01939929
#
# Stress axis : x y z
#
# Youngs Moduli (GPa) = 66.48738 155.33414 57.56516
#
# Poissons Ratio (x) = 0.46390 0.35417
# Poissons Ratio (y) = 0.19856 0.03374
# Poissons Ratio (z) = 0.40907 0.09106
#
# Static dielectric constant tensor:
#      x y z
#    x 2.279690 0.000000 0.161900 
#    y 0.000000 2.763340 0.000000 
#    z 0.161900 0.000000 2.398640 
# 
# From -- ./inp_files/20361.got.cif
#   From: 2010.05.17/outbox.cif.g08.bks.cpg/sg14_11_cif.got.tgz:20361.got - 2010.06.03 17:49:19.
