data_PCOD9252946
_publ_section_title
;
Structure prediction by ZEFSAII (Michael W. Deem and Ramdas Pophale) SiO2 
 PCOD9252946
Probable space group: P 21/C
;
_chemical_formula_sum "Si O2"
_cell_formula_units_Z 28
_cell_length_a 9.672212
_cell_length_b 14.790502
_cell_length_c 8.942566
_cell_angle_alpha 90.000000
_cell_angle_beta 60.539560
_cell_angle_gamma 90.000000
_cell_volume 1113.876823
_symmetry_space_group_name_H-M "P 21/C"
_symmetry_group_IT_number 14
_symmetry_cell_setting 'monoclinic'
loop_
_space_group_symop_operation_xyz
x,y,z
-x,1/2+y,1/2-z
-x,-y,-z
x,1/2-y,1/2+z
loop_
_atom_site_type_symbol
_atom_site_label
_atom_site_fract_x
_atom_site_fract_y
_atom_site_fract_z
Si Si1 0.143557 0.450273 0.846906
Si Si2 0.518001 0.468488 0.250294
Si Si3 0.944304 0.466095 0.686134
Si Si4 0.299752 0.122568 0.657433
Si Si5 0.723548 0.778229 0.643232
Si Si6 0.693179 0.348994 0.687030
Si Si7 0.434617 0.688594 0.534690
O O1 0.307988 0.490468 0.818034
O O2 0.138574 0.344119 0.878113
O O3 0.103978 0.461604 0.695965
O O4 0.000000 0.500000 0.000000
O O5 0.471717 0.412328 0.124824
O O6 0.405084 0.556271 0.288069
O O7 0.510529 0.398098 0.394511
O O8 0.818090 0.540382 0.814022
O O9 0.844758 0.376097 0.705378
O O10 0.000000 0.500000 0.500000
O O11 0.237207 0.175965 0.837274
O O12 0.302372 0.188221 0.512224
O O13 0.574541 0.796021 0.836081
O O14 0.387725 0.766569 0.677756
O O15 0.713567 0.321908 0.501534
#
# Coordination Sequence:
#
# PCOD9252946 Si02
#       7
#     4   4   4   4   4   4   4
#     4  12  27  49  74 109 158 199 257 317 395 466
#     4  11  26  49  82 111 152 202 266 327 386 461
#     4  11  27  52  76 111 157 210 255 319 403 471
#     4  11  26  49  79 111 151 204 267 324 381 470
#     4  12  26  47  77 114 150 201 264 322 392 459
#     4  11  26  50  78 115 152 204 270 320 388 471
#     4  12  25  47  78 115 152 195 265 336 378 452
#
# _framework density 25.137429999999998
#
# number of rings (size 3 to 8) (size 9 to 14) (size 15 to 20)
#    0.000    0.571    2.857    3.857    6.000    4.000 
#    7.714    0.000    0.000    0.000    0.000    0.000 
#    0.000    0.000    0.000    0.000    0.000    0.000 
#
# Total GULP energy -156352.220766 kJ/mol
# GULP energy per Si atom -5584.007885 kJ/mol
# Density = 2.508022 g / cm^3
# Si number density = 25.137430 Si / 1000 Ang^3
#
#
#
# Elastic Constant Matrix: (Units=GPa)
#
#
# Indices 1 2 3 4 5 6 
#
# 1 126.5514 36.0206 34.4947 0.0000 30.1967 0.0000
# 2 36.0206 116.9913 46.8301 0.0000 22.5468 0.0000
# 3 34.4947 46.8301 108.4426 0.0000 42.5347 0.0000
# 4 0.0000 0.0000 0.0000 49.2653 0.0000 13.4614
# 5 30.1967 22.5468 42.5347 0.0000 51.9329 0.0000
# 6 0.0000 0.0000 0.0000 13.4614 0.0000 37.7652
#
#
#
# Elastic Compliance Matrix: (Units=1/GPa)
#
#
# Indices 1 2 3 4 5 6 
#
# 1 0.009626 -0.001915 -0.000539 0.000000 -0.004324 0.000000
# 2 -0.001915 0.010768 -0.003895 0.000000 -0.000371 0.000000
# 3 -0.000539 -0.003895 0.015159 0.000000 -0.010411 0.000000
# 4 0.000000 0.000000 0.000000 0.022489 0.000000 -0.008016
# 5 -0.004324 -0.000371 -0.010411 0.000000 0.030458 0.000000
# 6 0.000000 0.000000 0.000000 -0.008016 0.000000 0.029337
#
#
# Mechanical properties :
#
#
# Convention : Reuss Voigt Hill
#
# Bulk Modulus (GPa) = 43.75555 65.18622 54.47088
# Shear Modulus (GPa) = 36.19222 43.43532 39.81377
#
# Velocity S-wave (km/s) = 3.79855 4.16133 3.98407
# Velocity P-wave (km/s) = 6.05665 7.00551 6.54829
#
# Compressibility (1/GPa) = 0.02285424
#
# Stress axis : x y z
#
# Youngs Moduli (GPa) = 103.88978 92.86813 65.96939
#
# Poissons Ratio (x) = 0.17780 0.03555
# Poissons Ratio (y) = 0.19890 0.25698
# Poissons Ratio (z) = 0.05599 0.36176
#
# Static dielectric constant tensor:
#      x y z
#    x 2.278030 0.000000 -0.020100 
#    y 0.000000 2.129380 0.000000 
#    z -0.020100 0.000000 2.044640 
# 
# From -- ./inp_files/25213.got.cif
#   From: 2010.05.17/outbox.cif.g08.bks.cpg/sg14_13_cif.got.tgz:25213.got - 2010.06.03 17:49:19.
