data_PCOD9252396
_publ_section_title
;
Structure prediction by ZEFSAII (Michael W. Deem and Ramdas Pophale) SiO2 
 PCOD9252396
Probable space group: P 21/C
;
_chemical_formula_sum "Si O2"
_cell_formula_units_Z 28
_cell_length_a 6.710686
_cell_length_b 12.181898
_cell_length_c 20.511222
_cell_angle_alpha 90.000000
_cell_angle_beta 54.466783
_cell_angle_gamma 90.000000
_cell_volume 1364.519486
_symmetry_space_group_name_H-M "P 21/C"
_symmetry_group_IT_number 14
_symmetry_cell_setting 'monoclinic'
loop_
_space_group_symop_operation_xyz
x,y,z
-x,1/2+y,1/2-z
-x,-y,-z
x,1/2-y,1/2+z
loop_
_atom_site_type_symbol
_atom_site_label
_atom_site_fract_x
_atom_site_fract_y
_atom_site_fract_z
Si Si1 0.512396 0.470260 0.314038
Si Si2 0.089990 0.854272 0.872974
Si Si3 0.907141 0.839179 0.758401
Si Si4 0.562756 0.609991 0.527360
Si Si5 0.717531 0.493448 0.037453
Si Si6 0.476922 0.667078 0.818625
Si Si7 0.349055 0.664554 0.072088
O O1 0.269964 0.543092 0.348972
O O2 0.743074 0.553408 0.273435
O O3 0.495219 0.409260 0.386092
O O4 0.526744 0.386627 0.251826
O O5 0.248105 0.749775 0.864415
O O6 0.006747 0.845477 0.813302
O O7 0.846706 0.866142 0.961433
O O8 0.723171 0.736157 0.785094
O O9 0.132222 0.831061 0.665672
O O10 0.500000 0.500000 0.500000
O O11 0.407430 0.715030 0.533587
O O12 0.563661 0.426998 0.120480
O O13 0.596455 0.613318 0.055463
O O14 0.707858 0.422892 0.973197
O O15 0.000000 0.500000 0.000000
#
# Coordination Sequence:
#
# PCOD9252396 Si02
#       7
#     4   4   4   4   4   4   4
#     4  11  25  43  67 101 133 184 225 281 341 405
#     4  11  24  43  66  96 136 178 225 281 339 404
#     4  11  24  44  65  99 139 174 231 278 342 403
#     4  12  25  44  69 100 138 179 226 277 343 404
#     4  11  24  46  69  99 134 177 230 283 337 403
#     4  11  25  41  69  96 134 177 226 283 338 401
#     4  11  26  42  70  99 134 180 224 282 342 400
#
# _framework density 20.520046000000001
#
# number of rings (size 3 to 8) (size 9 to 14) (size 15 to 20)
#    0.000    0.857    1.429    4.714    4.000   10.286 
#    0.000    0.000    0.000    0.000    0.000    0.000 
#    0.000    0.000    0.000    0.000    0.000    0.000 
#
# Total GULP energy -156721.934093 kJ/mol
# GULP energy per Si atom -5597.211932 kJ/mol
# Density = 2.047334 g / cm^3
# Si number density = 20.520046 Si / 1000 Ang^3
#
#
#
# Elastic Constant Matrix: (Units=GPa)
#
#
# Indices 1 2 3 4 5 6 
#
# 1 64.5621 0.5959 -5.2413 0.0000 -18.6610 0.0000
# 2 0.5959 75.2213 7.8844 0.0000 -15.5710 0.0000
# 3 -5.2413 7.8844 69.9697 0.0000 -21.3784 0.0000
# 4 0.0000 0.0000 0.0000 30.7660 0.0000 12.1010
# 5 -18.6610 -15.5710 -21.3784 0.0000 39.9923 0.0000
# 6 0.0000 0.0000 0.0000 12.1010 0.0000 11.4790
#
#
#
# Elastic Compliance Matrix: (Units=1/GPa)
#
#
# Indices 1 2 3 4 5 6 
#
# 1 0.019518 0.001915 0.005088 0.000000 0.012573 0.000000
# 2 0.001915 0.014648 0.000608 0.000000 0.006921 0.000000
# 3 0.005088 0.000608 0.018409 0.000000 0.012451 0.000000
# 4 0.000000 0.000000 0.000000 0.055527 0.000000 -0.058535
# 5 0.012573 0.006921 0.012451 0.000000 0.040222 0.000000
# 6 0.000000 0.000000 0.000000 -0.058535 0.000000 0.148822
#
#
# Mechanical properties :
#
#
# Convention : Reuss Voigt Hill
#
# Bulk Modulus (GPa) = 14.75023 24.02565 19.38794
# Shear Modulus (GPa) = 16.41906 30.21509 23.31707
#
# Velocity S-wave (km/s) = 2.83176 3.84144 3.37457
# Velocity P-wave (km/s) = 4.23032 5.60440 4.96512
#
# Compressibility (1/GPa) = 0.06779555
#
# Stress axis : x y z
#
# Youngs Moduli (GPa) = 51.23373 68.26865 54.32154
#
# Poissons Ratio (x) = -0.13071 -0.27638
# Poissons Ratio (y) = -0.09810 -0.03301
# Poissons Ratio (z) = -0.26067 -0.04148
#
# Static dielectric constant tensor:
#      x y z
#    x 1.713860 0.000000 0.011420 
#    y 0.000000 1.923720 0.000000 
#    z 0.011420 0.000000 1.685020 
# 
# From -- ./inp_files/63431.got.cif
#   From: 2010.05.17/outbox.cif.g08.bks.cpg/sg14_32_cif.got.tgz:63431.got - 2010.06.03 17:49:19.
