data_PCOD9252347
_publ_section_title
;
Structure prediction by ZEFSAII (Michael W. Deem and Ramdas Pophale) SiO2 
 PCOD9252347
Probable space group: P 21/C
;
_chemical_formula_sum "Si O2"
_cell_formula_units_Z 32
_cell_length_a 6.068139
_cell_length_b 15.674354
_cell_length_c 18.060601
_cell_angle_alpha 90.000000
_cell_angle_beta 65.920394
_cell_angle_gamma 90.000000
_cell_volume 1568.333348
_symmetry_space_group_name_H-M "P 21/C"
_symmetry_group_IT_number 14
_symmetry_cell_setting 'monoclinic'
loop_
_space_group_symop_operation_xyz
x,y,z
-x,1/2+y,1/2-z
-x,-y,-z
x,1/2-y,1/2+z
loop_
_atom_site_type_symbol
_atom_site_label
_atom_site_fract_x
_atom_site_fract_y
_atom_site_fract_z
Si Si1 0.272164 0.101610 0.576189
Si Si2 0.034580 0.780120 0.478823
Si Si3 0.307553 0.503144 0.455478
Si Si4 0.573578 0.327696 0.652904
Si Si5 0.712978 0.202473 0.298911
Si Si6 0.794081 0.088675 0.427754
Si Si7 0.821338 0.802207 0.271318
Si Si8 0.705067 0.827581 0.117233
O O1 0.525652 0.094109 0.499478
O O2 0.279566 0.124855 0.661367
O O3 0.135731 0.181980 0.560375
O O4 0.139975 0.010816 0.584343
O O5 0.276150 0.748222 0.406905
O O6 0.053959 0.854792 0.536527
O O7 0.929594 0.699546 0.536171
O O8 0.500000 0.500000 0.500000
O O9 0.380595 0.587673 0.400074
O O10 0.377364 0.418644 0.400094
O O11 0.000000 0.500000 0.500000
O O12 0.655242 0.337533 0.727035
O O13 0.307047 0.288291 0.693042
O O14 0.800831 0.133794 0.346915
O O15 0.483196 0.250197 0.365516
O O16 0.899094 0.279705 0.259655
O O17 0.769326 0.827738 0.194441
#
# Coordination Sequence:
#
# PCOD9252347 Si02
#       8
#     4   4   4   4   4   4   4   4
#     4  11  24  41  67  96 132 174 230 286 341 419
#     4  12  21  43  70  94 138 174 236 285 357 432
#     4  12  30  48  78 112 145 190 252 308 365 438
#     4  11  26  44  68 102 138 187 235 296 362 432
#     4  11  24  45  68  97 138 186 231 290 362 431
#     4  11  24  41  67  96 132 174 230 286 341 419
#     4  11  24  45  68  97 138 186 231 290 362 431
#     4  11  26  44  68 102 138 187 235 296 362 432
#
# _framework density 20.403824
#
# number of rings (size 3 to 8) (size 9 to 14) (size 15 to 20)
#    0.000    0.750    6.250    0.375    8.750    0.000 
#    2.250    0.000    0.000    0.000    0.000    0.000 
#    0.000    0.000    0.000    0.000    0.000    0.000 
#
# Total GULP energy -178478.039456 kJ/mol
# GULP energy per Si atom -5577.438733 kJ/mol
# Density = 2.035738 g / cm^3
# Si number density = 20.403824 Si / 1000 Ang^3
#
#
#
# Elastic Constant Matrix: (Units=GPa)
#
#
# Indices 1 2 3 4 5 6 
#
# 1 44.3057 -1.2191 14.3581 0.0000 4.4431 0.0000
# 2 -1.2191 76.0618 26.6574 0.0000 16.1290 0.0000
# 3 14.3581 26.6574 75.8770 0.0000 5.9496 0.0000
# 4 0.0000 0.0000 0.0000 28.1277 0.0000 6.1070
# 5 4.4431 16.1290 5.9496 0.0000 27.1395 0.0000
# 6 0.0000 0.0000 0.0000 6.1070 0.0000 17.8706
#
#
#
# Elastic Compliance Matrix: (Units=1/GPa)
#
#
# Indices 1 2 3 4 5 6 
#
# 1 0.024941 0.003368 -0.005521 0.000000 -0.004875 0.000000
# 2 0.003368 0.017316 -0.005973 0.000000 -0.009533 0.000000
# 3 -0.005521 -0.005973 0.016253 0.000000 0.000891 0.000000
# 4 0.000000 0.000000 0.000000 0.038401 0.000000 -0.013123
# 5 -0.004875 -0.009533 0.000891 0.000000 0.043115 0.000000
# 6 0.000000 0.000000 0.000000 -0.013123 0.000000 0.060443
#
#
# Mechanical properties :
#
#
# Convention : Reuss Voigt Hill
#
# Bulk Modulus (GPa) = 23.66408 30.64857 27.15632
# Shear Modulus (GPa) = 21.66318 25.05743 23.36031
#
# Velocity S-wave (km/s) = 3.26194 3.50819 3.38731
# Velocity P-wave (km/s) = 5.08036 5.60923 5.35133
#
# Compressibility (1/GPa) = 0.04225815
#
# Stress axis : x y z
#
# Youngs Moduli (GPa) = 40.09455 57.74946 61.52838
#
# Poissons Ratio (x) = -0.19452 0.33968
# Poissons Ratio (y) = -0.13505 0.36754
# Poissons Ratio (z) = 0.22135 0.34496
#
# Static dielectric constant tensor:
#      x y z
#    x 1.782080 0.000000 0.005130 
#    y 0.000000 1.710000 0.000000 
#    z 0.005130 0.000000 1.697110 
# 
# From -- ./inp_files/53468.got.cif
#   From: 2010.05.17/outbox.cif.g08.bks.cpg/sg14_27_cif.got.tgz:53468.got - 2010.06.03 17:49:19.
