data_PCOD9252736
_publ_section_title
;
Structure prediction by ZEFSAII (Michael W. Deem and Ramdas Pophale) SiO2 
 PCOD9252736
Probable space group: P 21/C
;
_chemical_formula_sum "Si O2"
_cell_formula_units_Z 30
_cell_length_a 7.171241
_cell_length_b 12.924733
_cell_length_c 13.714238
_cell_angle_alpha 90.000000
_cell_angle_beta 113.145998
_cell_angle_gamma 90.000000
_cell_volume 1168.805521
_symmetry_space_group_name_H-M "P 21/C"
_symmetry_group_IT_number 14
_symmetry_cell_setting 'monoclinic'
loop_
_space_group_symop_operation_xyz
x,y,z
-x,1/2+y,1/2-z
-x,-y,-z
x,1/2-y,1/2+z
loop_
_atom_site_type_symbol
_atom_site_label
_atom_site_fract_x
_atom_site_fract_y
_atom_site_fract_z
Si Si1 0.688420 0.968733 0.330654
Si Si2 0.980825 0.078122 0.873273
Si Si3 0.500000 0.000000 0.500000
Si Si4 0.416189 0.817546 0.174040
Si Si5 0.501624 0.203365 0.504019
Si Si6 0.909560 0.647656 0.402255
Si Si7 0.929696 0.366715 0.137448
Si Si8 0.448959 0.852102 0.805181
O O1 0.587732 0.859397 0.281035
O O2 0.924685 0.945527 0.388110
O O3 0.562804 0.015988 0.393191
O O4 0.647713 0.036574 0.224909
O O5 0.752272 0.095165 0.867296
O O6 0.977246 0.118426 0.761891
O O7 0.022372 0.956063 0.889451
O O8 0.105071 0.139146 0.982086
O O9 0.345725 0.109906 0.468260
O O10 0.315900 0.719624 0.206624
O O11 0.494485 0.771396 0.090829
O O12 0.537169 0.287944 0.593505
O O13 0.689220 0.116920 0.565609
O O14 0.021435 0.751419 0.391119
O O15 0.680973 0.642540 0.316401
#
# Coordination Sequence:
#
# PCOD9252736 Si02
#       8
#     4   4   2   4   4   4   4   4
#     4  12  27  46  74 109 144 194 247 298 371 443
#     4  11  25  45  71 102 148 191 234 313 361 442
#     4  12  24  50  72 100 144 194 236 296 364 430
#     4  12  23  46  69 104 145 185 242 295 367 434
#     4  12  27  45  75 105 148 191 242 309 363 437
#     4  11  25  45  70 105 145 192 244 295 375 440
#     4  12  26  46  71 112 144 187 248 303 370 431
#     4  12  25  46  72 105 142 191 241 298 360 445
#
# _framework density 25.667228999999999
#
# number of rings (size 3 to 8) (size 9 to 14) (size 15 to 20)
#    0.000    0.267    8.000    0.000    3.733    1.067 
#    2.400    0.000    0.000    0.000    0.000    0.000 
#    0.000    0.000    0.000    0.000    0.000    0.000 
#
# Total GULP energy -167329.954386 kJ/mol
# GULP energy per Si atom -5577.665146 kJ/mol
# Density = 2.560881 g / cm^3
# Si number density = 25.667229 Si / 1000 Ang^3
#
#
#
# Elastic Constant Matrix: (Units=GPa)
#
#
# Indices 1 2 3 4 5 6 
#
# 1 73.4869 13.1829 22.6821 0.0000 9.2348 0.0000
# 2 13.1829 127.4019 47.8943 0.0000 -14.3852 0.0000
# 3 22.6821 47.8943 135.2492 0.0000 -32.1643 0.0000
# 4 0.0000 0.0000 0.0000 56.6273 0.0000 -12.0689
# 5 9.2348 -14.3852 -32.1643 0.0000 40.4695 0.0000
# 6 0.0000 0.0000 0.0000 -12.0689 0.0000 28.1720
#
#
#
# Elastic Compliance Matrix: (Units=1/GPa)
#
#
# Indices 1 2 3 4 5 6 
#
# 1 0.015928 -0.000938 -0.004048 0.000000 -0.007185 0.000000
# 2 -0.000938 0.009132 -0.002779 0.000000 0.001251 0.000000
# 3 -0.004048 -0.002779 0.011149 0.000000 0.008797 0.000000
# 4 0.000000 0.000000 0.000000 0.019434 0.000000 0.008325
# 5 -0.007185 0.001251 0.008797 0.000000 0.033786 0.000000
# 6 0.000000 0.000000 0.000000 0.008325 0.000000 0.039063
#
#
# Mechanical properties :
#
#
# Convention : Reuss Voigt Hill
#
# Bulk Modulus (GPa) = 48.35622 55.96185 52.15903
# Shear Modulus (GPa) = 33.13130 41.87899 37.50515
#
# Velocity S-wave (km/s) = 3.59667 4.04371 3.82672
# Velocity P-wave (km/s) = 6.01071 6.60698 6.31589
#
# Compressibility (1/GPa) = 0.02067986
#
# Stress axis : x y z
#
# Youngs Moduli (GPa) = 62.78059 109.50231 89.69637
#
# Poissons Ratio (x) = 0.10268 0.36309
# Poissons Ratio (y) = 0.05887 0.24927
# Poissons Ratio (z) = 0.25414 0.30431
#
# Static dielectric constant tensor:
#      x y z
#    x 2.243500 0.000000 0.087530 
#    y 0.000000 2.371590 0.000000 
#    z 0.087530 0.000000 2.097620 
# 
# From -- ./inp_files/40448.got.cif
#   From: 2010.05.17/outbox.cif.g08.bks.cpg/sg14_21_cif.got.tgz:40448.got - 2010.06.03 17:49:19.
