data_PCOD9252593
_publ_section_title
;
Structure prediction by ZEFSAII (Michael W. Deem and Ramdas Pophale) SiO2 
 PCOD9252593
Probable space group: P 21/C
;
_chemical_formula_sum "Si O2"
_cell_formula_units_Z 22
_cell_length_a 10.829618
_cell_length_b 13.432731
_cell_length_c 12.122915
_cell_angle_alpha 90.000000
_cell_angle_beta 28.797436
_cell_angle_gamma 90.000000
_cell_volume 849.521154
_symmetry_space_group_name_H-M "P 21/C"
_symmetry_group_IT_number 14
_symmetry_cell_setting 'monoclinic'
loop_
_space_group_symop_operation_xyz
x,y,z
-x,1/2+y,1/2-z
-x,-y,-z
x,1/2-y,1/2+z
loop_
_atom_site_type_symbol
_atom_site_label
_atom_site_fract_x
_atom_site_fract_y
_atom_site_fract_z
Si Si1 0.500000 0.000000 0.500000
Si Si2 0.601546 0.989995 0.163302
Si Si3 0.804747 0.853504 0.601552
Si Si4 0.993999 0.635777 0.712561
Si Si5 0.498602 0.191205 0.524487
Si Si6 0.281118 0.808799 0.354052
O O1 0.625251 0.014934 0.273592
O O2 0.673457 0.098658 0.416334
O O3 0.378685 0.055513 0.281069
O O4 0.511445 0.877770 0.214672
O O5 0.851483 0.033762 0.907963
O O6 0.638471 0.764575 0.784673
O O7 0.920369 0.828054 0.391348
O O8 0.034254 0.871148 0.507163
O O9 0.164633 0.721963 0.522675
O O10 0.730655 0.618887 0.848393
O O11 0.612230 0.255013 0.338075
#
# Coordination Sequence:
#
# PCOD9252593 Si02
#       6
#     2   4   4   4   4   4
#     4  12  26  46  74 106 148 184 244 300 364 432
#     4  12  27  46  74 110 144 192 247 300 365 434
#     4  11  25  48  74 105 148 188 251 294 359 440
#     4  11  24  47  70 109 146 184 246 297 368 430
#     4  11  26  49  71 109 146 195 242 298 366 429
#     4  11  26  47  75 103 150 195 238 305 361 437
#
# _framework density 25.896941999999999
#
# number of rings (size 3 to 8) (size 9 to 14) (size 15 to 20)
#    0.000    0.727    3.636    1.636    7.636    6.545 
#    0.000    0.000    0.000    0.000    0.000    0.000 
#    0.000    0.000    0.000    0.000    0.000    0.000 
#
# Total GULP energy -122870.077220 kJ/mol
# GULP energy per Si atom -5585.003510 kJ/mol
# Density = 2.583800 g / cm^3
# Si number density = 25.896942 Si / 1000 Ang^3
#
#
#
# Elastic Constant Matrix: (Units=GPa)
#
#
# Indices 1 2 3 4 5 6 
#
# 1 48.4039 -0.7597 10.0612 0.0000 -25.6103 0.0000
# 2 -0.7597 107.7030 48.2040 0.0000 7.0449 0.0000
# 3 10.0612 48.2040 136.9173 0.0000 18.7715 0.0000
# 4 0.0000 0.0000 0.0000 40.4701 0.0000 -5.7748
# 5 -25.6103 7.0449 18.7715 0.0000 45.7401 0.0000
# 6 0.0000 0.0000 0.0000 -5.7748 0.0000 56.5111
#
#
#
# Elastic Compliance Matrix: (Units=1/GPa)
#
#
# Indices 1 2 3 4 5 6 
#
# 1 0.032669 0.001451 -0.005710 0.000000 0.020411 0.000000
# 2 0.001451 0.011086 -0.004119 0.000000 0.000795 0.000000
# 3 -0.005710 -0.004119 0.010093 0.000000 -0.006705 0.000000
# 4 0.000000 0.000000 0.000000 0.025075 0.000000 0.002562
# 5 0.020411 0.000795 -0.006705 0.000000 0.035920 0.000000
# 6 0.000000 0.000000 0.000000 0.002562 0.000000 0.017957
#
#
# Mechanical properties :
#
#
# Convention : Reuss Voigt Hill
#
# Bulk Modulus (GPa) = 26.95992 45.33725 36.14859
# Shear Modulus (GPa) = 30.87940 44.24551 37.56245
#
# Velocity S-wave (km/s) = 3.45685 4.13791 3.81262
# Velocity P-wave (km/s) = 5.13480 6.35410 5.77671
#
# Compressibility (1/GPa) = 0.03709210
#
# Stress axis : x y z
#
# Youngs Moduli (GPa) = 30.61034 90.20033 99.08298
#
# Poissons Ratio (x) = -0.13087 0.56575
# Poissons Ratio (y) = -0.04441 0.40810
# Poissons Ratio (z) = 0.17478 0.37152
#
# Static dielectric constant tensor:
#      x y z
#    x 2.439860 0.000000 -0.254710 
#    y 0.000000 23.574040 0.000000 
#    z -0.254710 0.000000 2.270300 
# 
# From -- ./inp_files/29991.got.cif
#   From: 2010.05.17/outbox.cif.g08.bks.cpg/sg14_15_cif.got.tgz:29991.got - 2010.06.03 17:49:19.
