data_PCOD9252818
_publ_section_title
;
Structure prediction by ZEFSAII (Michael W. Deem and Ramdas Pophale) SiO2 
 PCOD9252818
Probable space group: P 21/C
;
_chemical_formula_sum "Si O2"
_cell_formula_units_Z 32
_cell_length_a 10.068127
_cell_length_b 14.323224
_cell_length_c 15.563904
_cell_angle_alpha 90.000000
_cell_angle_beta 37.289398
_cell_angle_gamma 90.000000
_cell_volume 1359.774252
_symmetry_space_group_name_H-M "P 21/C"
_symmetry_group_IT_number 14
_symmetry_cell_setting 'monoclinic'
loop_
_space_group_symop_operation_xyz
x,y,z
-x,1/2+y,1/2-z
-x,-y,-z
x,1/2-y,1/2+z
loop_
_atom_site_type_symbol
_atom_site_label
_atom_site_fract_x
_atom_site_fract_y
_atom_site_fract_z
Si Si1 0.168224 0.028517 0.655938
Si Si2 0.889043 0.928164 0.678148
Si Si3 0.256033 0.906176 0.362690
Si Si4 0.472865 0.169722 0.036400
Si Si5 0.695319 0.901895 0.054612
Si Si6 0.100446 0.713573 0.395657
Si Si7 0.548090 0.364522 0.907769
Si Si8 0.883087 0.106185 0.937488
O O1 0.319093 0.083475 0.511399
O O2 0.103909 0.092021 0.769578
O O3 0.299227 0.938834 0.622027
O O4 0.943990 0.994285 0.729839
O O5 0.730209 0.848653 0.794600
O O6 0.127874 0.901068 0.518480
O O7 0.778947 0.992474 0.662003
O O8 0.513912 0.886685 0.222073
O O9 0.133289 0.824176 0.373299
O O10 0.429149 0.108559 0.972550
O O11 0.500325 0.274495 0.989620
O O12 0.690917 0.141797 0.974541
O O13 0.885800 0.824579 0.958382
O O14 0.807624 0.002757 0.007215
O O15 0.317897 0.668055 0.243441
O O16 0.085110 0.675832 0.500168
#
# Coordination Sequence:
#
# PCOD9252818 Si02
#       8
#     4   4   4   4   4   4   4   4
#     4  11  26  45  72 101 149 197 240 307 365 434
#     4  11  25  47  73 104 144 192 246 297 368 432
#     4  11  27  45  71 108 144 191 239 303 362 436
#     4  12  25  47  79 107 140 193 251 303 355 448
#     4  12  24  48  76 103 147 191 240 299 368 433
#     4  12  28  46  73 110 146 190 240 300 368 438
#     4  11  27  45  68 109 147 191 244 305 368 433
#     4  12  26  46  76 108 144 192 245 297 370 437
#
# _framework density 23.533318000000001
#
# number of rings (size 3 to 8) (size 9 to 14) (size 15 to 20)
#    0.000    0.500    5.000    1.500    7.000    2.000 
#    0.000    0.000    0.000    0.000    0.000    0.000 
#    0.000    0.000    0.000    0.000    0.000    0.000 
#
# Total GULP energy -179161.342841 kJ/mol
# GULP energy per Si atom -5598.791964 kJ/mol
# Density = 2.347976 g / cm^3
# Si number density = 23.533318 Si / 1000 Ang^3
#
#
#
# Elastic Constant Matrix: (Units=GPa)
#
#
# Indices 1 2 3 4 5 6 
#
# 1 54.7910 4.2506 -9.5728 0.0000 -3.7702 0.0000
# 2 4.2506 44.7993 40.6445 0.0000 4.5591 0.0000
# 3 -9.5728 40.6445 123.8602 0.0000 -1.1811 0.0000
# 4 0.0000 0.0000 0.0000 31.7628 0.0000 16.4357
# 5 -3.7702 4.5591 -1.1811 0.0000 25.2217 0.0000
# 6 0.0000 0.0000 0.0000 16.4357 0.0000 4.9399
#
#
#
# Elastic Compliance Matrix: (Units=1/GPa)
#
#
# Indices 1 2 3 4 5 6 
#
# 1 0.019500 -0.005212 0.003256 0.000000 0.004010 0.000000
# 2 -0.005212 0.034189 -0.011694 0.000000 -0.007507 0.000000
# 3 0.003256 -0.011694 0.012193 0.000000 0.003171 0.000000
# 4 0.000000 0.000000 0.000000 -0.043629 0.000000 0.145159
# 5 0.004010 -0.007507 0.003171 0.000000 0.041753 0.000000
# 6 0.000000 0.000000 0.000000 0.145159 0.000000 -0.280528
#
#
# Mechanical properties :
#
#
# Convention : Reuss Voigt Hill
#
# Bulk Modulus (GPa) = 25.91849 32.67724 29.29786
# Shear Modulus (GPa) = -28.35100 24.92676 -1.71212
#
# Velocity S-wave (km/s) = -3.47467 3.25808 -0.85388
# Velocity P-wave (km/s) = 2.24952 5.29803 3.39181
#
# Compressibility (1/GPa) = 0.03858250
#
# Stress axis : x y z
#
# Youngs Moduli (GPa) = 51.28145 29.24889 82.01623
#
# Poissons Ratio (x) = 0.15244 -0.26702
# Poissons Ratio (y) = 0.26728 0.95906
# Poissons Ratio (z) = -0.16695 0.34202
#
# Static dielectric constant tensor:
#      x y z
#    x 1.849480 0.000000 0.025830 
#    y 0.000000 1.929970 0.000000 
#    z 0.025830 0.000000 1.898450 
# 
# From -- ./inp_files/57919.got.cif
#   From: 2010.05.17/outbox.cif.g08.bks.cpg/sg14_29_cif.got.tgz:57919.got - 2010.06.03 17:49:19.
