data_PCOD9252553
_publ_section_title
;
Structure prediction by ZEFSAII (Michael W. Deem and Ramdas Pophale) SiO2 
 PCOD9252553
Probable space group: P 21/C
;
_chemical_formula_sum "Si O2"
_cell_formula_units_Z 16
_cell_length_a 5.264434
_cell_length_b 18.918487
_cell_length_c 9.103920
_cell_angle_alpha 90.000000
_cell_angle_beta 48.690875
_cell_angle_gamma 90.000000
_cell_volume 681.080428
_symmetry_space_group_name_H-M "P 21/C"
_symmetry_group_IT_number 14
_symmetry_cell_setting 'monoclinic'
loop_
_space_group_symop_operation_xyz
x,y,z
-x,1/2+y,1/2-z
-x,-y,-z
x,1/2-y,1/2+z
loop_
_atom_site_type_symbol
_atom_site_label
_atom_site_fract_x
_atom_site_fract_y
_atom_site_fract_z
Si Si1 0.236947 0.465318 0.289738
Si Si2 0.518918 0.686916 0.307735
Si Si3 0.195200 0.433684 0.993670
Si Si4 0.285749 0.329846 0.426149
O O1 0.426655 0.533542 0.153635
O O2 0.426903 0.403032 0.304534
O O3 0.000000 0.500000 0.500000
O O4 0.093036 0.425574 0.201741
O O5 0.768020 0.635076 0.120353
O O6 0.609582 0.680327 0.444738
O O7 0.123911 0.668495 0.432049
O O8 0.581230 0.765089 0.221877
O O9 0.000000 0.500000 0.000000
#
# Coordination Sequence:
#
# PCOD9252553 Si02
#       4
#     4   4   4   4
#     4  11  24  46  69 104 141 185 232 291 351 415
#     4  12  27  47  71 106 140 189 234 291 353 417
#     4  11  26  42  73 103 143 183 239 288 350 421
#     4  12  27  46  74 100 147 183 237 291 354 417
#
# _framework density 23.492084999999999
#
# number of rings (size 3 to 8) (size 9 to 14) (size 15 to 20)
#    0.000    0.500    2.500    4.500   10.500    2.000 
#    0.000    0.000    0.000    0.000    0.000    0.000 
#    0.000    0.000    0.000    0.000    0.000    0.000 
#
# Total GULP energy -89439.758932 kJ/mol
# GULP energy per Si atom -5589.984933 kJ/mol
# Density = 2.343862 g / cm^3
# Si number density = 23.492085 Si / 1000 Ang^3
#
#
#
# Elastic Constant Matrix: (Units=GPa)
#
#
# Indices 1 2 3 4 5 6 
#
# 1 137.2949 5.1717 44.5638 0.0000 37.6656 0.0000
# 2 5.1717 142.0963 29.7035 0.0000 26.8362 0.0000
# 3 44.5638 29.7035 111.3170 0.0000 46.9854 0.0000
# 4 0.0000 0.0000 0.0000 63.8730 0.0000 0.9453
# 5 37.6656 26.8362 46.9854 0.0000 57.2468 0.0000
# 6 0.0000 0.0000 0.0000 0.9453 0.0000 31.7203
#
#
#
# Elastic Compliance Matrix: (Units=1/GPa)
#
#
# Indices 1 2 3 4 5 6 
#
# 1 0.009221 0.000998 -0.001835 0.000000 -0.005028 0.000000
# 2 0.000998 0.007878 -0.001019 0.000000 -0.003513 0.000000
# 3 -0.001835 -0.001019 0.014197 0.000000 -0.009967 0.000000
# 4 0.000000 0.000000 0.000000 0.015663 0.000000 -0.000467
# 5 -0.005028 -0.003513 -0.009967 0.000000 0.030604 0.000000
# 6 0.000000 0.000000 0.000000 -0.000467 0.000000 0.031539
#
#
# Mechanical properties :
#
#
# Convention : Reuss Voigt Hill
#
# Bulk Modulus (GPa) = 36.25362 61.06514 48.65938
# Shear Modulus (GPa) = 40.98055 51.31930 46.14993
#
# Velocity S-wave (km/s) = 4.18118 4.67897 4.43706
# Velocity P-wave (km/s) = 6.22700 7.43241 6.85625
#
# Compressibility (1/GPa) = 0.02758345
#
# Stress axis : x y z
#
# Youngs Moduli (GPa) = 108.44514 126.94201 70.43824
#
# Poissons Ratio (x) = -0.12665 0.12928
# Poissons Ratio (y) = -0.10820 0.07174
# Poissons Ratio (z) = 0.19903 0.12929
#
# Static dielectric constant tensor:
#      x y z
#    x 2.011170 0.000000 -0.081930 
#    y 0.000000 1.896420 0.000000 
#    z -0.081930 0.000000 1.910820 
# 
# From -- ./inp_files/5251.got.cif
#   From: 2010.05.17/outbox.cif.g08.bks.cpg/sg14_3_cif.got.tgz:5251.got - 2010.06.03 17:49:19.
