data_PCOD9252878
_publ_section_title
;
Structure prediction by ZEFSAII (Michael W. Deem and Ramdas Pophale) SiO2 
 PCOD9252878
Probable space group: P 21/C
;
_chemical_formula_sum "Si O2"
_cell_formula_units_Z 16
_cell_length_a 5.191576
_cell_length_b 8.672214
_cell_length_c 16.678569
_cell_angle_alpha 90.000000
_cell_angle_beta 54.737947
_cell_angle_gamma 90.000000
_cell_volume 613.133270
_symmetry_space_group_name_H-M "P 21/C"
_symmetry_group_IT_number 14
_symmetry_cell_setting 'monoclinic'
loop_
_space_group_symop_operation_xyz
x,y,z
-x,1/2+y,1/2-z
-x,-y,-z
x,1/2-y,1/2+z
loop_
_atom_site_type_symbol
_atom_site_label
_atom_site_fract_x
_atom_site_fract_y
_atom_site_fract_z
Si Si1 0.404727 0.905054 0.387314
Si Si2 0.350508 0.074631 0.948156
Si Si3 0.378126 0.383114 0.739095
Si Si4 0.743564 0.140649 0.412407
O O1 0.404291 0.751782 0.334545
O O2 0.189578 0.868915 0.504262
O O3 0.408536 0.038472 0.319790
O O4 0.700377 0.966090 0.387974
O O5 0.439745 0.253450 0.948499
O O6 0.558768 0.017932 0.835748
O O7 0.500000 0.000000 0.000000
O O8 0.000000 0.000000 0.000000
O O9 0.039252 0.300151 0.808576
#
# Coordination Sequence:
#
# PCOD9252878 Si02
#       4
#     4   4   4   4
#     4  11  26  44  74 114 157 211 280 340 413 491
#     4  12  29  52  84 122 167 213 282 346 415 497
#     4  12  26  46  80 111 162 219 277 339 422 493
#     4  11  26  49  74 114 164 213 277 344 422 500
#
# _framework density 26.095469000000001
#
# number of rings (size 3 to 8) (size 9 to 14) (size 15 to 20)
#    0.000    0.500    2.500    3.750   10.500    4.000 
#    0.000    0.000    0.000    0.000    0.000    0.000 
#    0.000    0.000    0.000    0.000    0.000    0.000 
#
# Total GULP energy -89162.435251 kJ/mol
# GULP energy per Si atom -5572.652203 kJ/mol
# Density = 2.603607 g / cm^3
# Si number density = 26.095469 Si / 1000 Ang^3
#
#
#
# Elastic Constant Matrix: (Units=GPa)
#
#
# Indices 1 2 3 4 5 6 
#
# 1 127.2169 37.8357 77.3341 0.0000 10.6432 0.0000
# 2 37.8357 128.6523 64.2790 0.0000 35.5756 0.0000
# 3 77.3341 64.2790 240.7947 0.0000 21.2562 0.0000
# 4 0.0000 0.0000 0.0000 56.0779 0.0000 14.6147
# 5 10.6432 35.5756 21.2562 0.0000 35.7730 0.0000
# 6 0.0000 0.0000 0.0000 14.6147 0.0000 37.3840
#
#
#
# Elastic Compliance Matrix: (Units=1/GPa)
#
#
# Indices 1 2 3 4 5 6 
#
# 1 0.010030 -0.001629 -0.002813 0.000000 0.000308 0.000000
# 2 -0.001629 0.012013 -0.001764 0.000000 -0.010414 0.000000
# 3 -0.002813 -0.001764 0.005592 0.000000 -0.000731 0.000000
# 4 0.000000 0.000000 0.000000 0.019855 0.000000 -0.007762
# 5 0.000308 -0.010414 -0.000731 0.000000 0.038653 0.000000
# 6 0.000000 0.000000 0.000000 -0.007762 0.000000 0.029784
#
#
# Mechanical properties :
#
#
# Convention : Reuss Voigt Hill
#
# Bulk Modulus (GPa) = 65.69840 95.06238 80.38039
# Shear Modulus (GPa) = 37.47712 46.99465 42.23589
#
# Velocity S-wave (km/s) = 3.79377 4.24827 4.02744
# Velocity P-wave (km/s) = 6.66492 7.78277 7.24544
#
# Compressibility (1/GPa) = 0.01522107
#
# Stress axis : x y z
#
# Youngs Moduli (GPa) = 99.70483 83.24161 178.82647
#
# Poissons Ratio (x) = 0.13561 0.50312
# Poissons Ratio (y) = 0.16243 0.31552
# Poissons Ratio (z) = 0.28051 0.14687
#
# Static dielectric constant tensor:
#      x y z
#    x 2.152670 0.000000 -0.148330 
#    y 0.000000 2.256360 0.000000 
#    z -0.148330 0.000000 1.911110 
# 
# From -- ./inp_files/36664.got.cif
#   From: 2010.05.17/outbox.cif.g08.bks.cpg/sg14_19_cif.got.tgz:36664.got - 2010.06.03 17:49:19.
