data_PCOD9252413
_publ_section_title
;
Structure prediction by ZEFSAII (Michael W. Deem and Ramdas Pophale) SiO2 
 PCOD9252413
Probable space group: P 21/C
;
_chemical_formula_sum "Si O2"
_cell_formula_units_Z 16
_cell_length_a 7.824390
_cell_length_b 13.188437
_cell_length_c 8.074678
_cell_angle_alpha 90.000000
_cell_angle_beta 58.936306
_cell_angle_gamma 90.000000
_cell_volume 713.746793
_symmetry_space_group_name_H-M "P 21/C"
_symmetry_group_IT_number 14
_symmetry_cell_setting 'monoclinic'
loop_
_space_group_symop_operation_xyz
x,y,z
-x,1/2+y,1/2-z
-x,-y,-z
x,1/2-y,1/2+z
loop_
_atom_site_type_symbol
_atom_site_label
_atom_site_fract_x
_atom_site_fract_y
_atom_site_fract_z
Si Si1 0.447932 0.117402 0.017192
Si Si2 0.447933 0.882598 0.534875
Si Si3 0.763856 0.225169 0.668448
Si Si4 0.763857 0.774832 0.567697
O O1 0.326922 0.159089 0.236221
O O2 0.662374 0.169973 0.877404
O O3 0.316114 0.160335 0.927659
O O4 0.500000 0.000000 0.000000
O O5 0.316114 0.839666 0.756227
O O6 0.326924 0.840911 0.436855
O O7 0.662374 0.830027 0.460223
O O8 0.500000 0.000000 0.500000
O O9 0.999999 0.222641 0.546214
#
# Coordination Sequence:
#
# PCOD9252413 Si02
#       4
#     4   4   4   4
#     4  11  24  43  70 104 141 182 232 289 348 414
#     4  11  24  43  70 104 141 182 232 289 348 414
#     4  11  24  44  70 101 139 183 233 286 342 412
#     4  11  24  44  70 101 139 183 233 286 342 412
#
# _framework density 22.416913000000001
#
# number of rings (size 3 to 8) (size 9 to 14) (size 15 to 20)
#    0.000    1.000    0.000    9.000    0.000    6.000 
#    0.000    2.500    0.000   51.000    0.000    0.000 
#    0.000    0.000    0.000    0.000    0.000    0.000 
#
# Total GULP energy -89118.362912 kJ/mol
# GULP energy per Si atom -5569.897682 kJ/mol
# Density = 2.236589 g / cm^3
# Si number density = 22.416913 Si / 1000 Ang^3
#
#
#
# Elastic Constant Matrix: (Units=GPa)
#
#
# Indices 1 2 3 4 5 6 
#
# 1 198.7123 92.3816 94.4187 0.0000 -38.1040 0.0000
# 2 92.3816 209.9426 82.2347 0.0000 -13.7721 0.0000
# 3 94.4187 82.2347 152.0838 0.0000 -25.1824 0.0000
# 4 0.0000 0.0000 0.0000 24.1827 0.0000 9.7452
# 5 -38.1040 -13.7721 -25.1824 0.0000 55.6481 0.0000
# 6 0.0000 0.0000 0.0000 9.7452 0.0000 17.0019
#
#
#
# Elastic Compliance Matrix: (Units=1/GPa)
#
#
# Indices 1 2 3 4 5 6 
#
# 1 0.008333 -0.002078 -0.003449 0.000000 0.003631 0.000000
# 2 -0.002078 0.006561 -0.002405 0.000000 -0.000887 0.000000
# 3 -0.003449 -0.002405 0.010299 0.000000 0.001704 0.000000
# 4 0.000000 0.000000 0.000000 0.053772 0.000000 -0.030821
# 5 0.003631 -0.000887 0.001704 0.000000 0.021008 0.000000
# 6 0.000000 0.000000 0.000000 -0.030821 0.000000 0.076483
#
#
# Mechanical properties :
#
#
# Convention : Reuss Voigt Hill
#
# Bulk Modulus (GPa) = 107.17264 122.08987 114.63126
# Shear Modulus (GPa) = 25.58460 38.81347 32.19903
#
# Velocity S-wave (km/s) = 3.38199 4.16557 3.79406
# Velocity P-wave (km/s) = 7.94752 8.81575 8.39287
#
# Compressibility (1/GPa) = 0.00933074
#
# Stress axis : x y z
#
# Youngs Moduli (GPa) = 119.99841 152.40986 97.09777
#
# Poissons Ratio (x) = 0.31669 0.33488
# Poissons Ratio (y) = 0.24934 0.23349
# Poissons Ratio (z) = 0.41386 0.36650
#
# Static dielectric constant tensor:
#      x y z
#    x 1.886120 0.000000 0.134730 
#    y 0.000000 1.898920 0.000000 
#    z 0.134730 0.000000 1.985400 
# 
# From -- ./inp_files/8076.got.cif
#   From: 2010.05.17/outbox.cif.g08.bks.cpg/sg14_5_cif.got.tgz:8076.got - 2010.06.03 17:49:19.
