data_PCOD9252418
_publ_section_title
;
Structure prediction by ZEFSAII (Michael W. Deem and Ramdas Pophale) SiO2 
 PCOD9252418
Probable space group: P 21/C
;
_chemical_formula_sum "Si O2"
_cell_formula_units_Z 12
_cell_length_a 14.268401
_cell_length_b 7.550206
_cell_length_c 5.828145
_cell_angle_alpha 90.000000
_cell_angle_beta 53.156329
_cell_angle_gamma 90.000000
_cell_volume 502.462283
_symmetry_space_group_name_H-M "P 21/C"
_symmetry_group_IT_number 14
_symmetry_cell_setting 'monoclinic'
loop_
_space_group_symop_operation_xyz
x,y,z
-x,1/2+y,1/2-z
-x,-y,-z
x,1/2-y,1/2+z
loop_
_atom_site_type_symbol
_atom_site_label
_atom_site_fract_x
_atom_site_fract_y
_atom_site_fract_z
Si Si1 0.564503 0.881663 0.093508
Si Si2 0.096949 0.847639 0.850682
Si Si3 0.340636 0.510465 0.143461
O O1 0.663431 0.000460 0.074879
O O2 0.451276 0.865081 0.426538
O O3 0.626121 0.694228 0.962600
O O4 0.500000 0.000000 0.000000
O O5 0.084915 0.755902 0.615617
O O6 0.226796 0.930395 0.679873
O O7 0.000000 0.000000 0.000000
#
# Coordination Sequence:
#
# PCOD9252418 Si02
#       3
#     4   4   4
#     4  11  24  43  70 109 156 206 254 319 398 467
#     4  12  32  56  87 118 158 212 274 334 407 477
#     4  11  27  42  74 111 158 199 271 321 400 473
#
# _framework density 23.882390000000001
#
# number of rings (size 3 to 8) (size 9 to 14) (size 15 to 20)
#    0.000    0.667    3.333    1.000   18.667    0.000 
#    0.000    0.000    0.000    0.000    0.000    0.000 
#    0.000    0.000    0.000    0.000    0.000    0.000 
#
# Total GULP energy -66907.447615 kJ/mol
# GULP energy per Si atom -5575.620635 kJ/mol
# Density = 2.382803 g / cm^3
# Si number density = 23.882390 Si / 1000 Ang^3
#
#
#
# Elastic Constant Matrix: (Units=GPa)
#
#
# Indices 1 2 3 4 5 6 
#
# 1 174.5039 78.7372 54.6647 0.0000 9.7563 0.0000
# 2 78.7372 149.8286 55.5694 0.0000 19.2134 0.0000
# 3 54.6647 55.5694 80.1712 0.0000 18.6676 0.0000
# 4 0.0000 0.0000 0.0000 51.7840 0.0000 3.5933
# 5 9.7563 19.2134 18.6676 0.0000 48.9382 0.0000
# 6 0.0000 0.0000 0.0000 3.5933 0.0000 61.4764
#
#
#
# Elastic Compliance Matrix: (Units=1/GPa)
#
#
# Indices 1 2 3 4 5 6 
#
# 1 0.008223 -0.003073 -0.003705 0.000000 0.000980 0.000000
# 2 -0.003073 0.010204 -0.004595 0.000000 -0.001641 0.000000
# 3 -0.003705 -0.004595 0.019308 0.000000 -0.004822 0.000000
# 4 0.000000 0.000000 0.000000 0.019390 0.000000 -0.001133
# 5 0.000980 -0.001641 -0.004822 0.000000 0.022722 0.000000
# 6 0.000000 0.000000 0.000000 -0.001133 0.000000 0.016333
#
#
# Mechanical properties :
#
#
# Convention : Reuss Voigt Hill
#
# Bulk Modulus (GPa) = 66.72178 86.93848 76.83013
# Shear Modulus (GPa) = 40.34811 46.80853 43.57832
#
# Velocity S-wave (km/s) = 4.11475 4.43195 4.27629
# Velocity P-wave (km/s) = 7.11148 7.91652 7.52478
#
# Compressibility (1/GPa) = 0.01498761
#
# Stress axis : x y z
#
# Youngs Moduli (GPa) = 121.61241 98.00222 51.79252
#
# Poissons Ratio (x) = 0.30114 0.19190
# Poissons Ratio (y) = 0.37368 0.23801
# Poissons Ratio (z) = 0.45060 0.45037
#
# Static dielectric constant tensor:
#      x y z
#    x 2.215380 0.000000 0.460830 
#    y 0.000000 1.998910 0.000000 
#    z 0.460830 0.000000 2.418980 
# 
# From -- ./inp_files/2316.got.cif
#   From: 2010.05.17/outbox.cif.g08.bks.cpg/sg14_2_cif.got.tgz:2316.got - 2010.06.03 17:49:19.
