data_PCOD9252025
_publ_section_title
;
Structure prediction by ZEFSAII (Michael W. Deem and Ramdas Pophale) SiO2 
 PCOD9252025
Probable space group: P 21/C
;
_chemical_formula_sum "Si O2"
_cell_formula_units_Z 20
_cell_length_a 8.406189
_cell_length_b 7.609587
_cell_length_c 26.802185
_cell_angle_alpha 90.000000
_cell_angle_beta 150.994502
_cell_angle_gamma 90.000000
_cell_volume 831.336484
_symmetry_space_group_name_H-M "P 21/C"
_symmetry_group_IT_number 14
_symmetry_cell_setting 'monoclinic'
loop_
_space_group_symop_operation_xyz
x,y,z
-x,1/2+y,1/2-z
-x,-y,-z
x,1/2-y,1/2+z
loop_
_atom_site_type_symbol
_atom_site_label
_atom_site_fract_x
_atom_site_fract_y
_atom_site_fract_z
Si Si1 0.973426 0.377932 0.121935
Si Si2 0.435287 0.693597 0.226281
Si Si3 0.383680 0.455719 0.890216
Si Si4 0.626826 0.731938 0.388312
Si Si5 0.372965 0.836115 0.103063
O O1 0.908687 0.457608 0.158877
O O2 0.213221 0.521091 0.161194
O O3 0.171307 0.195292 0.175688
O O4 0.629410 0.378053 0.999613
O O5 0.422235 0.748025 0.280803
O O6 0.333943 0.819981 0.152604
O O7 0.545145 0.612991 0.903295
O O8 0.353741 0.295100 0.843583
O O9 0.567652 0.537509 0.394028
O O10 0.018864 0.729658 0.486013
#
# Coordination Sequence:
#
# PCOD9252025 Si02
#       5
#     4   4   4   4   4
#     4  11  25  44  70  98 134 185 226 283 348 398
#     4  12  22  44  66  98 132 182 230 270 338 420
#     4  11  24  47  68  98 140 178 229 290 335 396
#     4  11  23  41  69 101 134 179 229 281 340 403
#     4  11  23  41  69 101 134 179 229 281 340 403
#
# _framework density 24.057648
#
# number of rings (size 3 to 8) (size 9 to 14) (size 15 to 20)
#    0.000    0.800    6.000    1.800    0.000    1.600 
#    3.600    2.000    0.000    0.000    0.000    0.000 
#    0.000    0.000    0.000    0.000    0.000    0.000 
#
# Total GULP energy -111632.819304 kJ/mol
# GULP energy per Si atom -5581.640965 kJ/mol
# Density = 2.400289 g / cm^3
# Si number density = 24.057648 Si / 1000 Ang^3
#
#
#
# Elastic Constant Matrix: (Units=GPa)
#
#
# Indices 1 2 3 4 5 6 
#
# 1 76.6930 36.2044 -7.9959 0.0000 0.9815 0.0000
# 2 36.2044 98.8197 -24.0734 0.0000 7.3158 0.0000
# 3 -7.9959 -24.0734 70.1622 0.0000 -23.1078 0.0000
# 4 0.0000 0.0000 0.0000 37.4379 0.0000 4.6902
# 5 0.9815 7.3158 -23.1078 0.0000 33.1824 0.0000
# 6 0.0000 0.0000 0.0000 4.6902 0.0000 19.1983
#
#
#
# Elastic Compliance Matrix: (Units=1/GPa)
#
#
# Indices 1 2 3 4 5 6 
#
# 1 0.015788 -0.005828 0.000090 0.000000 0.000880 0.000000
# 2 -0.005828 0.013195 0.003843 0.000000 -0.000060 0.000000
# 3 0.000090 0.003843 0.019856 0.000000 0.012977 0.000000
# 4 0.000000 0.000000 0.000000 0.027554 0.000000 -0.006731
# 5 0.000880 -0.000060 0.012977 0.000000 0.039161 0.000000
# 6 0.000000 0.000000 0.000000 -0.006731 0.000000 0.053732
#
#
# Mechanical properties :
#
#
# Convention : Reuss Voigt Hill
#
# Bulk Modulus (GPa) = 22.19753 28.21613 25.20683
# Shear Modulus (GPa) = 26.58273 34.06638 30.32456
#
# Velocity S-wave (km/s) = 3.32770 3.76710 3.55420
# Velocity P-wave (km/s) = 4.90016 5.53854 5.22910
#
# Compressibility (1/GPa) = 0.04505005
#
# Stress axis : x y z
#
# Youngs Moduli (GPa) = 63.33889 75.78491 50.36350
#
# Poissons Ratio (x) = 0.44164 -0.00452
# Poissons Ratio (y) = 0.36911 -0.19357
# Poissons Ratio (z) = -0.00568 -0.29128
#
# Static dielectric constant tensor:
#      x y z
#    x 1.945030 0.000000 -0.015330 
#    y 0.000000 1.958800 0.000000 
#    z -0.015330 0.000000 2.016800 
# 
# From -- ./inp_files/79417.got.cif
#   From: 2010.05.17/outbox.cif.g08.bks.cpg/sg14_40_cif.got.tgz:79417.got - 2010.06.03 17:49:19.
