data_PCOD9252608
_publ_section_title
;
Structure prediction by ZEFSAII (Michael W. Deem and Ramdas Pophale) SiO2 
 PCOD9252608
Probable space group: P 21/C
;
_chemical_formula_sum "Si O2"
_cell_formula_units_Z 24
_cell_length_a 10.828202
_cell_length_b 10.872482
_cell_length_c 10.852860
_cell_angle_alpha 90.000000
_cell_angle_beta 131.832739
_cell_angle_gamma 90.000000
_cell_volume 952.008678
_symmetry_space_group_name_H-M "P 21/C"
_symmetry_group_IT_number 14
_symmetry_cell_setting 'monoclinic'
loop_
_space_group_symop_operation_xyz
x,y,z
-x,1/2+y,1/2-z
-x,-y,-z
x,1/2-y,1/2+z
loop_
_atom_site_type_symbol
_atom_site_label
_atom_site_fract_x
_atom_site_fract_y
_atom_site_fract_z
Si Si1 0.879856 0.269285 0.189651
Si Si2 0.155996 0.976495 0.516456
Si Si3 0.413306 0.603152 0.854613
Si Si4 0.356478 0.126304 0.835461
Si Si5 0.231040 0.199601 0.408226
Si Si6 0.313156 0.557230 0.522154
O O1 0.743351 0.324416 0.191536
O O2 0.073572 0.276892 0.357943
O O3 0.851198 0.341664 0.042359
O O4 0.846763 0.127511 0.132871
O O5 0.301206 0.023053 0.701924
O O6 0.176180 0.063398 0.410864
O O7 0.000000 0.000000 0.500000
O O8 0.339261 0.540143 0.683125
O O9 0.500000 0.500000 0.000000
O O10 0.571144 0.692202 0.926091
O O11 0.245537 0.247405 0.778278
O O12 0.542275 0.152790 0.922703
O O13 0.341813 0.062173 0.958691
#
# Coordination Sequence:
#
# PCOD9252608 Si02
#       6
#     4   4   4   4   4   4
#     4  12  27  45  78 110 148 200 255 307 382 456
#     4  12  25  48  74 106 153 199 245 318 383 440
#     4  12  26  50  74 110 152 194 253 315 374 446
#     4  11  24  47  74 107 148 192 250 305 382 446
#     4  12  26  46  74 111 148 195 249 314 372 449
#     4  11  26  44  76 109 143 199 248 309 374 455
#
# _framework density 25.209855999999998
#
# number of rings (size 3 to 8) (size 9 to 14) (size 15 to 20)
#    0.000    0.333    6.667    1.000    4.667    2.667 
#    0.000    1.667    0.000    0.000    0.000    0.000 
#    0.000    0.000    0.000    0.000    0.000    0.000 
#
# Total GULP energy -133807.195522 kJ/mol
# GULP energy per Si atom -5575.299813 kJ/mol
# Density = 2.515248 g / cm^3
# Si number density = 25.209856 Si / 1000 Ang^3
#
#
#
# Elastic Constant Matrix: (Units=GPa)
#
#
# Indices 1 2 3 4 5 6 
#
# 1 126.3716 18.4261 45.5362 0.0000 30.5779 0.0000
# 2 18.4261 57.6243 19.3499 0.0000 -11.9186 0.0000
# 3 45.5362 19.3499 115.7329 0.0000 -0.1977 0.0000
# 4 0.0000 0.0000 0.0000 27.8825 0.0000 3.5198
# 5 30.5779 -11.9186 -0.1977 0.0000 48.7499 0.0000
# 6 0.0000 0.0000 0.0000 3.5198 0.0000 37.7672
#
#
#
# Elastic Compliance Matrix: (Units=1/GPa)
#
#
# Indices 1 2 3 4 5 6 
#
# 1 0.012094 -0.004295 -0.004055 0.000000 -0.008653 0.000000
# 2 -0.004295 0.020946 -0.001799 0.000000 0.007808 0.000000
# 3 -0.004055 -0.001799 0.010541 0.000000 0.002147 0.000000
# 4 0.000000 0.000000 0.000000 0.036292 0.000000 -0.003382
# 5 -0.008653 0.007808 0.002147 0.000000 0.027858 0.000000
# 6 0.000000 0.000000 0.000000 -0.003382 0.000000 0.026793
#
#
# Mechanical properties :
#
#
# Convention : Reuss Voigt Hill
#
# Bulk Modulus (GPa) = 42.95053 51.81702 47.38378
# Shear Modulus (GPa) = 30.75349 37.30770 34.03059
#
# Velocity S-wave (km/s) = 3.49649 3.85110 3.67807
# Velocity P-wave (km/s) = 5.77709 6.35402 6.07241
#
# Compressibility (1/GPa) = 0.02328260
#
# Stress axis : x y z
#
# Youngs Moduli (GPa) = 82.68302 47.74143 94.87144
#
# Poissons Ratio (x) = 0.20506 0.38473
# Poissons Ratio (y) = 0.35514 0.17065
# Poissons Ratio (z) = 0.33530 0.08587
#
# Static dielectric constant tensor:
#      x y z
#    x 2.024130 0.000000 0.032370 
#    y 0.000000 1.895380 0.000000 
#    z 0.032370 0.000000 2.062640 
# 
# From -- ./inp_files/28755.got.cif
#   From: 2010.05.17/outbox.cif.g08.bks.cpg/sg14_15_cif.got.tgz:28755.got - 2010.06.03 17:49:19.
