data_PCOD9252476
_publ_section_title
;
Structure prediction by ZEFSAII (Michael W. Deem and Ramdas Pophale) SiO2 
 PCOD9252476
Probable space group: P 21/C
;
_chemical_formula_sum "Si O2"
_cell_formula_units_Z 24
_cell_length_a 14.653868
_cell_length_b 5.154330
_cell_length_c 13.621890
_cell_angle_alpha 90.000000
_cell_angle_beta 115.064716
_cell_angle_gamma 90.000000
_cell_volume 931.984086
_symmetry_space_group_name_H-M "P 21/C"
_symmetry_group_IT_number 14
_symmetry_cell_setting 'monoclinic'
loop_
_space_group_symop_operation_xyz
x,y,z
-x,1/2+y,1/2-z
-x,-y,-z
x,1/2-y,1/2+z
loop_
_atom_site_type_symbol
_atom_site_label
_atom_site_fract_x
_atom_site_fract_y
_atom_site_fract_z
Si Si1 0.607363 0.357789 0.694116
Si Si2 0.216454 0.166505 0.712114
Si Si3 0.062873 0.901390 0.781397
Si Si4 0.209088 0.109436 0.010239
Si Si5 0.578448 0.311823 0.385151
Si Si6 0.311614 0.485882 0.932055
O O1 0.696353 0.495004 0.796103
O O2 0.519989 0.547210 0.619123
O O3 0.562751 0.180869 0.760282
O O4 0.664885 0.225123 0.630578
O O5 0.127701 0.999338 0.718112
O O6 0.181540 0.361840 0.611826
O O7 0.279921 0.287355 0.831081
O O8 0.970388 0.104824 0.744595
O O9 0.129579 0.955106 0.908223
O O10 0.317882 0.970741 0.050746
O O11 0.224270 0.394524 0.968027
O O12 0.595302 0.039999 0.450713
#
# Coordination Sequence:
#
# PCOD9252476 Si02
#       6
#     4   4   4   4   4   4
#     4  12  26  44  72 112 157 199 254 309 372 466
#     4  11  25  47  76 107 149 204 247 320 387 463
#     4  11  29  49  79 115 151 197 268 333 402 471
#     4  11  25  47  76 107 149 204 247 320 387 463
#     4  12  26  44  72 112 157 199 254 309 372 466
#     4  11  24  44  71  99 147 196 251 298 377 443
#
# _framework density 25.751512999999999
#
# number of rings (size 3 to 8) (size 9 to 14) (size 15 to 20)
#    0.000    0.667    3.333    3.500    9.333    2.667 
#    0.000    0.000    0.000    0.000    0.000    0.000 
#    0.000    0.000    0.000    0.000    0.000    0.000 
#
# Total GULP energy -133985.355869 kJ/mol
# GULP energy per Si atom -5582.723161 kJ/mol
# Density = 2.569290 g / cm^3
# Si number density = 25.751513 Si / 1000 Ang^3
#
#
#
# Elastic Constant Matrix: (Units=GPa)
#
#
# Indices 1 2 3 4 5 6 
#
# 1 59.9692 7.3884 22.2102 0.0000 -1.9412 0.0000
# 2 7.3884 53.9580 20.1793 0.0000 2.6605 0.0000
# 3 22.2102 20.1793 147.4140 0.0000 -14.7440 0.0000
# 4 0.0000 0.0000 0.0000 37.6906 0.0000 12.8859
# 5 -1.9412 2.6605 -14.7440 0.0000 47.2923 0.0000
# 6 0.0000 0.0000 0.0000 12.8859 0.0000 42.7937
#
#
#
# Elastic Compliance Matrix: (Units=1/GPa)
#
#
# Indices 1 2 3 4 5 6 
#
# 1 0.017777 -0.001514 -0.002466 0.000000 0.000046 0.000000
# 2 -0.001514 0.019846 -0.002690 0.000000 -0.002017 0.000000
# 3 -0.002466 -0.002690 0.007771 0.000000 0.002473 0.000000
# 4 0.000000 0.000000 0.000000 0.029577 0.000000 -0.008906
# 5 0.000046 -0.002017 0.002473 0.000000 0.022031 0.000000
# 6 0.000000 0.000000 0.000000 -0.008906 0.000000 0.026050
#
#
# Mechanical properties :
#
#
# Convention : Reuss Voigt Hill
#
# Bulk Modulus (GPa) = 31.19953 40.09965 35.64959
# Shear Modulus (GPa) = 33.99588 39.65955 36.82772
#
# Velocity S-wave (km/s) = 3.63733 3.92865 3.78579
# Velocity P-wave (km/s) = 5.45730 6.01537 5.74312
#
# Compressibility (1/GPa) = 0.03205177
#
# Stress axis : x y z
#
# Youngs Moduli (GPa) = 56.25331 50.38841 128.68641
#
# Poissons Ratio (x) = 0.07629 0.31740
# Poissons Ratio (y) = 0.08517 0.34621
# Poissons Ratio (z) = 0.13875 0.13556
#
# Static dielectric constant tensor:
#      x y z
#    x 2.006580 0.000000 -0.020200 
#    y 0.000000 2.130750 0.000000 
#    z -0.020200 0.000000 2.005800 
# 
# From -- ./inp_files/45980.got.cif
#   From: 2010.05.17/outbox.cif.g08.bks.cpg/sg14_23_cif.got.tgz:45980.got - 2010.06.03 17:49:19.
