data_PCOD9252914
_publ_section_title
;
Structure prediction by ZEFSAII (Michael W. Deem and Ramdas Pophale) SiO2 
 PCOD9252914
Probable space group: P 21/C
;
_chemical_formula_sum "Si O2"
_cell_formula_units_Z 12
_cell_length_a 13.889052
_cell_length_b 4.863261
_cell_length_c 21.974761
_cell_angle_alpha 90.000000
_cell_angle_beta 17.965863
_cell_angle_gamma 90.000000
_cell_volume 457.835575
_symmetry_space_group_name_H-M "P 21/C"
_symmetry_group_IT_number 14
_symmetry_cell_setting 'monoclinic'
loop_
_space_group_symop_operation_xyz
x,y,z
-x,1/2+y,1/2-z
-x,-y,-z
x,1/2-y,1/2+z
loop_
_atom_site_type_symbol
_atom_site_label
_atom_site_fract_x
_atom_site_fract_y
_atom_site_fract_z
Si Si1 0.922303 0.432120 0.335689
Si Si2 0.718214 0.611752 0.755560
Si Si3 0.323154 0.791843 0.328517
O O1 0.593093 0.282718 0.544743
O O2 0.890804 0.719086 0.319811
O O3 0.115469 0.469928 0.281478
O O4 0.658585 0.348907 0.748368
O O5 0.973666 0.791737 0.564845
O O6 0.501150 0.571988 0.264599
#
# Coordination Sequence:
#
# PCOD9252914 Si02
#       3
#     4   4   4
#     4  12  28  48  74 108 150 196 242 294 358 440
#     4  11  26  50  76 108 146 191 248 298 368 426
#     4  11  26  47  78 109 146 189 238 317 358 429
#
# _framework density 26.210286
#
# number of rings (size 3 to 8) (size 9 to 14) (size 15 to 20)
#    0.000    0.667    3.333    2.000    4.667   10.667 
#    0.000    0.000    0.000    0.000    0.000    0.000 
#    0.000    0.000    0.000    0.000    0.000    0.000 
#
# Total GULP energy -67490.598012 kJ/mol
# GULP energy per Si atom -5624.216501 kJ/mol
# Density = 2.615063 g / cm^3
# Si number density = 26.210286 Si / 1000 Ang^3
#
#
#
# Elastic Constant Matrix: (Units=GPa)
#
#
# Indices 1 2 3 4 5 6 
#
# 1 223.0534 3.9696 33.3147 0.0000 -2.0597 0.0000
# 2 3.9696 89.9735 19.5823 0.0000 -4.4839 0.0000
# 3 33.3147 19.5823 151.5864 0.0000 -11.2079 0.0000
# 4 0.0000 0.0000 0.0000 43.3776 0.0000 8.2561
# 5 -2.0597 -4.4839 -11.2079 0.0000 49.4476 0.0000
# 6 0.0000 0.0000 0.0000 8.2561 0.0000 42.3967
#
#
#
# Elastic Compliance Matrix: (Units=1/GPa)
#
#
# Indices 1 2 3 4 5 6 
#
# 1 0.004635 0.000016 -0.001024 0.000000 -0.000037 0.000000
# 2 0.000016 0.011461 -0.001431 0.000000 0.000716 0.000000
# 3 -0.001024 -0.001431 0.007113 0.000000 0.001440 0.000000
# 4 0.000000 0.000000 0.000000 0.023941 0.000000 -0.004662
# 5 -0.000037 0.000716 0.001440 0.000000 0.020613 0.000000
# 6 0.000000 0.000000 0.000000 -0.004662 0.000000 0.024495
#
#
# Mechanical properties :
#
#
# Convention : Reuss Voigt Hill
#
# Bulk Modulus (GPa) = 54.54771 64.26072 59.40421
# Shear Modulus (GPa) = 48.42815 54.22751 51.32783
#
# Velocity S-wave (km/s) = 4.30312 4.55349 4.43008
# Velocity P-wave (km/s) = 6.74877 7.22609 6.99150
#
# Compressibility (1/GPa) = 0.01833258
#
# Stress axis : x y z
#
# Youngs Moduli (GPa) = 215.72728 87.25380 140.58335
#
# Poissons Ratio (x) = -0.00143 0.14391
# Poissons Ratio (y) = -0.00354 0.20121
# Poissons Ratio (z) = 0.22083 0.12488
#
# Static dielectric constant tensor:
#      x y z
#    x 2.050920 0.000000 0.022890 
#    y 0.000000 2.034450 0.000000 
#    z 0.022890 0.000000 2.085630 
# 
# From -- ./inp_files/7070.got.cif
#   From: 2010.05.17/outbox.cif.g08.bks.cpg/sg14_4_cif.got.tgz:7070.got - 2010.06.03 17:49:19.
