data_PCOD9252913
_publ_section_title
;
Structure prediction by ZEFSAII (Michael W. Deem and Ramdas Pophale) SiO2 
 PCOD9252913
Probable space group: P 21/C
;
_chemical_formula_sum "Si O2"
_cell_formula_units_Z 22
_cell_length_a 9.441307
_cell_length_b 7.087865
_cell_length_c 17.799220
_cell_angle_alpha 90.000000
_cell_angle_beta 135.997402
_cell_angle_gamma 90.000000
_cell_volume 827.447012
_symmetry_space_group_name_H-M "P 21/C"
_symmetry_group_IT_number 14
_symmetry_cell_setting 'monoclinic'
loop_
_space_group_symop_operation_xyz
x,y,z
-x,1/2+y,1/2-z
-x,-y,-z
x,1/2-y,1/2+z
loop_
_atom_site_type_symbol
_atom_site_label
_atom_site_fract_x
_atom_site_fract_y
_atom_site_fract_z
Si Si1 0.148770 0.221397 0.936137
Si Si2 0.500000 0.500000 0.500000
Si Si3 0.528608 0.366518 0.855323
Si Si4 0.833825 0.350377 0.078393
Si Si5 0.257214 0.778588 0.298630
Si Si6 0.227212 0.180077 0.627408
O O1 0.225404 0.430577 0.944753
O O2 0.906202 0.240174 0.829677
O O3 0.268195 0.080009 0.928667
O O4 0.190500 0.191656 0.040323
O O5 0.412690 0.620703 0.388483
O O6 0.379800 0.530659 0.827249
O O7 0.412297 0.242008 0.750860
O O8 0.712068 0.475652 0.882746
O O9 0.624812 0.257460 0.964565
O O10 0.882411 0.302987 0.181194
O O11 0.025943 0.313983 0.100276
#
# Coordination Sequence:
#
# PCOD9252913 Si02
#       6
#     4   2   4   4   4   4
#     4  11  26  47  77 115 154 202 264 323 392 478
#     4  12  26  48  78 110 158 208 260 324 400 472
#     4  11  26  48  73 109 155 204 261 322 395 471
#     4  11  26  48  74 105 160 198 255 327 389 463
#     4  12  27  47  75 113 150 205 264 321 389 480
#     4  11  27  48  77 109 157 210 253 331 397 469
#
# _framework density 26.587807000000002
#
# number of rings (size 3 to 8) (size 9 to 14) (size 15 to 20)
#    0.000    0.727    3.636    3.818   10.182    5.091 
#    0.000    0.000    0.000    0.000    0.000    0.000 
#    0.000    0.000    0.000    0.000    0.000    0.000 
#
# Total GULP energy -122840.467226 kJ/mol
# GULP energy per Si atom -5583.657601 kJ/mol
# Density = 2.652729 g / cm^3
# Si number density = 26.587807 Si / 1000 Ang^3
#
#
#
# Elastic Constant Matrix: (Units=GPa)
#
#
# Indices 1 2 3 4 5 6 
#
# 1 135.3627 -3.6170 14.8741 0.0000 -17.9129 0.0000
# 2 -3.6170 59.3142 4.5942 0.0000 -6.8770 0.0000
# 3 14.8741 4.5942 182.8961 0.0000 7.5613 0.0000
# 4 0.0000 0.0000 0.0000 36.2480 0.0000 2.6007
# 5 -17.9129 -6.8770 7.5613 0.0000 34.3522 0.0000
# 6 0.0000 0.0000 0.0000 2.6007 0.0000 40.1531
#
#
#
# Elastic Compliance Matrix: (Units=1/GPa)
#
#
# Indices 1 2 3 4 5 6 
#
# 1 0.008130 0.001104 -0.000881 0.000000 0.004654 0.000000
# 2 0.001104 0.017471 -0.000703 0.000000 0.004228 0.000000
# 3 -0.000881 -0.000703 0.005633 0.000000 -0.001840 0.000000
# 4 0.000000 0.000000 0.000000 0.027716 0.000000 -0.001795
# 5 0.004654 0.004228 -0.001840 0.000000 0.032789 0.000000
# 6 0.000000 0.000000 0.000000 -0.001795 0.000000 0.025021
#
#
# Mechanical properties :
#
#
# Convention : Reuss Voigt Hill
#
# Bulk Modulus (GPa) = 33.03382 45.47506 39.25444
# Shear Modulus (GPa) = 39.11967 46.26545 42.69256
#
# Velocity S-wave (km/s) = 3.83996 4.17598 4.01149
# Velocity P-wave (km/s) = 5.66673 6.35551 6.02098
#
# Compressibility (1/GPa) = 0.03027201
#
# Stress axis : x y z
#
# Youngs Moduli (GPa) = 123.00438 57.23658 177.52516
#
# Poissons Ratio (x) = -0.06317 0.15645
# Poissons Ratio (y) = -0.13575 0.12487
# Poissons Ratio (z) = 0.10840 0.04026
#
# Static dielectric constant tensor:
#      x y z
#    x 1.985850 0.000000 -0.029290 
#    y 0.000000 2.025570 0.000000 
#    z -0.029290 0.000000 2.158700 
# 
# From -- ./inp_files/54724.got.cif
#   From: 2010.05.17/outbox.cif.g08.bks.cpg/sg14_28_cif.got.tgz:54724.got - 2010.06.03 17:49:19.
