data_PCOD9252235
_publ_section_title
;
Structure prediction by ZEFSAII (Michael W. Deem and Ramdas Pophale) SiO2 
 PCOD9252235
Probable space group: P 21/C
;
_chemical_formula_sum "Si O2"
_cell_formula_units_Z 24
_cell_length_a 7.709509
_cell_length_b 9.200505
_cell_length_c 23.406550
_cell_angle_alpha 90.000000
_cell_angle_beta 34.933298
_cell_angle_gamma 90.000000
_cell_volume 950.701406
_symmetry_space_group_name_H-M "P 21/C"
_symmetry_group_IT_number 14
_symmetry_cell_setting 'monoclinic'
loop_
_space_group_symop_operation_xyz
x,y,z
-x,1/2+y,1/2-z
-x,-y,-z
x,1/2-y,1/2+z
loop_
_atom_site_type_symbol
_atom_site_label
_atom_site_fract_x
_atom_site_fract_y
_atom_site_fract_z
Si Si1 0.538557 0.714064 0.601089
Si Si2 0.179156 0.416945 0.582927
Si Si3 0.084509 0.452573 0.846284
Si Si4 0.354117 0.142707 0.795630
Si Si5 0.681400 0.037843 0.557738
Si Si6 0.103559 0.169233 0.698970
O O1 0.775582 0.671078 0.488587
O O2 0.631097 0.656982 0.638748
O O3 0.192286 0.670044 0.681838
O O4 0.520178 0.885641 0.608757
O O5 0.500000 0.500000 0.500000
O O6 0.120304 0.305598 0.650916
O O7 0.904004 0.528207 0.650841
O O8 0.270786 0.302490 0.794957
O O9 0.320471 0.572862 0.807641
O O10 0.961770 0.527254 0.822424
O O11 0.791236 0.424351 0.964301
O O12 0.427792 0.155132 0.641665
O O13 0.000000 0.000000 0.500000
#
# Coordination Sequence:
#
# PCOD9252235 Si02
#       6
#     4   4   4   4   4   4
#     4  11  26  46  72 108 146 190 249 307 368 442
#     4  12  27  45  72 103 149 193 247 306 366 441
#     4  11  23  45  74 107 145 195 245 303 370 444
#     4  11  24  46  72 109 147 196 244 307 375 437
#     4  12  25  46  75 103 147 191 247 305 372 438
#     4  11  27  49  72 110 146 194 253 303 374 440
#
# _framework density 25.244519
#
# number of rings (size 3 to 8) (size 9 to 14) (size 15 to 20)
#    0.000    0.667    3.333    4.000    4.667    0.000 
#    0.000    0.000    0.000    0.000    0.000    0.000 
#    0.000    0.000    0.000    0.000    0.000    0.000 
#
# Total GULP energy -134393.050549 kJ/mol
# GULP energy per Si atom -5599.710440 kJ/mol
# Density = 2.518706 g / cm^3
# Si number density = 25.244519 Si / 1000 Ang^3
#
#
#
# Elastic Constant Matrix: (Units=GPa)
#
#
# Indices 1 2 3 4 5 6 
#
# 1 99.0400 50.8321 36.4020 0.0000 -29.1006 0.0000
# 2 50.8321 99.3399 34.3489 0.0000 -9.7211 0.0000
# 3 36.4020 34.3489 131.7775 0.0000 -14.6904 0.0000
# 4 0.0000 0.0000 0.0000 44.9525 0.0000 -10.0553
# 5 -29.1006 -9.7211 -14.6904 0.0000 50.0150 0.0000
# 6 0.0000 0.0000 0.0000 -10.0553 0.0000 32.7174
#
#
#
# Elastic Compliance Matrix: (Units=1/GPa)
#
#
# Indices 1 2 3 4 5 6 
#
# 1 0.016760 -0.007157 -0.001894 0.000000 0.007804 0.000000
# 2 -0.007157 0.014209 -0.001947 0.000000 -0.001974 0.000000
# 3 -0.001894 -0.001947 0.008740 0.000000 0.001087 0.000000
# 4 0.000000 0.000000 0.000000 0.023888 0.000000 0.007342
# 5 0.007804 -0.001974 0.001087 0.000000 0.024470 0.000000
# 6 0.000000 0.000000 0.000000 0.007342 0.000000 0.032821
#
#
# Mechanical properties :
#
#
# Convention : Reuss Voigt Hill
#
# Bulk Modulus (GPa) = 56.45675 63.70258 60.07967
# Shear Modulus (GPa) = 33.60493 39.44195 36.52344
#
# Velocity S-wave (km/s) = 3.65249 3.95700 3.80779
# Velocity P-wave (km/s) = 6.34035 6.79457 6.57139
#
# Compressibility (1/GPa) = 0.01771267
#
# Stress axis : x y z
#
# Youngs Moduli (GPa) = 59.66757 70.37951 114.41232
#
# Poissons Ratio (x) = 0.50372 0.21670
# Poissons Ratio (y) = 0.42706 0.22272
# Poissons Ratio (z) = 0.11301 0.13700
#
# Static dielectric constant tensor:
#      x y z
#    x 2.056140 0.000000 0.096240 
#    y 0.000000 1.758650 0.000000 
#    z 0.096240 0.000000 1.938120 
# 
# From -- ./inp_files/79442.got.cif
#   From: 2010.05.17/outbox.cif.g08.bks.cpg/sg14_40_cif.got.tgz:79442.got - 2010.06.03 17:49:19.
