data_PCOD9252975
_publ_section_title
;
Structure prediction by ZEFSAII (Michael W. Deem and Ramdas Pophale) SiO2 
 PCOD9252975
Probable space group: P 21/C
;
_chemical_formula_sum "Si O2"
_cell_formula_units_Z 16
_cell_length_a 5.152852
_cell_length_b 13.347322
_cell_length_c 9.465155
_cell_angle_alpha 90.000000
_cell_angle_beta 73.243957
_cell_angle_gamma 90.000000
_cell_volume 623.342728
_symmetry_space_group_name_H-M "P 21/C"
_symmetry_group_IT_number 14
_symmetry_cell_setting 'monoclinic'
loop_
_space_group_symop_operation_xyz
x,y,z
-x,1/2+y,1/2-z
-x,-y,-z
x,1/2-y,1/2+z
loop_
_atom_site_type_symbol
_atom_site_label
_atom_site_fract_x
_atom_site_fract_y
_atom_site_fract_z
Si Si1 0.802127 0.639907 0.620622
Si Si2 0.583079 0.738915 0.905259
Si Si3 0.706126 0.075509 0.144980
Si Si4 0.776345 0.435578 0.954085
O O1 0.618705 0.539527 0.640672
O O2 0.684906 0.726825 0.541064
O O3 0.084081 0.604928 0.510891
O O4 0.800303 0.677044 0.780716
O O5 0.521600 0.841278 0.832148
O O6 0.315666 0.669933 0.962966
O O7 0.842126 0.081128 0.278407
O O8 0.500000 0.500000 0.000000
O O9 0.000000 0.500000 0.000000
#
# Coordination Sequence:
#
# PCOD9252975 Si02
#       4
#     4   4   4   4
#     4  11  27  47  75 114 162 207 279 328 411 476
#     4  12  26  47  79 112 157 215 270 335 405 482
#     4  11  27  48  75 115 160 219 265 340 399 492
#     4  12  29  51  82 117 159 206 269 333 404 481
#
# _framework density 25.668061000000002
#
# number of rings (size 3 to 8) (size 9 to 14) (size 15 to 20)
#    0.000    0.500    5.000    0.750   10.500    4.000 
#    0.000    0.000    0.000    0.000    0.000    0.000 
#    0.000    0.000    0.000    0.000    0.000    0.000 
#
# Total GULP energy -89709.944573 kJ/mol
# GULP energy per Si atom -5606.871536 kJ/mol
# Density = 2.560964 g / cm^3
# Si number density = 25.668061 Si / 1000 Ang^3
#
#
#
# Elastic Constant Matrix: (Units=GPa)
#
#
# Indices 1 2 3 4 5 6 
#
# 1 86.4005 29.9537 28.6610 0.0000 4.9649 0.0000
# 2 29.9537 132.0715 41.5930 0.0000 -17.7696 0.0000
# 3 28.6610 41.5930 150.5896 0.0000 -16.9886 0.0000
# 4 0.0000 0.0000 0.0000 44.1451 0.0000 1.5100
# 5 4.9649 -17.7696 -16.9886 0.0000 32.3017 0.0000
# 6 0.0000 0.0000 0.0000 1.5100 0.0000 49.3609
#
#
#
# Elastic Compliance Matrix: (Units=1/GPa)
#
#
# Indices 1 2 3 4 5 6 
#
# 1 0.013690 -0.003045 -0.002329 0.000000 -0.005004 0.000000
# 2 -0.003045 0.009376 -0.001462 0.000000 0.004857 0.000000
# 3 -0.002329 -0.001462 0.007906 0.000000 0.003712 0.000000
# 4 0.000000 0.000000 0.000000 0.022676 0.000000 -0.000694
# 5 -0.005004 0.004857 0.003712 0.000000 0.036351 0.000000
# 6 0.000000 0.000000 0.000000 -0.000694 0.000000 0.020280
#
#
# Mechanical properties :
#
#
# Convention : Reuss Voigt Hill
#
# Bulk Modulus (GPa) = 57.80237 63.27524 60.53881
# Shear Modulus (GPa) = 38.54493 43.08514 40.81504
#
# Velocity S-wave (km/s) = 3.87934 4.10146 3.99194
# Velocity P-wave (km/s) = 6.52946 6.86543 6.69955
#
# Compressibility (1/GPa) = 0.01730033
#
# Stress axis : x y z
#
# Youngs Moduli (GPa) = 73.04778 106.65360 126.47836
#
# Poissons Ratio (x) = 0.32471 0.29458
# Poissons Ratio (y) = 0.22240 0.18495
# Poissons Ratio (z) = 0.17013 0.15596
#
# Static dielectric constant tensor:
#      x y z
#    x 2.004780 0.000000 -0.012320 
#    y 0.000000 2.085320 0.000000 
#    z -0.012320 0.000000 1.984800 
# 
# From -- ./inp_files/20336.got.cif
#   From: 2010.05.17/outbox.cif.g08.bks.cpg/sg14_11_cif.got.tgz:20336.got - 2010.06.03 17:49:19.
