data_PCOD9252156
_publ_section_title
;
Structure prediction by ZEFSAII (Michael W. Deem and Ramdas Pophale) SiO2 
 PCOD9252156
Probable space group: P 21/C
;
_chemical_formula_sum "Si O2"
_cell_formula_units_Z 24
_cell_length_a 10.298503
_cell_length_b 10.538660
_cell_length_c 11.426498
_cell_angle_alpha 90.000000
_cell_angle_beta 116.810944
_cell_angle_gamma 90.000000
_cell_volume 1106.829461
_symmetry_space_group_name_H-M "P 21/C"
_symmetry_group_IT_number 14
_symmetry_cell_setting 'monoclinic'
loop_
_space_group_symop_operation_xyz
x,y,z
-x,1/2+y,1/2-z
-x,-y,-z
x,1/2-y,1/2+z
loop_
_atom_site_type_symbol
_atom_site_label
_atom_site_fract_x
_atom_site_fract_y
_atom_site_fract_z
Si Si1 0.152290 0.328822 0.808748
Si Si2 0.347210 0.104273 0.978788
Si Si3 0.652753 0.039036 0.499538
Si Si4 0.823552 0.262543 0.209205
Si Si5 0.393068 0.569362 0.289008
Si Si6 0.166518 0.505899 0.604320
O O1 0.236135 0.208991 0.892311
O O2 0.195118 0.383231 0.698517
O O3 0.984647 0.282857 0.738147
O O4 0.213752 0.442640 0.916352
O O5 0.408767 0.049399 0.882308
O O6 0.473884 0.157184 0.113958
O O7 0.265537 0.002931 0.029451
O O8 0.720927 0.174339 0.567882
O O9 0.611571 0.038679 0.347369
O O10 0.500000 0.000000 0.500000
O O11 0.752926 0.138219 0.234322
O O12 0.819178 0.370297 0.308825
O O13 0.000000 0.500000 0.500000
#
# Coordination Sequence:
#
# PCOD9252156 Si02
#       6
#     4   4   4   4   4   4
#     4  11  25  43  71 101 136 182 227 286 344 406
#     4  11  25  44  67 102 136 177 233 278 348 404
#     4  11  26  50  69 100 142 182 229 283 350 408
#     4  11  25  43  71 103 135 180 230 281 347 407
#     4  11  26  43  71  99 134 181 231 282 335 422
#     4  11  23  44  68  97 142 175 221 284 345 403
#
# _framework density 21.683557
#
# number of rings (size 3 to 8) (size 9 to 14) (size 15 to 20)
#    0.000    1.000    1.667    4.000    9.333    0.667 
#    3.000    0.000    0.000    0.000    0.000    0.000 
#    0.000    0.000    0.000    0.000    0.000    0.000 
#
# Total GULP energy -133945.764871 kJ/mol
# GULP energy per Si atom -5581.073536 kJ/mol
# Density = 2.163420 g / cm^3
# Si number density = 21.683557 Si / 1000 Ang^3
#
#
#
# Elastic Constant Matrix: (Units=GPa)
#
#
# Indices 1 2 3 4 5 6 
#
# 1 106.4774 21.8337 52.9222 0.0000 -3.9261 0.0000
# 2 21.8337 43.1549 25.4243 0.0000 -8.7772 0.0000
# 3 52.9222 25.4243 169.4855 0.0000 -21.0863 0.0000
# 4 0.0000 0.0000 0.0000 19.1819 0.0000 -4.1912
# 5 -3.9261 -8.7772 -21.0863 0.0000 37.4973 0.0000
# 6 0.0000 0.0000 0.0000 -4.1912 0.0000 20.2532
#
#
#
# Elastic Compliance Matrix: (Units=1/GPa)
#
#
# Indices 1 2 3 4 5 6 
#
# 1 0.011847 -0.004414 -0.003238 0.000000 -0.001614 0.000000
# 2 -0.004414 0.027661 -0.002175 0.000000 0.004789 0.000000
# 3 -0.003238 -0.002175 0.007668 0.000000 0.003464 0.000000
# 4 0.000000 0.000000 0.000000 0.054601 0.000000 0.011299
# 5 -0.001614 0.004789 0.003464 0.000000 0.029569 0.000000
# 6 0.000000 0.000000 0.000000 0.011299 0.000000 0.051713
#
#
# Mechanical properties :
#
#
# Convention : Reuss Voigt Hill
#
# Bulk Modulus (GPa) = 36.33466 57.71981 47.02723
# Shear Modulus (GPa) = 23.59738 29.98232 26.78985
#
# Velocity S-wave (km/s) = 3.30246 3.72253 3.51877
# Velocity P-wave (km/s) = 5.59775 6.71962 6.18418
#
# Compressibility (1/GPa) = 0.02752193
#
# Stress axis : x y z
#
# Youngs Moduli (GPa) = 84.41261 36.15157 130.40425
#
# Poissons Ratio (x) = 0.15959 0.42221
# Poissons Ratio (y) = 0.37263 0.28365
# Poissons Ratio (z) = 0.27330 0.07864
#
# Static dielectric constant tensor:
#      x y z
#    x 1.688470 0.000000 0.083490 
#    y 0.000000 1.876560 0.000000 
#    z 0.083490 0.000000 1.772350 
# 
# From -- ./inp_files/24283.got.cif
#   From: 2010.05.17/outbox.cif.g08.bks.cpg/sg14_13_cif.got.tgz:24283.got - 2010.06.03 17:49:19.
