data_PCOD9252615
_publ_section_title
;
Structure prediction by ZEFSAII (Michael W. Deem and Ramdas Pophale) SiO2 
 PCOD9252615
Probable space group: P 21/C
;
_chemical_formula_sum "Si O2"
_cell_formula_units_Z 32
_cell_length_a 9.142062
_cell_length_b 12.357962
_cell_length_c 13.471056
_cell_angle_alpha 90.000000
_cell_angle_beta 59.111519
_cell_angle_gamma 90.000000
_cell_volume 1306.065756
_symmetry_space_group_name_H-M "P 21/C"
_symmetry_group_IT_number 14
_symmetry_cell_setting 'monoclinic'
loop_
_space_group_symop_operation_xyz
x,y,z
-x,1/2+y,1/2-z
-x,-y,-z
x,1/2-y,1/2+z
loop_
_atom_site_type_symbol
_atom_site_label
_atom_site_fract_x
_atom_site_fract_y
_atom_site_fract_z
Si Si1 0.336744 0.143303 0.799255
Si Si2 0.891389 0.362891 0.963068
Si Si3 0.321886 0.654403 0.464375
Si Si4 0.167161 0.110176 0.542660
Si Si5 0.513759 0.250589 0.404167
Si Si6 0.117168 0.061005 0.059204
Si Si7 0.856899 0.727027 0.284385
Si Si8 0.288199 0.920560 0.768172
O O1 0.490239 0.170781 0.818346
O O2 0.284571 0.240195 0.746390
O O3 0.354115 0.040202 0.722149
O O4 0.187161 0.111596 0.931205
O O5 0.814996 0.480730 0.965034
O O6 0.990586 0.319155 0.833106
O O7 0.759172 0.269607 0.035297
O O8 0.029925 0.369315 0.003485
O O9 0.444177 0.681259 0.512979
O O10 0.185422 0.561382 0.544159
O O11 0.384865 0.607378 0.337768
O O12 0.344617 0.174881 0.466112
O O13 0.097602 0.165661 0.667843
O O14 0.665158 0.168119 0.327843
O O15 0.191276 0.134465 0.120935
O O16 0.914024 0.074858 0.139630
#
# Coordination Sequence:
#
# PCOD9252615 Si02
#       8
#     4   4   4   4   4   4   4   4
#     4  11  25  46  71 103 147 191 246 306 365 437
#     4  11  25  48  73 107 149 196 245 304 360 451
#     4  11  26  45  75 105 146 188 250 303 370 433
#     4  11  27  47  72 109 152 192 246 308 374 437
#     4  12  27  47  68 115 149 191 245 309 381 439
#     4  11  24  47  76 109 142 191 256 307 355 454
#     4  12  22  42  79 102 139 196 243 300 361 433
#     4  11  26  45  73 104 147 196 248 305 370 445
#
# _framework density 24.501066000000002
#
# number of rings (size 3 to 8) (size 9 to 14) (size 15 to 20)
#    0.000    0.750    2.500    4.500    7.000    4.500 
#    2.250    0.000    0.000    0.000    0.000    0.000 
#    0.000    0.000    0.000    0.000    0.000    0.000 
#
# Total GULP energy -179155.111975 kJ/mol
# GULP energy per Si atom -5598.597249 kJ/mol
# Density = 2.444530 g / cm^3
# Si number density = 24.501066 Si / 1000 Ang^3
#
#
#
# Elastic Constant Matrix: (Units=GPa)
#
#
# Indices 1 2 3 4 5 6 
#
# 1 142.1337 53.9878 27.7218 0.0000 27.8584 0.0000
# 2 53.9878 139.5495 9.3807 0.0000 12.1369 0.0000
# 3 27.7218 9.3807 59.2157 0.0000 20.4919 0.0000
# 4 0.0000 0.0000 0.0000 42.2682 0.0000 11.1179
# 5 27.8584 12.1369 20.4919 0.0000 37.6961 0.0000
# 6 0.0000 0.0000 0.0000 11.1179 0.0000 41.1566
#
#
#
# Elastic Compliance Matrix: (Units=1/GPa)
#
#
# Indices 1 2 3 4 5 6 
#
# 1 0.009636 -0.003150 -0.002339 0.000000 -0.004836 0.000000
# 2 -0.003150 0.008411 0.000337 0.000000 -0.000563 0.000000
# 3 -0.002339 0.000337 0.021393 0.000000 -0.010009 0.000000
# 4 0.000000 0.000000 0.000000 0.025468 0.000000 -0.006880
# 5 -0.004836 -0.000563 -0.010009 0.000000 0.035724 0.000000
# 6 0.000000 0.000000 0.000000 -0.006880 0.000000 0.026156
#
#
# Mechanical properties :
#
#
# Convention : Reuss Voigt Hill
#
# Bulk Modulus (GPa) = 34.32105 58.11992 46.22049
# Shear Modulus (GPa) = 34.05915 40.87808 37.46861
#
# Velocity S-wave (km/s) = 3.73246 4.08906 3.91482
# Velocity P-wave (km/s) = 5.71082 6.78725 6.27217
#
# Compressibility (1/GPa) = 0.02913664
#
# Stress axis : x y z
#
# Youngs Moduli (GPa) = 103.77600 118.89261 46.74496
#
# Poissons Ratio (x) = 0.37453 0.10932
# Poissons Ratio (y) = 0.32691 -0.01577
# Poissons Ratio (z) = 0.24270 -0.04010
#
# Static dielectric constant tensor:
#      x y z
#    x 1.983060 0.000000 -0.033840 
#    y 0.000000 1.956510 0.000000 
#    z -0.033840 0.000000 1.985610 
# 
# From -- ./inp_files/40279.got.cif
#   From: 2010.05.17/outbox.cif.g08.bks.cpg/sg14_21_cif.got.tgz:40279.got - 2010.06.03 17:49:19.
