data_PCOD9252628
_publ_section_title
;
Structure prediction by ZEFSAII (Michael W. Deem and Ramdas Pophale) SiO2 
 PCOD9252628
Probable space group: P 21/C
;
_chemical_formula_sum "Si O2"
_cell_formula_units_Z 16
_cell_length_a 26.081468
_cell_length_b 5.404313
_cell_length_c 10.993539
_cell_angle_alpha 90.000000
_cell_angle_beta 155.046687
_cell_angle_gamma 90.000000
_cell_volume 653.730274
_symmetry_space_group_name_H-M "P 21/C"
_symmetry_group_IT_number 14
_symmetry_cell_setting 'monoclinic'
loop_
_space_group_symop_operation_xyz
x,y,z
-x,1/2+y,1/2-z
-x,-y,-z
x,1/2-y,1/2+z
loop_
_atom_site_type_symbol
_atom_site_label
_atom_site_fract_x
_atom_site_fract_y
_atom_site_fract_z
Si Si1 0.425573 0.204821 0.762930
Si Si2 0.984405 0.455360 0.655606
Si Si3 0.890686 0.292544 0.755970
Si Si4 0.651420 0.952524 0.671080
O O1 0.335289 0.289941 0.676381
O O2 0.365399 0.137957 0.503784
O O3 0.527734 0.401040 0.938248
O O4 0.500000 0.000000 0.000000
O O5 0.075380 0.551249 0.748814
O O6 0.047173 0.222297 0.856734
O O7 0.872609 0.311639 0.352459
O O8 0.773882 0.393776 0.439843
O O9 0.000000 0.500000 0.000000
#
# Coordination Sequence:
#
# PCOD9252628 Si02
#       4
#     4   4   4   4
#     4  11  24  50  75 109 151 203 271 332 403 469
#     4  11  24  48  72 109 165 208 258 320 405 491
#     4  11  26  46  73 118 157 208 266 329 408 492
#     4  11  26  47  77 114 152 208 267 336 402 484
#
# _framework density 24.474924999999999
#
# number of rings (size 3 to 8) (size 9 to 14) (size 15 to 20)
#    0.000    1.000    5.000    0.000    0.000   10.000 
#    0.000    0.000    0.000    0.000    0.000    0.000 
#    0.000    0.000    0.000    0.000    0.000    0.000 
#
# Total GULP energy -89080.495867 kJ/mol
# GULP energy per Si atom -5567.530992 kJ/mol
# Density = 2.441922 g / cm^3
# Si number density = 24.474925 Si / 1000 Ang^3
#
#
#
# Elastic Constant Matrix: (Units=GPa)
#
#
# Indices 1 2 3 4 5 6 
#
# 1 145.2599 59.3254 59.7826 0.0000 -56.1822 0.0000
# 2 59.3254 126.6443 46.4671 0.0000 -31.9477 0.0000
# 3 59.7826 46.4671 135.2991 0.0000 -40.6628 0.0000
# 4 0.0000 0.0000 0.0000 43.0360 0.0000 -3.6716
# 5 -56.1822 -31.9477 -40.6628 0.0000 37.5273 0.0000
# 6 0.0000 0.0000 0.0000 -3.6716 0.0000 40.1869
#
#
#
# Elastic Compliance Matrix: (Units=1/GPa)
#
#
# Indices 1 2 3 4 5 6 
#
# 1 0.016736 -0.001989 0.000459 0.000000 0.023859 0.000000
# 2 -0.001989 0.010450 -0.001381 0.000000 0.004422 0.000000
# 3 0.000459 -0.001381 0.011145 0.000000 0.011588 0.000000
# 4 0.000000 0.000000 0.000000 0.023419 0.000000 0.002140
# 5 0.023859 0.004422 0.011588 0.000000 0.078686 0.000000
# 6 0.000000 0.000000 0.000000 0.002140 0.000000 0.025079
#
#
# Mechanical properties :
#
#
# Convention : Reuss Voigt Hill
#
# Bulk Modulus (GPa) = 30.76168 82.03930 56.40049
# Shear Modulus (GPa) = 27.44621 40.25858 33.85239
#
# Velocity S-wave (km/s) = 3.35237 4.06013 3.72310
# Velocity P-wave (km/s) = 5.25171 7.45466 6.44796
#
# Compressibility (1/GPa) = 0.03250798
#
# Stress axis : x y z
#
# Youngs Moduli (GPa) = 59.75274 95.69189 89.72528
#
# Poissons Ratio (x) = 0.19037 -0.04118
# Poissons Ratio (y) = 0.11887 0.12392
# Poissons Ratio (z) = -0.02743 0.13216
#
# Static dielectric constant tensor:
#      x y z
#    x 2.346530 0.000000 0.105470 
#    y 0.000000 2.234990 0.000000 
#    z 0.105470 0.000000 2.348330 
# 
# From -- ./inp_files/36356.got.cif
#   From: 2010.05.17/outbox.cif.g08.bks.cpg/sg14_19_cif.got.tgz:36356.got - 2010.06.03 17:49:19.
