data_PCOD9252203
_publ_section_title
;
Structure prediction by ZEFSAII (Michael W. Deem and Ramdas Pophale) SiO2 
 PCOD9252203
Probable space group: P 21/C
;
_chemical_formula_sum "Si O2"
_cell_formula_units_Z 24
_cell_length_a 6.527291
_cell_length_b 8.303567
_cell_length_c 20.672039
_cell_angle_alpha 90.000000
_cell_angle_beta 73.359883
_cell_angle_gamma 90.000000
_cell_volume 1073.499723
_symmetry_space_group_name_H-M "P 21/C"
_symmetry_group_IT_number 14
_symmetry_cell_setting 'monoclinic'
loop_
_space_group_symop_operation_xyz
x,y,z
-x,1/2+y,1/2-z
-x,-y,-z
x,1/2-y,1/2+z
loop_
_atom_site_type_symbol
_atom_site_label
_atom_site_fract_x
_atom_site_fract_y
_atom_site_fract_z
Si Si1 0.079317 0.571654 0.425468
Si Si2 0.640729 0.069940 0.407604
Si Si3 0.197119 0.269622 0.653284
Si Si4 0.778761 0.086187 0.536851
Si Si5 0.456169 0.521668 0.308709
Si Si6 0.225277 0.765510 0.728285
O O1 0.172145 0.751998 0.428724
O O2 0.272961 0.471172 0.376383
O O3 0.000000 0.500000 0.500000
O O4 0.892041 0.599913 0.390128
O O5 0.669078 0.129558 0.478096
O O6 0.757437 0.188472 0.347980
O O7 0.747730 0.894545 0.388692
O O8 0.390663 0.035921 0.415395
O O9 0.401628 0.339262 0.671222
O O10 0.008987 0.238376 0.722027
O O11 0.000000 0.000000 0.500000
O O12 0.622416 0.385744 0.274512
O O13 0.328978 0.588103 0.258867
#
# Coordination Sequence:
#
# PCOD9252203 Si02
#       6
#     4   4   4   4   4   4
#     4  11  26  43  66  99 134 169 217 268 323 381
#     4  11  24  43  69  96 129 172 221 262 328 382
#     4  11  23  45  66  96 130 172 216 270 319 384
#     4  11  24  43  68  96 131 175 214 267 320 388
#     4  11  25  45  66  94 135 167 217 271 320 385
#     4  11  26  42  69  97 128 175 214 269 326 384
#
# _framework density 22.356781999999999
#
# number of rings (size 3 to 8) (size 9 to 14) (size 15 to 20)
#    0.000    1.000    3.333    2.000    7.000    3.333 
#    0.000    0.000    0.000    0.000    0.000    0.000 
#    0.000    0.000    0.000    0.000    0.000    0.000 
#
# Total GULP energy -134323.861350 kJ/mol
# GULP energy per Si atom -5596.827556 kJ/mol
# Density = 2.230590 g / cm^3
# Si number density = 22.356782 Si / 1000 Ang^3
#
#
#
# Elastic Constant Matrix: (Units=GPa)
#
#
# Indices 1 2 3 4 5 6 
#
# 1 69.7939 -2.6041 10.5178 0.0000 -23.3016 0.0000
# 2 -2.6041 28.8759 -6.4576 0.0000 -9.7796 0.0000
# 3 10.5178 -6.4576 80.6759 0.0000 -21.1072 0.0000
# 4 0.0000 0.0000 0.0000 34.7610 0.0000 -7.0681
# 5 -23.3016 -9.7796 -21.1072 0.0000 43.6299 0.0000
# 6 0.0000 0.0000 0.0000 -7.0681 0.0000 17.8559
#
#
#
# Elastic Compliance Matrix: (Units=1/GPa)
#
#
# Indices 1 2 3 4 5 6 
#
# 1 0.018246 0.005822 0.001120 0.000000 0.011592 0.000000
# 2 0.005822 0.042007 0.006732 0.000000 0.015782 0.000000
# 3 0.001120 0.006732 0.015273 0.000000 0.009496 0.000000
# 4 0.000000 0.000000 0.000000 0.031286 0.000000 0.012384
# 5 0.011592 0.015782 0.009496 0.000000 0.037242 0.000000
# 6 0.000000 0.000000 0.000000 0.012384 0.000000 0.060906
#
#
# Mechanical properties :
#
#
# Convention : Reuss Voigt Hill
#
# Bulk Modulus (GPa) = 9.72064 20.25088 14.98576
# Shear Modulus (GPa) = 23.59573 31.10867 27.35220
#
# Velocity S-wave (km/s) = 3.25224 3.73428 3.50157
# Velocity P-wave (km/s) = 4.29653 5.26031 4.80266
#
# Compressibility (1/GPa) = 0.10287383
#
# Stress axis : x y z
#
# Youngs Moduli (GPa) = 54.80532 23.80579 65.47716
#
# Poissons Ratio (x) = -0.13859 -0.07333
# Poissons Ratio (y) = -0.31907 -0.44082
# Poissons Ratio (z) = -0.06138 -0.16027
#
# Static dielectric constant tensor:
#      x y z
#    x 1.818530 0.000000 0.005660 
#    y 0.000000 1.810420 0.000000 
#    z 0.005660 0.000000 1.822990 
# 
# From -- ./inp_files/70987.got.cif
#   From: 2010.05.17/outbox.cif.g08.bks.cpg/sg14_36_cif.got.tgz:70987.got - 2010.06.03 17:49:19.
