data_PCOD9252351
_publ_section_title
;
Structure prediction by ZEFSAII (Michael W. Deem and Ramdas Pophale) SiO2 
 PCOD9252351
Probable space group: P 21/C
;
_chemical_formula_sum "Si O2"
_cell_formula_units_Z 32
_cell_length_a 12.612823
_cell_length_b 7.105048
_cell_length_c 14.138095
_cell_angle_alpha 90.000000
_cell_angle_beta 65.814622
_cell_angle_gamma 90.000000
_cell_volume 1155.771657
_symmetry_space_group_name_H-M "P 21/C"
_symmetry_group_IT_number 14
_symmetry_cell_setting 'monoclinic'
loop_
_space_group_symop_operation_xyz
x,y,z
-x,1/2+y,1/2-z
-x,-y,-z
x,1/2-y,1/2+z
loop_
_atom_site_type_symbol
_atom_site_label
_atom_site_fract_x
_atom_site_fract_y
_atom_site_fract_z
Si Si1 0.009591 0.400003 0.748480
Si Si2 0.847390 0.678952 0.137861
Si Si3 0.625523 0.712657 0.012980
Si Si4 0.343340 0.645164 0.437807
Si Si5 0.175713 0.772599 0.839709
Si Si6 0.402682 0.315726 0.690364
Si Si7 0.126078 0.205430 0.577237
Si Si8 0.617444 0.254211 0.863220
O O1 0.930011 0.341505 0.687852
O O2 0.940415 0.549481 0.836543
O O3 0.060184 0.266750 0.814423
O O4 0.129548 0.395211 0.641550
O O5 0.841351 0.451966 0.147141
O O6 0.712017 0.736886 0.205850
O O7 0.907429 0.741387 0.018593
O O8 0.746760 0.618634 0.989131
O O9 0.613319 0.718178 0.905144
O O10 0.506419 0.644881 0.101184
O O11 0.638458 0.926410 0.044548
O O12 0.223447 0.668538 0.424752
O O13 0.459706 0.710585 0.336320
O O14 0.350973 0.743781 0.537472
O O15 0.281449 0.837920 0.734781
O O16 0.392296 0.538776 0.670368
#
# Coordination Sequence:
#
# PCOD9252351 Si02
#       8
#     4   4   4   4   4   4   4   4
#     4  12  27  48  68  99 136 182 237 282 348 413
#     4  11  24  46  70  98 139 190 224 289 359 402
#     4   9  18  41  67 100 136 179 230 284 347 412
#     4   9  19  36  67 106 131 181 232 275 347 422
#     4  11  24  41  69 101 144 180 230 293 339 419
#     4   8  16  38  69  95 137 180 223 276 347 420
#     4  12  27  46  75  98 137 184 233 292 346 413
#     4   8  18  36  66  99 141 180 218 284 353 408
#
# _framework density 27.687128999999999
#
# number of rings (size 3 to 8) (size 9 to 14) (size 15 to 20)
#    0.000    2.000    2.500    1.875    3.500    1.000 
#    0.000    4.375    0.000    0.000    0.000    0.000 
#    0.000    0.000    0.000    0.000    0.000    0.000 
#
# Total GULP energy -178592.697124 kJ/mol
# GULP energy per Si atom -5581.021785 kJ/mol
# Density = 2.762411 g / cm^3
# Si number density = 27.687129 Si / 1000 Ang^3
#
#
#
# Elastic Constant Matrix: (Units=GPa)
#
#
# Indices 1 2 3 4 5 6 
#
# 1 105.0436 -2.7087 29.6234 0.0000 18.7621 0.0000
# 2 -2.7087 67.2561 7.5622 0.0000 -1.9052 0.0000
# 3 29.6234 7.5622 180.1419 0.0000 3.8403 0.0000
# 4 0.0000 0.0000 0.0000 32.1532 0.0000 2.9012
# 5 18.7621 -1.9052 3.8403 0.0000 46.0724 0.0000
# 6 0.0000 0.0000 0.0000 2.9012 0.0000 14.0593
#
#
#
# Elastic Compliance Matrix: (Units=1/GPa)
#
#
# Indices 1 2 3 4 5 6 
#
# 1 0.010767 0.000505 -0.001702 0.000000 -0.004222 0.000000
# 2 0.000505 0.014984 -0.000722 0.000000 0.000474 0.000000
# 3 -0.001702 -0.000722 0.005858 0.000000 0.000175 0.000000
# 4 0.000000 0.000000 0.000000 0.031691 0.000000 -0.006540
# 5 -0.004222 0.000474 0.000175 0.000000 0.023429 0.000000
# 6 0.000000 0.000000 0.000000 -0.006540 0.000000 0.072477
#
#
# Mechanical properties :
#
#
# Convention : Reuss Voigt Hill
#
# Bulk Modulus (GPa) = 36.00903 46.82172 41.41537
# Shear Modulus (GPa) = 29.01925 39.65462 34.33694
#
# Velocity S-wave (km/s) = 3.24097 3.78860 3.52544
# Velocity P-wave (km/s) = 5.19991 6.00714 5.61804
#
# Compressibility (1/GPa) = 0.02777081
#
# Stress axis : x y z
#
# Youngs Moduli (GPa) = 92.87738 66.74001 170.71795
#
# Poissons Ratio (x) = -0.03373 0.29052
# Poissons Ratio (y) = -0.04694 0.12329
# Poissons Ratio (z) = 0.15806 0.04820
#
# Static dielectric constant tensor:
#      x y z
#    x 2.366920 0.000000 -0.046930 
#    y 0.000000 2.324960 0.000000 
#    z -0.046930 0.000000 2.136570 
# 
# From -- ./inp_files/29051.got.cif
#   From: 2010.05.17/outbox.cif.g08.bks.cpg/sg14_15_cif.got.tgz:29051.got - 2010.06.03 17:49:19.
