data_PCOD9252924
_publ_section_title
;
Structure prediction by ZEFSAII (Michael W. Deem and Ramdas Pophale) SiO2 
 PCOD9252924
Probable space group: P 21/C
;
_chemical_formula_sum "Si O2"
_cell_formula_units_Z 32
_cell_length_a 14.778341
_cell_length_b 11.226931
_cell_length_c 8.806272
_cell_angle_alpha 90.000000
_cell_angle_beta 71.752134
_cell_angle_gamma 90.000000
_cell_volume 1387.618893
_symmetry_space_group_name_H-M "P 21/C"
_symmetry_group_IT_number 14
_symmetry_cell_setting 'monoclinic'
loop_
_space_group_symop_operation_xyz
x,y,z
-x,1/2+y,1/2-z
-x,-y,-z
x,1/2-y,1/2+z
loop_
_atom_site_type_symbol
_atom_site_label
_atom_site_fract_x
_atom_site_fract_y
_atom_site_fract_z
Si Si1 0.331133 0.719524 0.400554
Si Si2 0.585305 0.530289 0.570260
Si Si3 0.895838 0.968598 0.857629
Si Si4 0.451860 0.576741 0.896582
Si Si5 0.744494 0.684395 0.314372
Si Si6 0.269735 0.083485 0.508514
Si Si7 0.116707 0.946185 0.791781
Si Si8 0.196027 0.691700 0.730503
O O1 0.372819 0.587192 0.367311
O O2 0.406993 0.796043 0.454625
O O3 0.233814 0.710784 0.542218
O O4 0.293797 0.793271 0.275247
O O5 0.500000 0.500000 0.500000
O O6 0.529975 0.602627 0.727706
O O7 0.668973 0.596309 0.436521
O O8 0.854822 0.064803 0.756801
O O9 0.846381 0.845146 0.837173
O O10 0.868903 0.997796 0.047643
O O11 0.009520 0.970536 0.794743
O O12 0.360359 0.494163 0.909883
O O13 0.500000 0.500000 0.000000
O O14 0.755095 0.655657 0.131382
O O15 0.711243 0.816947 0.372881
O O16 0.191513 0.997927 0.629175
O O17 0.130409 0.804165 0.800633
#
# Coordination Sequence:
#
# PCOD9252924 Si02
#       8
#     4   4   4   4   4   4   4   4
#     4  12  25  45  71 102 142 192 246 298 353 426
#     4  12  26  45  71 103 144 193 245 300 356 427
#     4  11  26  48  75 108 146 189 238 302 363 436
#     4  12  28  42  70 108 146 191 243 296 360 427
#     4  12  27  48  72 103 149 192 238 301 367 431
#     4  12  28  49  71 105 147 192 237 300 365 438
#     4  11  26  48  75 109 144 187 243 296 367 438
#     4  12  22  46  75 102 142 190 239 302 357 425
#
# _framework density 23.061087000000001
#
# number of rings (size 3 to 8) (size 9 to 14) (size 15 to 20)
#    0.000    0.250    5.000    3.000    8.750    0.500 
#    0.000    0.000    0.000    0.000    0.000    0.000 
#    0.000    0.000    0.000    0.000    0.000    0.000 
#
# Total GULP energy -178809.273499 kJ/mol
# GULP energy per Si atom -5587.789797 kJ/mol
# Density = 2.300860 g / cm^3
# Si number density = 23.061087 Si / 1000 Ang^3
#
#
#
# Elastic Constant Matrix: (Units=GPa)
#
#
# Indices 1 2 3 4 5 6 
#
# 1 87.9051 19.1494 39.0533 0.0000 -0.4656 0.0000
# 2 19.1494 84.1815 -0.3578 0.0000 -6.2991 0.0000
# 3 39.0533 -0.3578 66.7932 0.0000 0.9202 0.0000
# 4 0.0000 0.0000 0.0000 29.5437 0.0000 2.8554
# 5 -0.4656 -6.2991 0.9202 0.0000 11.7025 0.0000
# 6 0.0000 0.0000 0.0000 2.8554 0.0000 37.4519
#
#
#
# Elastic Compliance Matrix: (Units=1/GPa)
#
#
# Indices 1 2 3 4 5 6 
#
# 1 0.016501 -0.003844 -0.009660 0.000000 -0.000653 0.000000
# 2 -0.003844 0.013273 0.002224 0.000000 0.006817 0.000000
# 3 -0.009660 0.002224 0.020643 0.000000 -0.000810 0.000000
# 4 0.000000 0.000000 0.000000 0.034099 0.000000 -0.002600
# 5 -0.000653 0.006817 -0.000810 0.000000 0.089159 0.000000
# 6 0.000000 0.000000 0.000000 -0.002600 0.000000 0.026899
#
#
# Mechanical properties :
#
#
# Convention : Reuss Voigt Hill
#
# Bulk Modulus (GPa) = 35.89476 39.39662 37.64569
# Shear Modulus (GPa) = 21.51296 27.80860 24.66078
#
# Velocity S-wave (km/s) = 3.05760 3.47633 3.27367
# Velocity P-wave (km/s) = 5.29756 5.76488 5.53615
#
# Compressibility (1/GPa) = 0.02785922
#
# Stress axis : x y z
#
# Youngs Moduli (GPa) = 60.60159 75.34121 48.44354
#
# Poissons Ratio (x) = 0.28958 0.46795
# Poissons Ratio (y) = 0.23293 -0.10776
# Poissons Ratio (z) = 0.58539 -0.16760
#
# Static dielectric constant tensor:
#      x y z
#    x 1.886620 0.000000 0.044550 
#    y 0.000000 1.899100 0.000000 
#    z 0.044550 0.000000 1.877270 
# 
# From -- ./inp_files/15762.got.cif
#   From: 2010.05.17/outbox.cif.g08.bks.cpg/sg14_8_cif.got.tgz:15762.got - 2010.06.03 17:49:19.
