data_PCOD9252268
_publ_section_title
;
Structure prediction by ZEFSAII (Michael W. Deem and Ramdas Pophale) SiO2 
 PCOD9252268
Probable space group: P 21/C
;
_chemical_formula_sum "Si O2"
_cell_formula_units_Z 20
_cell_length_a 6.307851
_cell_length_b 11.839739
_cell_length_c 10.962974
_cell_angle_alpha 90.000000
_cell_angle_beta 101.008346
_cell_angle_gamma 90.000000
_cell_volume 803.685650
_symmetry_space_group_name_H-M "P 21/C"
_symmetry_group_IT_number 14
_symmetry_cell_setting 'monoclinic'
loop_
_space_group_symop_operation_xyz
x,y,z
-x,1/2+y,1/2-z
-x,-y,-z
x,1/2-y,1/2+z
loop_
_atom_site_type_symbol
_atom_site_label
_atom_site_fract_x
_atom_site_fract_y
_atom_site_fract_z
Si Si1 0.519288 0.001802 0.145266
Si Si2 0.416251 0.367977 0.980565
Si Si3 0.771642 0.290445 0.627503
Si Si4 0.130365 0.431618 0.741420
Si Si5 0.874018 0.618534 0.816184
O O1 0.612603 0.127528 0.184389
O O2 0.294830 0.988979 0.188003
O O3 0.681109 0.904920 0.202721
O O4 0.500000 0.000000 0.000000
O O5 0.618654 0.282857 0.021887
O O6 0.244158 0.349473 0.071433
O O7 0.500000 0.500000 0.000000
O O8 0.286125 0.353915 0.840656
O O9 0.965039 0.381128 0.622930
O O10 0.934105 0.200131 0.704269
O O11 0.992551 0.497201 0.828633
#
# Coordination Sequence:
#
# PCOD9252268 Si02
#       5
#     4   4   4   4   4
#     4  11  26  49  67 100 148 185 231 286 343 419
#     4  12  23  46  74 103 140 179 234 293 341 419
#     4  11  26  42  71 105 136 187 232 284 350 408
#     4  11  25  46  71 103 141 182 232 287 353 409
#     4  11  23  46  71 102 137 180 236 286 349 407
#
# _framework density 24.885355000000001
#
# number of rings (size 3 to 8) (size 9 to 14) (size 15 to 20)
#    0.000    0.800    4.000    1.800    2.800    3.200 
#   10.800    0.000    0.000    0.000    0.000    0.000 
#    0.000    0.000    0.000    0.000    0.000    0.000 
#
# Total GULP energy -111461.199296 kJ/mol
# GULP energy per Si atom -5573.059965 kJ/mol
# Density = 2.482871 g / cm^3
# Si number density = 24.885355 Si / 1000 Ang^3
#
#
#
# Elastic Constant Matrix: (Units=GPa)
#
#
# Indices 1 2 3 4 5 6 
#
# 1 162.1286 45.2154 64.8739 0.0000 20.0137 0.0000
# 2 45.2154 85.6864 -4.5146 0.0000 7.4882 0.0000
# 3 64.8739 -4.5146 101.9468 0.0000 1.7251 0.0000
# 4 0.0000 0.0000 0.0000 20.6989 0.0000 19.7135
# 5 20.0137 7.4882 1.7251 0.0000 34.5402 0.0000
# 6 0.0000 0.0000 0.0000 19.7135 0.0000 45.8094
#
#
#
# Elastic Compliance Matrix: (Units=1/GPa)
#
#
# Indices 1 2 3 4 5 6 
#
# 1 0.011436 -0.005995 -0.007459 0.000000 -0.004954 0.000000
# 2 -0.005995 0.015071 0.004482 0.000000 -0.000018 0.000000
# 3 -0.007459 0.004482 0.014710 0.000000 0.002615 0.000000
# 4 0.000000 0.000000 0.000000 0.081864 0.000000 -0.035229
# 5 -0.004954 -0.000018 0.002615 0.000000 0.031696 0.000000
# 6 0.000000 0.000000 0.000000 -0.035229 0.000000 0.036990
#
#
# Mechanical properties :
#
#
# Convention : Reuss Voigt Hill
#
# Bulk Modulus (GPa) = 42.96470 62.32346 52.64408
# Shear Modulus (GPa) = 22.99201 36.48884 29.74043
#
# Velocity S-wave (km/s) = 3.04290 3.83335 3.46077
# Velocity P-wave (km/s) = 5.44501 6.68516 6.09670
#
# Compressibility (1/GPa) = 0.02327492
#
# Stress axis : x y z
#
# Youngs Moduli (GPa) = 87.44401 66.35067 67.98218
#
# Poissons Ratio (x) = 0.39774 0.50707
# Poissons Ratio (y) = 0.52419 -0.30472
# Poissons Ratio (z) = 0.65223 -0.29741
#
# Static dielectric constant tensor:
#      x y z
#    x 1.945540 0.000000 0.063210 
#    y 0.000000 2.140660 0.000000 
#    z 0.063210 0.000000 1.910260 
# 
# From -- ./inp_files/20870.got.cif
#   From: 2010.05.17/outbox.cif.g08.bks.cpg/sg14_11_cif.got.tgz:20870.got - 2010.06.03 17:49:19.
