data_PCOD9252030
_publ_section_title
;
Structure prediction by ZEFSAII (Michael W. Deem and Ramdas Pophale) SiO2 
 PCOD9252030
Probable space group: P 21/C
;
_chemical_formula_sum "Si O2"
_cell_formula_units_Z 28
_cell_length_a 5.404087
_cell_length_b 13.935983
_cell_length_c 16.490387
_cell_angle_alpha 90.000000
_cell_angle_beta 63.565631
_cell_angle_gamma 90.000000
_cell_volume 1112.063655
_symmetry_space_group_name_H-M "P 21/C"
_symmetry_group_IT_number 14
_symmetry_cell_setting 'monoclinic'
loop_
_space_group_symop_operation_xyz
x,y,z
-x,1/2+y,1/2-z
-x,-y,-z
x,1/2-y,1/2+z
loop_
_atom_site_type_symbol
_atom_site_label
_atom_site_fract_x
_atom_site_fract_y
_atom_site_fract_z
Si Si1 0.216234 0.443733 0.554761
Si Si2 0.202182 0.417380 0.941482
Si Si3 0.328961 0.696397 0.027617
Si Si4 0.249069 0.442938 0.366860
Si Si5 0.715765 0.206199 0.797361
Si Si6 0.238717 0.256835 0.657051
Si Si7 0.525154 0.886529 0.751735
O O1 0.500000 0.500000 0.500000
O O2 0.140418 0.419817 0.472316
O O3 0.187255 0.340654 0.599442
O O4 0.031541 0.519641 0.633668
O O5 0.443835 0.378197 0.965765
O O6 0.349924 0.450218 0.837447
O O7 0.982403 0.335767 0.947001
O O8 0.000000 0.500000 0.000000
O O9 0.300852 0.777197 0.102703
O O10 0.471774 0.718730 0.920279
O O11 0.459916 0.361384 0.310574
O O12 0.410850 0.544361 0.337543
O O13 0.674075 0.312529 0.765235
O O14 0.004157 0.178878 0.711709
O O15 0.265011 0.315189 0.736194
#
# Coordination Sequence:
#
# PCOD9252030 Si02
#       7
#     4   4   4   4   4   4   4
#     4  11  23  41  71 104 139 183 243 319 388 450
#     4  11  26  49  70 103 146 197 246 310 366 453
#     4  11  26  45  74 104 145 195 251 303 382 444
#     4  11  24  42  70 105 141 189 247 307 390 454
#     4  11  25  46  66 108 150 197 244 318 377 467
#     4  12  24  44  71 103 148 192 247 321 380 457
#     4  11  25  44  71 101 146 187 252 309 375 458
#
# _framework density 25.178415000000001
#
# number of rings (size 3 to 8) (size 9 to 14) (size 15 to 20)
#    0.000    0.857    5.714    0.429    4.000    3.429 
#    0.000    0.000    0.000    0.000    0.000    0.000 
#    0.000    0.000    0.000    0.000    0.000    0.000 
#
# Total GULP energy -156140.129904 kJ/mol
# GULP energy per Si atom -5576.433211 kJ/mol
# Density = 2.512111 g / cm^3
# Si number density = 25.178415 Si / 1000 Ang^3
#
#
#
# Elastic Constant Matrix: (Units=GPa)
#
#
# Indices 1 2 3 4 5 6 
#
# 1 52.7648 2.8191 -9.1588 0.0000 -15.0087 0.0000
# 2 2.8191 53.9472 5.0858 0.0000 -7.9424 0.0000
# 3 -9.1588 5.0858 92.2110 0.0000 -20.9917 0.0000
# 4 0.0000 0.0000 0.0000 37.8094 0.0000 -14.7618
# 5 -15.0087 -7.9424 -20.9917 0.0000 42.3700 0.0000
# 6 0.0000 0.0000 0.0000 -14.7618 0.0000 31.6834
#
#
#
# Elastic Compliance Matrix: (Units=1/GPa)
#
#
# Indices 1 2 3 4 5 6 
#
# 1 0.022685 -0.000103 0.004603 0.000000 0.010297 0.000000
# 2 -0.000103 0.019069 -0.000289 0.000000 0.003395 0.000000
# 3 0.004603 -0.000289 0.013161 0.000000 0.008097 0.000000
# 4 0.000000 0.000000 0.000000 0.032329 0.000000 0.015063
# 5 0.010297 0.003395 0.008097 0.000000 0.031897 0.000000
# 6 0.000000 0.000000 0.000000 0.015063 0.000000 0.038580
#
#
# Mechanical properties :
#
#
# Convention : Reuss Voigt Hill
#
# Bulk Modulus (GPa) = 15.78875 21.82391 18.80633
# Shear Modulus (GPa) = 29.34043 35.71771 32.52907
#
# Velocity S-wave (km/s) = 3.41735 3.77050 3.59826
# Velocity P-wave (km/s) = 4.67498 5.25757 4.97481
#
# Compressibility (1/GPa) = 0.06333623
#
# Stress axis : x y z
#
# Youngs Moduli (GPa) = 44.08115 52.44094 75.98185
#
# Poissons Ratio (x) = 0.00542 -0.34974
# Poissons Ratio (y) = 0.00456 0.02198
# Poissons Ratio (z) = -0.20291 0.01517
#
# Static dielectric constant tensor:
#      x y z
#    x 2.235540 0.000000 0.016370 
#    y 0.000000 2.066640 0.000000 
#    z 0.016370 0.000000 1.996260 
# 
# From -- ./inp_files/53402.got.cif
#   From: 2010.05.17/outbox.cif.g08.bks.cpg/sg14_27_cif.got.tgz:53402.got - 2010.06.03 17:49:19.
