data_PCOD9252991
_publ_section_title
;
Structure prediction by ZEFSAII (Michael W. Deem and Ramdas Pophale) SiO2 
 PCOD9252991
Probable space group: P 21/C
;
_chemical_formula_sum "Si O2"
_cell_formula_units_Z 20
_cell_length_a 20.314493
_cell_length_b 8.200052
_cell_length_c 18.554995
_cell_angle_alpha 90.000000
_cell_angle_beta 13.233408
_cell_angle_gamma 90.000000
_cell_volume 707.561734
_symmetry_space_group_name_H-M "P 21/C"
_symmetry_group_IT_number 14
_symmetry_cell_setting 'monoclinic'
loop_
_space_group_symop_operation_xyz
x,y,z
-x,1/2+y,1/2-z
-x,-y,-z
x,1/2-y,1/2+z
loop_
_atom_site_type_symbol
_atom_site_label
_atom_site_fract_x
_atom_site_fract_y
_atom_site_fract_z
Si Si1 0.768418 0.117036 0.211524
Si Si2 0.885471 0.822541 0.564970
Si Si3 0.085160 0.850166 0.721597
Si Si4 0.381892 0.634112 0.719294
Si Si5 0.376312 0.500049 0.388180
O O1 0.789722 0.196349 0.109352
O O2 0.500000 0.000000 0.500000
O O3 0.877278 0.808858 0.009552
O O4 0.812562 0.276067 0.217937
O O5 0.000000 0.500000 0.500000
O O6 0.651064 0.829372 0.878532
O O7 0.262750 0.682573 0.519998
O O8 0.334554 0.983719 0.468239
O O9 0.827455 0.508564 0.085919
O O10 0.882136 0.900150 0.872316
O O11 0.512947 0.576692 0.654649
#
# Coordination Sequence:
#
# PCOD9252991 Si02
#       5
#     4   4   4   4   4
#     4  12  27  46  71 118 162 196 247 331 405 455
#     4  11  27  50  84 115 155 208 270 324 391 480
#     4  12  29  52  79 115 160 214 263 327 399 476
#     4  11  27  51  85 115 155 209 272 322 395 484
#     4  12  29  52  79 115 159 214 265 324 401 476
#
# _framework density 28.266086000000001
#
# number of rings (size 3 to 8) (size 9 to 14) (size 15 to 20)
#    0.000    0.400    2.000    4.200   14.000    4.800 
#    0.000    0.000    0.000    0.000    0.000    0.000 
#    0.000    0.000    0.000    0.000    0.000    0.000 
#
# Total GULP energy -112055.199563 kJ/mol
# GULP energy per Si atom -5602.759978 kJ/mol
# Density = 2.820175 g / cm^3
# Si number density = 28.266086 Si / 1000 Ang^3
#
#
#
# Elastic Constant Matrix: (Units=GPa)
#
#
# Indices 1 2 3 4 5 6 
#
# 1 143.2377 68.3007 49.9401 0.0000 -37.4855 0.0000
# 2 68.3007 133.9382 64.8510 0.0000 -18.7433 0.0000
# 3 49.9401 64.8510 176.0785 0.0000 -25.8927 0.0000
# 4 0.0000 0.0000 0.0000 73.2710 0.0000 -11.6311
# 5 -37.4855 -18.7433 -25.8927 0.0000 72.4964 0.0000
# 6 0.0000 0.0000 0.0000 -11.6311 0.0000 58.7199
#
#
#
# Elastic Compliance Matrix: (Units=1/GPa)
#
#
# Indices 1 2 3 4 5 6 
#
# 1 0.010361 -0.004367 -0.000748 0.000000 0.003961 0.000000
# 2 -0.004367 0.011030 -0.002888 0.000000 -0.000438 0.000000
# 3 -0.000748 -0.002888 0.007165 0.000000 0.001426 0.000000
# 4 0.000000 0.000000 0.000000 0.014091 0.000000 0.002791
# 5 0.003961 -0.000438 0.001426 0.000000 0.016238 0.000000
# 6 0.000000 0.000000 0.000000 0.002791 0.000000 0.017583
#
#
# Mechanical properties :
#
#
# Convention : Reuss Voigt Hill
#
# Bulk Modulus (GPa) = 79.68215 91.04866 85.36540
# Shear Modulus (GPa) = 51.72875 58.90829 55.31852
#
# Velocity S-wave (km/s) = 4.28257 4.57011 4.42867
# Velocity P-wave (km/s) = 7.25982 7.75429 7.51113
#
# Compressibility (1/GPa) = 0.01254986
#
# Stress axis : x y z
#
# Youngs Moduli (GPa) = 96.51375 90.65876 139.57186
#
# Poissons Ratio (x) = 0.39593 0.10435
# Poissons Ratio (y) = 0.42150 0.40313
# Poissons Ratio (z) = 0.07216 0.26185
#
# Static dielectric constant tensor:
#      x y z
#    x 2.247700 0.000000 0.116720 
#    y 0.000000 2.293800 0.000000 
#    z 0.116720 0.000000 2.369380 
# 
# From -- ./inp_files/78438.got.cif
#   From: 2010.05.17/outbox.cif.g08.bks.cpg/sg14_40_cif.got.tgz:78438.got - 2010.06.03 17:49:19.
