data_PCOD9252574
_publ_section_title
;
Structure prediction by ZEFSAII (Michael W. Deem and Ramdas Pophale) SiO2 
 PCOD9252574
Probable space group: P 21/C
;
_chemical_formula_sum "Si O2"
_cell_formula_units_Z 28
_cell_length_a 9.474300
_cell_length_b 11.455176
_cell_length_c 15.117050
_cell_angle_alpha 90.000000
_cell_angle_beta 135.480391
_cell_angle_gamma 90.000000
_cell_volume 1150.347220
_symmetry_space_group_name_H-M "P 21/C"
_symmetry_group_IT_number 14
_symmetry_cell_setting 'monoclinic'
loop_
_space_group_symop_operation_xyz
x,y,z
-x,1/2+y,1/2-z
-x,-y,-z
x,1/2-y,1/2+z
loop_
_atom_site_type_symbol
_atom_site_label
_atom_site_fract_x
_atom_site_fract_y
_atom_site_fract_z
Si Si1 0.280919 0.835107 0.680045
Si Si2 0.500864 0.766505 0.602739
Si Si3 0.418095 0.493504 0.588799
Si Si4 0.168339 0.388664 0.997226
Si Si5 0.818330 0.680476 0.630644
Si Si6 0.614921 0.429719 0.245522
Si Si7 0.765129 0.071755 0.629868
O O1 0.421950 0.829205 0.655824
O O2 0.382054 0.918142 0.798854
O O3 0.287590 0.699683 0.712114
O O4 0.054279 0.879963 0.559387
O O5 0.436585 0.630926 0.580392
O O6 0.729922 0.749653 0.675289
O O7 0.389907 0.831664 0.473709
O O8 0.307771 0.430757 0.459385
O O9 0.308060 0.497560 0.636110
O O10 0.190889 0.265864 0.957160
O O11 0.180159 0.483554 0.924073
O O12 0.371444 0.409313 0.145017
O O13 0.034443 0.635806 0.752013
O O14 0.666292 0.484024 0.173390
#
# Coordination Sequence:
#
# PCOD9252574 Si02
#       7
#     4   4   4   4   4   4   4
#     4  11  24  47  71 108 145 188 246 295 362 429
#     4  11  26  46  74 105 141 189 239 298 359 428
#     4  11  25  46  74 101 145 184 239 301 365 421
#     4  12  25  45  75 103 145 193 239 297 362 424
#     4  12  26  45  73 104 143 188 236 295 364 430
#     4  11  24  46  73 105 146 189 241 307 354 430
#     4  12  26  45  72 110 145 188 247 293 361 435
#
# _framework density 24.340477
#
# number of rings (size 3 to 8) (size 9 to 14) (size 15 to 20)
#    0.000    0.571    4.286    2.571    4.000    5.143 
#    0.000    0.000    0.000    0.000    0.000    0.000 
#    0.000    0.000    0.000    0.000    0.000    0.000 
#
# Total GULP energy -156675.205342 kJ/mol
# GULP energy per Si atom -5595.543048 kJ/mol
# Density = 2.428508 g / cm^3
# Si number density = 24.340477 Si / 1000 Ang^3
#
#
#
# Elastic Constant Matrix: (Units=GPa)
#
#
# Indices 1 2 3 4 5 6 
#
# 1 145.6349 15.4512 44.1174 0.0000 7.0256 0.0000
# 2 15.4512 95.8135 7.0696 0.0000 4.0794 0.0000
# 3 44.1174 7.0696 58.8549 0.0000 18.1324 0.0000
# 4 0.0000 0.0000 0.0000 28.5671 0.0000 -4.2963
# 5 7.0256 4.0794 18.1324 0.0000 46.8297 0.0000
# 6 0.0000 0.0000 0.0000 -4.2963 0.0000 30.4029
#
#
#
# Elastic Compliance Matrix: (Units=1/GPa)
#
#
# Indices 1 2 3 4 5 6 
#
# 1 0.009061 -0.000998 -0.007131 0.000000 0.001489 0.000000
# 2 -0.000998 0.010650 -0.000331 0.000000 -0.000650 0.000000
# 3 -0.007131 -0.000331 0.025022 0.000000 -0.008590 0.000000
# 4 0.000000 0.000000 0.000000 0.035765 0.000000 0.005054
# 5 0.001489 -0.000650 -0.008590 0.000000 0.024513 0.000000
# 6 0.000000 0.000000 0.000000 0.005054 0.000000 0.033606
#
#
# Mechanical properties :
#
#
# Convention : Reuss Voigt Hill
#
# Bulk Modulus (GPa) = 35.95353 48.17552 42.06452
# Shear Modulus (GPa) = 30.33838 36.73760 33.53799
#
# Velocity S-wave (km/s) = 3.53429 3.88921 3.71599
# Velocity P-wave (km/s) = 5.60875 6.32482 5.97752
#
# Compressibility (1/GPa) = 0.02781368
#
# Stress axis : x y z
#
# Youngs Moduli (GPa) = 110.36718 93.89656 39.96462
#
# Poissons Ratio (x) = 0.09375 0.28497
# Poissons Ratio (y) = 0.11019 0.01321
# Poissons Ratio (z) = 0.78698 0.03105
#
# Static dielectric constant tensor:
#      x y z
#    x 2.029130 0.000000 -0.028950 
#    y 0.000000 1.992770 0.000000 
#    z -0.028950 0.000000 1.872640 
# 
# From -- ./inp_files/57609.got.cif
#   From: 2010.05.17/outbox.cif.g08.bks.cpg/sg14_29_cif.got.tgz:57609.got - 2010.06.03 17:49:19.
