data_PCOD9252705
_publ_section_title
;
Structure prediction by ZEFSAII (Michael W. Deem and Ramdas Pophale) SiO2 
 PCOD9252705
Probable space group: P 21/C
;
_chemical_formula_sum "Si O2"
_cell_formula_units_Z 24
_cell_length_a 13.792843
_cell_length_b 5.156794
_cell_length_c 28.227764
_cell_angle_alpha 90.000000
_cell_angle_beta 151.343548
_cell_angle_gamma 90.000000
_cell_volume 962.830850
_symmetry_space_group_name_H-M "P 21/C"
_symmetry_group_IT_number 14
_symmetry_cell_setting 'monoclinic'
loop_
_space_group_symop_operation_xyz
x,y,z
-x,1/2+y,1/2-z
-x,-y,-z
x,1/2-y,1/2+z
loop_
_atom_site_type_symbol
_atom_site_label
_atom_site_fract_x
_atom_site_fract_y
_atom_site_fract_z
Si Si1 0.381149 0.751790 0.931164
Si Si2 0.033397 0.676275 0.353288
Si Si3 0.240832 0.823340 0.766074
Si Si4 0.443305 0.485249 0.778888
Si Si5 0.776704 0.161922 0.963601
Si Si6 0.827209 0.720977 0.908792
O O1 0.359230 0.785692 0.865767
O O2 0.163190 0.755113 0.862806
O O3 0.500000 0.500000 0.000000
O O4 0.500000 0.000000 0.000000
O O5 0.934133 0.394954 0.306751
O O6 0.174149 0.666540 0.460144
O O7 0.863229 0.898670 0.285112
O O8 0.383612 0.729895 0.784866
O O9 0.629445 0.539938 0.823254
O O10 0.244295 0.412516 0.664832
O O11 0.553789 0.273304 0.859228
O O12 0.054090 0.649687 0.989233
O O13 0.816285 0.895306 0.951883
#
# Coordination Sequence:
#
# PCOD9252705 Si02
#       6
#     4   4   4   4   4   4
#     4  12  26  49  79 110 146 190 246 302 374 446
#     4  12  27  48  75 108 151 191 246 304 373 441
#     4  12  28  47  76 109 149 193 245 306 371 443
#     4  12  25  42  73 101 150 196 253 305 371 440
#     4  11  26  44  69 105 146 200 250 305 369 440
#     4  11  25  44  68 104 147 198 254 306 368 434
#
# _framework density 24.926497000000001
#
# number of rings (size 3 to 8) (size 9 to 14) (size 15 to 20)
#    0.000    0.333    3.333    4.500    9.333    0.000 
#    0.000    0.000    0.000    0.000    0.000    0.000 
#    0.000    0.000    0.000    0.000    0.000    0.000 
#
# Total GULP energy -134486.993569 kJ/mol
# GULP energy per Si atom -5603.624732 kJ/mol
# Density = 2.486976 g / cm^3
# Si number density = 24.926497 Si / 1000 Ang^3
#
#
#
# Elastic Constant Matrix: (Units=GPa)
#
#
# Indices 1 2 3 4 5 6 
#
# 1 81.5193 -17.6931 -6.7057 0.0000 19.0049 0.0000
# 2 -17.6931 60.2005 -20.1272 0.0000 9.9518 0.0000
# 3 -6.7057 -20.1272 52.5048 0.0000 -0.0136 0.0000
# 4 0.0000 0.0000 0.0000 33.6729 0.0000 13.1050
# 5 19.0049 9.9518 -0.0136 0.0000 62.6324 0.0000
# 6 0.0000 0.0000 0.0000 13.1050 0.0000 41.1977
#
#
#
# Elastic Compliance Matrix: (Units=1/GPa)
#
#
# Indices 1 2 3 4 5 6 
#
# 1 0.015564 0.007118 0.004715 0.000000 -0.005853 0.000000
# 2 0.007118 0.022900 0.009686 0.000000 -0.005796 0.000000
# 3 0.004715 0.009686 0.023360 0.000000 -0.002965 0.000000
# 4 0.000000 0.000000 0.000000 0.033893 0.000000 -0.010782
# 5 -0.005853 -0.005796 -0.002965 0.000000 0.018663 0.000000
# 6 0.000000 0.000000 0.000000 -0.010782 0.000000 0.027703
#
#
# Mechanical properties :
#
#
# Convention : Reuss Voigt Hill
#
# Bulk Modulus (GPa) = 9.53618 11.68583 10.61100
# Shear Modulus (GPa) = 37.31373 43.41731 40.36552
#
# Velocity S-wave (km/s) = 3.87324 4.17803 4.02852
# Velocity P-wave (km/s) = 4.88228 5.28894 5.08967
#
# Compressibility (1/GPa) = 0.10486377
#
# Stress axis : x y z
#
# Youngs Moduli (GPa) = 64.24937 43.66825 42.80751
#
# Poissons Ratio (x) = -0.31085 -0.20184
# Poissons Ratio (y) = -0.45735 -0.41464
# Poissons Ratio (z) = -0.30294 -0.42298
#
# Static dielectric constant tensor:
#      x y z
#    x 2.003490 0.000000 -0.011760 
#    y 0.000000 2.146680 0.000000 
#    z -0.011760 0.000000 1.973760 
# 
# From -- ./inp_files/77443.got.cif
#   From: 2010.05.17/outbox.cif.g08.bks.cpg/sg14_39_cif.got.tgz:77443.got - 2010.06.03 17:49:19.
