data_PCOD9252518
_publ_section_title
;
Structure prediction by ZEFSAII (Michael W. Deem and Ramdas Pophale) SiO2 
 PCOD9252518
Probable space group: P 21/C
;
_chemical_formula_sum "Si O2"
_cell_formula_units_Z 28
_cell_length_a 30.612140
_cell_length_b 7.267883
_cell_length_c 9.136468
_cell_angle_alpha 90.000000
_cell_angle_beta 145.291219
_cell_angle_gamma 90.000000
_cell_volume 1157.448365
_symmetry_space_group_name_H-M "P 21/C"
_symmetry_group_IT_number 14
_symmetry_cell_setting 'monoclinic'
loop_
_space_group_symop_operation_xyz
x,y,z
-x,1/2+y,1/2-z
-x,-y,-z
x,1/2-y,1/2+z
loop_
_atom_site_type_symbol
_atom_site_label
_atom_site_fract_x
_atom_site_fract_y
_atom_site_fract_z
Si Si1 0.446648 0.866547 0.947722
Si Si2 0.822021 0.135339 0.516418
Si Si3 0.715961 0.221220 0.467380
Si Si4 0.325724 0.116956 0.173800
Si Si5 0.910264 0.992559 0.284732
Si Si6 0.422007 0.108827 0.146350
Si Si7 0.845767 0.795723 0.391454
O O1 0.494302 0.681282 0.080683
O O2 0.436467 0.932885 0.086493
O O3 0.358599 0.859768 0.659273
O O4 0.500000 0.000000 0.000000
O O5 0.759256 0.097669 0.468820
O O6 0.877809 0.300481 0.718994
O O7 0.857207 0.948155 0.551739
O O8 0.776058 0.215890 0.252555
O O9 0.690375 0.410143 0.315045
O O10 0.370197 0.089178 0.144560
O O11 0.377695 0.241366 0.421999
O O12 0.243135 0.202085 0.904410
O O13 0.892060 0.871082 0.378747
O O14 0.870285 0.894576 0.034329
O O15 0.000000 0.000000 0.500000
#
# Coordination Sequence:
#
# PCOD9252518 Si02
#       7
#     4   4   4   4   4   4   4
#     4  12  27  41  64  99 135 186 232 306 363 424
#     4  11  25  50  75 107 146 196 248 300 368 439
#     4  11  26  44  71  97 142 190 245 299 361 435
#     4  11  24  45  70  99 134 187 239 299 354 433
#     4  12  29  48  80 116 151 194 238 302 374 448
#     4  12  26  42  66  96 137 180 241 295 368 419
#     4  11  27  49  76 113 149 193 246 299 362 444
#
# _framework density 24.191144000000001
#
# number of rings (size 3 to 8) (size 9 to 14) (size 15 to 20)
#    0.000    0.571    4.286    3.429   12.000    1.714 
#    0.000    0.000    0.000    0.000    0.000    0.000 
#    0.000    0.000    0.000    0.000    0.000    0.000 
#
# Total GULP energy -156939.910774 kJ/mol
# GULP energy per Si atom -5604.996813 kJ/mol
# Density = 2.413608 g / cm^3
# Si number density = 24.191144 Si / 1000 Ang^3
#
#
#
# Elastic Constant Matrix: (Units=GPa)
#
#
# Indices 1 2 3 4 5 6 
#
# 1 150.4794 39.1118 53.7566 0.0000 20.6325 0.0000
# 2 39.1118 86.7636 24.7389 0.0000 7.1903 0.0000
# 3 53.7566 24.7389 64.8246 0.0000 19.1399 0.0000
# 4 0.0000 0.0000 0.0000 30.4508 0.0000 -9.8650
# 5 20.6325 7.1903 19.1399 0.0000 44.5450 0.0000
# 6 0.0000 0.0000 0.0000 -9.8650 0.0000 39.5371
#
#
#
# Elastic Compliance Matrix: (Units=1/GPa)
#
#
# Indices 1 2 3 4 5 6 
#
# 1 0.009917 -0.002387 -0.006952 0.000000 -0.001221 0.000000
# 2 -0.002387 0.013507 -0.003273 0.000000 0.000332 0.000000
# 3 -0.006952 -0.003273 0.024434 0.000000 -0.006750 0.000000
# 4 0.000000 0.000000 0.000000 0.035728 0.000000 0.008915
# 5 -0.001221 0.000332 -0.006750 0.000000 0.025861 0.000000
# 6 0.000000 0.000000 0.000000 0.008915 0.000000 0.027517
#
#
# Mechanical properties :
#
#
# Convention : Reuss Voigt Hill
#
# Bulk Modulus (GPa) = 44.18369 59.69803 51.94086
# Shear Modulus (GPa) = 29.45792 35.20393 32.33092
#
# Velocity S-wave (km/s) = 3.49336 3.81890 3.65975
# Velocity P-wave (km/s) = 5.88009 6.64654 6.27503
#
# Compressibility (1/GPa) = 0.02263278
#
# Stress axis : x y z
#
# Youngs Moduli (GPa) = 100.83892 74.03350 40.92705
#
# Poissons Ratio (x) = 0.17671 0.28454
# Poissons Ratio (y) = 0.24069 0.13397
# Poissons Ratio (z) = 0.70106 0.24234
#
# Static dielectric constant tensor:
#      x y z
#    x 4.083330 0.000000 -1.175790 
#    y 0.000000 2.016030 0.000000 
#    z -1.175790 0.000000 2.534920 
# 
# From -- ./inp_files/19769.got.cif
#   From: 2010.05.17/outbox.cif.g08.bks.cpg/sg14_10_cif.got.tgz:19769.got - 2010.06.03 17:49:19.
