data_PCOD9252356
_publ_section_title
;
Structure prediction by ZEFSAII (Michael W. Deem and Ramdas Pophale) SiO2 
 PCOD9252356
Probable space group: P 21/C
;
_chemical_formula_sum "Si O2"
_cell_formula_units_Z 20
_cell_length_a 12.748075
_cell_length_b 7.543056
_cell_length_c 18.360482
_cell_angle_alpha 90.000000
_cell_angle_beta 29.101211
_cell_angle_gamma 90.000000
_cell_volume 858.674126
_symmetry_space_group_name_H-M "P 21/C"
_symmetry_group_IT_number 14
_symmetry_cell_setting 'monoclinic'
loop_
_space_group_symop_operation_xyz
x,y,z
-x,1/2+y,1/2-z
-x,-y,-z
x,1/2-y,1/2+z
loop_
_atom_site_type_symbol
_atom_site_label
_atom_site_fract_x
_atom_site_fract_y
_atom_site_fract_z
Si Si1 0.978657 0.175089 0.863254
Si Si2 0.012950 0.781985 0.800418
Si Si3 0.753679 0.008696 0.122255
Si Si4 0.842957 0.997693 0.665690
Si Si5 0.442964 0.224944 0.869325
O O1 0.904746 0.248559 0.830413
O O2 0.140114 0.307490 0.805982
O O3 0.069130 0.978648 0.793249
O O4 0.780129 0.145460 0.038559
O O5 0.082188 0.637211 0.817493
O O6 0.751580 0.771214 0.955698
O O7 0.580674 0.096450 0.279929
O O8 0.675048 0.825639 0.135112
O O9 0.000000 0.000000 0.000000
O O10 0.610910 0.068259 0.782933
O O11 0.000000 0.000000 0.500000
#
# Coordination Sequence:
#
# PCOD9252356 Si02
#       5
#     4   4   4   4   4
#     4  11  24  44  70  99 148 187 230 302 360 419
#     4  11  25  47  68 106 143 184 239 296 358 431
#     4  11  25  45  70 108 143 186 243 297 355 439
#     4  12  24  45  74 101 142 191 234 302 363 421
#     4  11  24  41  71 104 136 186 246 292 358 431
#
# _framework density 23.291723000000001
#
# number of rings (size 3 to 8) (size 9 to 14) (size 15 to 20)
#    0.000    0.800    4.000    3.600    2.800    0.800 
#    0.000    4.000    0.000    0.000    0.000    0.000 
#    0.000    0.000    0.000    0.000    0.000    0.000 
#
# Total GULP energy -111886.186156 kJ/mol
# GULP energy per Si atom -5594.309308 kJ/mol
# Density = 2.323871 g / cm^3
# Si number density = 23.291723 Si / 1000 Ang^3
#
#
#
# Elastic Constant Matrix: (Units=GPa)
#
#
# Indices 1 2 3 4 5 6 
#
# 1 106.0038 18.2593 41.0254 0.0000 3.0737 0.0000
# 2 18.2593 98.5377 15.7844 0.0000 4.2393 0.0000
# 3 41.0254 15.7844 63.5136 0.0000 -11.1890 0.0000
# 4 0.0000 0.0000 0.0000 34.9211 0.0000 -1.8892
# 5 3.0737 4.2393 -11.1890 0.0000 43.0687 0.0000
# 6 0.0000 0.0000 0.0000 -1.8892 0.0000 58.6186
#
#
#
# Elastic Compliance Matrix: (Units=1/GPa)
#
#
# Indices 1 2 3 4 5 6 
#
# 1 0.013072 -0.000882 -0.008775 0.000000 -0.003126 0.000000
# 2 -0.000882 0.010764 -0.002390 0.000000 -0.001618 0.000000
# 3 -0.008775 -0.002390 0.023222 0.000000 0.006894 0.000000
# 4 0.000000 0.000000 0.000000 0.028686 0.000000 0.000925
# 5 -0.003126 -0.001618 0.006894 0.000000 0.025392 0.000000
# 6 0.000000 0.000000 0.000000 0.000925 0.000000 0.017089
#
#
# Mechanical properties :
#
#
# Convention : Reuss Voigt Hill
#
# Bulk Modulus (GPa) = 43.54890 46.46592 45.00741
# Shear Modulus (GPa) = 33.33878 40.18744 36.76311
#
# Velocity S-wave (km/s) = 3.78743 4.15829 3.97719
# Velocity P-wave (km/s) = 6.15337 6.56110 6.36050
#
# Compressibility (1/GPa) = 0.02296269
#
# Stress axis : x y z
#
# Youngs Moduli (GPa) = 76.49681 92.89918 43.06350
#
# Poissons Ratio (x) = 0.08195 0.37790
# Poissons Ratio (y) = 0.06748 0.10293
# Poissons Ratio (z) = 0.67129 0.22206
#
# Static dielectric constant tensor:
#      x y z
#    x 1.936800 0.000000 0.017820 
#    y 0.000000 1.918300 0.000000 
#    z 0.017820 0.000000 1.823780 
# 
# From -- ./inp_files/57219.got.cif
#   From: 2010.05.17/outbox.cif.g08.bks.cpg/sg14_29_cif.got.tgz:57219.got - 2010.06.03 17:49:19.
