data_PCOD9252712
_publ_section_title
;
Structure prediction by ZEFSAII (Michael W. Deem and Ramdas Pophale) SiO2 
 PCOD9252712
Probable space group: P 21/C
;
_chemical_formula_sum "Si O2"
_cell_formula_units_Z 22
_cell_length_a 5.552676
_cell_length_b 8.694148
_cell_length_c 19.130465
_cell_angle_alpha 90.000000
_cell_angle_beta 102.578903
_cell_angle_gamma 90.000000
_cell_volume 901.370581
_symmetry_space_group_name_H-M "P 21/C"
_symmetry_group_IT_number 14
_symmetry_cell_setting 'monoclinic'
loop_
_space_group_symop_operation_xyz
x,y,z
-x,1/2+y,1/2-z
-x,-y,-z
x,1/2-y,1/2+z
loop_
_atom_site_type_symbol
_atom_site_label
_atom_site_fract_x
_atom_site_fract_y
_atom_site_fract_z
Si Si1 0.070207 0.344513 0.829502
Si Si2 0.000000 0.500000 0.000000
Si Si3 0.293024 0.119927 0.731342
Si Si4 0.295645 0.917790 0.138519
Si Si5 0.498610 0.814720 0.542280
Si Si6 0.273104 0.256093 0.585710
O O1 0.920795 0.494431 0.795975
O O2 0.893288 0.208032 0.844767
O O3 0.208431 0.265078 0.773235
O O4 0.240916 0.381497 0.908668
O O5 0.712890 0.441022 0.960905
O O6 0.040847 0.340632 0.045227
O O7 0.512517 0.042911 0.788193
O O8 0.381580 0.180765 0.662415
O O9 0.442865 0.829632 0.087564
O O10 0.188923 0.072921 0.100535
O O11 0.542313 0.751093 0.467802
#
# Coordination Sequence:
#
# PCOD9252712 Si02
#       6
#     4   2   4   4   4   4
#     4  11  25  47  72 107 148 192 245 303 368 449
#     4  12  28  44  68 102 138 186 236 298 364 430
#     4  11  25  44  72 105 144 190 241 300 370 445
#     4  11  25  45  71 104 143 189 241 302 371 447
#     4  11  26  47  70 102 143 188 246 306 366 439
#     4  12  25  44  72 104 142 188 240 303 373 442
#
# _framework density 24.407274000000001
#
# number of rings (size 3 to 8) (size 9 to 14) (size 15 to 20)
#    0.000    0.727    0.000    6.545    0.000   14.545 
#    0.000    0.000    0.000    0.000    0.000    0.000 
#    0.000    0.000    0.000    0.000    0.000    0.000 
#
# Total GULP energy -122895.341095 kJ/mol
# GULP energy per Si atom -5586.151868 kJ/mol
# Density = 2.435172 g / cm^3
# Si number density = 24.407274 Si / 1000 Ang^3
#
#
#
# Elastic Constant Matrix: (Units=GPa)
#
#
# Indices 1 2 3 4 5 6 
#
# 1 66.0597 14.5251 42.0057 0.0000 10.4006 0.0000
# 2 14.5251 119.2148 55.5928 0.0000 14.3944 0.0000
# 3 42.0057 55.5928 176.1624 0.0000 -13.4972 0.0000
# 4 0.0000 0.0000 0.0000 44.5551 0.0000 8.7553
# 5 10.4006 14.3944 -13.4972 0.0000 46.5013 0.0000
# 6 0.0000 0.0000 0.0000 8.7553 0.0000 33.8349
#
#
#
# Elastic Compliance Matrix: (Units=1/GPa)
#
#
# Indices 1 2 3 4 5 6 
#
# 1 0.019318 0.000887 -0.005358 0.000000 -0.006150 0.000000
# 2 0.000887 0.010677 -0.003937 0.000000 -0.004646 0.000000
# 3 -0.005358 -0.003937 0.008572 0.000000 0.004905 0.000000
# 4 0.000000 0.000000 0.000000 0.023646 0.000000 -0.006119
# 5 -0.006150 -0.004646 0.004905 0.000000 0.025742 0.000000
# 6 0.000000 0.000000 0.000000 -0.006119 0.000000 0.031139
#
#
# Mechanical properties :
#
#
# Convention : Reuss Voigt Hill
#
# Bulk Modulus (GPa) = 45.97137 65.07602 55.52370
# Shear Modulus (GPa) = 34.92597 41.59915 38.26256
#
# Velocity S-wave (km/s) = 3.78691 4.13289 3.96368
# Velocity P-wave (km/s) = 6.16417 7.03525 6.61407
#
# Compressibility (1/GPa) = 0.02175267
#
# Stress axis : x y z
#
# Youngs Moduli (GPa) = 51.76582 93.65899 116.65455
#
# Poissons Ratio (x) = -0.08310 0.62498
# Poissons Ratio (y) = -0.04593 0.45927
# Poissons Ratio (z) = 0.27734 0.36873
#
# Static dielectric constant tensor:
#      x y z
#    x 1.754590 0.000000 0.079040 
#    y 0.000000 1.895740 0.000000 
#    z 0.079040 0.000000 1.905920 
# 
# From -- ./inp_files/63122.got.cif
#   From: 2010.05.17/outbox.cif.g08.bks.cpg/sg14_32_cif.got.tgz:63122.got - 2010.06.03 17:49:19.
