data_PCOD9252884
_publ_section_title
;
Structure prediction by ZEFSAII (Michael W. Deem and Ramdas Pophale) SiO2 
 PCOD9252884
Probable space group: P 21/C
;
_chemical_formula_sum "Si O2"
_cell_formula_units_Z 20
_cell_length_a 26.726867
_cell_length_b 5.043763
_cell_length_c 11.518872
_cell_angle_alpha 90.000000
_cell_angle_beta 149.175132
_cell_angle_gamma 90.000000
_cell_volume 795.673775
_symmetry_space_group_name_H-M "P 21/C"
_symmetry_group_IT_number 14
_symmetry_cell_setting 'monoclinic'
loop_
_space_group_symop_operation_xyz
x,y,z
-x,1/2+y,1/2-z
-x,-y,-z
x,1/2-y,1/2+z
loop_
_atom_site_type_symbol
_atom_site_label
_atom_site_fract_x
_atom_site_fract_y
_atom_site_fract_z
Si Si1 0.997000 0.775408 0.823953
Si Si2 0.294755 0.799411 0.263325
Si Si3 0.506411 0.749198 0.096104
Si Si4 0.840661 0.024426 0.683516
Si Si5 0.279220 0.199855 0.872814
O O1 0.986431 0.483865 0.748777
O O2 0.085278 0.804235 0.090730
O O3 0.904248 0.881214 0.710804
O O4 0.411054 0.759957 0.486250
O O5 0.260879 0.598574 0.296543
O O6 0.269929 0.098464 0.246153
O O7 0.242250 0.701819 0.042417
O O8 0.609080 0.736312 0.364905
O O9 0.500000 0.500000 0.000000
O O10 0.500000 0.000000 0.000000
O O11 0.790646 0.808374 0.666794
#
# Coordination Sequence:
#
# PCOD9252884 Si02
#       5
#     4   4   4   4   4
#     4  11  26  49  72 104 142 183 235 292 366 428
#     4  12  26  44  70 105 142 187 238 287 350 416
#     4  12  24  46  70  99 145 194 230 288 350 411
#     4  11  26  45  76 104 142 187 234 303 350 430
#     4  12  26  44  70 105 142 187 238 287 350 416
#
# _framework density 25.135933000000001
#
# number of rings (size 3 to 8) (size 9 to 14) (size 15 to 20)
#    0.000    0.400    2.000    6.000    0.000    6.400 
#    0.000    0.000    0.000    0.000    0.000    0.000 
#    0.000    0.000    0.000    0.000    0.000    0.000 
#
# Total GULP energy -112419.108367 kJ/mol
# GULP energy per Si atom -5620.955418 kJ/mol
# Density = 2.507872 g / cm^3
# Si number density = 25.135933 Si / 1000 Ang^3
#
#
#
# Elastic Constant Matrix: (Units=GPa)
#
#
# Indices 1 2 3 4 5 6 
#
# 1 75.0249 -10.7441 -18.1607 0.0000 14.8969 0.0000
# 2 -10.7441 107.5905 0.0910 0.0000 -10.4504 0.0000
# 3 -18.1607 0.0910 128.0648 0.0000 -5.4843 0.0000
# 4 0.0000 0.0000 0.0000 20.2812 0.0000 -2.8746
# 5 14.8969 -10.4504 -5.4843 0.0000 41.8901 0.0000
# 6 0.0000 0.0000 0.0000 -2.8746 0.0000 34.0016
#
#
#
# Elastic Compliance Matrix: (Units=1/GPa)
#
#
# Indices 1 2 3 4 5 6 
#
# 1 0.014887 0.001020 0.001905 0.000000 -0.004790 0.000000
# 2 0.001020 0.009596 0.000226 0.000000 0.002061 0.000000
# 3 0.001905 0.000226 0.008097 0.000000 0.000439 0.000000
# 4 0.000000 0.000000 0.000000 0.049905 0.000000 0.004219
# 5 -0.004790 0.002061 0.000439 0.000000 0.026147 0.000000
# 6 0.000000 0.000000 0.000000 0.004219 0.000000 0.029767
#
#
# Mechanical properties :
#
#
# Convention : Reuss Voigt Hill
#
# Bulk Modulus (GPa) = 25.71807 28.11697 26.91752
# Shear Modulus (GPa) = 34.46878 41.86751 38.16814
#
# Velocity S-wave (km/s) = 3.70712 4.08566 3.90098
# Velocity P-wave (km/s) = 5.34579 5.78507 5.56976
#
# Compressibility (1/GPa) = 0.03888316
#
# Stress axis : x y z
#
# Youngs Moduli (GPa) = 67.17135 104.20654 123.49689
#
# Poissons Ratio (x) = -0.10627 -0.23530
# Poissons Ratio (y) = -0.06850 -0.02792
# Poissons Ratio (z) = -0.12798 -0.02356
#
# Static dielectric constant tensor:
#      x y z
#    x 1.988730 0.000000 0.039550 
#    y 0.000000 0.354860 0.000000 
#    z 0.039550 0.000000 2.019200 
# 
# From -- ./inp_files/4074.got.cif
#   From: 2010.05.17/outbox.cif.g08.bks.cpg/sg14_3_cif.got.tgz:4074.got - 2010.06.03 17:49:19.
