data_PCOD9252816
_publ_section_title
;
Structure prediction by ZEFSAII (Michael W. Deem and Ramdas Pophale) SiO2 
 PCOD9252816
Probable space group: P 21/C
;
_chemical_formula_sum "Si O2"
_cell_formula_units_Z 20
_cell_length_a 7.376359
_cell_length_b 10.037309
_cell_length_c 14.580936
_cell_angle_alpha 90.000000
_cell_angle_beta 144.447451
_cell_angle_gamma 90.000000
_cell_volume 627.706542
_symmetry_space_group_name_H-M "P 21/C"
_symmetry_group_IT_number 14
_symmetry_cell_setting 'monoclinic'
loop_
_space_group_symop_operation_xyz
x,y,z
-x,1/2+y,1/2-z
-x,-y,-z
x,1/2-y,1/2+z
loop_
_atom_site_type_symbol
_atom_site_label
_atom_site_fract_x
_atom_site_fract_y
_atom_site_fract_z
Si Si1 0.454770 0.497426 0.645554
Si Si2 0.533761 0.680117 0.996927
Si Si3 0.430480 0.653216 0.152616
Si Si4 0.286323 0.335368 0.124359
Si Si5 0.883512 0.941004 0.165922
O O1 0.581867 0.505412 0.808522
O O2 0.401817 0.330361 0.669056
O O3 0.146150 0.499186 0.450826
O O4 0.758290 0.482643 0.703936
O O5 0.600024 0.619514 0.124327
O O6 0.606426 0.832312 0.044564
O O7 0.752056 0.650143 0.001543
O O8 0.193451 0.640966 0.819102
O O9 0.486903 0.825872 0.183398
O O10 0.062653 0.667309 0.980907
#
# Coordination Sequence:
#
# PCOD9252816 Si02
#       5
#     4   4   4   4   4
#     4  11  25  47  72 106 147 185 234 301 350 412
#     4  12  24  47  75 104 134 196 236 284 357 425
#     4  12  25  48  72 103 147 185 238 298 353 409
#     4  12  26  45  77 104 143 189 236 296 352 420
#     4  11  25  47  75 103 146 187 237 292 356 423
#
# _framework density 31.862022
#
# number of rings (size 3 to 8) (size 9 to 14) (size 15 to 20)
#    0.000    0.400    6.000    1.800    0.000    1.600 
#    0.000    0.000    0.000    0.000    0.000    0.000 
#    0.000    0.000    0.000    0.000    0.000    0.000 
#
# Total GULP energy -111822.752071 kJ/mol
# GULP energy per Si atom -5591.137604 kJ/mol
# Density = 3.178950 g / cm^3
# Si number density = 31.862022 Si / 1000 Ang^3
#
#
#
# Elastic Constant Matrix: (Units=GPa)
#
#
# Indices 1 2 3 4 5 6 
#
# 1 127.9933 58.0238 65.7112 0.0000 -72.7418 0.0000
# 2 58.0238 233.9569 79.6245 0.0000 -43.0303 0.0000
# 3 65.7112 79.6245 248.8583 0.0000 -60.6894 0.0000
# 4 0.0000 0.0000 0.0000 85.8328 0.0000 -27.8817
# 5 -72.7418 -43.0303 -60.6894 0.0000 75.0416 0.0000
# 6 0.0000 0.0000 0.0000 -27.8817 0.0000 75.5713
#
#
#
# Elastic Compliance Matrix: (Units=1/GPa)
#
#
# Indices 1 2 3 4 5 6 
#
# 1 0.017810 -0.001320 -0.000317 0.000000 0.016250 0.000000
# 2 -0.001320 0.005117 -0.001103 0.000000 0.000763 0.000000
# 3 -0.000317 -0.001103 0.005264 0.000000 0.003317 0.000000
# 4 0.000000 0.000000 0.000000 0.013237 0.000000 0.004884
# 5 0.016250 0.000763 0.003317 0.000000 0.032198 0.000000
# 6 0.000000 0.000000 0.000000 0.004884 0.000000 0.015034
#
#
# Mechanical properties :
#
#
# Convention : Reuss Voigt Hill
#
# Bulk Modulus (GPa) = 44.03225 113.05861 78.54543
# Shear Modulus (GPa) = 49.15870 74.45241 61.80556
#
# Velocity S-wave (km/s) = 3.93219 4.83920 4.40908
# Velocity P-wave (km/s) = 5.87076 8.17219 7.11514
#
# Compressibility (1/GPa) = 0.02271063
#
# Stress axis : x y z
#
# Youngs Moduli (GPa) = 56.14907 195.41531 189.97144
#
# Poissons Ratio (x) = 0.25799 0.06027
# Poissons Ratio (y) = 0.07413 0.20948
# Poissons Ratio (z) = 0.01781 0.21548
#
# Static dielectric constant tensor:
#      x y z
#    x 2.227650 0.000000 -0.064630 
#    y 0.000000 2.972350 0.000000 
#    z -0.064630 0.000000 2.253570 
# 
# From -- ./inp_files/55882.got.cif
#   From: 2010.05.17/outbox.cif.g08.bks.cpg/sg14_28_cif.got.tgz:55882.got - 2010.06.03 17:49:19.
