data_PCOD9252013
_publ_section_title
;
Structure prediction by ZEFSAII (Michael W. Deem and Ramdas Pophale) SiO2 
 PCOD9252013
Probable space group: P 21/C
;
_chemical_formula_sum "Si O2"
_cell_formula_units_Z 28
_cell_length_a 9.410381
_cell_length_b 7.891930
_cell_length_c 21.972374
_cell_angle_alpha 90.000000
_cell_angle_beta 47.266244
_cell_angle_gamma 90.000000
_cell_volume 1198.582799
_symmetry_space_group_name_H-M "P 21/C"
_symmetry_group_IT_number 14
_symmetry_cell_setting 'monoclinic'
loop_
_space_group_symop_operation_xyz
x,y,z
-x,1/2+y,1/2-z
-x,-y,-z
x,1/2-y,1/2+z
loop_
_atom_site_type_symbol
_atom_site_label
_atom_site_fract_x
_atom_site_fract_y
_atom_site_fract_z
Si Si1 0.901883 0.159008 0.862033
Si Si2 0.498136 0.123058 0.942320
Si Si3 0.705668 0.913008 0.447543
Si Si4 0.370606 0.816186 0.218890
Si Si5 0.051238 0.288296 0.707975
Si Si6 0.911048 0.330539 0.972186
Si Si7 0.325425 0.008216 0.360567
O O1 0.694209 0.225410 0.900448
O O2 0.049480 0.275404 0.781478
O O3 0.909082 0.159601 0.932663
O O4 0.918318 0.973983 0.827721
O O5 0.530398 0.069487 0.863532
O O6 0.321698 0.249636 0.001049
O O7 0.500000 0.000000 0.000000
O O8 0.783199 0.837824 0.362685
O O9 0.500000 0.000000 0.500000
O O10 0.855650 0.033067 0.436648
O O11 0.151072 0.775055 0.262258
O O12 0.361788 0.913051 0.285831
O O13 0.495184 0.639243 0.182342
O O14 0.131765 0.374661 0.923167
O O15 0.743999 0.361824 0.070811
#
# Coordination Sequence:
#
# PCOD9252013 Si02
#       7
#     4   4   4   4   4   4   4
#     4  11  24  41  67 101 136 178 229 293 362 414
#     4  11  23  41  67 102 133 169 221 295 351 410
#     4  12  22  42  72  99 141 179 225 290 365 414
#     4  11  26  46  67 101 138 183 240 285 348 418
#     4  11  25  43  69 104 142 176 231 299 355 421
#     4  11  24  45  67  98 135 192 237 282 352 424
#     4  11  26  46  68  93 142 192 237 286 338 426
#
# _framework density 23.360923
#
# number of rings (size 3 to 8) (size 9 to 14) (size 15 to 20)
#    0.000    0.857    5.714    0.857    6.000    1.143 
#    0.000    0.714    0.000    0.000    0.000    0.000 
#    0.000    0.000    0.000    0.000    0.000    0.000 
#
# Total GULP energy -156125.488194 kJ/mol
# GULP energy per Si atom -5575.910293 kJ/mol
# Density = 2.330775 g / cm^3
# Si number density = 23.360923 Si / 1000 Ang^3
#
#
#
# Elastic Constant Matrix: (Units=GPa)
#
#
# Indices 1 2 3 4 5 6 
#
# 1 52.6880 16.0388 35.1040 0.0000 0.7568 0.0000
# 2 16.0388 74.8408 51.4247 0.0000 5.3602 0.0000
# 3 35.1040 51.4247 200.2451 0.0000 34.1057 0.0000
# 4 0.0000 0.0000 0.0000 46.7880 0.0000 0.2848
# 5 0.7568 5.3602 34.1057 0.0000 49.5193 0.0000
# 6 0.0000 0.0000 0.0000 0.2848 0.0000 29.1859
#
#
#
# Elastic Compliance Matrix: (Units=1/GPa)
#
#
# Indices 1 2 3 4 5 6 
#
# 1 0.022126 -0.002386 -0.003685 0.000000 0.002458 0.000000
# 2 -0.002386 0.016552 -0.004003 0.000000 0.001002 0.000000
# 3 -0.003685 -0.004003 0.007459 0.000000 -0.004648 0.000000
# 4 0.000000 0.000000 0.000000 0.021374 0.000000 -0.000209
# 5 0.002458 0.001002 -0.004648 0.000000 0.023249 0.000000
# 6 0.000000 0.000000 0.000000 -0.000209 0.000000 0.034265
#
#
# Mechanical properties :
#
#
# Convention : Reuss Voigt Hill
#
# Bulk Modulus (GPa) = 38.47664 59.21207 48.84436
# Shear Modulus (GPa) = 32.50216 40.11241 36.30728
#
# Velocity S-wave (km/s) = 3.73407 4.14825 3.94660
# Velocity P-wave (km/s) = 5.92429 6.95310 6.45922
#
# Compressibility (1/GPa) = 0.02598980
#
# Stress axis : x y z
#
# Youngs Moduli (GPa) = 45.19661 60.41632 134.05782
#
# Poissons Ratio (x) = 0.14415 0.49395
# Poissons Ratio (y) = 0.10783 0.53664
# Poissons Ratio (z) = 0.16653 0.24185
#
# Static dielectric constant tensor:
#      x y z
#    x 1.914540 0.000000 0.027240 
#    y 0.000000 1.931480 0.000000 
#    z 0.027240 0.000000 1.998200 
# 
# From -- ./inp_files/64985.got.cif
#   From: 2010.05.17/outbox.cif.g08.bks.cpg/sg14_33_cif.got.tgz:64985.got - 2010.06.03 17:49:19.
