data_PCOD9252565
_publ_section_title
;
Structure prediction by ZEFSAII (Michael W. Deem and Ramdas Pophale) SiO2 
 PCOD9252565
Probable space group: P 21/C
;
_chemical_formula_sum "Si O2"
_cell_formula_units_Z 32
_cell_length_a 11.727484
_cell_length_b 8.317529
_cell_length_c 16.557470
_cell_angle_alpha 90.000000
_cell_angle_beta 65.234623
_cell_angle_gamma 90.000000
_cell_volume 1466.539351
_symmetry_space_group_name_H-M "P 21/C"
_symmetry_group_IT_number 14
_symmetry_cell_setting 'monoclinic'
loop_
_space_group_symop_operation_xyz
x,y,z
-x,1/2+y,1/2-z
-x,-y,-z
x,1/2-y,1/2+z
loop_
_atom_site_type_symbol
_atom_site_label
_atom_site_fract_x
_atom_site_fract_y
_atom_site_fract_z
Si Si1 0.398791 0.034243 0.101690
Si Si2 0.434956 0.013692 0.433313
Si Si3 0.999847 0.640059 0.628335
Si Si4 0.392798 0.817448 0.867185
Si Si5 0.078620 0.946358 0.703729
Si Si6 0.783534 0.776108 0.435462
Si Si7 0.667018 0.200366 0.297601
Si Si8 0.166717 0.029043 0.956759
O O1 0.466471 0.122558 0.157046
O O2 0.291908 0.152254 0.099392
O O3 0.352993 0.861798 0.145184
O O4 0.500000 0.000000 0.000000
O O5 0.321176 0.134965 0.479307
O O6 0.548699 0.080032 0.345514
O O7 0.500000 0.000000 0.500000
O O8 0.382398 0.841050 0.424314
O O9 0.014922 0.814882 0.663962
O O10 0.094435 0.614851 0.524840
O O11 0.012328 0.517450 0.700141
O O12 0.872351 0.584985 0.620698
O O13 0.343000 0.767400 0.794419
O O14 0.308735 0.970337 0.916176
O O15 0.201091 0.869842 0.710841
O O16 0.134098 0.096551 0.637347
O O17 0.862993 0.675335 0.475288
#
# Coordination Sequence:
#
# PCOD9252565 Si02
#       8
#     4   4   4   4   4   4   4   4
#     4  12  22  40  70 102 138 184 220 262 339 430
#     4  12  22  40  65 101 135 176 223 261 329 426
#     4  11  26  47  71  94 132 174 237 294 348 392
#     4  12  23  42  66  99 145 176 217 283 338 407
#     4  12  25  47  70  97 134 177 234 296 341 411
#     4  12  24  41  71  98 135 178 225 271 344 416
#     4  12  24  41  66 102 137 182 221 278 344 405
#     4  11  24  46  70  97 133 179 225 290 348 403
#
# _framework density 21.820074999999999
#
# number of rings (size 3 to 8) (size 9 to 14) (size 15 to 20)
#    0.000    0.250    6.250    3.000    0.000    0.500 
#    6.750    0.000    0.000    0.000    0.000    0.000 
#    0.000    0.000    0.000    0.000    0.000    0.000 
#
# Total GULP energy -178785.214710 kJ/mol
# GULP energy per Si atom -5587.037960 kJ/mol
# Density = 2.177041 g / cm^3
# Si number density = 21.820075 Si / 1000 Ang^3
#
#
#
# Elastic Constant Matrix: (Units=GPa)
#
#
# Indices 1 2 3 4 5 6 
#
# 1 57.1933 30.8122 32.7670 0.0000 18.5370 0.0000
# 2 30.8122 117.0263 50.4818 0.0000 24.3676 0.0000
# 3 32.7670 50.4818 76.7915 0.0000 23.4788 0.0000
# 4 0.0000 0.0000 0.0000 39.2700 0.0000 -2.2571
# 5 18.5370 24.3676 23.4788 0.0000 34.3580 0.0000
# 6 0.0000 0.0000 0.0000 -2.2571 0.0000 38.1900
#
#
#
# Elastic Compliance Matrix: (Units=1/GPa)
#
#
# Indices 1 2 3 4 5 6 
#
# 1 0.024985 -0.001999 -0.007154 0.000000 -0.007174 0.000000
# 2 -0.001999 0.012520 -0.006311 0.000000 -0.003489 0.000000
# 3 -0.007154 -0.006311 0.022343 0.000000 -0.006933 0.000000
# 4 0.000000 0.000000 0.000000 0.025552 0.000000 0.001510
# 5 -0.007174 -0.003489 -0.006933 0.000000 0.040188 0.000000
# 6 0.000000 0.000000 0.000000 0.001510 0.000000 0.026274
#
#
# Mechanical properties :
#
#
# Convention : Reuss Voigt Hill
#
# Bulk Modulus (GPa) = 34.57657 53.23700 43.90678
# Shear Modulus (GPa) = 25.98354 31.49361 28.73858
#
# Velocity S-wave (km/s) = 3.45455 3.80324 3.63308
# Velocity P-wave (km/s) = 5.63849 6.61342 6.14532
#
# Compressibility (1/GPa) = 0.02892132
#
# Stress axis : x y z
#
# Youngs Moduli (GPa) = 40.02399 79.87108 44.75600
#
# Poissons Ratio (x) = 0.15963 0.32018
# Poissons Ratio (y) = 0.07999 0.28246
# Poissons Ratio (z) = 0.28632 0.50408
#
# Static dielectric constant tensor:
#      x y z
#    x 1.813180 0.000000 -0.028610 
#    y 0.000000 1.769570 0.000000 
#    z -0.028610 0.000000 1.898700 
# 
# From -- ./inp_files/43676.got.cif
#   From: 2010.05.17/outbox.cif.g08.bks.cpg/sg14_22_cif.got.tgz:43676.got - 2010.06.03 17:49:19.
