data_PCOD9252509
_publ_section_title
;
Structure prediction by ZEFSAII (Michael W. Deem and Ramdas Pophale) SiO2 
 PCOD9252509
Probable space group: P 21/C
;
_chemical_formula_sum "Si O2"
_cell_formula_units_Z 16
_cell_length_a 6.550716
_cell_length_b 14.927413
_cell_length_c 9.951430
_cell_angle_alpha 90.000000
_cell_angle_beta 138.024658
_cell_angle_gamma 90.000000
_cell_volume 650.821722
_symmetry_space_group_name_H-M "P 21/C"
_symmetry_group_IT_number 14
_symmetry_cell_setting 'monoclinic'
loop_
_space_group_symop_operation_xyz
x,y,z
-x,1/2+y,1/2-z
-x,-y,-z
x,1/2-y,1/2+z
loop_
_atom_site_type_symbol
_atom_site_label
_atom_site_fract_x
_atom_site_fract_y
_atom_site_fract_z
Si Si1 0.635597 0.118063 0.174376
Si Si2 0.433323 0.916032 0.565728
Si Si3 0.951055 0.302892 0.322366
Si Si4 0.084698 0.587985 0.456121
O O1 0.662298 0.063760 0.326996
O O2 0.879121 0.198993 0.296642
O O3 0.716707 0.067938 0.076196
O O4 0.301851 0.164634 0.000019
O O5 0.200935 0.849057 0.381336
O O6 0.764477 0.871981 0.747982
O O7 0.500000 0.000000 0.500000
O O8 0.780686 0.344731 0.369780
O O9 0.000000 0.500000 0.500000
#
# Coordination Sequence:
#
# PCOD9252509 Si02
#       4
#     4   4   4   4
#     4  11  26  43  75 101 143 188 232 297 352 419
#     4  11  24  45  69 106 143 186 234 288 354 425
#     4  11  24  46  70 105 140 184 240 288 359 421
#     4  11  24  46  68 105 146 182 236 290 351 425
#
# _framework density 24.584305000000001
#
# number of rings (size 3 to 8) (size 9 to 14) (size 15 to 20)
#    0.000    1.000    2.500    3.000    0.000   13.000 
#    0.000    0.000    0.000    0.000    0.000    0.000 
#    0.000    0.000    0.000    0.000    0.000    0.000 
#
# Total GULP energy -89492.521012 kJ/mol
# GULP energy per Si atom -5593.282563 kJ/mol
# Density = 2.452835 g / cm^3
# Si number density = 24.584305 Si / 1000 Ang^3
#
#
#
# Elastic Constant Matrix: (Units=GPa)
#
#
# Indices 1 2 3 4 5 6 
#
# 1 196.1117 48.7617 64.3960 0.0000 -59.0427 0.0000
# 2 48.7617 70.7872 11.3798 0.0000 -26.7222 0.0000
# 3 64.3960 11.3798 123.1330 0.0000 -25.2620 0.0000
# 4 0.0000 0.0000 0.0000 37.9974 0.0000 -4.2296
# 5 -59.0427 -26.7222 -25.2620 0.0000 59.6043 0.0000
# 6 0.0000 0.0000 0.0000 -4.2296 0.0000 39.3580
#
#
#
# Elastic Compliance Matrix: (Units=1/GPa)
#
#
# Indices 1 2 3 4 5 6 
#
# 1 0.008665 -0.003282 -0.003033 0.000000 0.005827 0.000000
# 2 -0.003282 0.018248 0.001141 0.000000 0.005413 0.000000
# 3 -0.003033 0.001141 0.009956 0.000000 0.001727 0.000000
# 4 0.000000 0.000000 0.000000 0.026636 0.000000 0.002862
# 5 0.005827 0.005413 0.001727 0.000000 0.025708 0.000000
# 6 0.000000 0.000000 0.000000 0.002862 0.000000 0.025715
#
#
# Mechanical properties :
#
#
# Convention : Reuss Voigt Hill
#
# Bulk Modulus (GPa) = 37.70644 71.01188 54.35916
# Shear Modulus (GPa) = 37.28053 45.09156 41.18604
#
# Velocity S-wave (km/s) = 3.89837 4.28736 4.09748
# Velocity P-wave (km/s) = 5.96942 7.31138 6.67421
#
# Compressibility (1/GPa) = 0.02652067
#
# Stress axis : x y z
#
# Youngs Moduli (GPa) = 115.40179 54.80125 100.43834
#
# Poissons Ratio (x) = 0.17985 0.30463
# Poissons Ratio (y) = 0.37874 -0.11455
# Poissons Ratio (z) = 0.35002 -0.06250
#
# Static dielectric constant tensor:
#      x y z
#    x 2.025290 0.000000 -0.029950 
#    y 0.000000 2.032960 0.000000 
#    z -0.029950 0.000000 1.955080 
# 
# From -- ./inp_files/5087.got.cif
#   From: 2010.05.17/outbox.cif.g08.bks.cpg/sg14_3_cif.got.tgz:5087.got - 2010.06.03 17:49:19.
