data_PCOD9252365
_publ_section_title
;
Structure prediction by ZEFSAII (Michael W. Deem and Ramdas Pophale) SiO2 
 PCOD9252365
Probable space group: P 21/C
;
_chemical_formula_sum "Si O2"
_cell_formula_units_Z 16
_cell_length_a 11.830056
_cell_length_b 11.941515
_cell_length_c 10.620275
_cell_angle_alpha 90.000000
_cell_angle_beta 155.366385
_cell_angle_gamma 90.000000
_cell_volume 625.351878
_symmetry_space_group_name_H-M "P 21/C"
_symmetry_group_IT_number 14
_symmetry_cell_setting 'monoclinic'
loop_
_space_group_symop_operation_xyz
x,y,z
-x,1/2+y,1/2-z
-x,-y,-z
x,1/2-y,1/2+z
loop_
_atom_site_type_symbol
_atom_site_label
_atom_site_fract_x
_atom_site_fract_y
_atom_site_fract_z
Si Si1 0.534824 0.007375 0.196681
Si Si2 0.978554 0.142287 0.385230
Si Si3 0.144874 0.281034 0.309562
Si Si4 0.744479 0.960585 0.666493
O O1 0.763534 0.944765 0.341273
O O2 0.723297 0.015777 0.509960
O O3 0.288031 0.917092 0.941548
O O4 0.369895 0.123046 0.038864
O O5 0.053493 0.238477 0.356775
O O6 0.932219 0.183652 0.482583
O O7 0.268967 0.169991 0.373615
O O8 0.500000 0.000000 0.500000
O O9 0.000000 0.000000 0.000000
#
# Coordination Sequence:
#
# PCOD9252365 Si02
#       4
#     4   4   4   4
#     4  11  25  45  68 103 139 182 236 285 343 421
#     4  11  26  43  70 104 139 183 236 285 344 419
#     4  11  25  46  73 101 142 188 226 290 353 403
#     4  11  24  42  66 100 136 175 227 280 336 409
#
# _framework density 25.585595000000001
#
# number of rings (size 3 to 8) (size 9 to 14) (size 15 to 20)
#    0.000    1.000    0.000    6.000    0.000   16.000 
#    0.000    0.000    0.000    0.000    0.000    0.000 
#    0.000    0.000    0.000    0.000    0.000    0.000 
#
# Total GULP energy -89392.204226 kJ/mol
# GULP energy per Si atom -5587.012764 kJ/mol
# Density = 2.552736 g / cm^3
# Si number density = 25.585595 Si / 1000 Ang^3
#
#
#
# Elastic Constant Matrix: (Units=GPa)
#
#
# Indices 1 2 3 4 5 6 
#
# 1 92.8884 22.9316 37.6220 0.0000 -10.7018 0.0000
# 2 22.9316 126.1050 75.8981 0.0000 -20.1777 0.0000
# 3 37.6220 75.8981 163.1542 0.0000 5.1435 0.0000
# 4 0.0000 0.0000 0.0000 32.3501 0.0000 -0.1322
# 5 -10.7018 -20.1777 5.1435 0.0000 62.3750 0.0000
# 6 0.0000 0.0000 0.0000 -0.1322 0.0000 36.5765
#
#
#
# Elastic Compliance Matrix: (Units=1/GPa)
#
#
# Indices 1 2 3 4 5 6 
#
# 1 0.012206 -0.000165 -0.002809 0.000000 0.002272 0.000000
# 2 -0.000165 0.012107 -0.005732 0.000000 0.004361 0.000000
# 3 -0.002809 -0.005732 0.009542 0.000000 -0.003123 0.000000
# 4 0.000000 0.000000 0.000000 0.030912 0.000000 0.000112
# 5 0.002272 0.004361 -0.003123 0.000000 0.018090 0.000000
# 6 0.000000 0.000000 0.000000 0.000112 0.000000 0.027340
#
#
# Mechanical properties :
#
#
# Convention : Reuss Voigt Hill
#
# Bulk Modulus (GPa) = 60.81689 72.78345 66.80017
# Shear Modulus (GPa) = 37.56817 42.64006 40.10412
#
# Velocity S-wave (km/s) = 3.83604 4.08679 3.96340
# Velocity P-wave (km/s) = 6.59104 7.12586 6.86366
#
# Compressibility (1/GPa) = 0.01644280
#
# Stress axis : x y z
#
# Youngs Moduli (GPa) = 81.92639 82.59419 104.80208
#
# Poissons Ratio (x) = 0.01364 0.29444
# Poissons Ratio (y) = 0.01353 0.60069
# Poissons Ratio (z) = 0.23017 0.47340
#
# Static dielectric constant tensor:
#      x y z
#    x 2.028010 0.000000 -0.046830 
#    y 0.000000 2.058630 0.000000 
#    z -0.046830 0.000000 1.983630 
# 
# From -- ./inp_files/20212.got.cif
#   From: 2010.05.17/outbox.cif.g08.bks.cpg/sg14_11_cif.got.tgz:20212.got - 2010.06.03 17:49:19.
