data_PCOD9252085
_publ_section_title
;
Structure prediction by ZEFSAII (Michael W. Deem and Ramdas Pophale) SiO2 
 PCOD9252085
Probable space group: P 21/C
;
_chemical_formula_sum "Si O2"
_cell_formula_units_Z 24
_cell_length_a 8.281590
_cell_length_b 13.777199
_cell_length_c 9.524010
_cell_angle_alpha 90.000000
_cell_angle_beta 87.499863
_cell_angle_gamma 90.000000
_cell_volume 1085.627675
_symmetry_space_group_name_H-M "P 21/C"
_symmetry_group_IT_number 14
_symmetry_cell_setting 'monoclinic'
loop_
_space_group_symop_operation_xyz
x,y,z
-x,1/2+y,1/2-z
-x,-y,-z
x,1/2-y,1/2+z
loop_
_atom_site_type_symbol
_atom_site_label
_atom_site_fract_x
_atom_site_fract_y
_atom_site_fract_z
Si Si1 0.614186 0.169313 0.930491
Si Si2 0.420759 0.201890 0.216451
Si Si3 0.934567 0.269720 0.851815
Si Si4 0.870495 0.681033 0.900787
Si Si5 0.403452 0.994878 0.293482
Si Si6 0.755163 0.466649 0.912017
O O1 0.515914 0.247395 0.839423
O O2 0.600647 0.069610 0.845049
O O3 0.798628 0.202180 0.925248
O O4 0.541681 0.169997 0.087870
O O5 0.296196 0.276707 0.152507
O O6 0.336965 0.102786 0.269780
O O7 0.990600 0.221524 0.706062
O O8 0.087846 0.278161 0.948170
O O9 0.859067 0.564986 0.904211
O O10 0.146802 0.623940 0.152550
O O11 0.304314 0.946822 0.425560
O O12 0.588234 0.011353 0.336409
#
# Coordination Sequence:
#
# PCOD9252085 Si02
#       6
#     4   4   4   4   4   4
#     4  12  24  44  70 102 138 181 234 281 338 408
#     4  12  24  44  70 102 138 181 234 281 338 408
#     4  12  26  44  68 102 140 181 224 284 349 410
#     4  12  26  44  68 102 140 181 224 284 349 410
#     4  11  23  42  74 104 131 179 239 289 326 402
#     4  11  23  44  72  99 135 184 233 279 344 406
#
# _framework density 22.107028
#
# number of rings (size 3 to 8) (size 9 to 14) (size 15 to 20)
#    0.000    0.333    3.333    7.000    0.000    1.333 
#    0.000    1.667    0.000    0.000    0.000    0.000 
#    0.000    0.000    0.000    0.000    0.000    0.000 
#
# Total GULP energy -134467.292152 kJ/mol
# GULP energy per Si atom -5602.803840 kJ/mol
# Density = 2.205671 g / cm^3
# Si number density = 22.107028 Si / 1000 Ang^3
#
#
#
# Elastic Constant Matrix: (Units=GPa)
#
#
# Indices 1 2 3 4 5 6 
#
# 1 39.4985 -2.2963 24.3681 0.0000 -5.6029 0.0000
# 2 -2.2963 52.1289 13.2057 0.0000 -5.3932 0.0000
# 3 24.3681 13.2057 88.6843 0.0000 -12.6327 0.0000
# 4 0.0000 0.0000 0.0000 35.0511 0.0000 -5.1755
# 5 -5.6029 -5.3932 -12.6327 0.0000 38.7836 0.0000
# 6 0.0000 0.0000 0.0000 -5.1755 0.0000 45.0279
#
#
#
# Elastic Compliance Matrix: (Units=1/GPa)
#
#
# Indices 1 2 3 4 5 6 
#
# 1 0.031322 0.003852 -0.008871 0.000000 0.002171 0.000000
# 2 0.003852 0.020542 -0.003808 0.000000 0.002173 0.000000
# 3 -0.008871 -0.003808 0.014705 0.000000 0.002979 0.000000
# 4 0.000000 0.000000 0.000000 0.029022 0.000000 0.003336
# 5 0.002171 0.002173 0.002979 0.000000 0.027370 0.000000
# 6 0.000000 0.000000 0.000000 0.003336 0.000000 0.022592
#
#
# Mechanical properties :
#
#
# Convention : Reuss Voigt Hill
#
# Bulk Modulus (GPa) = 20.44355 27.87409 24.15882
# Shear Modulus (GPa) = 27.85330 33.44146 30.64738
#
# Velocity S-wave (km/s) = 3.55340 3.89357 3.72737
# Velocity P-wave (km/s) = 5.10912 5.73143 5.42920
#
# Compressibility (1/GPa) = 0.04891519
#
# Stress axis : x y z
#
# Youngs Moduli (GPa) = 31.92650 48.68014 68.00563
#
# Poissons Ratio (x) = -0.18749 0.60326
# Poissons Ratio (y) = -0.12297 0.25894
# Poissons Ratio (z) = 0.28321 0.18536
#
# Static dielectric constant tensor:
#      x y z
#    x 1.811550 0.000000 -0.003090 
#    y 0.000000 1.795640 0.000000 
#    z -0.003090 0.000000 1.786010 
# 
# From -- ./inp_files/8459.got.cif
#   From: 2010.05.17/outbox.cif.g08.bks.cpg/sg14_5_cif.got.tgz:8459.got - 2010.06.03 17:49:19.
