data_PCOD9252425
_publ_section_title
;
Structure prediction by ZEFSAII (Michael W. Deem and Ramdas Pophale) SiO2 
 PCOD9252425
Probable space group: P 21/C
;
_chemical_formula_sum "Si O2"
_cell_formula_units_Z 24
_cell_length_a 5.356707
_cell_length_b 9.337167
_cell_length_c 21.719156
_cell_angle_alpha 90.000000
_cell_angle_beta 70.776056
_cell_angle_gamma 90.000000
_cell_volume 1025.741272
_symmetry_space_group_name_H-M "P 21/C"
_symmetry_group_IT_number 14
_symmetry_cell_setting 'monoclinic'
loop_
_space_group_symop_operation_xyz
x,y,z
-x,1/2+y,1/2-z
-x,-y,-z
x,1/2-y,1/2+z
loop_
_atom_site_type_symbol
_atom_site_label
_atom_site_fract_x
_atom_site_fract_y
_atom_site_fract_z
Si Si1 0.992558 0.322931 0.853743
Si Si2 0.345046 0.176502 0.075811
Si Si3 0.011677 0.576167 0.934129
Si Si4 0.610038 0.135908 0.274919
Si Si5 0.492044 0.169810 0.678623
Si Si6 0.849121 0.397979 0.464419
O O1 0.788466 0.297265 0.814773
O O2 0.005739 0.207832 0.907477
O O3 0.888375 0.468835 0.893780
O O4 0.292647 0.342823 0.806946
O O5 0.325137 0.227193 0.147801
O O6 0.145513 0.276219 0.054278
O O7 0.286103 0.009887 0.071579
O O8 0.631665 0.189883 0.020539
O O9 0.307238 0.596573 0.885660
O O10 0.000000 0.500000 0.000000
O O11 0.661120 0.226411 0.209172
O O12 0.646989 0.962363 0.274223
O O13 0.000000 0.500000 0.500000
#
# Coordination Sequence:
#
# PCOD9252425 Si02
#       6
#     4   4   4   4   4   4
#     4  11  26  47  72 104 145 190 243 297 369 435
#     4  11  24  43  72 101 144 186 241 304 371 432
#     4  11  24  45  75 106 146 187 248 314 374 446
#     4  11  28  46  73 103 145 192 242 298 364 446
#     4  11  26  46  70 108 143 194 245 302 373 441
#     4  11  26  43  68 107 144 190 243 301 371 433
#
# _framework density 23.39771
#
# number of rings (size 3 to 8) (size 9 to 14) (size 15 to 20)
#    0.000    1.000    1.667    3.000   14.000    2.667 
#    0.000    0.000    0.000    0.000    0.000    0.000 
#    0.000    0.000    0.000    0.000    0.000    0.000 
#
# Total GULP energy -134161.141454 kJ/mol
# GULP energy per Si atom -5590.047561 kJ/mol
# Density = 2.334446 g / cm^3
# Si number density = 23.397710 Si / 1000 Ang^3
#
#
#
# Elastic Constant Matrix: (Units=GPa)
#
#
# Indices 1 2 3 4 5 6 
#
# 1 85.2634 -1.8305 13.1496 0.0000 12.1468 0.0000
# 2 -1.8305 72.7116 25.2178 0.0000 13.1492 0.0000
# 3 13.1496 25.2178 57.3594 0.0000 15.8954 0.0000
# 4 0.0000 0.0000 0.0000 36.9954 0.0000 4.6737
# 5 12.1468 13.1492 15.8954 0.0000 37.6913 0.0000
# 6 0.0000 0.0000 0.0000 4.6737 0.0000 35.5163
#
#
#
# Elastic Compliance Matrix: (Units=1/GPa)
#
#
# Indices 1 2 3 4 5 6 
#
# 1 0.012709 0.001930 -0.002764 0.000000 -0.003604 0.000000
# 2 0.001930 0.016826 -0.006840 0.000000 -0.003607 0.000000
# 3 -0.002764 -0.006840 0.022835 0.000000 -0.006353 0.000000
# 4 0.000000 0.000000 0.000000 0.027487 0.000000 -0.003617
# 5 -0.003604 -0.003607 -0.006353 0.000000 0.031631 0.000000
# 6 0.000000 0.000000 0.000000 -0.003617 0.000000 0.028632
#
#
# Mechanical properties :
#
#
# Convention : Reuss Voigt Hill
#
# Bulk Modulus (GPa) = 27.00986 32.04535 29.52761
# Shear Modulus (GPa) = 29.79563 33.96043 31.87803
#
# Velocity S-wave (km/s) = 3.57240 3.81391 3.69513
# Velocity P-wave (km/s) = 5.34649 5.75502 5.55451
#
# Compressibility (1/GPa) = 0.03702351
#
# Stress axis : x y z
#
# Youngs Moduli (GPa) = 78.68191 59.43081 43.79164
#
# Poissons Ratio (x) = -0.11471 0.12102
# Poissons Ratio (y) = -0.15186 0.29955
# Poissons Ratio (z) = 0.21744 0.40653
#
# Static dielectric constant tensor:
#      x y z
#    x 1.914340 0.000000 0.012570 
#    y 0.000000 1.911980 0.000000 
#    z 0.012570 0.000000 1.909970 
# 
# From -- ./inp_files/70985.got.cif
#   From: 2010.05.17/outbox.cif.g08.bks.cpg/sg14_36_cif.got.tgz:70985.got - 2010.06.03 17:49:19.
