data_PCOD9252550
_publ_section_title
;
Structure prediction by ZEFSAII (Michael W. Deem and Ramdas Pophale) SiO2 
 PCOD9252550
Probable space group: P 21/C
;
_chemical_formula_sum "Si O2"
_cell_formula_units_Z 28
_cell_length_a 19.308908
_cell_length_b 13.787431
_cell_length_c 8.770835
_cell_angle_alpha 90.000000
_cell_angle_beta 31.540368
_cell_angle_gamma 90.000000
_cell_volume 1221.422833
_symmetry_space_group_name_H-M "P 21/C"
_symmetry_group_IT_number 14
_symmetry_cell_setting 'monoclinic'
loop_
_space_group_symop_operation_xyz
x,y,z
-x,1/2+y,1/2-z
-x,-y,-z
x,1/2-y,1/2+z
loop_
_atom_site_type_symbol
_atom_site_label
_atom_site_fract_x
_atom_site_fract_y
_atom_site_fract_z
Si Si1 0.172727 0.964921 0.298928
Si Si2 0.394269 0.881529 0.330861
Si Si3 0.084096 0.141743 0.273011
Si Si4 0.473431 0.543146 0.215503
Si Si5 0.844570 0.514949 0.825984
Si Si6 0.491445 0.225569 0.183006
Si Si7 0.206820 0.216417 0.741411
O O1 0.141832 0.038747 0.219896
O O2 0.166566 0.019321 0.471431
O O3 0.063039 0.881617 0.506341
O O4 0.320355 0.928981 0.007696
O O5 0.402933 0.801004 0.448345
O O6 0.485037 0.967679 0.230319
O O7 0.253033 0.929886 0.553806
O O8 0.457005 0.829668 0.063963
O O9 0.089528 0.215055 0.402467
O O10 0.172365 0.189689 0.977713
O O11 0.542020 0.643747 0.127485
O O12 0.500000 0.500000 0.000000
O O13 0.796264 0.615375 0.844135
O O14 0.000000 0.500000 0.500000
O O15 0.344865 0.271347 0.445312
#
# Coordination Sequence:
#
# PCOD9252550 Si02
#       7
#     4   4   4   4   4   4   4
#     4  11  24  46  68 105 142 189 238 300 358 426
#     4  12  26  47  71 111 145 190 241 309 362 436
#     4  11  25  43  71 103 145 185 249 294 358 433
#     4  12  24  44  74 105 144 186 235 303 361 425
#     4  12  25  47  73 100 149 191 243 292 368 432
#     4  12  24  44  74 106 147 187 246 298 368 431
#     4  12  23  45  73 106 141 200 241 296 361 439
#
# _framework density 22.924083
#
# number of rings (size 3 to 8) (size 9 to 14) (size 15 to 20)
#    0.000    0.286    4.286    5.571    0.000    1.143 
#    0.000    0.000    0.000    0.000    0.000    0.000 
#    0.000    0.000    0.000    0.000    0.000    0.000 
#
# Total GULP energy -156682.333262 kJ/mol
# GULP energy per Si atom -5595.797616 kJ/mol
# Density = 2.287191 g / cm^3
# Si number density = 22.924083 Si / 1000 Ang^3
#
#
#
# Elastic Constant Matrix: (Units=GPa)
#
#
# Indices 1 2 3 4 5 6 
#
# 1 114.6660 26.7957 41.7808 0.0000 -12.9350 0.0000
# 2 26.7957 75.1199 2.2468 0.0000 -5.5944 0.0000
# 3 41.7808 2.2468 89.8827 0.0000 -20.3271 0.0000
# 4 0.0000 0.0000 0.0000 13.3757 0.0000 0.5495
# 5 -12.9350 -5.5944 -20.3271 0.0000 35.6665 0.0000
# 6 0.0000 0.0000 0.0000 0.5495 0.0000 59.8689
#
#
#
# Elastic Compliance Matrix: (Units=1/GPa)
#
#
# Indices 1 2 3 4 5 6 
#
# 1 0.011586 -0.003930 -0.005139 0.000000 0.000657 0.000000
# 2 -0.003930 0.014805 0.001905 0.000000 0.001983 0.000000
# 3 -0.005139 0.001905 0.015053 0.000000 0.007014 0.000000
# 4 0.000000 0.000000 0.000000 0.074790 0.000000 -0.000686
# 5 0.000657 0.001983 0.007014 0.000000 0.032584 0.000000
# 6 0.000000 0.000000 0.000000 -0.000686 0.000000 0.016709
#
#
# Mechanical properties :
#
#
# Convention : Reuss Voigt Hill
#
# Bulk Modulus (GPa) = 36.87871 46.81280 41.84575
# Shear Modulus (GPa) = 26.46991 35.70524 31.08757
#
# Velocity S-wave (km/s) = 3.40174 3.95085 3.68653
# Velocity P-wave (km/s) = 5.61706 6.42475 6.03443
#
# Compressibility (1/GPa) = 0.02711592
#
# Stress axis : x y z
#
# Youngs Moduli (GPa) = 86.31188 67.54646 66.43213
#
# Poissons Ratio (x) = 0.26547 0.34138
# Poissons Ratio (y) = 0.33922 -0.12656
# Poissons Ratio (z) = 0.44354 -0.12869
#
# Static dielectric constant tensor:
#      x y z
#    x 1.888050 0.000000 -0.003360 
#    y 0.000000 1.865330 0.000000 
#    z -0.003360 0.000000 1.862540 
# 
# From -- ./inp_files/19047.got.cif
#   From: 2010.05.17/outbox.cif.g08.bks.cpg/sg14_10_cif.got.tgz:19047.got - 2010.06.03 17:49:19.
