data_PCOD9252772
_publ_section_title
;
Structure prediction by ZEFSAII (Michael W. Deem and Ramdas Pophale) SiO2 
 PCOD9252772
Probable space group: P 21/C
;
_chemical_formula_sum "Si O2"
_cell_formula_units_Z 28
_cell_length_a 14.593989
_cell_length_b 7.062793
_cell_length_c 10.379612
_cell_angle_alpha 90.000000
_cell_angle_beta 108.847422
_cell_angle_gamma 90.000000
_cell_volume 1012.507335
_symmetry_space_group_name_H-M "P 21/C"
_symmetry_group_IT_number 14
_symmetry_cell_setting 'monoclinic'
loop_
_space_group_symop_operation_xyz
x,y,z
-x,1/2+y,1/2-z
-x,-y,-z
x,1/2-y,1/2+z
loop_
_atom_site_type_symbol
_atom_site_label
_atom_site_fract_x
_atom_site_fract_y
_atom_site_fract_z
Si Si1 0.418593 0.030586 0.102851
Si Si2 0.082734 0.955964 0.863520
Si Si3 0.275919 0.952900 0.271319
Si Si4 0.549838 0.303771 0.045402
Si Si5 0.735078 0.608045 0.695366
Si Si6 0.056672 0.137228 0.423597
Si Si7 0.796528 0.141295 0.425737
O O1 0.472017 0.845148 0.075933
O O2 0.337569 0.078254 0.956729
O O3 0.360336 0.971806 0.201675
O O4 0.495655 0.199062 0.138809
O O5 0.990542 0.892893 0.737937
O O6 0.157741 0.042273 0.794040
O O7 0.058438 0.136266 0.944418
O O8 0.143532 0.781547 0.948366
O O9 0.252819 0.169974 0.277157
O O10 0.335015 0.848858 0.411665
O O11 0.197494 0.808663 0.182665
O O12 0.500000 0.500000 0.000000
O O13 0.709605 0.474196 0.806528
O O14 0.162339 0.052794 0.491859
O O15 0.000000 0.000000 0.500000
#
# Coordination Sequence:
#
# PCOD9252772 Si02
#       7
#     4   4   4   4   4   4   4
#     4  11  26  45  69 108 145 182 248 293 363 430
#     4  12  27  48  73 107 146 192 232 303 363 425
#     4  12  27  46  74 106 143 194 240 305 358 431
#     4  11  25  46  70 103 144 191 234 299 359 431
#     4  12  26  48  71 108 147 185 247 296 359 436
#     4  12  27  48  73 108 145 186 243 294 361 437
#     4  12  26  47  71 106 142 192 241 295 362 429
#
# _framework density 27.654122000000001
#
# number of rings (size 3 to 8) (size 9 to 14) (size 15 to 20)
#    0.000    0.286    7.143    0.857    2.000    5.143 
#    0.000    0.000    0.000    0.000    0.000    0.000 
#    0.000    0.000    0.000    0.000    0.000    0.000 
#
# Total GULP energy -156114.278687 kJ/mol
# GULP energy per Si atom -5575.509953 kJ/mol
# Density = 2.759118 g / cm^3
# Si number density = 27.654122 Si / 1000 Ang^3
#
#
#
# Elastic Constant Matrix: (Units=GPa)
#
#
# Indices 1 2 3 4 5 6 
#
# 1 56.8516 22.7200 -13.6640 0.0000 7.7027 0.0000
# 2 22.7200 235.9712 47.8663 0.0000 4.6603 0.0000
# 3 -13.6640 47.8663 89.4517 0.0000 40.1816 0.0000
# 4 0.0000 0.0000 0.0000 51.6154 0.0000 7.4908
# 5 7.7027 4.6603 40.1816 0.0000 41.5763 0.0000
# 6 0.0000 0.0000 0.0000 7.4908 0.0000 48.9015
#
#
#
# Elastic Compliance Matrix: (Units=1/GPa)
#
#
# Indices 1 2 3 4 5 6 
#
# 1 0.025921 -0.005221 0.015282 0.000000 -0.018986 0.000000
# 2 -0.005221 0.006094 -0.007398 0.000000 0.007434 0.000000
# 3 0.015282 -0.007398 0.032466 0.000000 -0.033379 0.000000
# 4 0.000000 0.000000 0.000000 0.019815 0.000000 -0.003035
# 5 -0.018986 0.007434 -0.033379 0.000000 0.058996 0.000000
# 6 0.000000 0.000000 0.000000 -0.003035 0.000000 0.020914
#
#
# Mechanical properties :
#
#
# Convention : Reuss Voigt Hill
#
# Bulk Modulus (GPa) = 14.32497 55.12436 34.72467
# Shear Modulus (GPa) = 27.45012 50.10879 38.77945
#
# Velocity S-wave (km/s) = 3.15401 4.26136 3.74880
# Velocity P-wave (km/s) = 4.29593 6.64748 5.59661
#
# Compressibility (1/GPa) = 0.06980816
#
# Stress axis : x y z
#
# Youngs Moduli (GPa) = 38.57824 164.08792 30.80154
#
# Poissons Ratio (x) = 0.85666 -0.47070
# Poissons Ratio (y) = 0.20141 0.22786
# Poissons Ratio (z) = -0.58955 1.21389
#
# Static dielectric constant tensor:
#      x y z
#    x 2.448940 0.000000 -0.218020 
#    y 0.000000 2.144000 0.000000 
#    z -0.218020 0.000000 2.278420 
# 
# From -- ./inp_files/34780.got.cif
#   From: 2010.05.17/outbox.cif.g08.bks.cpg/sg14_18_cif.got.tgz:34780.got - 2010.06.03 17:49:19.
