data_PCOD9252690
_publ_section_title
;
Structure prediction by ZEFSAII (Michael W. Deem and Ramdas Pophale) SiO2 
 PCOD9252690
Probable space group: P 21/C
;
_chemical_formula_sum "Si O2"
_cell_formula_units_Z 32
_cell_length_a 13.583535
_cell_length_b 17.800581
_cell_length_c 10.580374
_cell_angle_alpha 90.000000
_cell_angle_beta 31.873466
_cell_angle_gamma 90.000000
_cell_volume 1350.887031
_symmetry_space_group_name_H-M "P 21/C"
_symmetry_group_IT_number 14
_symmetry_cell_setting 'monoclinic'
loop_
_space_group_symop_operation_xyz
x,y,z
-x,1/2+y,1/2-z
-x,-y,-z
x,1/2-y,1/2+z
loop_
_atom_site_type_symbol
_atom_site_label
_atom_site_fract_x
_atom_site_fract_y
_atom_site_fract_z
Si Si1 0.368647 0.030272 0.757543
Si Si2 0.271189 0.606276 0.033548
Si Si3 0.621139 0.759525 0.844134
Si Si4 0.180373 0.439062 0.069908
Si Si5 0.820297 0.401443 0.362568
Si Si6 0.081876 0.358903 0.435799
Si Si7 0.387380 0.741097 0.333747
Si Si8 0.500264 0.083691 0.050455
O O1 0.517084 0.081649 0.669080
O O2 0.204230 0.081768 0.883009
O O3 0.500000 0.000000 0.500000
O O4 0.271044 0.965806 0.947643
O O5 0.178991 0.528036 0.092244
O O6 0.135756 0.634640 0.293379
O O7 0.289662 0.678175 0.924528
O O8 0.823264 0.721002 0.633431
O O9 0.519733 0.754216 0.816695
O O10 0.603873 0.847334 0.901826
O O11 0.502940 0.719412 0.083353
O O12 0.115283 0.389280 0.258418
O O13 0.036684 0.418472 0.117109
O O14 0.388962 0.418686 0.804622
O O15 0.769449 0.321019 0.474547
O O16 0.714210 0.400608 0.345709
O O17 0.500000 0.000000 0.000000
#
# Coordination Sequence:
#
# PCOD9252690 Si02
#       8
#     4   4   4   4   4   4   4   4
#     4  12  20  39  69  98 139 177 229 289 352 424
#     4  12  24  40  70 106 138 183 238 291 354 430
#     4  11  25  47  71 102 142 188 234 295 364 419
#     4  12  24  42  69 103 140 183 238 297 366 427
#     4  11  25  43  67  99 141 187 232 294 360 424
#     4  12  24  40  69 110 137 178 237 301 361 421
#     4  11  26  46  72 101 144 188 235 294 360 421
#     4  11  25  47  71  92 139 194 243 290 354 432
#
# _framework density 23.688139
#
# number of rings (size 3 to 8) (size 9 to 14) (size 15 to 20)
#    0.000    0.500    5.000    4.125    3.500    0.500 
#    0.000    0.000    0.000    0.000    0.000    0.000 
#    0.000    0.000    0.000    0.000    0.000    0.000 
#
# Total GULP energy -178813.925719 kJ/mol
# GULP energy per Si atom -5587.935179 kJ/mol
# Density = 2.363422 g / cm^3
# Si number density = 23.688139 Si / 1000 Ang^3
#
#
#
# Elastic Constant Matrix: (Units=GPa)
#
#
# Indices 1 2 3 4 5 6 
#
# 1 62.7143 26.1204 25.9356 0.0000 -13.7797 0.0000
# 2 26.1204 135.1661 -10.3842 0.0000 -10.3011 0.0000
# 3 25.9356 -10.3842 64.1119 0.0000 1.2738 0.0000
# 4 0.0000 0.0000 0.0000 30.8315 0.0000 11.3236
# 5 -13.7797 -10.3011 1.2738 0.0000 37.6563 0.0000
# 6 0.0000 0.0000 0.0000 11.3236 0.0000 12.2171
#
#
#
# Elastic Compliance Matrix: (Units=1/GPa)
#
#
# Indices 1 2 3 4 5 6 
#
# 1 0.024138 -0.004889 -0.010713 0.000000 0.007858 0.000000
# 2 -0.004889 0.008637 0.003367 0.000000 0.000460 0.000000
# 3 -0.010713 0.003367 0.020550 0.000000 -0.003694 0.000000
# 4 0.000000 0.000000 0.000000 0.049174 0.000000 -0.045578
# 5 0.007858 0.000460 -0.003694 0.000000 0.029682 0.000000
# 6 0.000000 0.000000 0.000000 -0.045578 0.000000 0.124097
#
#
# Mechanical properties :
#
#
# Convention : Reuss Voigt Hill
#
# Bulk Modulus (GPa) = 34.65346 38.37066 36.51206
# Shear Modulus (GPa) = 17.21964 30.82902 24.02433
#
# Velocity S-wave (km/s) = 2.69909 3.61148 3.18809
# Velocity P-wave (km/s) = 4.93703 5.79860 5.38507
#
# Compressibility (1/GPa) = 0.02885714
#
# Stress axis : x y z
#
# Youngs Moduli (GPa) = 41.42776 115.78356 48.66114
#
# Poissons Ratio (x) = 0.56605 0.52130
# Poissons Ratio (y) = 0.20253 -0.16387
# Poissons Ratio (z) = 0.44381 -0.38990
#
# Static dielectric constant tensor:
#      x y z
#    x 1.969140 0.000000 0.038380 
#    y 0.000000 1.944460 0.000000 
#    z 0.038380 0.000000 1.870990 
# 
# From -- ./inp_files/33043.got.cif
#   From: 2010.05.17/outbox.cif.g08.bks.cpg/sg14_17_cif.got.tgz:33043.got - 2010.06.03 17:49:19.
