data_PCOD9252064
_publ_section_title
;
Structure prediction by ZEFSAII (Michael W. Deem and Ramdas Pophale) SiO2 
 PCOD9252064
Probable space group: P 21/C
;
_chemical_formula_sum "Si O2"
_cell_formula_units_Z 28
_cell_length_a 28.509166
_cell_length_b 10.190862
_cell_length_c 23.395563
_cell_angle_alpha 90.000000
_cell_angle_beta 10.527671
_cell_angle_gamma 90.000000
_cell_volume 1241.915721
_symmetry_space_group_name_H-M "P 21/C"
_symmetry_group_IT_number 14
_symmetry_cell_setting 'monoclinic'
loop_
_space_group_symop_operation_xyz
x,y,z
-x,1/2+y,1/2-z
-x,-y,-z
x,1/2-y,1/2+z
loop_
_atom_site_type_symbol
_atom_site_label
_atom_site_fract_x
_atom_site_fract_y
_atom_site_fract_z
Si Si1 0.144445 0.316609 0.404874
Si Si2 0.050989 0.350699 0.747966
Si Si3 0.603492 0.180360 0.269559
Si Si4 0.946860 0.945585 0.870559
Si Si5 0.666281 0.570537 0.251159
Si Si6 0.196747 0.600685 0.732346
Si Si7 0.531797 0.897431 0.165436
O O1 0.115208 0.426478 0.488286
O O2 0.222687 0.194987 0.350735
O O3 0.911201 0.245660 0.650658
O O4 0.362246 0.349293 0.098377
O O5 0.076612 0.329849 0.648932
O O6 0.321470 0.339397 0.455554
O O7 0.834556 0.248786 0.028271
O O8 0.889769 0.484054 0.954394
O O9 0.508111 0.283232 0.335026
O O10 0.751343 0.048521 0.075650
O O11 0.254150 0.962975 0.505249
O O12 0.500000 0.500000 0.500000
O O13 0.455420 0.609482 0.458008
O O14 0.278100 0.513537 0.581022
O O15 0.000000 0.500000 0.000000
#
# Coordination Sequence:
#
# PCOD9252064 Si02
#       7
#     4   4   4   4   4   4   4
#     4  12  25  41  70 100 138 184 238 289 353 430
#     4  11  23  42  69  99 133 180 239 295 354 413
#     4  11  24  45  67  98 143 184 236 292 355 432
#     4  11  28  44  62  99 150 193 224 283 372 442
#     4  12  20  38  68 101 130 168 231 302 344 394
#     4  12  20  38  70 105 128 163 236 299 341 400
#     4  11  23  42  70 102 130 185 236 298 351 410
#
# _framework density 22.545814
#
# number of rings (size 3 to 8) (size 9 to 14) (size 15 to 20)
#    0.000    0.571    8.571    0.429    4.000    3.429 
#    0.000    0.000    0.000    5.143    0.000    0.000 
#    0.000    0.000    0.000    0.000    0.000    0.000 
#
# Total GULP energy -156073.423581 kJ/mol
# GULP energy per Si atom -5574.050842 kJ/mol
# Density = 2.249450 g / cm^3
# Si number density = 22.545814 Si / 1000 Ang^3
#
#
#
# Elastic Constant Matrix: (Units=GPa)
#
#
# Indices 1 2 3 4 5 6 
#
# 1 90.0630 -3.5906 45.2791 0.0000 -14.3967 0.0000
# 2 -3.5906 29.2840 26.0734 0.0000 1.9972 0.0000
# 3 45.2791 26.0734 107.0342 0.0000 13.2978 0.0000
# 4 0.0000 0.0000 0.0000 21.8131 0.0000 1.2264
# 5 -14.3967 1.9972 13.2978 0.0000 40.5106 0.0000
# 6 0.0000 0.0000 0.0000 1.2264 0.0000 27.3652
#
#
#
# Elastic Compliance Matrix: (Units=1/GPa)
#
#
# Indices 1 2 3 4 5 6 
#
# 1 0.019834 0.013221 -0.012933 0.000000 0.010642 0.000000
# 2 0.013221 0.052495 -0.019436 0.000000 0.008490 0.000000
# 3 -0.012933 -0.019436 0.020851 0.000000 -0.010482 0.000000
# 4 0.000000 0.000000 0.000000 0.045960 0.000000 -0.002060
# 5 0.010642 0.008490 -0.010482 0.000000 0.031489 0.000000
# 6 0.000000 0.000000 0.000000 -0.002060 0.000000 0.036635
#
#
# Mechanical properties :
#
#
# Convention : Reuss Voigt Hill
#
# Bulk Modulus (GPa) = 18.21998 40.21168 29.21583
# Shear Modulus (GPa) = 18.94985 28.51241 23.73113
#
# Velocity S-wave (km/s) = 2.90229 3.56004 3.24786
# Velocity P-wave (km/s) = 4.39658 5.89684 5.20109
#
# Compressibility (1/GPa) = 0.05488479
#
# Stress axis : x y z
#
# Youngs Moduli (GPa) = 50.41899 19.04930 47.95961
#
# Poissons Ratio (x) = -0.25186 0.62027
# Poissons Ratio (y) = -0.66661 0.93213
# Poissons Ratio (z) = 0.65208 0.37024
#
# Static dielectric constant tensor:
#      x y z
#    x 2.033950 0.000000 0.013440 
#    y 0.000000 1.906900 0.000000 
#    z 0.013440 0.000000 1.906240 
# 
# From -- ./inp_files/75306.got.cif
#   From: 2010.05.17/outbox.cif.g08.bks.cpg/sg14_38_cif.got.tgz:75306.got - 2010.06.03 17:49:19.
