data_PCOD9252109
_publ_section_title
;
Structure prediction by ZEFSAII (Michael W. Deem and Ramdas Pophale) SiO2 
 PCOD9252109
Probable space group: P 21/C
;
_chemical_formula_sum "Si O2"
_cell_formula_units_Z 30
_cell_length_a 15.778748
_cell_length_b 17.289803
_cell_length_c 12.612598
_cell_angle_alpha 90.000000
_cell_angle_beta 26.417203
_cell_angle_gamma 90.000000
_cell_volume 1530.853187
_symmetry_space_group_name_H-M "P 21/C"
_symmetry_group_IT_number 14
_symmetry_cell_setting 'monoclinic'
loop_
_space_group_symop_operation_xyz
x,y,z
-x,1/2+y,1/2-z
-x,-y,-z
x,1/2-y,1/2+z
loop_
_atom_site_type_symbol
_atom_site_label
_atom_site_fract_x
_atom_site_fract_y
_atom_site_fract_z
Si Si1 0.988598 0.163711 0.400070
Si Si2 0.087365 0.207220 0.956728
Si Si3 0.000000 0.000000 0.500000
Si Si4 0.853452 0.086425 0.879281
Si Si5 0.488056 0.488764 0.139897
Si Si6 0.887774 0.945225 0.207948
Si Si7 0.356750 0.183805 0.838628
Si Si8 0.243858 0.767769 0.520962
O O1 0.028700 0.219947 0.453108
O O2 0.809644 0.194712 0.532273
O O3 0.178891 0.172914 0.116116
O O4 0.967709 0.076305 0.460401
O O5 0.141587 0.135518 0.821127
O O6 0.262285 0.222916 0.840841
O O7 0.898168 0.188830 0.237700
O O8 0.076499 0.949686 0.309326
O O9 0.816454 0.178070 0.912340
O O10 0.001227 0.071726 0.808866
O O11 0.664286 0.043568 0.132817
O O12 0.430280 0.400938 0.225079
O O13 0.500000 0.500000 0.000000
O O14 0.693270 0.511870 0.953079
O O15 0.000000 0.000000 0.000000
O O16 0.537213 0.225256 0.689438
#
# Coordination Sequence:
#
# PCOD9252109 Si02
#       8
#     4   4   2   4   4   4   4   4
#     4  11  25  48  68  98 144 192 240 291 353 436
#     4  11  23  43  68  98 139 181 237 296 351 418
#     4  12  26  52  70  96 152 200 234 288 362 440
#     4  12  26  47  70 103 143 188 240 289 357 439
#     4  12  24  41  69 109 136 171 231 297 358 415
#     4  12  24  42  72 102 139 182 230 300 358 412
#     4  11  25  43  67 106 140 175 235 300 361 421
#     4  11  26  43  70 102 138 187 237 292 360 428
#
# _framework density 19.596914000000002
#
# number of rings (size 3 to 8) (size 9 to 14) (size 15 to 20)
#    0.000    0.533    6.667    0.800    5.600    1.067 
#    0.000    1.333    0.000    0.000    0.000    0.000 
#    0.000    0.000    0.000    0.000    0.000    0.000 
#
# Total GULP energy -167173.034970 kJ/mol
# GULP energy per Si atom -5572.434499 kJ/mol
# Density = 1.955231 g / cm^3
# Si number density = 19.596914 Si / 1000 Ang^3
#
#
#
# Elastic Constant Matrix: (Units=GPa)
#
#
# Indices 1 2 3 4 5 6 
#
# 1 129.3856 25.0375 70.9683 0.0000 -9.5622 0.0000
# 2 25.0375 72.3974 -1.4427 0.0000 7.9530 0.0000
# 3 70.9683 -1.4427 60.4664 0.0000 -2.5657 0.0000
# 4 0.0000 0.0000 0.0000 33.4349 0.0000 4.8768
# 5 -9.5622 7.9530 -2.5657 0.0000 35.0523 0.0000
# 6 0.0000 0.0000 0.0000 4.8768 0.0000 25.5175
#
#
#
# Elastic Compliance Matrix: (Units=1/GPa)
#
#
# Indices 1 2 3 4 5 6 
#
# 1 0.029773 -0.011900 -0.034877 0.000000 0.008269 0.000000
# 2 -0.011900 0.018924 0.014142 0.000000 -0.006505 0.000000
# 3 -0.034877 0.014142 0.057448 0.000000 -0.008518 0.000000
# 4 0.000000 0.000000 0.000000 0.030767 0.000000 -0.005880
# 5 0.008269 -0.006505 -0.008518 0.000000 0.031637 0.000000
# 6 0.000000 0.000000 0.000000 -0.005880 0.000000 0.040313
#
#
# Mechanical properties :
#
#
# Convention : Reuss Voigt Hill
#
# Bulk Modulus (GPa) = 24.46391 50.15283 37.30837
# Shear Modulus (GPa) = 17.37586 29.98002 23.67794
#
# Velocity S-wave (km/s) = 2.98092 3.91555 3.47976
# Velocity P-wave (km/s) = 4.93543 6.78895 5.93499
#
# Compressibility (1/GPa) = 0.04087654
#
# Stress axis : x y z
#
# Youngs Moduli (GPa) = 33.58790 52.84187 17.40697
#
# Poissons Ratio (x) = 0.62881 0.60710
# Poissons Ratio (y) = 0.39969 -0.24617
# Poissons Ratio (z) = 1.17143 -0.74729
#
# Static dielectric constant tensor:
#      x y z
#    x 1.715430 0.000000 0.051820 
#    y 0.000000 1.684780 0.000000 
#    z 0.051820 0.000000 1.718200 
# 
# From -- ./inp_files/32971.got.cif
#   From: 2010.05.17/outbox.cif.g08.bks.cpg/sg14_17_cif.got.tgz:32971.got - 2010.06.03 17:49:19.
