data_PCOD9252569
_publ_section_title
;
Structure prediction by ZEFSAII (Michael W. Deem and Ramdas Pophale) SiO2 
 PCOD9252569
Probable space group: P 21/C
;
_chemical_formula_sum "Si O2"
_cell_formula_units_Z 30
_cell_length_a 11.366079
_cell_length_b 8.552117
_cell_length_c 13.895203
_cell_angle_alpha 90.000000
_cell_angle_beta 55.871940
_cell_angle_gamma 90.000000
_cell_volume 1118.065130
_symmetry_space_group_name_H-M "P 21/C"
_symmetry_group_IT_number 14
_symmetry_cell_setting 'monoclinic'
loop_
_space_group_symop_operation_xyz
x,y,z
-x,1/2+y,1/2-z
-x,-y,-z
x,1/2-y,1/2+z
loop_
_atom_site_type_symbol
_atom_site_label
_atom_site_fract_x
_atom_site_fract_y
_atom_site_fract_z
Si Si1 0.120296 0.101895 0.605408
Si Si2 0.669157 0.057420 0.340474
Si Si3 0.000000 0.000000 0.500000
Si Si4 0.489560 0.520000 0.690638
Si Si5 0.239208 0.745282 0.873801
Si Si6 0.145553 0.106283 0.222322
Si Si7 0.645934 0.779060 0.228762
Si Si8 0.645969 0.143773 0.971547
O O1 0.234275 0.018791 0.620756
O O2 0.148969 0.091560 0.480113
O O3 0.982029 0.983178 0.663509
O O4 0.092020 0.268264 0.668047
O O5 0.762418 0.119331 0.207155
O O6 0.605772 0.212206 0.419626
O O7 0.581885 0.913227 0.333068
O O8 0.088276 0.836339 0.449000
O O9 0.355559 0.624929 0.777010
O O10 0.457907 0.358455 0.758951
O O11 0.637486 0.610878 0.639435
O O12 0.509286 0.444273 0.577676
O O13 0.281081 0.791741 0.963272
O O14 0.231907 0.205529 0.261854
O O15 0.238612 0.970497 0.130837
#
# Coordination Sequence:
#
# PCOD9252569 Si02
#       8
#     4   4   2   4   4   4   4   4
#     4  11  24  46  71 108 154 199 260 330 381 477
#     4  11  24  49  74 111 156 198 262 319 402 463
#     4  12  24  44  76 106 144 202 252 320 394 444
#     4  12  25  49  73 112 154 199 261 324 388 467
#     4  12  26  49  77 110 154 206 257 335 381 477
#     4  11  26  45  75 111 154 211 265 324 399 466
#     4  11  24  46  76 109 154 207 251 338 383 468
#     4  12  25  48  75 110 152 209 258 322 397 474
#
# _framework density 26.832068
#
# number of rings (size 3 to 8) (size 9 to 14) (size 15 to 20)
#    0.000    0.533    4.000    4.000    0.000    4.800 
#    0.000    1.333    0.000    0.000    0.000    0.000 
#    0.000    0.000    0.000    0.000    0.000    0.000 
#
# Total GULP energy -167167.593216 kJ/mol
# GULP energy per Si atom -5572.253107 kJ/mol
# Density = 2.677100 g / cm^3
# Si number density = 26.832068 Si / 1000 Ang^3
#
#
#
# Elastic Constant Matrix: (Units=GPa)
#
#
# Indices 1 2 3 4 5 6 
#
# 1 82.7002 27.7082 7.8718 0.0000 18.3434 0.0000
# 2 27.7082 128.8285 25.3612 0.0000 10.0155 0.0000
# 3 7.8718 25.3612 98.0930 0.0000 7.8638 0.0000
# 4 0.0000 0.0000 0.0000 58.9104 0.0000 19.0304
# 5 18.3434 10.0155 7.8638 0.0000 54.9351 0.0000
# 6 0.0000 0.0000 0.0000 19.0304 0.0000 64.6259
#
#
#
# Elastic Compliance Matrix: (Units=1/GPa)
#
#
# Indices 1 2 3 4 5 6 
#
# 1 0.013909 -0.002650 -0.000099 0.000000 -0.004147 0.000000
# 2 -0.002650 0.008763 -0.002019 0.000000 -0.000424 0.000000
# 3 -0.000099 -0.002019 0.010816 0.000000 -0.001147 0.000000
# 4 0.000000 0.000000 0.000000 0.018759 0.000000 -0.005524
# 5 -0.004147 -0.000424 -0.001147 0.000000 0.019830 0.000000
# 6 0.000000 0.000000 0.000000 -0.005524 0.000000 0.017100
#
#
# Mechanical properties :
#
#
# Convention : Reuss Voigt Hill
#
# Bulk Modulus (GPa) = 41.74800 47.94493 44.84646
# Shear Modulus (GPa) = 46.86219 52.27297 49.56758
#
# Velocity S-wave (km/s) = 4.18365 4.41858 4.30272
# Velocity P-wave (km/s) = 6.23939 6.62866 6.43697
#
# Compressibility (1/GPa) = 0.02395325
#
# Stress axis : x y z
#
# Youngs Moduli (GPa) = 71.89663 114.12230 92.45337
#
# Poissons Ratio (x) = 0.30239 0.00912
# Poissons Ratio (y) = 0.19050 0.18665
# Poissons Ratio (z) = 0.00709 0.23040
#
# Static dielectric constant tensor:
#      x y z
#    x 2.122960 0.000000 -0.162750 
#    y 0.000000 2.272340 0.000000 
#    z -0.162750 0.000000 1.412200 
# 
# From -- ./inp_files/43704.got.cif
#   From: 2010.05.17/outbox.cif.g08.bks.cpg/sg14_22_cif.got.tgz:43704.got - 2010.06.03 17:49:19.
