data_PCOD9252512
_publ_section_title
;
Structure prediction by ZEFSAII (Michael W. Deem and Ramdas Pophale) SiO2 
 PCOD9252512
Probable space group: P 21/C
;
_chemical_formula_sum "Si O2"
_cell_formula_units_Z 28
_cell_length_a 6.383475
_cell_length_b 11.463151
_cell_length_c 21.039368
_cell_angle_alpha 90.000000
_cell_angle_beta 125.875761
_cell_angle_gamma 90.000000
_cell_volume 1247.481597
_symmetry_space_group_name_H-M "P 21/C"
_symmetry_group_IT_number 14
_symmetry_cell_setting 'monoclinic'
loop_
_space_group_symop_operation_xyz
x,y,z
-x,1/2+y,1/2-z
-x,-y,-z
x,1/2-y,1/2+z
loop_
_atom_site_type_symbol
_atom_site_label
_atom_site_fract_x
_atom_site_fract_y
_atom_site_fract_z
Si Si1 0.151417 0.061065 0.605605
Si Si2 0.194163 0.201106 0.167807
Si Si3 0.733164 0.041733 0.136798
Si Si4 0.407468 0.929716 0.545085
Si Si5 0.251527 0.875389 0.719618
Si Si6 0.176662 0.221731 0.887842
Si Si7 0.828886 0.883226 0.980362
O O1 0.200046 0.159543 0.667103
O O2 0.894700 0.098613 0.521932
O O3 0.383318 0.021647 0.599601
O O4 0.106512 0.945521 0.638904
O O5 0.457036 0.156590 0.246472
O O6 0.188872 0.176347 0.091249
O O7 0.956667 0.128920 0.153200
O O8 0.725582 0.055047 0.211154
O O9 0.465712 0.081899 0.058275
O O10 0.763825 0.907951 0.124483
O O11 0.589471 0.814852 0.582021
O O12 0.500000 0.000000 0.500000
O O13 0.071759 0.763770 0.695918
O O14 0.097237 0.200997 0.948075
O O15 0.000000 0.000000 0.000000
#
# Coordination Sequence:
#
# PCOD9252512 Si02
#       7
#     4   4   4   4   4   4   4
#     4  11  26  44  71 100 143 186 242 297 367 432
#     4  11  26  46  70  99 149 187 236 305 362 436
#     4  11  27  48  69 108 144 194 238 304 375 435
#     4  11  24  45  69 108 138 184 246 304 362 433
#     4  11  29  44  66 109 139 196 237 288 369 442
#     4  12  25  46  78 101 148 189 247 304 367 437
#     4  11  24  45  72 110 138 178 248 300 364 432
#
# _framework density 22.445221
#
# number of rings (size 3 to 8) (size 9 to 14) (size 15 to 20)
#    0.000    0.857    2.857    2.143   10.000    1.143 
#    0.000    0.000    0.000    0.000    0.000    0.000 
#    0.000    0.000    0.000    0.000    0.000    0.000 
#
# Total GULP energy -156390.185078 kJ/mol
# GULP energy per Si atom -5585.363753 kJ/mol
# Density = 2.239413 g / cm^3
# Si number density = 22.445221 Si / 1000 Ang^3
#
#
#
# Elastic Constant Matrix: (Units=GPa)
#
#
# Indices 1 2 3 4 5 6 
#
# 1 104.4901 52.4284 16.3238 0.0000 18.8664 0.0000
# 2 52.4284 116.4133 17.9287 0.0000 10.3186 0.0000
# 3 16.3238 17.9287 69.5541 0.0000 20.4499 0.0000
# 4 0.0000 0.0000 0.0000 29.4147 0.0000 -3.1993
# 5 18.8664 10.3186 20.4499 0.0000 24.3910 0.0000
# 6 0.0000 0.0000 0.0000 -3.1993 0.0000 40.5100
#
#
#
# Elastic Compliance Matrix: (Units=1/GPa)
#
#
# Indices 1 2 3 4 5 6 
#
# 1 0.013875 -0.005575 0.000853 0.000000 -0.009089 0.000000
# 2 -0.005575 0.011297 -0.001946 0.000000 0.001164 0.000000
# 3 0.000853 -0.001946 0.019417 0.000000 -0.016116 0.000000
# 4 0.000000 0.000000 0.000000 0.034291 0.000000 0.002708
# 5 -0.009089 0.001164 -0.016116 0.000000 0.061049 0.000000
# 6 0.000000 0.000000 0.000000 0.002708 0.000000 0.024899
#
#
# Mechanical properties :
#
#
# Convention : Reuss Voigt Hill
#
# Bulk Modulus (GPa) = 31.99577 51.53546 41.76562
# Shear Modulus (GPa) = 26.51360 32.44824 29.48092
#
# Velocity S-wave (km/s) = 3.44067 3.80631 3.62810
# Velocity P-wave (km/s) = 5.48364 6.50598 6.01656
#
# Compressibility (1/GPa) = 0.03125413
#
# Stress axis : x y z
#
# Youngs Moduli (GPa) = 72.07065 88.51742 51.50083
#
# Poissons Ratio (x) = 0.49345 -0.04393
# Poissons Ratio (y) = 0.40177 0.10022
# Poissons Ratio (z) = -0.06147 0.17226
#
# Static dielectric constant tensor:
#      x y z
#    x 1.861750 0.000000 -0.013580 
#    y 0.000000 1.748690 0.000000 
#    z -0.013580 0.000000 1.825710 
# 
# From -- ./inp_files/63601.got.cif
#   From: 2010.05.17/outbox.cif.g08.bks.cpg/sg14_32_cif.got.tgz:63601.got - 2010.06.03 17:49:19.
