data_PCOD9252770
_publ_section_title
;
Structure prediction by ZEFSAII (Michael W. Deem and Ramdas Pophale) SiO2 
 PCOD9252770
Probable space group: P 21/C
;
_chemical_formula_sum "Si O2"
_cell_formula_units_Z 22
_cell_length_a 12.900109
_cell_length_b 11.610546
_cell_length_c 14.993883
_cell_angle_alpha 90.000000
_cell_angle_beta 23.606125
_cell_angle_gamma 90.000000
_cell_volume 899.301205
_symmetry_space_group_name_H-M "P 21/C"
_symmetry_group_IT_number 14
_symmetry_cell_setting 'monoclinic'
loop_
_space_group_symop_operation_xyz
x,y,z
-x,1/2+y,1/2-z
-x,-y,-z
x,1/2-y,1/2+z
loop_
_atom_site_type_symbol
_atom_site_label
_atom_site_fract_x
_atom_site_fract_y
_atom_site_fract_z
Si Si1 0.500000 0.000000 0.000000
Si Si2 0.103302 0.371830 0.901031
Si Si3 0.955092 0.501993 0.287248
Si Si4 0.540551 0.000353 0.362734
Si Si5 0.761541 0.306569 0.573713
Si Si6 0.226608 0.305107 0.434888
O O1 0.601118 0.891812 0.858353
O O2 0.760219 0.984903 0.858481
O O3 0.067970 0.300988 0.020491
O O4 0.000000 0.500000 0.000000
O O5 0.950535 0.296381 0.950455
O O6 0.874702 0.389727 0.408462
O O7 0.908662 0.613980 0.386485
O O8 0.263896 0.495504 0.029526
O O9 0.691307 0.887480 0.211727
O O10 0.500000 0.000000 0.500000
O O11 0.704777 0.109970 0.202118
O O12 0.490270 0.247814 0.764561
#
# Coordination Sequence:
#
# PCOD9252770 Si02
#       6
#     2   4   4   4   4   4
#     4  12  26  46  72 112 142 196 256 292 368 442
#     4  12  27  46  74 106 150 192 243 311 369 441
#     4  11  25  46  76 107 148 194 251 306 365 445
#     4  11  25  46  76 108 140 196 253 301 368 446
#     4  11  25  47  71 106 149 189 241 310 372 427
#     4  11  25  46  69 106 147 189 238 302 377 422
#
# _framework density 24.463438
#
# number of rings (size 3 to 8) (size 9 to 14) (size 15 to 20)
#    0.000    0.727    1.818    4.364    5.091   11.636 
#    0.000    0.000    0.000    0.000    0.000    0.000 
#    0.000    0.000    0.000    0.000    0.000    0.000 
#
# Total GULP energy -122826.629544 kJ/mol
# GULP energy per Si atom -5583.028616 kJ/mol
# Density = 2.440776 g / cm^3
# Si number density = 24.463438 Si / 1000 Ang^3
#
#
#
# Elastic Constant Matrix: (Units=GPa)
#
#
# Indices 1 2 3 4 5 6 
#
# 1 116.7752 47.7525 29.4679 0.0000 -12.9007 0.0000
# 2 47.7525 190.6455 47.6080 0.0000 -4.6522 0.0000
# 3 29.4679 47.6080 69.1098 0.0000 -12.3919 0.0000
# 4 0.0000 0.0000 0.0000 49.1635 0.0000 -16.9479
# 5 -12.9007 -4.6522 -12.3919 0.0000 45.7259 0.0000
# 6 0.0000 0.0000 0.0000 -16.9479 0.0000 28.9015
#
#
#
# Elastic Compliance Matrix: (Units=1/GPa)
#
#
# Indices 1 2 3 4 5 6 
#
# 1 0.010220 -0.001825 -0.002750 0.000000 0.001952 0.000000
# 2 -0.001825 0.006675 -0.003984 0.000000 -0.000916 0.000000
# 3 -0.002750 -0.003984 0.019103 0.000000 0.003996 0.000000
# 4 0.000000 0.000000 0.000000 0.025494 0.000000 0.014950
# 5 0.001952 -0.000916 0.003996 0.000000 0.023410 0.000000
# 6 0.000000 0.000000 0.000000 0.014950 0.000000 0.043367
#
#
# Mechanical properties :
#
#
# Convention : Reuss Voigt Hill
#
# Bulk Modulus (GPa) = 52.96910 69.57637 61.27273
# Shear Modulus (GPa) = 32.96397 41.53832 37.25114
#
# Velocity S-wave (km/s) = 3.67478 4.12512 3.90645
# Velocity P-wave (km/s) = 6.30117 7.15483 6.74152
#
# Compressibility (1/GPa) = 0.01887893
#
# Stress axis : x y z
#
# Youngs Moduli (GPa) = 97.85164 149.80950 52.34668
#
# Poissons Ratio (x) = 0.27346 0.14395
# Poissons Ratio (y) = 0.17862 0.20856
# Poissons Ratio (z) = 0.26909 0.59687
#
# Static dielectric constant tensor:
#      x y z
#    x 1.983870 0.000000 0.031910 
#    y 0.000000 1.936870 0.000000 
#    z 0.031910 0.000000 1.951060 
# 
# From -- ./inp_files/59355.got.cif
#   From: 2010.05.17/outbox.cif.g08.bks.cpg/sg14_30_cif.got.tgz:59355.got - 2010.06.03 17:49:19.
