data_PCOD9252375
_publ_section_title
;
Structure prediction by ZEFSAII (Michael W. Deem and Ramdas Pophale) SiO2 
 PCOD9252375
Probable space group: P 21/C
;
_chemical_formula_sum "Si O2"
_cell_formula_units_Z 20
_cell_length_a 8.872168
_cell_length_b 18.929131
_cell_length_c 9.063220
_cell_angle_alpha 90.000000
_cell_angle_beta 31.509858
_cell_angle_gamma 90.000000
_cell_volume 795.517925
_symmetry_space_group_name_H-M "P 21/C"
_symmetry_group_IT_number 14
_symmetry_cell_setting 'monoclinic'
loop_
_space_group_symop_operation_xyz
x,y,z
-x,1/2+y,1/2-z
-x,-y,-z
x,1/2-y,1/2+z
loop_
_atom_site_type_symbol
_atom_site_label
_atom_site_fract_x
_atom_site_fract_y
_atom_site_fract_z
Si Si1 0.245372 0.658539 0.319203
Si Si2 0.338970 0.030196 0.446749
Si Si3 0.873135 0.933797 0.946163
Si Si4 0.052650 0.124084 0.443509
Si Si5 0.389811 0.707574 0.513613
O O1 0.955944 0.623418 0.499134
O O2 0.347529 0.716034 0.116546
O O3 0.475300 0.595363 0.147512
O O4 0.227997 0.695324 0.493562
O O5 0.561555 0.968684 0.217784
O O6 0.167731 0.060442 0.449264
O O7 0.893037 0.002506 0.248902
O O8 0.928422 0.897862 0.741248
O O9 0.276649 0.188114 0.284584
O O10 0.747149 0.150742 0.758407
#
# Coordination Sequence:
#
# PCOD9252375 Si02
#       5
#     4   4   4   4   4
#     4  11  26  46  68  98 134 175 225 273 329 389
#     4  11  24  42  68 101 135 173 217 270 328 397
#     4  12  24  42  71 101 135 173 216 273 332 393
#     4  11  24  45  70 100 134 174 219 270 330 394
#     4  11  26  45  68  96 132 177 223 274 325 391
#
# _framework density 25.140851999999999
#
# number of rings (size 3 to 8) (size 9 to 14) (size 15 to 20)
#    0.000    0.800    0.000    7.200    0.000   12.800 
#    0.000    0.000    0.000    0.000    0.000    0.000 
#    0.000    0.000    0.000    0.000    0.000    0.000 
#
# Total GULP energy -112301.673931 kJ/mol
# GULP energy per Si atom -5615.083697 kJ/mol
# Density = 2.508363 g / cm^3
# Si number density = 25.140852 Si / 1000 Ang^3
#
#
#
# Elastic Constant Matrix: (Units=GPa)
#
#
# Indices 1 2 3 4 5 6 
#
# 1 91.4477 53.8402 7.4464 0.0000 29.6612 0.0000
# 2 53.8402 101.1100 12.0145 0.0000 13.5277 0.0000
# 3 7.4464 12.0145 98.1057 0.0000 3.1846 0.0000
# 4 0.0000 0.0000 0.0000 52.0064 0.0000 18.2875
# 5 29.6612 13.5277 3.1846 0.0000 39.7678 0.0000
# 6 0.0000 0.0000 0.0000 18.2875 0.0000 45.4421
#
#
#
# Elastic Compliance Matrix: (Units=1/GPa)
#
#
# Indices 1 2 3 4 5 6 
#
# 1 0.020206 -0.009157 -0.000024 0.000000 -0.011954 0.000000
# 2 -0.009157 0.014645 -0.001161 0.000000 0.001941 0.000000
# 3 -0.000024 -0.001161 0.010351 0.000000 -0.000416 0.000000
# 4 0.000000 0.000000 0.000000 0.022398 0.000000 -0.009014
# 5 -0.011954 0.001941 -0.000416 0.000000 0.033435 0.000000
# 6 0.000000 0.000000 0.000000 -0.009014 0.000000 0.025634
#
#
# Mechanical properties :
#
#
# Convention : Reuss Voigt Hill
#
# Bulk Modulus (GPa) = 40.79068 48.58507 44.68787
# Shear Modulus (GPa) = 32.14926 41.93408 37.04167
#
# Velocity S-wave (km/s) = 3.57986 4.08850 3.84261
# Velocity P-wave (km/s) = 5.77471 6.45406 6.12382
#
# Compressibility (1/GPa) = 0.02451540
#
# Stress axis : x y z
#
# Youngs Moduli (GPa) = 49.49091 68.28453 96.61228
#
# Poissons Ratio (x) = 0.62529 0.00234
# Poissons Ratio (y) = 0.45320 0.11221
# Poissons Ratio (z) = 0.00120 0.07931
#
# Static dielectric constant tensor:
#      x y z
#    x 1.998080 0.000000 0.013190 
#    y 0.000000 1.965210 0.000000 
#    z 0.013190 0.000000 1.910660 
# 
# From -- ./inp_files/5791.got.cif
#   From: 2010.05.17/outbox.cif.g08.bks.cpg/sg14_3_cif.got.tgz:5791.got - 2010.06.03 17:49:19.
