data_PCOD9252017
_publ_section_title
;
Structure prediction by ZEFSAII (Michael W. Deem and Ramdas Pophale) SiO2 
 PCOD9252017
Probable space group: P 21/C
;
_chemical_formula_sum "Si O2"
_cell_formula_units_Z 26
_cell_length_a 8.874377
_cell_length_b 8.096569
_cell_length_c 18.579288
_cell_angle_alpha 90.000000
_cell_angle_beta 47.870993
_cell_angle_gamma 90.000000
_cell_volume 990.054174
_symmetry_space_group_name_H-M "P 21/C"
_symmetry_group_IT_number 14
_symmetry_cell_setting 'monoclinic'
loop_
_space_group_symop_operation_xyz
x,y,z
-x,1/2+y,1/2-z
-x,-y,-z
x,1/2-y,1/2+z
loop_
_atom_site_type_symbol
_atom_site_label
_atom_site_fract_x
_atom_site_fract_y
_atom_site_fract_z
Si Si1 0.910091 0.682414 0.520075
Si Si2 0.000000 0.000000 0.500000
Si Si3 0.509265 0.522767 0.659144
Si Si4 0.594069 0.144753 0.651446
Si Si5 0.866948 0.914194 0.815707
Si Si6 0.086765 0.730374 0.617459
Si Si7 0.452546 0.334524 0.055609
O O1 0.013021 0.828383 0.443054
O O2 0.678977 0.647153 0.576779
O O3 0.000000 0.500000 0.500000
O O4 0.959693 0.773806 0.583981
O O5 0.241687 0.979763 0.434445
O O6 0.611214 0.343722 0.641265
O O7 0.449391 0.591116 0.755187
O O8 0.316806 0.503346 0.669411
O O9 0.411922 0.124098 0.652774
O O10 0.744262 0.773241 0.898042
O O11 0.018293 0.845372 0.705832
O O12 0.956479 0.044274 0.843261
O O13 0.328465 0.739731 0.522807
O O14 0.500000 0.500000 0.000000
#
# Coordination Sequence:
#
# PCOD9252017 Si02
#       7
#     4   2   4   4   4   4   4
#     4  12  24  46  72 107 142 189 239 304 361 430
#     4  12  22  42  68 102 140 174 244 284 354 424
#     4  11  24  45  70 102 144 185 241 295 362 434
#     4  11  23  41  68 101 139 182 238 298 349 433
#     4  11  26  47  70 105 144 195 237 302 366 435
#     4  12  25  48  70 105 151 184 250 302 359 451
#     4  11  24  45  69 102 143 189 240 301 360 438
#
# _framework density 26.261189000000002
#
# number of rings (size 3 to 8) (size 9 to 14) (size 15 to 20)
#    0.000    0.615    3.077    6.000    0.000    4.923 
#    2.769    0.000    0.000    0.000    0.000    0.000 
#    0.000    0.000    0.000    0.000    0.000    0.000 
#
# Total GULP energy -144945.601163 kJ/mol
# GULP energy per Si atom -5574.830814 kJ/mol
# Density = 2.620142 g / cm^3
# Si number density = 26.261189 Si / 1000 Ang^3
#
#
#
# Elastic Constant Matrix: (Units=GPa)
#
#
# Indices 1 2 3 4 5 6 
#
# 1 58.0212 4.0669 20.8125 0.0000 9.7331 0.0000
# 2 4.0669 93.4401 14.6035 0.0000 -3.5940 0.0000
# 3 20.8125 14.6035 103.5555 0.0000 5.3118 0.0000
# 4 0.0000 0.0000 0.0000 61.2039 0.0000 -11.2499
# 5 9.7331 -3.5940 5.3118 0.0000 46.5060 0.0000
# 6 0.0000 0.0000 0.0000 -11.2499 0.0000 46.0069
#
#
#
# Elastic Compliance Matrix: (Units=1/GPa)
#
#
# Indices 1 2 3 4 5 6 
#
# 1 0.019167 -0.000410 -0.003608 0.000000 -0.003631 0.000000
# 2 -0.000410 0.011001 -0.001526 0.000000 0.001110 0.000000
# 3 -0.003608 -0.001526 0.010627 0.000000 -0.000577 0.000000
# 4 0.000000 0.000000 0.000000 0.017108 0.000000 0.004183
# 5 -0.003631 0.001110 -0.000577 0.000000 0.022414 0.000000
# 6 0.000000 0.000000 0.000000 0.004183 0.000000 0.022759
#
#
# Mechanical properties :
#
#
# Convention : Reuss Voigt Hill
#
# Bulk Modulus (GPa) = 33.66244 37.10919 35.38582
# Shear Modulus (GPa) = 40.30114 45.11229 42.70672
#
# Velocity S-wave (km/s) = 3.92168 4.14917 4.03703
# Velocity P-wave (km/s) = 5.77514 6.09226 5.93582
#
# Compressibility (1/GPa) = 0.02970670
#
# Stress axis : x y z
#
# Youngs Moduli (GPa) = 52.17248 90.90022 94.10367
#
# Poissons Ratio (x) = 0.03727 0.33954
# Poissons Ratio (y) = 0.02139 0.14360
# Poissons Ratio (z) = 0.18825 0.13871
#
# Static dielectric constant tensor:
#      x y z
#    x 2.181550 0.000000 -0.040310 
#    y 0.000000 -1.006810 0.000000 
#    z -0.040310 0.000000 1.931310 
# 
# From -- ./inp_files/64775.got.cif
#   From: 2010.05.17/outbox.cif.g08.bks.cpg/sg14_33_cif.got.tgz:64775.got - 2010.06.03 17:49:19.
