data_PCOD9252453
_publ_section_title
;
Structure prediction by ZEFSAII (Michael W. Deem and Ramdas Pophale) SiO2 
 PCOD9252453
Probable space group: P 21/C
;
_chemical_formula_sum "Si O2"
_cell_formula_units_Z 28
_cell_length_a 14.875432
_cell_length_b 10.057050
_cell_length_c 9.616032
_cell_angle_alpha 90.000000
_cell_angle_beta 50.748827
_cell_angle_gamma 90.000000
_cell_volume 1114.012466
_symmetry_space_group_name_H-M "P 21/C"
_symmetry_group_IT_number 14
_symmetry_cell_setting 'monoclinic'
loop_
_space_group_symop_operation_xyz
x,y,z
-x,1/2+y,1/2-z
-x,-y,-z
x,1/2-y,1/2+z
loop_
_atom_site_type_symbol
_atom_site_label
_atom_site_fract_x
_atom_site_fract_y
_atom_site_fract_z
Si Si1 0.056001 0.243169 0.332587
Si Si2 0.077310 0.513758 0.642923
Si Si3 0.681153 0.009392 0.729915
Si Si4 0.699113 0.689924 0.991183
Si Si5 0.835319 0.290708 0.216008
Si Si6 0.713910 0.475786 0.754069
Si Si7 0.430538 0.049546 0.859523
O O1 0.193876 0.235737 0.187272
O O2 0.023024 0.388433 0.308400
O O3 0.970256 0.234613 0.547303
O O4 0.026101 0.112008 0.271845
O O5 0.155908 0.612911 0.660797
O O6 0.167014 0.470918 0.435063
O O7 0.775189 0.124481 0.652307
O O8 0.735863 0.884573 0.596393
O O9 0.630755 0.988475 0.934350
O O10 0.566869 0.040110 0.751514
O O11 0.664915 0.581694 0.910177
O O12 0.604241 0.796981 0.127744
O O13 0.758661 0.156787 0.289599
O O14 0.621365 0.465796 0.718664
#
# Coordination Sequence:
#
# PCOD9252453 Si02
#       7
#     4   4   4   4   4   4   4
#     4  11  25  41  76 104 153 196 253 300 383 442
#     4  11  24  44  68 109 150 197 248 308 365 450
#     4  11  26  47  76 101 150 194 251 309 383 442
#     4  12  26  46  75 109 146 192 252 310 381 451
#     4  11  25  44  72 104 150 193 251 308 371 445
#     4  11  26  44  72 108 147 189 249 308 381 444
#     4  11  25  49  71 107 142 198 251 313 371 459
#
# _framework density 25.134369
#
# number of rings (size 3 to 8) (size 9 to 14) (size 15 to 20)
#    0.000    0.857    2.857    2.143   10.000    1.714 
#    2.571    0.000    0.000    0.000    0.000    0.000 
#    0.000    0.000    0.000    0.000    0.000    0.000 
#
# Total GULP energy -156617.533515 kJ/mol
# GULP energy per Si atom -5593.483340 kJ/mol
# Density = 2.507716 g / cm^3
# Si number density = 25.134369 Si / 1000 Ang^3
#
#
#
# Elastic Constant Matrix: (Units=GPa)
#
#
# Indices 1 2 3 4 5 6 
#
# 1 94.3010 4.8074 40.1305 0.0000 -0.8378 0.0000
# 2 4.8074 74.3371 21.3119 0.0000 5.6977 0.0000
# 3 40.1305 21.3119 78.6824 0.0000 1.6810 0.0000
# 4 0.0000 0.0000 0.0000 21.8131 0.0000 10.5643
# 5 -0.8378 5.6977 1.6810 0.0000 35.1073 0.0000
# 6 0.0000 0.0000 0.0000 10.5643 0.0000 41.5417
#
#
#
# Elastic Compliance Matrix: (Units=1/GPa)
#
#
# Indices 1 2 3 4 5 6 
#
# 1 0.013651 0.001170 -0.007290 0.000000 0.000485 0.000000
# 2 0.001170 0.014854 -0.004574 0.000000 -0.002164 0.000000
# 3 -0.007290 -0.004574 0.017672 0.000000 -0.000278 0.000000
# 4 0.000000 0.000000 0.000000 0.052283 0.000000 -0.013296
# 5 0.000485 -0.002164 -0.000278 0.000000 0.028860 0.000000
# 6 0.000000 0.000000 0.000000 -0.013296 0.000000 0.027453
#
#
# Mechanical properties :
#
#
# Convention : Reuss Voigt Hill
#
# Bulk Modulus (GPa) = 40.33915 42.20224 41.27069
# Shear Modulus (GPa) = 27.11137 31.76380 29.43759
#
# Velocity S-wave (km/s) = 3.28785 3.55880 3.42601
# Velocity P-wave (km/s) = 5.52246 5.80636 5.66619
#
# Compressibility (1/GPa) = 0.02478982
#
# Stress axis : x y z
#
# Youngs Moduli (GPa) = 73.25337 67.32335 56.58624
#
# Poissons Ratio (x) = -0.07876 0.41250
# Poissons Ratio (y) = -0.08570 0.25881
# Poissons Ratio (z) = 0.53400 0.30792
#
# Static dielectric constant tensor:
#      x y z
#    x 2.033150 0.000000 0.061560 
#    y 0.000000 1.986980 0.000000 
#    z 0.061560 0.000000 1.965500 
# 
# From -- ./inp_files/15467.got.cif
#   From: 2010.05.17/outbox.cif.g08.bks.cpg/sg14_8_cif.got.tgz:15467.got - 2010.06.03 17:49:19.
