data_PCOD9252851
_publ_section_title
;
Structure prediction by ZEFSAII (Michael W. Deem and Ramdas Pophale) SiO2 
 PCOD9252851
Probable space group: P 21/C
;
_chemical_formula_sum "Si O2"
_cell_formula_units_Z 28
_cell_length_a 15.604381
_cell_length_b 5.554748
_cell_length_c 18.999453
_cell_angle_alpha 90.000000
_cell_angle_beta 129.189567
_cell_angle_gamma 90.000000
_cell_volume 1276.400846
_symmetry_space_group_name_H-M "P 21/C"
_symmetry_group_IT_number 14
_symmetry_cell_setting 'monoclinic'
loop_
_space_group_symop_operation_xyz
x,y,z
-x,1/2+y,1/2-z
-x,-y,-z
x,1/2-y,1/2+z
loop_
_atom_site_type_symbol
_atom_site_label
_atom_site_fract_x
_atom_site_fract_y
_atom_site_fract_z
Si Si1 0.626432 0.553366 0.977230
Si Si2 0.217339 0.033937 0.731669
Si Si3 0.819014 0.855391 0.665238
Si Si4 0.042894 0.794398 0.208350
Si Si5 0.788055 0.525406 0.938078
Si Si6 0.420021 0.692214 0.421382
Si Si7 0.921919 0.025733 0.026860
O O1 0.720599 0.719049 0.062920
O O2 0.621921 0.345525 0.033846
O O3 0.677714 0.498314 0.928143
O O4 0.504077 0.658360 0.915360
O O5 0.099845 0.907239 0.689398
O O6 0.320390 0.899768 0.821806
O O7 0.215036 0.282149 0.773964
O O8 0.230932 0.042764 0.655407
O O9 0.933605 0.748871 0.696531
O O10 0.857521 0.131601 0.688380
O O11 0.002003 0.004401 0.135216
O O12 0.858600 0.281433 0.990271
O O13 0.847866 0.779357 0.989423
O O14 0.500000 0.500000 0.500000
O O15 0.000000 0.000000 0.000000
#
# Coordination Sequence:
#
# PCOD9252851 Si02
#       7
#     4   4   4   4   4   4   4
#     4  11  26  48  73 104 140 192 249 305 371 436
#     4  12  26  46  70 106 143 187 244 302 359 434
#     4  12  24  41  70 105 141 189 243 293 356 438
#     4  12  25  38  69 105 145 189 238 287 359 434
#     4  12  29  47  74 108 150 194 241 300 372 435
#     4  11  25  49  75 100 136 188 249 310 364 429
#     4  12  26  45  70 106 155 197 233 288 366 443
#
# _framework density 21.936681
#
# number of rings (size 3 to 8) (size 9 to 14) (size 15 to 20)
#    0.000    0.286    7.143    1.286    8.000    0.000 
#    2.571    0.000    0.000    0.000    0.000    0.000 
#    0.000    0.000    0.000    0.000    0.000    0.000 
#
# Total GULP energy -156227.671795 kJ/mol
# GULP energy per Si atom -5579.559707 kJ/mol
# Density = 2.188675 g / cm^3
# Si number density = 21.936681 Si / 1000 Ang^3
#
#
#
# Elastic Constant Matrix: (Units=GPa)
#
#
# Indices 1 2 3 4 5 6 
#
# 1 170.7697 35.9384 48.3939 0.0000 -17.5276 0.0000
# 2 35.9384 70.6476 21.6184 0.0000 6.2974 0.0000
# 3 48.3939 21.6184 99.9520 0.0000 0.0430 0.0000
# 4 0.0000 0.0000 0.0000 33.1235 0.0000 3.5375
# 5 -17.5276 6.2974 0.0430 0.0000 45.0100 0.0000
# 6 0.0000 0.0000 0.0000 3.5375 0.0000 27.8117
#
#
#
# Elastic Compliance Matrix: (Units=1/GPa)
#
#
# Indices 1 2 3 4 5 6 
#
# 1 0.007781 -0.003338 -0.003047 0.000000 0.003500 0.000000
# 2 -0.003338 0.016794 -0.002015 0.000000 -0.003648 0.000000
# 3 -0.003047 -0.002015 0.011916 0.000000 -0.000916 0.000000
# 4 0.000000 0.000000 0.000000 0.030606 0.000000 -0.003893
# 5 0.003500 -0.003648 -0.000916 0.000000 0.024091 0.000000
# 6 0.000000 0.000000 0.000000 -0.003893 0.000000 0.036451
#
#
# Mechanical properties :
#
#
# Convention : Reuss Voigt Hill
#
# Bulk Modulus (GPa) = 50.78056 61.47452 56.12754
# Shear Modulus (GPa) = 33.11189 36.88360 34.99775
#
# Velocity S-wave (km/s) = 3.88935 4.10490 3.99858
# Velocity P-wave (km/s) = 6.58547 7.10995 6.85273
#
# Compressibility (1/GPa) = 0.01969257
#
# Stress axis : x y z
#
# Youngs Moduli (GPa) = 128.51895 59.54375 83.91948
#
# Poissons Ratio (x) = 0.19874 0.25569
# Poissons Ratio (y) = 0.42897 0.16908
# Poissons Ratio (z) = 0.39158 0.11997
#
# Static dielectric constant tensor:
#      x y z
#    x 1.845370 0.000000 0.033170 
#    y 0.000000 1.988440 0.000000 
#    z 0.033170 0.000000 1.875020 
# 
# From -- ./inp_files/58653.got.cif
#   From: 2010.05.17/outbox.cif.g08.bks.cpg/sg14_30_cif.got.tgz:58653.got - 2010.06.03 17:49:19.
