data_PCOD9252096
_publ_section_title
;
Structure prediction by ZEFSAII (Michael W. Deem and Ramdas Pophale) SiO2 
 PCOD9252096
Probable space group: P 21/C
;
_chemical_formula_sum "Si O2"
_cell_formula_units_Z 24
_cell_length_a 15.329934
_cell_length_b 7.437413
_cell_length_c 8.839373
_cell_angle_alpha 90.000000
_cell_angle_beta 99.464079
_cell_angle_gamma 90.000000
_cell_volume 994.103981
_symmetry_space_group_name_H-M "P 21/C"
_symmetry_group_IT_number 14
_symmetry_cell_setting 'monoclinic'
loop_
_space_group_symop_operation_xyz
x,y,z
-x,1/2+y,1/2-z
-x,-y,-z
x,1/2-y,1/2+z
loop_
_atom_site_type_symbol
_atom_site_label
_atom_site_fract_x
_atom_site_fract_y
_atom_site_fract_z
Si Si1 0.982512 0.862560 0.131324
Si Si2 0.676792 0.704351 0.722724
Si Si3 0.176654 0.732300 0.663943
Si Si4 0.700454 0.371541 0.535558
Si Si5 0.602895 0.998541 0.491032
Si Si6 0.131576 0.393830 0.105956
O O1 0.930379 0.920849 0.264943
O O2 0.082575 0.817168 0.203751
O O3 0.923167 0.709182 0.036316
O O4 0.000000 0.000000 0.000000
O O5 0.661663 0.558668 0.582865
O O6 0.650479 0.895848 0.644883
O O7 0.622736 0.620942 0.847848
O O8 0.778978 0.698330 0.806747
O O9 0.244166 0.798211 0.807573
O O10 0.226782 0.592697 0.572747
O O11 0.159498 0.909905 0.557138
O O12 0.637016 0.204076 0.475590
O O13 0.500000 0.000000 0.500000
#
# Coordination Sequence:
#
# PCOD9252096 Si02
#       6
#     4   4   4   4   4   4
#     4  12  24  37  65 100 136 188 240 296 343 419
#     4  11  27  49  74 110 145 193 238 297 371 432
#     4  11  24  43  66  98 142 192 237 298 355 421
#     4  11  24  48  72 102 150 192 239 296 370 429
#     4  12  29  48  79 111 141 190 239 304 366 442
#     4  11  23  43  63  97 139 187 240 290 357 417
#
# _framework density 24.142341999999999
#
# number of rings (size 3 to 8) (size 9 to 14) (size 15 to 20)
#    0.000    0.667    3.333    5.500    7.000    0.667 
#    0.000    0.000    0.000    0.000    0.000    0.000 
#    0.000    0.000    0.000    0.000    0.000    0.000 
#
# Total GULP energy -134376.741520 kJ/mol
# GULP energy per Si atom -5599.030897 kJ/mol
# Density = 2.408739 g / cm^3
# Si number density = 24.142342 Si / 1000 Ang^3
#
#
#
# Elastic Constant Matrix: (Units=GPa)
#
#
# Indices 1 2 3 4 5 6 
#
# 1 148.5965 32.5176 21.0130 0.0000 -20.2757 0.0000
# 2 32.5176 97.1118 27.6157 0.0000 -4.9682 0.0000
# 3 21.0130 27.6157 68.9809 0.0000 -13.9572 0.0000
# 4 0.0000 0.0000 0.0000 40.7764 0.0000 -3.8851
# 5 -20.2757 -4.9682 -13.9572 0.0000 29.1968 0.0000
# 6 0.0000 0.0000 0.0000 -3.8851 0.0000 20.0551
#
#
#
# Elastic Compliance Matrix: (Units=1/GPa)
#
#
# Indices 1 2 3 4 5 6 
#
# 1 0.007969 -0.002267 -0.000529 0.000000 0.004895 0.000000
# 2 -0.002267 0.012267 -0.004557 0.000000 -0.001666 0.000000
# 3 -0.000529 -0.004557 0.017991 0.000000 0.007458 0.000000
# 4 0.000000 0.000000 0.000000 0.024985 0.000000 0.004840
# 5 0.004895 -0.001666 0.007458 0.000000 0.040931 0.000000
# 6 0.000000 0.000000 0.000000 0.004840 0.000000 0.050800
#
#
# Mechanical properties :
#
#
# Convention : Reuss Voigt Hill
#
# Bulk Modulus (GPa) = 42.51835 52.99798 47.75816
# Shear Modulus (GPa) = 28.17035 33.57521 30.87278
#
# Velocity S-wave (km/s) = 3.41962 3.73328 3.57988
# Velocity P-wave (km/s) = 5.76554 6.37049 6.07555
#
# Compressibility (1/GPa) = 0.02351926
#
# Stress axis : x y z
#
# Youngs Moduli (GPa) = 125.49353 81.51682 55.58201
#
# Poissons Ratio (x) = 0.18482 0.02942
# Poissons Ratio (y) = 0.28453 0.25331
# Poissons Ratio (z) = 0.06642 0.37151
#
# Static dielectric constant tensor:
#      x y z
#    x 1.900480 0.000000 0.007090 
#    y 0.000000 2.018540 0.000000 
#    z 0.007090 0.000000 1.904350 
# 
# From -- ./inp_files/15153.got.cif
#   From: 2010.05.17/outbox.cif.g08.bks.cpg/sg14_8_cif.got.tgz:15153.got - 2010.06.03 17:49:19.
