data_PCOD9252247
_publ_section_title
;
Structure prediction by ZEFSAII (Michael W. Deem and Ramdas Pophale) SiO2 
 PCOD9252247
Probable space group: P 21/C
;
_chemical_formula_sum "Si O2"
_cell_formula_units_Z 32
_cell_length_a 17.329843
_cell_length_b 11.912872
_cell_length_c 13.997263
_cell_angle_alpha 90.000000
_cell_angle_beta 147.249119
_cell_angle_gamma 90.000000
_cell_volume 1563.296586
_symmetry_space_group_name_H-M "P 21/C"
_symmetry_group_IT_number 14
_symmetry_cell_setting 'monoclinic'
loop_
_space_group_symop_operation_xyz
x,y,z
-x,1/2+y,1/2-z
-x,-y,-z
x,1/2-y,1/2+z
loop_
_atom_site_type_symbol
_atom_site_label
_atom_site_fract_x
_atom_site_fract_y
_atom_site_fract_z
Si Si1 0.386903 0.181966 0.384466
Si Si2 0.001117 0.007111 0.614236
Si Si3 0.944762 0.741445 0.260707
Si Si4 0.645283 0.136263 0.513585
Si Si5 0.745752 0.847910 0.393940
Si Si6 0.851995 0.954129 0.809569
Si Si7 0.479497 0.082582 0.685238
Si Si8 0.782069 0.347488 0.551908
O O1 0.534009 0.166435 0.481023
O O2 0.310639 0.294666 0.264450
O O3 0.264586 0.089122 0.235725
O O4 0.426052 0.152079 0.535592
O O5 0.124622 0.926807 0.783254
O O6 0.847688 0.956984 0.488435
O O7 0.038000 0.132532 0.685090
O O8 0.000000 0.000000 0.500000
O O9 0.880432 0.652182 0.269364
O O10 0.103505 0.698912 0.403391
O O11 0.847691 0.733601 0.063836
O O12 0.709914 0.244858 0.532762
O O13 0.776718 0.058694 0.681321
O O14 0.558561 0.048879 0.358401
O O15 0.607135 0.870236 0.314455
O O16 0.000000 0.000000 0.000000
O O17 0.648056 0.091902 0.866402
#
# Coordination Sequence:
#
# PCOD9252247 Si02
#       8
#     4   4   4   4   4   4   4   4
#     4  11  24  42  72 100 138 179 230 293 347 419
#     4  11  27  46  70 104 144 186 243 287 361 422
#     4  11  25  44  70 101 142 188 235 296 353 424
#     4  11  24  45  67 103 137 178 238 290 341 430
#     4  11  23  46  70  97 145 184 231 289 356 419
#     4  11  25  40  72 101 135 177 238 290 349 406
#     4  11  23  46  67 104 138 181 237 285 354 420
#     4  11  27  43  73 100 139 187 229 293 354 418
#
# _framework density 20.469563999999998
#
# number of rings (size 3 to 8) (size 9 to 14) (size 15 to 20)
#    0.000    1.000    3.750    3.000   12.250    0.000 
#    0.000    0.625    0.000    0.000    0.000    0.000 
#    0.000    0.000    0.000    0.000    0.000    0.000 
#
# Total GULP energy -178595.860956 kJ/mol
# GULP energy per Si atom -5581.120655 kJ/mol
# Density = 2.042297 g / cm^3
# Si number density = 20.469564 Si / 1000 Ang^3
#
#
#
# Elastic Constant Matrix: (Units=GPa)
#
#
# Indices 1 2 3 4 5 6 
#
# 1 81.0937 23.2522 45.5808 0.0000 23.1927 0.0000
# 2 23.2522 95.5431 70.2243 0.0000 10.5617 0.0000
# 3 45.5808 70.2243 105.7935 0.0000 18.4440 0.0000
# 4 0.0000 0.0000 0.0000 20.0208 0.0000 5.4926
# 5 23.1927 10.5617 18.4440 0.0000 27.7964 0.0000
# 6 0.0000 0.0000 0.0000 5.4926 0.0000 35.3552
#
#
#
# Elastic Compliance Matrix: (Units=1/GPa)
#
#
# Indices 1 2 3 4 5 6 
#
# 1 0.019504 0.002382 -0.007904 0.000000 -0.011934 0.000000
# 2 0.002382 0.020777 -0.014808 0.000000 -0.000056 0.000000
# 3 -0.007904 -0.014808 0.023245 0.000000 -0.003203 0.000000
# 4 0.000000 0.000000 0.000000 0.052172 0.000000 -0.008105
# 5 -0.011934 -0.000056 -0.003203 0.000000 0.048080 0.000000
# 6 0.000000 0.000000 0.000000 -0.008105 0.000000 0.029544
#
#
# Mechanical properties :
#
#
# Convention : Reuss Voigt Hill
#
# Bulk Modulus (GPa) = 43.73117 62.28275 53.00696
# Shear Modulus (GPa) = 20.69510 26.19269 23.44390
#
# Velocity S-wave (km/s) = 3.18310 3.58102 3.38791
# Velocity P-wave (km/s) = 5.90930 6.89865 6.42305
#
# Compressibility (1/GPa) = 0.02286699
#
# Stress axis : x y z
#
# Youngs Moduli (GPa) = 51.27116 48.13084 43.01969
#
# Poissons Ratio (x) = -0.11464 0.34001
# Poissons Ratio (y) = -0.12212 0.63702
# Poissons Ratio (z) = 0.40523 0.71270
#
# Static dielectric constant tensor:
#      x y z
#    x 1.754610 0.000000 -0.003290 
#    y 0.000000 1.750700 0.000000 
#    z -0.003290 0.000000 1.757680 
# 
# From -- ./inp_files/49015.got.cif
#   From: 2010.05.17/outbox.cif.g08.bks.cpg/sg14_25_cif.got.tgz:49015.got - 2010.06.03 17:49:19.
