data_PCOD9252998
_publ_section_title
;
Structure prediction by ZEFSAII (Michael W. Deem and Ramdas Pophale) SiO2 
 PCOD9252998
Probable space group: P 21/C
;
_chemical_formula_sum "Si O2"
_cell_formula_units_Z 20
_cell_length_a 14.640003
_cell_length_b 5.025438
_cell_length_c 10.448542
_cell_angle_alpha 90.000000
_cell_angle_beta 98.730200
_cell_angle_gamma 90.000000
_cell_volume 759.818171
_symmetry_space_group_name_H-M "P 21/C"
_symmetry_group_IT_number 14
_symmetry_cell_setting 'monoclinic'
loop_
_space_group_symop_operation_xyz
x,y,z
-x,1/2+y,1/2-z
-x,-y,-z
x,1/2-y,1/2+z
loop_
_atom_site_type_symbol
_atom_site_label
_atom_site_fract_x
_atom_site_fract_y
_atom_site_fract_z
Si Si1 0.784509 0.197209 0.011900
Si Si2 0.928472 0.815428 0.115144
Si Si3 0.883231 0.476598 0.854974
Si Si4 0.440896 0.377755 0.214275
Si Si5 0.328472 0.318121 0.933931
O O1 0.791923 0.312283 0.869935
O O2 0.738132 0.426809 0.084954
O O3 0.726932 0.932832 0.020385
O O4 0.890683 0.107946 0.066571
O O5 0.033331 0.724736 0.161157
O O6 0.879284 0.807551 0.242280
O O7 0.901431 0.636527 0.989252
O O8 0.473989 0.670477 0.261620
O O9 0.402387 0.382460 0.061724
O O10 0.371320 0.264857 0.307652
#
# Coordination Sequence:
#
# PCOD9252998 Si02
#       5
#     4   4   4   4   4
#     4  12  27  47  72 114 159 190 260 315 388 431
#     4  11  28  48  75 108 154 212 267 318 378 455
#     4  11  28  47  76 109 153 215 265 320 384 450
#     4  12  26  52  79 111 152 197 248 302 384 478
#     4  12  28  45  80 115 149 198 246 320 381 456
#
# _framework density 26.322088999999998
#
# number of rings (size 3 to 8) (size 9 to 14) (size 15 to 20)
#    0.000    0.400    2.000    4.200   14.000    0.000 
#    0.000    0.000    0.000    0.000    0.000    0.000 
#    0.000    0.000    0.000    0.000    0.000    0.000 
#
# Total GULP energy -111937.241999 kJ/mol
# GULP energy per Si atom -5596.862100 kJ/mol
# Density = 2.626218 g / cm^3
# Si number density = 26.322089 Si / 1000 Ang^3
#
#
#
# Elastic Constant Matrix: (Units=GPa)
#
#
# Indices 1 2 3 4 5 6 
#
# 1 70.7362 32.3428 26.5200 0.0000 -20.4765 0.0000
# 2 32.3428 141.9025 39.6518 0.0000 -5.0067 0.0000
# 3 26.5200 39.6518 132.6220 0.0000 -1.4064 0.0000
# 4 0.0000 0.0000 0.0000 37.3540 0.0000 -10.3227
# 5 -20.4765 -5.0067 -1.4064 0.0000 37.3189 0.0000
# 6 0.0000 0.0000 0.0000 -10.3227 0.0000 74.6837
#
#
#
# Elastic Compliance Matrix: (Units=1/GPa)
#
#
# Indices 1 2 3 4 5 6 
#
# 1 0.019691 -0.003335 -0.002832 0.000000 0.010250 0.000000
# 2 -0.003335 0.008288 -0.001819 0.000000 -0.000787 0.000000
# 3 -0.002832 -0.001819 0.008635 0.000000 -0.001472 0.000000
# 4 0.000000 0.000000 0.000000 0.027834 0.000000 0.003847
# 5 0.010250 -0.000787 -0.001472 0.000000 0.032259 0.000000
# 6 0.000000 0.000000 0.000000 0.003847 0.000000 0.013922
#
#
# Mechanical properties :
#
#
# Convention : Reuss Voigt Hill
#
# Bulk Modulus (GPa) = 48.44692 60.25446 54.35069
# Shear Modulus (GPa) = 37.45862 46.32105 41.88984
#
# Velocity S-wave (km/s) = 3.77648 4.19952 3.99360
# Velocity P-wave (km/s) = 6.12054 6.81583 6.47752
#
# Compressibility (1/GPa) = 0.02064115
#
# Stress axis : x y z
#
# Youngs Moduli (GPa) = 50.78551 120.65835 115.81023
#
# Poissons Ratio (x) = 0.40240 0.32794
# Poissons Ratio (y) = 0.16937 0.21070
# Poissons Ratio (z) = 0.14381 0.21952
#
# Static dielectric constant tensor:
#      x y z
#    x 2.124650 0.000000 0.042610 
#    y 0.000000 2.035370 0.000000 
#    z 0.042610 0.000000 2.124150 
# 
# From -- ./inp_files/31014.got.cif
#   From: 2010.05.17/outbox.cif.g08.bks.cpg/sg14_16_cif.got.tgz:31014.got - 2010.06.03 17:49:19.
