data_PCOD9252897
_publ_section_title
;
Structure prediction by ZEFSAII (Michael W. Deem and Ramdas Pophale) SiO2 
 PCOD9252897
Probable space group: P 21/C
;
_chemical_formula_sum "Si O2"
_cell_formula_units_Z 12
_cell_length_a 4.886435
_cell_length_b 5.058305
_cell_length_c 19.473389
_cell_angle_alpha 90.000000
_cell_angle_beta 88.382934
_cell_angle_gamma 90.000000
_cell_volume 481.133601
_symmetry_space_group_name_H-M "P 21/C"
_symmetry_group_IT_number 14
_symmetry_cell_setting 'monoclinic'
loop_
_space_group_symop_operation_xyz
x,y,z
-x,1/2+y,1/2-z
-x,-y,-z
x,1/2-y,1/2+z
loop_
_atom_site_type_symbol
_atom_site_label
_atom_site_fract_x
_atom_site_fract_y
_atom_site_fract_z
Si Si1 0.445506 0.094082 0.886855
Si Si2 0.036885 0.697964 0.704973
Si Si3 0.801944 0.254123 0.009802
O O1 0.182604 0.225034 0.854273
O O2 0.350390 0.810337 0.917490
O O3 0.683441 0.088056 0.829073
O O4 0.576183 0.243443 0.951296
O O5 0.074198 0.976000 0.742168
O O6 0.000000 0.500000 0.000000
O O7 0.000000 0.000000 0.000000
#
# Coordination Sequence:
#
# PCOD9252897 Si02
#       3
#     4   4   4
#     4  11  26  50  74 110 150 193 256 310 382 451
#     4  12  28  47  74 105 148 202 250 308 372 450
#     4  11  26  46  77 111 147 194 242 322 380 446
#
# _framework density 24.941096000000002
#
# number of rings (size 3 to 8) (size 9 to 14) (size 15 to 20)
#    0.000    0.667    3.333    2.000    4.667   10.667 
#    0.000    0.000    0.000    0.000    0.000    0.000 
#    0.000    0.000    0.000    0.000    0.000    0.000 
#
# Total GULP energy -67323.219571 kJ/mol
# GULP energy per Si atom -5610.268298 kJ/mol
# Density = 2.488433 g / cm^3
# Si number density = 24.941096 Si / 1000 Ang^3
#
#
#
# Elastic Constant Matrix: (Units=GPa)
#
#
# Indices 1 2 3 4 5 6 
#
# 1 136.8790 32.7751 9.6365 0.0000 11.0825 0.0000
# 2 32.7751 148.3290 11.0806 0.0000 20.8088 0.0000
# 3 9.6365 11.0806 54.4481 0.0000 17.2822 0.0000
# 4 0.0000 0.0000 0.0000 25.4308 0.0000 0.7997
# 5 11.0825 20.8088 17.2822 0.0000 64.7518 0.0000
# 6 0.0000 0.0000 0.0000 0.7997 0.0000 46.2800
#
#
#
# Elastic Compliance Matrix: (Units=1/GPa)
#
#
# Indices 1 2 3 4 5 6 
#
# 1 0.007792 -0.001573 -0.000870 0.000000 -0.000596 0.000000
# 2 -0.001573 0.007408 -0.000611 0.000000 -0.001949 0.000000
# 3 -0.000870 -0.000611 0.020250 0.000000 -0.005060 0.000000
# 4 0.000000 0.000000 0.000000 0.039344 0.000000 -0.000680
# 5 -0.000596 -0.001949 -0.005060 0.000000 0.017522 0.000000
# 6 0.000000 0.000000 0.000000 -0.000680 0.000000 0.021619
#
#
# Mechanical properties :
#
#
# Convention : Reuss Voigt Hill
#
# Bulk Modulus (GPa) = 34.07940 49.62670 41.85305
# Shear Modulus (GPa) = 38.51363 46.37012 42.44187
#
# Velocity S-wave (km/s) = 3.93387 4.31651 4.12962
# Velocity P-wave (km/s) = 5.85896 6.69206 6.28932
#
# Compressibility (1/GPa) = 0.02934324
#
# Stress axis : x y z
#
# Youngs Moduli (GPa) = 128.33868 134.98277 49.38200
#
# Poissons Ratio (x) = 0.21235 0.04295
# Poissons Ratio (y) = 0.20189 0.03016
# Poissons Ratio (z) = 0.11162 0.08244
#
# Static dielectric constant tensor:
#      x y z
#    x 1.948760 0.000000 -0.048100 
#    y 0.000000 2.000360 0.000000 
#    z -0.048100 0.000000 2.028680 
# 
# From -- ./inp_files/52379.got.cif
#   From: 2010.05.17/outbox.cif.g08.bks.cpg/sg14_27_cif.got.tgz:52379.got - 2010.06.03 17:49:19.
