data_PCOD9252658
_publ_section_title
;
Structure prediction by ZEFSAII (Michael W. Deem and Ramdas Pophale) SiO2 
 PCOD9252658
Probable space group: P 21/C
;
_chemical_formula_sum "Si O2"
_cell_formula_units_Z 28
_cell_length_a 10.356555
_cell_length_b 20.443831
_cell_length_c 9.677125
_cell_angle_alpha 90.000000
_cell_angle_beta 140.482049
_cell_angle_gamma 90.000000
_cell_volume 1303.765496
_symmetry_space_group_name_H-M "P 21/C"
_symmetry_group_IT_number 14
_symmetry_cell_setting 'monoclinic'
loop_
_space_group_symop_operation_xyz
x,y,z
-x,1/2+y,1/2-z
-x,-y,-z
x,1/2-y,1/2+z
loop_
_atom_site_type_symbol
_atom_site_label
_atom_site_fract_x
_atom_site_fract_y
_atom_site_fract_z
Si Si1 0.685380 0.038073 0.720714
Si Si2 0.885723 0.295124 0.925682
Si Si3 0.385647 0.743741 0.045534
Si Si4 0.785638 0.816570 0.764979
Si Si5 0.895469 0.569736 0.886329
Si Si6 0.401526 0.370392 0.151673
Si Si7 0.915769 0.571849 0.582832
O O1 0.588940 0.096216 0.728488
O O2 0.843521 0.060634 0.734797
O O3 0.500000 0.000000 0.500000
O O4 0.804623 0.989476 0.920653
O O5 0.777859 0.266889 0.701111
O O6 0.727594 0.290698 0.921259
O O7 0.075428 0.248019 0.120720
O O8 0.958281 0.368791 0.961172
O O9 0.554340 0.699690 0.112109
O O10 0.512118 0.805545 0.206642
O O11 0.769696 0.851199 0.602935
O O12 0.866545 0.865427 0.948639
O O13 0.699839 0.581457 0.820828
O O14 0.849626 0.577040 0.685893
O O15 0.000000 0.500000 0.000000
#
# Coordination Sequence:
#
# PCOD9252658 Si02
#       7
#     4   4   4   4   4   4   4
#     4  11  24  49  74 107 145 198 247 291 362 455
#     4  12  27  47  75 104 151 192 251 305 377 438
#     4  12  27  46  75 107 141 198 245 308 377 436
#     4  12  26  49  75 108 143 193 255 309 366 455
#     4  12  29  47  71 111 153 191 241 310 374 436
#     4  12  26  48  75 106 152 189 246 309 371 441
#     4  11  27  45  79 106 146 196 248 302 363 442
#
# _framework density 21.476254999999998
#
# number of rings (size 3 to 8) (size 9 to 14) (size 15 to 20)
#    0.000    0.286    4.286    3.429   10.000    1.714 
#    0.000    0.000    0.000    0.000    0.000    0.000 
#    0.000    0.000    0.000    0.000    0.000    0.000 
#
# Total GULP energy -156853.621993 kJ/mol
# GULP energy per Si atom -5601.915071 kJ/mol
# Density = 2.142737 g / cm^3
# Si number density = 21.476255 Si / 1000 Ang^3
#
#
#
# Elastic Constant Matrix: (Units=GPa)
#
#
# Indices 1 2 3 4 5 6 
#
# 1 102.5966 31.4545 33.5824 0.0000 -12.2595 0.0000
# 2 31.4545 98.4961 17.0501 0.0000 5.6394 0.0000
# 3 33.5824 17.0501 81.6862 0.0000 -5.0971 0.0000
# 4 0.0000 0.0000 0.0000 43.7332 0.0000 7.6983
# 5 -12.2595 5.6394 -5.0971 0.0000 33.6010 0.0000
# 6 0.0000 0.0000 0.0000 7.6983 0.0000 42.3186
#
#
#
# Elastic Compliance Matrix: (Units=1/GPa)
#
#
# Indices 1 2 3 4 5 6 
#
# 1 0.012790 -0.003620 -0.004213 0.000000 0.004635 0.000000
# 2 -0.003620 0.011710 -0.001172 0.000000 -0.003464 0.000000
# 3 -0.004213 -0.001172 0.014270 0.000000 0.000824 0.000000
# 4 0.000000 0.000000 0.000000 0.023622 0.000000 -0.004297
# 5 0.004635 -0.003464 0.000824 0.000000 0.032158 0.000000
# 6 0.000000 0.000000 0.000000 -0.004297 0.000000 0.024412
#
#
# Mechanical properties :
#
#
# Convention : Reuss Voigt Hill
#
# Bulk Modulus (GPa) = 48.17221 49.66142 48.91682
# Shear Modulus (GPa) = 34.74790 37.31002 36.02896
#
# Velocity S-wave (km/s) = 4.02676 4.17258 4.10032
# Velocity P-wave (km/s) = 6.64070 6.81087 6.72632
#
# Compressibility (1/GPa) = 0.02075886
#
# Stress axis : x y z
#
# Youngs Moduli (GPa) = 78.18729 85.39667 70.07651
#
# Poissons Ratio (x) = 0.30917 0.29525
# Poissons Ratio (y) = 0.28307 0.08213
# Poissons Ratio (z) = 0.32942 0.10008
#
# Static dielectric constant tensor:
#      x y z
#    x 1.784080 0.000000 -0.013430 
#    y 0.000000 2.000270 0.000000 
#    z -0.013430 0.000000 1.762790 
# 
# From -- ./inp_files/10449.got.cif
#   From: 2010.05.17/outbox.cif.g08.bks.cpg/sg14_6_cif.got.tgz:10449.got - 2010.06.03 17:49:19.
