data_PCOD9252522
_publ_section_title
;
Structure prediction by ZEFSAII (Michael W. Deem and Ramdas Pophale) SiO2 
 PCOD9252522
Probable space group: P 21/C
;
_chemical_formula_sum "Si O2"
_cell_formula_units_Z 24
_cell_length_a 21.284589
_cell_length_b 4.961263
_cell_length_c 11.395140
_cell_angle_alpha 90.000000
_cell_angle_beta 59.140555
_cell_angle_gamma 90.000000
_cell_volume 1032.954405
_symmetry_space_group_name_H-M "P 21/C"
_symmetry_group_IT_number 14
_symmetry_cell_setting 'monoclinic'
loop_
_space_group_symop_operation_xyz
x,y,z
-x,1/2+y,1/2-z
-x,-y,-z
x,1/2-y,1/2+z
loop_
_atom_site_type_symbol
_atom_site_label
_atom_site_fract_x
_atom_site_fract_y
_atom_site_fract_z
Si Si1 0.339643 0.921370 0.791161
Si Si2 0.828017 0.582798 0.231466
Si Si3 0.825185 0.080265 0.096146
Si Si4 0.049880 0.567891 0.707605
Si Si5 0.445477 0.251153 0.060141
Si Si6 0.666227 0.079788 0.946914
O O1 0.254581 0.003936 0.873120
O O2 0.346495 0.747442 0.662873
O O3 0.394493 0.171743 0.719861
O O4 0.352832 0.795121 0.907554
O O5 0.824986 0.400651 0.116874
O O6 0.900298 0.485500 0.227355
O O7 0.751308 0.503655 0.364480
O O8 0.831889 0.900993 0.206832
O O9 0.893852 0.010829 0.951233
O O10 0.981878 0.366316 0.767766
O O11 0.384887 0.182352 0.020110
O O12 0.500000 0.500000 0.000000
O O13 0.500000 0.000000 0.000000
#
# Coordination Sequence:
#
# PCOD9252522 Si02
#       6
#     4   4   4   4   4   4
#     4  11  25  49  80 115 153 206 260 316 381 463
#     4  11  24  45  71 102 142 196 247 303 369 454
#     4  11  24  45  71 102 142 196 247 303 369 454
#     4  12  26  44  68 108 144 186 244 314 374 440
#     4  12  26  50  72 114 152 198 246 316 382 448
#     4  11  25  49  80 115 153 206 260 316 381 463
#
# _framework density 23.234324999999998
#
# number of rings (size 3 to 8) (size 9 to 14) (size 15 to 20)
#    0.000    0.667    5.000    2.000    0.000    6.667 
#    3.000    0.000    0.000    0.000    0.000    0.000 
#    0.000    0.000    0.000    0.000    0.000    0.000 
#
# Total GULP energy -133909.866337 kJ/mol
# GULP energy per Si atom -5579.577764 kJ/mol
# Density = 2.318144 g / cm^3
# Si number density = 23.234325 Si / 1000 Ang^3
#
#
#
# Elastic Constant Matrix: (Units=GPa)
#
#
# Indices 1 2 3 4 5 6 
#
# 1 113.0390 6.9774 36.1102 0.0000 -8.0412 0.0000
# 2 6.9774 95.4468 30.6374 0.0000 0.5875 0.0000
# 3 36.1102 30.6374 142.7527 0.0000 -1.9198 0.0000
# 4 0.0000 0.0000 0.0000 22.4999 0.0000 -3.2958
# 5 -8.0412 0.5875 -1.9198 0.0000 49.0815 0.0000
# 6 0.0000 0.0000 0.0000 -3.2958 0.0000 33.3858
#
#
#
# Elastic Compliance Matrix: (Units=1/GPa)
#
#
# Indices 1 2 3 4 5 6 
#
# 1 0.009734 0.000068 -0.002457 0.000000 0.001498 0.000000
# 2 0.000068 0.011255 -0.002436 0.000000 -0.000219 0.000000
# 3 -0.002457 -0.002436 0.008149 0.000000 -0.000055 0.000000
# 4 0.000000 0.000000 0.000000 0.045097 0.000000 0.004452
# 5 0.001498 -0.000219 -0.000055 0.000000 0.020620 0.000000
# 6 0.000000 0.000000 0.000000 0.004452 0.000000 0.030392
#
#
# Mechanical properties :
#
#
# Convention : Reuss Voigt Hill
#
# Bulk Modulus (GPa) = 51.31248 55.40983 53.36116
# Shear Modulus (GPa) = 35.36271 39.49432 37.42851
#
# Velocity S-wave (km/s) = 3.90552 4.12737 4.01797
# Velocity P-wave (km/s) = 6.51691 6.82741 6.67397
#
# Compressibility (1/GPa) = 0.01948843
#
# Stress axis : x y z
#
# Youngs Moduli (GPa) = 102.73662 88.84738 122.72140
#
# Poissons Ratio (x) = -0.00602 0.30148
# Poissons Ratio (y) = -0.00696 0.29891
# Poissons Ratio (z) = 0.25238 0.21640
#
# Static dielectric constant tensor:
#      x y z
#    x 1.866400 0.000000 0.051240 
#    y 0.000000 1.849980 0.000000 
#    z 0.051240 0.000000 1.887830 
# 
# From -- ./inp_files/34552.got.cif
#   From: 2010.05.17/outbox.cif.g08.bks.cpg/sg14_18_cif.got.tgz:34552.got - 2010.06.03 17:49:19.
