data_PCOD9252744
_publ_section_title
;
Structure prediction by ZEFSAII (Michael W. Deem and Ramdas Pophale) SiO2 
 PCOD9252744
Probable space group: P 21/C
;
_chemical_formula_sum "Si O2"
_cell_formula_units_Z 22
_cell_length_a 8.644316
_cell_length_b 7.144222
_cell_length_c 14.203701
_cell_angle_alpha 90.000000
_cell_angle_beta 107.075698
_cell_angle_gamma 90.000000
_cell_volume 838.508706
_symmetry_space_group_name_H-M "P 21/C"
_symmetry_group_IT_number 14
_symmetry_cell_setting 'monoclinic'
loop_
_space_group_symop_operation_xyz
x,y,z
-x,1/2+y,1/2-z
-x,-y,-z
x,1/2-y,1/2+z
loop_
_atom_site_type_symbol
_atom_site_label
_atom_site_fract_x
_atom_site_fract_y
_atom_site_fract_z
Si Si1 0.000000 0.000000 0.500000
Si Si2 0.672661 0.870821 0.007937
Si Si3 0.429124 0.701792 0.617309
Si Si4 0.920614 0.774156 0.830831
Si Si5 0.568774 0.627661 0.832635
Si Si6 0.009859 0.707104 0.630873
O O1 0.971220 0.141440 0.584218
O O2 0.889732 0.140291 0.407223
O O3 0.549057 0.766268 0.916716
O O4 0.689031 0.076501 0.968096
O O5 0.599241 0.859970 0.097860
O O6 0.842436 0.761643 0.040307
O O7 0.434985 0.637167 0.727181
O O8 0.431609 0.923969 0.621941
O O9 0.736218 0.705939 0.816821
O O10 0.974753 0.756062 0.732384
O O11 0.942307 0.991175 0.863573
#
# Coordination Sequence:
#
# PCOD9252744 Si02
#       6
#     2   4   4   4   4   4
#     4  12  26  48  74 104 152 200 248 310 390 444
#     4  11  25  46  70 102 147 186 248 310 368 448
#     4  11  25  45  71 106 140 191 242 309 377 440
#     4  12  27  46  73 110 151 196 255 311 387 459
#     4  12  24  45  71 105 145 191 246 303 376 448
#     4  12  26  48  74 112 150 199 253 315 386 464
#
# _framework density 26.237055000000002
#
# number of rings (size 3 to 8) (size 9 to 14) (size 15 to 20)
#    0.000    0.364    7.273    1.091    2.545    0.000 
#    0.000    3.636    0.000    0.000    0.000    0.000 
#    0.000    0.000    0.000    0.000    0.000    0.000 
#
# Total GULP energy -122646.619159 kJ/mol
# GULP energy per Si atom -5574.846325 kJ/mol
# Density = 2.617734 g / cm^3
# Si number density = 26.237055 Si / 1000 Ang^3
#
#
#
# Elastic Constant Matrix: (Units=GPa)
#
#
# Indices 1 2 3 4 5 6 
#
# 1 13.1132 -6.1886 0.3308 0.0000 1.8765 0.0000
# 2 -6.1886 226.9475 68.0632 0.0000 -13.4529 0.0000
# 3 0.3308 68.0632 191.9746 0.0000 -18.1494 0.0000
# 4 0.0000 0.0000 0.0000 66.3376 0.0000 2.2395
# 5 1.8765 -13.4529 -18.1494 0.0000 23.6635 0.0000
# 6 0.0000 0.0000 0.0000 2.2395 0.0000 24.7147
#
#
#
# Elastic Compliance Matrix: (Units=1/GPa)
#
#
# Indices 1 2 3 4 5 6 
#
# 1 0.078216 0.002221 -0.001498 0.000000 -0.006089 0.000000
# 2 0.002221 0.005049 -0.001659 0.000000 0.001421 0.000000
# 3 -0.001498 -0.001659 0.006169 0.000000 0.003907 0.000000
# 4 0.000000 0.000000 0.000000 0.015121 0.000000 -0.001370
# 5 -0.006089 0.001421 0.003907 0.000000 0.046547 0.000000
# 6 0.000000 0.000000 0.000000 -0.001370 0.000000 0.040586
#
#
# Mechanical properties :
#
#
# Convention : Reuss Voigt Hill
#
# Bulk Modulus (GPa) = 11.42050 61.82736 36.62393
# Shear Modulus (GPa) = 22.44697 47.59850 35.02274
#
# Velocity S-wave (km/s) = 2.92814 4.26393 3.65753
# Velocity P-wave (km/s) = 3.97420 6.91791 5.64144
#
# Compressibility (1/GPa) = 0.08756186
#
# Stress axis : x y z
#
# Youngs Moduli (GPa) = 12.78508 198.06622 162.09194
#
# Poissons Ratio (x) = -0.43994 0.24280
# Poissons Ratio (y) = -0.02840 0.26899
# Poissons Ratio (z) = 0.01915 0.32869
#
# Static dielectric constant tensor:
#      x y z
#    x 1.338370 0.000000 0.286640 
#    y 0.000000 1.705630 0.000000 
#    z 0.286640 0.000000 1.898140 
# 
# From -- ./inp_files/42568.got.cif
#   From: 2010.05.17/outbox.cif.g08.bks.cpg/sg14_22_cif.got.tgz:42568.got - 2010.06.03 17:49:19.
