data_PCOD9252687
_publ_section_title
;
Structure prediction by ZEFSAII (Michael W. Deem and Ramdas Pophale) SiO2 
 PCOD9252687
Probable space group: P 21/C
;
_chemical_formula_sum "Si O2"
_cell_formula_units_Z 32
_cell_length_a 15.284575
_cell_length_b 9.116417
_cell_length_c 10.316653
_cell_angle_alpha 90.000000
_cell_angle_beta 109.814014
_cell_angle_gamma 90.000000
_cell_volume 1352.423495
_symmetry_space_group_name_H-M "P 21/C"
_symmetry_group_IT_number 14
_symmetry_cell_setting 'monoclinic'
loop_
_space_group_symop_operation_xyz
x,y,z
-x,1/2+y,1/2-z
-x,-y,-z
x,1/2-y,1/2+z
loop_
_atom_site_type_symbol
_atom_site_label
_atom_site_fract_x
_atom_site_fract_y
_atom_site_fract_z
Si Si1 0.868622 0.878643 0.922963
Si Si2 0.250437 0.087901 0.587758
Si Si3 0.958588 0.233246 0.347481
Si Si4 0.915732 0.483087 0.166641
Si Si5 0.465975 0.072941 0.114314
Si Si6 0.278635 0.907296 0.045173
Si Si7 0.453691 0.086433 0.595678
Si Si8 0.255628 0.813742 0.750235
O O1 0.797874 0.739265 0.890309
O O2 0.887158 0.944427 0.790201
O O3 0.817959 0.005488 0.981096
O O4 0.966259 0.824831 0.032304
O O5 0.172504 0.003141 0.467096
O O6 0.341452 0.099529 0.543892
O O7 0.275578 0.980615 0.718642
O O8 0.950006 0.319719 0.207535
O O9 0.852598 0.218720 0.334373
O O10 0.000647 0.074400 0.350622
O O11 0.485071 0.245106 0.116907
O O12 0.357849 0.030308 0.073542
O O13 0.516337 0.000165 0.261281
O O14 0.500000 0.000000 0.000000
O O15 0.303235 0.804788 0.180714
O O16 0.274788 0.809260 0.913020
O O17 0.500000 0.000000 0.500000
#
# Coordination Sequence:
#
# PCOD9252687 Si02
#       8
#     4   4   4   4   4   4   4   4
#     4  11  25  46  73  99 151 206 247 311 377 457
#     4  11  28  46  72 107 147 198 249 306 383 452
#     4  11  25  42  68 105 145 194 255 307 371 429
#     4  11  25  43  72 102 149 195 256 310 373 445
#     4  12  29  52  81 115 153 199 252 319 389 466
#     4  12  28  51  77 110 154 201 251 314 388 450
#     4  12  29  52  82 115 153 197 256 317 386 466
#     4  12  28  45  78 110 153 195 256 316 368 452
#
# _framework density 23.661228999999999
#
# number of rings (size 3 to 8) (size 9 to 14) (size 15 to 20)
#    0.000    0.500    2.500    3.375   15.750    2.000 
#    0.000    0.000    0.000    0.000    0.000    0.000 
#    0.000    0.000    0.000    0.000    0.000    0.000 
#
# Total GULP energy -179274.454233 kJ/mol
# GULP energy per Si atom -5602.326695 kJ/mol
# Density = 2.360737 g / cm^3
# Si number density = 23.661229 Si / 1000 Ang^3
#
#
#
# Elastic Constant Matrix: (Units=GPa)
#
#
# Indices 1 2 3 4 5 6 
#
# 1 94.0952 26.7641 25.9917 0.0000 13.2066 0.0000
# 2 26.7641 151.5949 41.2295 0.0000 -11.2446 0.0000
# 3 25.9917 41.2295 87.5518 0.0000 -16.4135 0.0000
# 4 0.0000 0.0000 0.0000 32.8350 0.0000 -7.7593
# 5 13.2066 -11.2446 -16.4135 0.0000 30.0388 0.0000
# 6 0.0000 0.0000 0.0000 -7.7593 0.0000 43.0429
#
#
#
# Elastic Compliance Matrix: (Units=1/GPa)
#
#
# Indices 1 2 3 4 5 6 
#
# 1 0.013871 -0.001778 -0.005068 0.000000 -0.009533 0.000000
# 2 -0.001778 0.007820 -0.002740 0.000000 0.002212 0.000000
# 3 -0.005068 -0.002740 0.016090 0.000000 0.009994 0.000000
# 4 0.000000 0.000000 0.000000 0.031810 0.000000 0.005734
# 5 -0.009533 0.002212 0.009994 0.000000 0.043770 0.000000
# 6 0.000000 0.000000 0.000000 0.005734 0.000000 0.024266
#
#
# Mechanical properties :
#
#
# Convention : Reuss Voigt Hill
#
# Bulk Modulus (GPa) = 53.73563 57.91251 55.82407
# Shear Modulus (GPa) = 30.67428 37.13377 33.90402
#
# Velocity S-wave (km/s) = 3.60445 3.96585 3.78946
# Velocity P-wave (km/s) = 6.33107 6.74533 6.54148
#
# Compressibility (1/GPa) = 0.01860963
#
# Stress axis : x y z
#
# Youngs Moduli (GPa) = 72.09226 127.88315 62.14903
#
# Poissons Ratio (x) = 0.22734 0.31497
# Poissons Ratio (y) = 0.12816 0.17029
# Poissons Ratio (z) = 0.36536 0.35040
#
# Static dielectric constant tensor:
#      x y z
#    x 1.917340 0.000000 -0.016000 
#    y 0.000000 1.880470 0.000000 
#    z -0.016000 0.000000 1.870350 
# 
# From -- ./inp_files/31869.got.cif
#   From: 2010.05.17/outbox.cif.g08.bks.cpg/sg14_16_cif.got.tgz:31869.got - 2010.06.03 17:49:19.
