data_PCOD9252791
_publ_section_title
;
Structure prediction by ZEFSAII (Michael W. Deem and Ramdas Pophale) SiO2 
 PCOD9252791
Probable space group: P 21/C
;
_chemical_formula_sum "Si O2"
_cell_formula_units_Z 20
_cell_length_a 8.420268
_cell_length_b 7.131754
_cell_length_c 17.845821
_cell_angle_alpha 90.000000
_cell_angle_beta 47.061124
_cell_angle_gamma 90.000000
_cell_volume 784.544982
_symmetry_space_group_name_H-M "P 21/C"
_symmetry_group_IT_number 14
_symmetry_cell_setting 'monoclinic'
loop_
_space_group_symop_operation_xyz
x,y,z
-x,1/2+y,1/2-z
-x,-y,-z
x,1/2-y,1/2+z
loop_
_atom_site_type_symbol
_atom_site_label
_atom_site_fract_x
_atom_site_fract_y
_atom_site_fract_z
Si Si1 0.337319 0.308476 0.005369
Si Si2 0.229283 0.292787 0.791535
Si Si3 0.944135 0.423800 0.613979
Si Si4 0.320691 0.890464 0.379546
Si Si5 0.809932 0.101413 0.330809
O O1 0.280556 0.473116 0.962851
O O2 0.594793 0.275899 0.917211
O O3 0.259001 0.405810 0.107397
O O4 0.197249 0.124162 0.036600
O O5 0.445554 0.203887 0.687985
O O6 0.305714 0.472136 0.813112
O O7 0.031840 0.339164 0.799697
O O8 0.130891 0.133659 0.877759
O O9 0.837645 0.276762 0.592006
O O10 0.852327 0.394642 0.728529
#
# Coordination Sequence:
#
# PCOD9252791 Si02
#       5
#     4   4   4   4   4
#     4  11  25  49  75 107 154 196 241 310 367 434
#     4  12  25  44  76 107 146 202 240 303 371 430
#     4  12  25  47  76 107 154 189 248 309 355 448
#     4  12  25  48  73 111 150 193 245 303 374 427
#     4  11  25  46  74 109 147 200 241 297 378 420
#
# _framework density 25.492483
#
# number of rings (size 3 to 8) (size 9 to 14) (size 15 to 20)
#    0.000    0.400    6.000    1.800    2.800    1.600 
#    0.000    0.000    0.000    0.000    0.000    0.000 
#    0.000    0.000    0.000    0.000    0.000    0.000 
#
# Total GULP energy -112065.135887 kJ/mol
# GULP energy per Si atom -5603.256794 kJ/mol
# Density = 2.543446 g / cm^3
# Si number density = 25.492483 Si / 1000 Ang^3
#
#
#
# Elastic Constant Matrix: (Units=GPa)
#
#
# Indices 1 2 3 4 5 6 
#
# 1 151.3442 14.9207 62.3822 0.0000 -24.9028 0.0000
# 2 14.9207 27.8926 20.0182 0.0000 5.9531 0.0000
# 3 62.3822 20.0182 145.6565 0.0000 -3.9222 0.0000
# 4 0.0000 0.0000 0.0000 35.2084 0.0000 -5.3762
# 5 -24.9028 5.9531 -3.9222 0.0000 41.0745 0.0000
# 6 0.0000 0.0000 0.0000 -5.3762 0.0000 30.4177
#
#
#
# Elastic Compliance Matrix: (Units=1/GPa)
#
#
# Indices 1 2 3 4 5 6 
#
# 1 0.009320 -0.003876 -0.003300 0.000000 0.005897 0.000000
# 2 -0.003876 0.043084 -0.004504 0.000000 -0.009024 0.000000
# 3 -0.003300 -0.004504 0.008884 0.000000 -0.000500 0.000000
# 4 0.000000 0.000000 0.000000 0.029190 0.000000 0.005159
# 5 0.005897 -0.009024 -0.000500 0.000000 0.029182 0.000000
# 6 0.000000 0.000000 0.000000 0.005159 0.000000 0.033787
#
#
# Mechanical properties :
#
#
# Convention : Reuss Voigt Hill
#
# Bulk Modulus (GPa) = 26.36582 57.72619 42.04600
# Shear Modulus (GPa) = 26.39206 36.51162 31.45184
#
# Velocity S-wave (km/s) = 3.22108 3.78861 3.51632
# Velocity P-wave (km/s) = 4.91923 6.46774 5.74589
#
# Compressibility (1/GPa) = 0.03792789
#
# Stress axis : x y z
#
# Youngs Moduli (GPa) = 107.29334 23.21058 112.55579
#
# Poissons Ratio (x) = 0.08996 0.37146
# Poissons Ratio (y) = 0.41585 0.50698
# Poissons Ratio (z) = 0.35409 0.10455
#
# Static dielectric constant tensor:
#      x y z
#    x 2.023790 0.000000 0.026890 
#    y 0.000000 2.016240 0.000000 
#    z 0.026890 0.000000 2.013090 
# 
# From -- ./inp_files/54405.got.cif
#   From: 2010.05.17/outbox.cif.g08.bks.cpg/sg14_28_cif.got.tgz:54405.got - 2010.06.03 17:49:19.
