data_PCOD9252939
_publ_section_title
;
Structure prediction by ZEFSAII (Michael W. Deem and Ramdas Pophale) SiO2 
 PCOD9252939
Probable space group: P 21/C
;
_chemical_formula_sum "Si O2"
_cell_formula_units_Z 28
_cell_length_a 6.671762
_cell_length_b 11.705714
_cell_length_c 21.707884
_cell_angle_alpha 90.000000
_cell_angle_beta 125.206113
_cell_angle_gamma 90.000000
_cell_volume 1385.231409
_symmetry_space_group_name_H-M "P 21/C"
_symmetry_group_IT_number 14
_symmetry_cell_setting 'monoclinic'
loop_
_space_group_symop_operation_xyz
x,y,z
-x,1/2+y,1/2-z
-x,-y,-z
x,1/2-y,1/2+z
loop_
_atom_site_type_symbol
_atom_site_label
_atom_site_fract_x
_atom_site_fract_y
_atom_site_fract_z
Si Si1 0.902884 0.060457 0.921701
Si Si2 0.263405 0.514127 0.146344
Si Si3 0.341684 0.829874 0.318969
Si Si4 0.612419 0.277700 0.920034
Si Si5 0.417407 0.568098 0.309959
Si Si6 0.849030 0.877107 0.155928
Si Si7 0.272776 0.583426 0.945269
O O1 0.776482 0.178823 0.919181
O O2 0.104957 0.087259 0.906259
O O3 0.693831 0.979463 0.855709
O O4 0.000000 0.000000 0.000000
O O5 0.431643 0.402547 0.167293
O O6 0.356503 0.609213 0.115223
O O7 0.299953 0.560811 0.221598
O O8 0.981184 0.481344 0.086323
O O9 0.407140 0.696721 0.332071
O O10 0.280491 0.876408 0.376096
O O11 0.107074 0.847705 0.233461
O O12 0.336552 0.229366 0.872590
O O13 0.700014 0.309947 0.003834
O O14 0.272428 0.482183 0.329013
O O15 0.500000 0.500000 0.000000
#
# Coordination Sequence:
#
# PCOD9252939 Si02
#       7
#     4   4   4   4   4   4   4
#     4  11  27  46  72 101 144 188 236 296 363 427
#     4  12  26  48  72 109 143 190 246 294 373 427
#     4  12  27  44  77 104 143 192 239 301 361 439
#     4  11  28  45  74 104 145 185 235 305 356 438
#     4  11  27  44  72 106 140 188 244 296 354 442
#     4  11  26  49  71 105 141 192 238 293 367 429
#     4  12  28  46  73 111 144 187 244 304 371 429
#
# _framework density 20.213229999999999
#
# number of rings (size 3 to 8) (size 9 to 14) (size 15 to 20)
#    0.000    0.571    4.286    1.286   14.000    1.143 
#    0.000    0.000    0.000    0.000    0.000    0.000 
#    0.000    0.000    0.000    0.000    0.000    0.000 
#
# Total GULP energy -156771.119487 kJ/mol
# GULP energy per Si atom -5598.968553 kJ/mol
# Density = 2.016722 g / cm^3
# Si number density = 20.213230 Si / 1000 Ang^3
#
#
#
# Elastic Constant Matrix: (Units=GPa)
#
#
# Indices 1 2 3 4 5 6 
#
# 1 129.7668 47.1711 46.7378 0.0000 5.7524 0.0000
# 2 47.1711 116.3222 28.4724 0.0000 13.7432 0.0000
# 3 46.7378 28.4724 107.4977 0.0000 -1.6290 0.0000
# 4 0.0000 0.0000 0.0000 35.5794 0.0000 0.9117
# 5 5.7524 13.7432 -1.6290 0.0000 44.3400 0.0000
# 6 0.0000 0.0000 0.0000 0.9117 0.0000 17.6232
#
#
#
# Elastic Compliance Matrix: (Units=1/GPa)
#
#
# Indices 1 2 3 4 5 6 
#
# 1 0.010180 -0.003196 -0.003587 0.000000 -0.000462 0.000000
# 2 -0.003196 0.010596 -0.001461 0.000000 -0.002923 0.000000
# 3 -0.003587 -0.001461 0.011269 0.000000 0.001332 0.000000
# 4 0.000000 0.000000 0.000000 0.028143 0.000000 -0.001456
# 5 -0.000462 -0.002923 0.001332 0.000000 0.023568 0.000000
# 6 0.000000 0.000000 0.000000 -0.001456 0.000000 0.056819
#
#
# Mechanical properties :
#
#
# Convention : Reuss Voigt Hill
#
# Bulk Modulus (GPa) = 64.27710 66.48326 65.38018
# Shear Modulus (GPa) = 30.81694 34.92222 32.86958
#
# Velocity S-wave (km/s) = 3.90884 4.16106 4.03692
# Velocity P-wave (km/s) = 7.22777 7.48654 7.35829
#
# Compressibility (1/GPa) = 0.01555764
#
# Stress axis : x y z
#
# Youngs Moduli (GPa) = 98.23110 94.37681 88.73772
#
# Poissons Ratio (x) = 0.30160 0.31827
# Poissons Ratio (y) = 0.31392 0.12967
# Poissons Ratio (z) = 0.35232 0.13791
#
# Static dielectric constant tensor:
#      x y z
#    x 1.699800 0.000000 -0.002170 
#    y 0.000000 1.684160 0.000000 
#    z -0.002170 0.000000 1.699240 
# 
# From -- ./inp_files/63422.got.cif
#   From: 2010.05.17/outbox.cif.g08.bks.cpg/sg14_32_cif.got.tgz:63422.got - 2010.06.03 17:49:19.
