data_PCOD9252996
_publ_section_title
;
Structure prediction by ZEFSAII (Michael W. Deem and Ramdas Pophale) SiO2 
 PCOD9252996
Probable space group: P 21/C
;
_chemical_formula_sum "Si O2"
_cell_formula_units_Z 20
_cell_length_a 6.858320
_cell_length_b 9.151960
_cell_length_c 11.011376
_cell_angle_alpha 90.000000
_cell_angle_beta 99.434293
_cell_angle_gamma 90.000000
_cell_volume 681.803451
_symmetry_space_group_name_H-M "P 21/C"
_symmetry_group_IT_number 14
_symmetry_cell_setting 'monoclinic'
loop_
_space_group_symop_operation_xyz
x,y,z
-x,1/2+y,1/2-z
-x,-y,-z
x,1/2-y,1/2+z
loop_
_atom_site_type_symbol
_atom_site_label
_atom_site_fract_x
_atom_site_fract_y
_atom_site_fract_z
Si Si1 0.436528 0.248743 0.734563
Si Si2 0.622255 0.351051 0.007072
Si Si3 0.016082 0.782043 0.590305
Si Si4 0.078833 0.470016 0.695202
Si Si5 0.695597 0.561212 0.583515
O O1 0.563494 0.224585 0.627735
O O2 0.335976 0.099614 0.776770
O O3 0.200432 0.210469 0.956875
O O4 0.275923 0.376367 0.695055
O O5 0.500000 0.500000 0.000000
O O6 0.856374 0.344216 0.006778
O O7 0.551907 0.286666 0.870151
O O8 0.982807 0.912106 0.680490
O O9 0.108435 0.641799 0.673378
O O10 0.120358 0.551292 0.406671
O O11 0.500000 0.500000 0.500000
#
# Coordination Sequence:
#
# PCOD9252996 Si02
#       5
#     4   4   4   4   4
#     4  11  27  53  85 131 179 246 308 391 477 583
#     4  12  29  52  87 135 188 244 314 394 484 585
#     4   9  22  48  88 132 177 239 318 391 480 578
#     4   9  21  49  89 126 175 235 318 389 475 580
#     4   9  21  50  90 130 172 246 317 387 482 569
#
# _framework density 29.333964000000002
#
# number of rings (size 3 to 8) (size 9 to 14) (size 15 to 20)
#    1.200    0.800    0.000    1.200    2.800    4.000 
#    0.000   23.000    0.000    4.800    0.000    0.000 
#    0.000    0.000    0.000    0.000    0.000    0.000 
#
# Total GULP energy -111911.826567 kJ/mol
# GULP energy per Si atom -5595.591328 kJ/mol
# Density = 2.926720 g / cm^3
# Si number density = 29.333964 Si / 1000 Ang^3
#
#
#
# Elastic Constant Matrix: (Units=GPa)
#
#
# Indices 1 2 3 4 5 6 
#
# 1 230.7991 84.9321 113.0406 0.0000 -16.5901 0.0000
# 2 84.9321 164.8264 105.5627 0.0000 -17.4776 0.0000
# 3 113.0406 105.5627 248.1544 0.0000 -55.1262 0.0000
# 4 0.0000 0.0000 0.0000 52.6795 0.0000 5.6409
# 5 -16.5901 -17.4776 -55.1262 0.0000 86.8045 0.0000
# 6 0.0000 0.0000 0.0000 5.6409 0.0000 68.2048
#
#
#
# Elastic Compliance Matrix: (Units=1/GPa)
#
#
# Indices 1 2 3 4 5 6 
#
# 1 0.005974 -0.001809 -0.002071 0.000000 -0.000538 0.000000
# 2 -0.001809 0.008920 -0.003083 0.000000 -0.000508 0.000000
# 3 -0.002071 -0.003083 0.007054 0.000000 0.003463 0.000000
# 4 0.000000 0.000000 0.000000 0.019152 0.000000 -0.001584
# 5 -0.000538 -0.000508 0.003463 0.000000 0.013514 0.000000
# 6 0.000000 0.000000 0.000000 -0.001584 0.000000 0.014793
#
#
# Mechanical properties :
#
#
# Convention : Reuss Voigt Hill
#
# Bulk Modulus (GPa) = 124.66783 138.98341 131.82562
# Shear Modulus (GPa) = 58.13351 64.22073 61.17712
#
# Velocity S-wave (km/s) = 4.45655 4.68407 4.57172
# Velocity P-wave (km/s) = 8.31101 8.75994 8.53842
#
# Compressibility (1/GPa) = 0.00802132
#
# Stress axis : x y z
#
# Youngs Moduli (GPa) = 167.38349 112.10919 141.75751
#
# Poissons Ratio (x) = 0.20278 0.29365
# Poissons Ratio (y) = 0.30276 0.43708
# Poissons Ratio (z) = 0.34673 0.34566
#
# Static dielectric constant tensor:
#      x y z
#    x 2.465640 0.000000 -0.026670 
#    y 0.000000 2.410880 0.000000 
#    z -0.026670 0.000000 2.325980 
# 
# From -- ./inp_files/23818.got.cif
#   From: 2010.05.17/outbox.cif.g08.bks.cpg/sg14_12_cif.got.tgz:23818.got - 2010.06.03 17:49:19.
