data_PCOD9252480
_publ_section_title
;
Structure prediction by ZEFSAII (Michael W. Deem and Ramdas Pophale) SiO2 
 PCOD9252480
Probable space group: P 21/C
;
_chemical_formula_sum "Si O2"
_cell_formula_units_Z 26
_cell_length_a 14.011119
_cell_length_b 7.430317
_cell_length_c 14.560787
_cell_angle_alpha 90.000000
_cell_angle_beta 135.699434
_cell_angle_gamma 90.000000
_cell_volume 1058.724943
_symmetry_space_group_name_H-M "P 21/C"
_symmetry_group_IT_number 14
_symmetry_cell_setting 'monoclinic'
loop_
_space_group_symop_operation_xyz
x,y,z
-x,1/2+y,1/2-z
-x,-y,-z
x,1/2-y,1/2+z
loop_
_atom_site_type_symbol
_atom_site_label
_atom_site_fract_x
_atom_site_fract_y
_atom_site_fract_z
Si Si1 0.984694 0.414005 0.868040
Si Si2 0.313391 0.623246 0.293398
Si Si3 0.362384 0.760190 0.031194
Si Si4 0.000000 0.500000 0.500000
Si Si5 0.047888 0.705189 0.355647
Si Si6 0.232837 0.268376 0.152690
Si Si7 0.475243 0.108436 0.215036
O O1 0.969312 0.626237 0.844122
O O2 0.848573 0.322969 0.817606
O O3 0.009197 0.343215 0.782867
O O4 0.110390 0.376515 0.019531
O O5 0.370896 0.692151 0.429606
O O6 0.303308 0.404922 0.273772
O O7 0.408428 0.682100 0.274799
O O8 0.448302 0.596502 0.133439
O O9 0.417102 0.932973 0.124998
O O10 0.203675 0.735412 0.945383
O O11 0.952398 0.455926 0.572405
O O12 0.844933 0.589043 0.369569
O O13 0.344207 0.225405 0.151736
#
# Coordination Sequence:
#
# PCOD9252480 Si02
#       7
#     4   4   4   2   4   4   4
#     4  11  25  46  74 107 145 193 246 303 378 441
#     4  11  25  48  77  99 148 202 240 302 392 433
#     4  11  26  47  71 104 143 200 243 305 366 453
#     4  12  24  40  70 108 142 186 244 300 370 422
#     4  11  24  44  72 107 147 186 247 305 362 448
#     4  12  25  43  75 109 143 195 246 316 362 448
#     4  12  25  44  72 102 145 190 252 300 363 442
#
# _framework density 24.557841
#
# number of rings (size 3 to 8) (size 9 to 14) (size 15 to 20)
#    0.000    0.615    4.615    2.769    4.308    0.000 
#    0.000    0.769    0.000    0.000    0.000    0.000 
#    0.000    0.000    0.000    0.000    0.000    0.000 
#
# Total GULP energy -144923.469159 kJ/mol
# GULP energy per Si atom -5573.979583 kJ/mol
# Density = 2.450195 g / cm^3
# Si number density = 24.557841 Si / 1000 Ang^3
#
#
#
# Elastic Constant Matrix: (Units=GPa)
#
#
# Indices 1 2 3 4 5 6 
#
# 1 161.2873 29.5568 41.3945 0.0000 8.2015 0.0000
# 2 29.5568 50.7612 19.7961 0.0000 -7.6284 0.0000
# 3 41.3945 19.7961 119.1687 0.0000 -11.5914 0.0000
# 4 0.0000 0.0000 0.0000 42.6770 0.0000 -1.4723
# 5 8.2015 -7.6284 -11.5914 0.0000 30.2316 0.0000
# 6 0.0000 0.0000 0.0000 -1.4723 0.0000 40.3551
#
#
#
# Elastic Compliance Matrix: (Units=1/GPa)
#
#
# Indices 1 2 3 4 5 6 
#
# 1 0.007800 -0.004219 -0.002408 0.000000 -0.004104 0.000000
# 2 -0.004219 0.023855 -0.001870 0.000000 0.006447 0.000000
# 3 -0.002408 -0.001870 0.009926 0.000000 0.003987 0.000000
# 4 0.000000 0.000000 0.000000 0.023461 0.000000 0.000856
# 5 -0.004104 0.006447 0.003987 0.000000 0.037347 0.000000
# 6 0.000000 0.000000 0.000000 0.000856 0.000000 0.024811
#
#
# Mechanical properties :
#
#
# Convention : Reuss Voigt Hill
#
# Bulk Modulus (GPa) = 40.67173 56.96799 48.81986
# Shear Modulus (GPa) = 32.81040 38.68406 35.74723
#
# Velocity S-wave (km/s) = 3.65916 3.97321 3.81942
# Velocity P-wave (km/s) = 5.86943 6.65555 6.27481
#
# Compressibility (1/GPa) = 0.02458710
#
# Stress axis : x y z
#
# Youngs Moduli (GPa) = 128.20575 41.91975 100.74289
#
# Poissons Ratio (x) = 0.17688 0.24255
# Poissons Ratio (y) = 0.54096 0.18839
# Poissons Ratio (z) = 0.30867 0.07839
#
# Static dielectric constant tensor:
#      x y z
#    x 1.975980 0.000000 0.035000 
#    y 0.000000 2.118610 0.000000 
#    z 0.035000 0.000000 1.896430 
# 
# From -- ./inp_files/46753.got.cif
#   From: 2010.05.17/outbox.cif.g08.bks.cpg/sg14_24_cif.got.tgz:46753.got - 2010.06.03 17:49:19.
