data_PCOD9252871
_publ_section_title
;
Structure prediction by ZEFSAII (Michael W. Deem and Ramdas Pophale) SiO2 
 PCOD9252871
Probable space group: P 21/C
;
_chemical_formula_sum "Si O2"
_cell_formula_units_Z 28
_cell_length_a 20.563641
_cell_length_b 9.129339
_cell_length_c 11.594522
_cell_angle_alpha 90.000000
_cell_angle_beta 26.967018
_cell_angle_gamma 90.000000
_cell_volume 987.070018
_symmetry_space_group_name_H-M "P 21/C"
_symmetry_group_IT_number 14
_symmetry_cell_setting 'monoclinic'
loop_
_space_group_symop_operation_xyz
x,y,z
-x,1/2+y,1/2-z
-x,-y,-z
x,1/2-y,1/2+z
loop_
_atom_site_type_symbol
_atom_site_label
_atom_site_fract_x
_atom_site_fract_y
_atom_site_fract_z
Si Si1 0.687324 0.297890 0.058719
Si Si2 0.702679 0.531159 0.620936
Si Si3 0.772701 0.516998 0.759938
Si Si4 0.007612 0.818115 0.582647
Si Si5 0.922644 0.717899 0.952523
Si Si6 0.283516 0.970290 0.250959
Si Si7 0.454648 0.282025 0.760999
O O1 0.711710 0.402284 0.128815
O O2 0.532100 0.302364 0.243568
O O3 0.792702 0.365400 0.794332
O O4 0.697286 0.128788 0.074548
O O5 0.681856 0.500194 0.788445
O O6 0.594980 0.655503 0.746943
O O7 0.857535 0.599462 0.349522
O O8 0.765581 0.640788 0.180606
O O9 0.906803 0.609241 0.506027
O O10 0.683291 0.624625 0.984398
O O11 0.146538 0.907064 0.400867
O O12 0.998878 0.699798 0.707103
O O13 0.993518 0.820638 0.464122
O O14 0.427146 0.897507 0.972030
#
# Coordination Sequence:
#
# PCOD9252871 Si02
#       7
#     4   4   4   4   4   4   4
#     4  12  27  47  76 123 157 216 280 345 419 502
#     4  11  26  54  78 119 171 217 281 356 419 498
#     4  11  26  49  81 118 157 218 278 352 423 500
#     4  11  26  50  85 113 169 221 277 351 427 501
#     4  11  25  53  80 120 164 215 285 346 423 508
#     4  12  29  45  83 119 163 224 279 344 430 506
#     4  12  26  49  81 117 168 212 281 346 423 497
#
# _framework density 28.366783999999999
#
# number of rings (size 3 to 8) (size 9 to 14) (size 15 to 20)
#    0.000    0.571    1.429    4.714    8.000    2.286 
#    0.000    2.143    0.000    0.000    0.000    0.000 
#    0.000    0.000    0.000    0.000    0.000    0.000 
#
# Total GULP energy -156747.133322 kJ/mol
# GULP energy per Si atom -5598.111904 kJ/mol
# Density = 2.830222 g / cm^3
# Si number density = 28.366784 Si / 1000 Ang^3
#
#
#
# Elastic Constant Matrix: (Units=GPa)
#
#
# Indices 1 2 3 4 5 6 
#
# 1 204.8667 64.0840 21.3508 0.0000 31.3678 0.0000
# 2 64.0840 143.8395 13.9829 0.0000 10.0170 0.0000
# 3 21.3508 13.9829 84.2356 0.0000 22.1705 0.0000
# 4 0.0000 0.0000 0.0000 23.6862 0.0000 9.2208
# 5 31.3678 10.0170 22.1705 0.0000 43.3708 0.0000
# 6 0.0000 0.0000 0.0000 9.2208 0.0000 57.1252
#
#
#
# Elastic Compliance Matrix: (Units=1/GPa)
#
#
# Indices 1 2 3 4 5 6 
#
# 1 0.006277 -0.002511 -0.000152 0.000000 -0.003882 0.000000
# 2 -0.002511 0.008125 -0.000805 0.000000 0.000351 0.000000
# 3 -0.000152 -0.000805 0.013826 0.000000 -0.006772 0.000000
# 4 0.000000 0.000000 0.000000 0.045049 0.000000 -0.007272
# 5 -0.003882 0.000351 -0.006772 0.000000 0.029245 0.000000
# 6 0.000000 0.000000 0.000000 -0.007272 0.000000 0.018679
#
#
# Mechanical properties :
#
#
# Convention : Reuss Voigt Hill
#
# Bulk Modulus (GPa) = 46.96827 70.19748 58.58288
# Shear Modulus (GPa) = 36.97265 47.07140 42.02202
#
# Velocity S-wave (km/s) = 3.61415 4.07797 3.85305
# Velocity P-wave (km/s) = 5.83177 6.85370 6.36328
#
# Compressibility (1/GPa) = 0.02129097
#
# Stress axis : x y z
#
# Youngs Moduli (GPa) = 159.30983 123.07907 72.32807
#
# Poissons Ratio (x) = 0.30911 0.01102
# Poissons Ratio (y) = 0.40010 0.05819
# Poissons Ratio (z) = 0.02428 0.09903
#
# Static dielectric constant tensor:
#      x y z
#    x 2.202120 0.000000 0.044080 
#    y 0.000000 2.256240 0.000000 
#    z 0.044080 0.000000 2.272760 
# 
# From -- ./inp_files/35145.got.cif
#   From: 2010.05.17/outbox.cif.g08.bks.cpg/sg14_18_cif.got.tgz:35145.got - 2010.06.03 17:49:19.
