data_PCOD9252162
_publ_section_title
;
Structure prediction by ZEFSAII (Michael W. Deem and Ramdas Pophale) SiO2 
 PCOD9252162
Probable space group: P 21/C
;
_chemical_formula_sum "Si O2"
_cell_formula_units_Z 32
_cell_length_a 15.600935
_cell_length_b 7.603320
_cell_length_c 11.992480
_cell_angle_alpha 90.000000
_cell_angle_beta 71.662756
_cell_angle_gamma 90.000000
_cell_volume 1350.300150
_symmetry_space_group_name_H-M "P 21/C"
_symmetry_group_IT_number 14
_symmetry_cell_setting 'monoclinic'
loop_
_space_group_symop_operation_xyz
x,y,z
-x,1/2+y,1/2-z
-x,-y,-z
x,1/2-y,1/2+z
loop_
_atom_site_type_symbol
_atom_site_label
_atom_site_fract_x
_atom_site_fract_y
_atom_site_fract_z
Si Si1 0.904478 0.556296 0.991475
Si Si2 0.777233 0.936014 0.723689
Si Si3 0.655822 0.999292 0.426292
Si Si4 0.893367 0.972516 0.033024
Si Si5 0.738396 0.130277 0.964231
Si Si6 0.600350 0.549176 0.187061
Si Si7 0.598717 0.133234 0.209389
Si Si8 0.841511 0.610001 0.788129
O O1 0.828547 0.467550 0.100906
O O2 0.883240 0.766795 0.004314
O O3 0.898557 0.524199 0.862269
O O4 0.000000 0.500000 0.000000
O O5 0.856297 0.808516 0.739946
O O6 0.739574 0.039601 0.843671
O O7 0.689131 0.854915 0.698250
O O8 0.705621 0.173982 0.451248
O O9 0.596182 0.933620 0.554029
O O10 0.613533 0.044488 0.324056
O O11 0.739457 0.871210 0.372721
O O12 0.849896 0.001241 0.172646
O O13 0.838139 0.094892 0.971924
O O14 0.000000 0.000000 0.000000
O O15 0.666720 0.062253 0.086497
O O16 0.613871 0.342943 0.209627
O O17 0.506322 0.608643 0.278119
#
# Coordination Sequence:
#
# PCOD9252162 Si02
#       8
#     4   4   4   4   4   4   4   4
#     4  11  26  43  68 102 133 172 223 272 330 397
#     4  11  24  46  67  96 135 178 220 271 336 392
#     4  11  23  44  69  96 131 175 224 273 333 392
#     4  11  26  43  66 100 134 175 220 272 333 392
#     4  11  24  45  66  94 137 173 222 274 329 398
#     4  11  25  43  68  98 135 176 222 279 331 399
#     4  11  25  43  66 102 132 176 225 272 341 395
#     4  11  24  43  71  96 131 178 215 274 333 389
#
# _framework density 23.698433999999999
#
# number of rings (size 3 to 8) (size 9 to 14) (size 15 to 20)
#    0.000    1.000    5.000    0.375    5.250    2.500 
#    0.000    0.000    0.000    0.000    0.000    0.000 
#    0.000    0.000    0.000    0.000    0.000    0.000 
#
# Total GULP energy -178751.517661 kJ/mol
# GULP energy per Si atom -5585.984927 kJ/mol
# Density = 2.364450 g / cm^3
# Si number density = 23.698434 Si / 1000 Ang^3
#
#
#
# Elastic Constant Matrix: (Units=GPa)
#
#
# Indices 1 2 3 4 5 6 
#
# 1 118.9442 -2.2893 32.2092 0.0000 -2.2440 0.0000
# 2 -2.2893 43.0083 12.7763 0.0000 3.6903 0.0000
# 3 32.2092 12.7763 114.3338 0.0000 19.0267 0.0000
# 4 0.0000 0.0000 0.0000 26.3629 0.0000 2.5175
# 5 -2.2440 3.6903 19.0267 0.0000 42.1879 0.0000
# 6 0.0000 0.0000 0.0000 2.5175 0.0000 32.2986
#
#
#
# Elastic Compliance Matrix: (Units=1/GPa)
#
#
# Indices 1 2 3 4 5 6 
#
# 1 0.009290 0.001249 -0.003050 0.000000 0.001760 0.000000
# 2 0.001249 0.024254 -0.002941 0.000000 -0.000729 0.000000
# 3 -0.003050 -0.002941 0.010723 0.000000 -0.004741 0.000000
# 4 0.000000 0.000000 0.000000 0.038216 0.000000 -0.002979
# 5 0.001760 -0.000729 -0.004741 0.000000 0.025999 0.000000
# 6 0.000000 0.000000 0.000000 -0.002979 0.000000 0.031193
#
#
# Mechanical properties :
#
#
# Convention : Reuss Voigt Hill
#
# Bulk Modulus (GPa) = 28.74809 40.18651 34.46730
# Shear Modulus (GPa) = 31.10343 35.74257 33.42300
#
# Velocity S-wave (km/s) = 3.62673 3.88780 3.75953
# Velocity P-wave (km/s) = 5.44928 6.09488 5.78110
#
# Compressibility (1/GPa) = 0.03478492
#
# Stress axis : x y z
#
# Youngs Moduli (GPa) = 107.63777 41.23024 93.25660
#
# Poissons Ratio (x) = -0.05152 0.28441
# Poissons Ratio (y) = -0.13449 0.27427
# Poissons Ratio (z) = 0.32827 0.12126
#
# Static dielectric constant tensor:
#      x y z
#    x 1.871470 0.000000 0.011300 
#    y 0.000000 1.974090 0.000000 
#    z 0.011300 0.000000 1.933210 
# 
# From -- ./inp_files/31780.got.cif
#   From: 2010.05.17/outbox.cif.g08.bks.cpg/sg14_16_cif.got.tgz:31780.got - 2010.06.03 17:49:19.
