data_PCOD9252257
_publ_section_title
;
Structure prediction by ZEFSAII (Michael W. Deem and Ramdas Pophale) SiO2 
 PCOD9252257
Probable space group: P 21/C
;
_chemical_formula_sum "Si O2"
_cell_formula_units_Z 28
_cell_length_a 11.946871
_cell_length_b 8.644270
_cell_length_c 13.451625
_cell_angle_alpha 90.000000
_cell_angle_beta 61.066784
_cell_angle_gamma 90.000000
_cell_volume 1215.784834
_symmetry_space_group_name_H-M "P 21/C"
_symmetry_group_IT_number 14
_symmetry_cell_setting 'monoclinic'
loop_
_space_group_symop_operation_xyz
x,y,z
-x,1/2+y,1/2-z
-x,-y,-z
x,1/2-y,1/2+z
loop_
_atom_site_type_symbol
_atom_site_label
_atom_site_fract_x
_atom_site_fract_y
_atom_site_fract_z
Si Si1 0.140710 0.121860 0.989767
Si Si2 0.822107 0.683612 0.848651
Si Si3 0.653209 0.079813 0.209748
Si Si4 0.092028 0.907880 0.184294
Si Si5 0.287371 0.863680 0.589550
Si Si6 0.392622 0.577288 0.843375
Si Si7 0.818211 0.870573 0.675402
O O1 0.096443 0.263694 0.936592
O O2 0.225434 0.008130 0.887567
O O3 0.220367 0.213688 0.040435
O O4 0.059715 0.011236 0.099466
O O5 0.812316 0.504435 0.876704
O O6 0.753916 0.745861 0.778870
O O7 0.972891 0.700876 0.760978
O O8 0.662324 0.115771 0.321983
O O9 0.640922 0.249019 0.170366
O O10 0.527378 0.979110 0.244271
O O11 0.214966 0.799677 0.108831
O O12 0.121450 0.008825 0.271013
O O13 0.390578 0.910054 0.463266
O O14 0.283736 0.463638 0.846474
#
# Coordination Sequence:
#
# PCOD9252257 Si02
#       7
#     4   4   4   4   4   4   4
#     4  11  23  46  70 102 140 184 232 288 341 419
#     4  11  25  44  70  99 146 183 231 287 345 414
#     4  12  26  47  72 102 140 183 234 291 360 417
#     4  11  25  46  66 108 144 181 234 289 349 411
#     4  12  23  46  69 106 143 178 233 300 339 417
#     4  12  26  47  72 102 140 183 234 291 360 417
#     4  11  23  46  70 102 140 184 232 288 341 419
#
# _framework density 23.030391999999999
#
# number of rings (size 3 to 8) (size 9 to 14) (size 15 to 20)
#    0.000    0.571    5.714    3.000    0.000    1.143 
#    5.143    3.571    0.000    0.000    0.000    0.000 
#    0.000    0.000    0.000    0.000    0.000    0.000 
#
# Total GULP energy -156247.966646 kJ/mol
# GULP energy per Si atom -5580.284523 kJ/mol
# Density = 2.297797 g / cm^3
# Si number density = 23.030392 Si / 1000 Ang^3
#
#
#
# Elastic Constant Matrix: (Units=GPa)
#
#
# Indices 1 2 3 4 5 6 
#
# 1 34.3615 18.0661 18.0917 0.0000 0.3830 0.0000
# 2 18.0661 123.0057 34.4591 0.0000 2.5783 0.0000
# 3 18.0917 34.4591 119.9622 0.0000 31.6519 0.0000
# 4 0.0000 0.0000 0.0000 30.8391 0.0000 1.1675
# 5 0.3830 2.5783 31.6519 0.0000 26.1321 0.0000
# 6 0.0000 0.0000 0.0000 1.1675 0.0000 33.3067
#
#
#
# Elastic Compliance Matrix: (Units=1/GPa)
#
#
# Indices 1 2 3 4 5 6 
#
# 1 0.034009 -0.003459 -0.006017 0.000000 0.007131 0.000000
# 2 -0.003459 0.009383 -0.002855 0.000000 0.002583 0.000000
# 3 -0.006017 -0.002855 0.014647 0.000000 -0.017371 0.000000
# 4 0.000000 0.000000 0.000000 0.032469 0.000000 -0.001138
# 5 0.007131 0.002583 -0.017371 0.000000 0.058948 0.000000
# 6 0.000000 0.000000 0.000000 -0.001138 0.000000 0.030064
#
#
# Mechanical properties :
#
#
# Convention : Reuss Voigt Hill
#
# Bulk Modulus (GPa) = 29.96038 46.50702 38.23370
# Shear Modulus (GPa) = 23.22247 31.83641 27.52944
#
# Velocity S-wave (km/s) = 3.17888 3.72205 3.46114
# Velocity P-wave (km/s) = 5.14889 6.22167 5.71052
#
# Compressibility (1/GPa) = 0.03337741
#
# Stress axis : x y z
#
# Youngs Moduli (GPa) = 29.40362 106.57021 68.27426
#
# Poissons Ratio (x) = 0.36862 0.41080
# Poissons Ratio (y) = 0.10171 0.19495
# Poissons Ratio (z) = 0.17692 0.30430
#
# Static dielectric constant tensor:
#      x y z
#    x 1.845180 0.000000 0.032900 
#    y 0.000000 1.895260 0.000000 
#    z 0.032900 0.000000 1.890000 
# 
# From -- ./inp_files/31720.got.cif
#   From: 2010.05.17/outbox.cif.g08.bks.cpg/sg14_16_cif.got.tgz:31720.got - 2010.06.03 17:49:19.
