data_PCOD9252264
_publ_section_title
;
Structure prediction by ZEFSAII (Michael W. Deem and Ramdas Pophale) SiO2 
 PCOD9252264
Probable space group: P 21/C
;
_chemical_formula_sum "Si O2"
_cell_formula_units_Z 32
_cell_length_a 14.871415
_cell_length_b 19.452713
_cell_length_c 11.493157
_cell_angle_alpha 90.000000
_cell_angle_beta 153.576864
_cell_angle_gamma 90.000000
_cell_volume 1479.546878
_symmetry_space_group_name_H-M "P 21/C"
_symmetry_group_IT_number 14
_symmetry_cell_setting 'monoclinic'
loop_
_space_group_symop_operation_xyz
x,y,z
-x,1/2+y,1/2-z
-x,-y,-z
x,1/2-y,1/2+z
loop_
_atom_site_type_symbol
_atom_site_label
_atom_site_fract_x
_atom_site_fract_y
_atom_site_fract_z
Si Si1 0.487197 0.784174 0.329456
Si Si2 0.829852 0.157588 0.224907
Si Si3 0.807682 0.295643 0.301962
Si Si4 0.686493 0.966423 0.788079
Si Si5 0.479335 0.641335 0.217787
Si Si6 0.975158 0.958668 0.685186
Si Si7 0.839189 0.605459 0.247301
Si Si8 0.335928 0.942863 0.775242
O O1 0.369786 0.775022 0.314925
O O2 0.569708 0.712279 0.373981
O O3 0.656472 0.841346 0.541061
O O4 0.322966 0.813561 0.048870
O O5 0.914526 0.225309 0.386517
O O6 0.994834 0.109041 0.356830
O O7 0.704367 0.111288 0.169522
O O8 0.959420 0.349693 0.533770
O O9 0.710674 0.333270 0.078711
O O10 0.612319 0.904580 0.784710
O O11 0.835763 0.937224 0.862215
O O12 0.500000 0.000000 0.500000
O O13 0.809500 0.019434 0.010697
O O14 0.410164 0.595809 0.245991
O O15 0.827252 0.943118 0.621795
O O16 0.875511 0.019229 0.496472
O O17 0.500000 0.000000 0.000000
#
# Coordination Sequence:
#
# PCOD9252264 Si02
#       8
#     4   4   4   4   4   4   4   4
#     4  11  23  46  70  98 135 173 227 288 335 398
#     4  11  24  44  68  94 138 178 219 281 340 395
#     4  11  23  46  70  98 135 172 228 291 332 399
#     4  12  24  43  71 101 138 178 226 281 337 408
#     4  11  24  44  70  99 135 179 224 281 345 394
#     4  12  25  42  66 102 136 179 228 271 338 415
#     4  12  24  42  72 100 131 178 223 278 344 395
#     4  12  25  43  65  97 141 183 223 273 335 411
#
# _framework density 21.628243999999999
#
# number of rings (size 3 to 8) (size 9 to 14) (size 15 to 20)
#    0.000    0.500    3.750    5.250    0.000    3.000 
#    0.000    0.000    0.000    0.000    0.000    0.000 
#    0.000    0.000    0.000    0.000    0.000    0.000 
#
# Total GULP energy -179098.986166 kJ/mol
# GULP energy per Si atom -5596.843318 kJ/mol
# Density = 2.157902 g / cm^3
# Si number density = 21.628244 Si / 1000 Ang^3
#
#
#
# Elastic Constant Matrix: (Units=GPa)
#
#
# Indices 1 2 3 4 5 6 
#
# 1 113.2148 33.2488 -11.9808 0.0000 -11.4373 0.0000
# 2 33.2488 100.8843 7.3733 0.0000 -10.6006 0.0000
# 3 -11.9808 7.3733 48.1839 0.0000 -10.2607 0.0000
# 4 0.0000 0.0000 0.0000 6.1234 0.0000 4.9738
# 5 -11.4373 -10.6006 -10.2607 0.0000 25.2852 0.0000
# 6 0.0000 0.0000 0.0000 4.9738 0.0000 54.0854
#
#
#
# Elastic Compliance Matrix: (Units=1/GPa)
#
#
# Indices 1 2 3 4 5 6 
#
# 1 0.010793 -0.003322 0.004307 0.000000 0.005237 0.000000
# 2 -0.003322 0.011414 -0.002051 0.000000 0.002451 0.000000
# 3 0.004307 -0.002051 0.024486 0.000000 0.011025 0.000000
# 4 0.000000 0.000000 0.000000 0.176492 0.000000 -0.016230
# 5 0.005237 0.002451 0.011025 0.000000 0.047419 0.000000
# 6 0.000000 0.000000 0.000000 -0.016230 0.000000 0.019982
#
#
# Mechanical properties :
#
#
# Convention : Reuss Voigt Hill
#
# Bulk Modulus (GPa) = 22.43962 35.50729 28.97345
# Shear Modulus (GPa) = 16.25637 32.67491 24.46564
#
# Velocity S-wave (km/s) = 2.74456 3.89106 3.36696
# Velocity P-wave (km/s) = 4.52119 6.05308 5.34233
#
# Compressibility (1/GPa) = 0.04456403
#
# Stress axis : x y z
#
# Youngs Moduli (GPa) = 92.65111 87.60813 40.83888
#
# Poissons Ratio (x) = 0.29100 -0.17591
# Poissons Ratio (y) = 0.30775 0.08375
# Poissons Ratio (z) = -0.39908 0.17966
#
# Static dielectric constant tensor:
#      x y z
#    x 1.768660 0.000000 -0.003650 
#    y 0.000000 1.768980 0.000000 
#    z -0.003650 0.000000 1.760280 
# 
# From -- ./inp_files/33054.got.cif
#   From: 2010.05.17/outbox.cif.g08.bks.cpg/sg14_17_cif.got.tgz:33054.got - 2010.06.03 17:49:19.
