data_PCOD9252168
_publ_section_title
;
Structure prediction by ZEFSAII (Michael W. Deem and Ramdas Pophale) SiO2 
 PCOD9252168
Probable space group: P 21/C
;
_chemical_formula_sum "Si O2"
_cell_formula_units_Z 26
_cell_length_a 14.746495
_cell_length_b 16.205586
_cell_length_c 8.718828
_cell_angle_alpha 90.000000
_cell_angle_beta 34.259520
_cell_angle_gamma 90.000000
_cell_volume 1172.939230
_symmetry_space_group_name_H-M "P 21/C"
_symmetry_group_IT_number 14
_symmetry_cell_setting 'monoclinic'
loop_
_space_group_symop_operation_xyz
x,y,z
-x,1/2+y,1/2-z
-x,-y,-z
x,1/2-y,1/2+z
loop_
_atom_site_type_symbol
_atom_site_label
_atom_site_fract_x
_atom_site_fract_y
_atom_site_fract_z
Si Si1 0.254143 0.951823 0.901640
Si Si2 0.841489 0.304194 0.250683
Si Si3 0.653807 0.172431 0.711694
Si Si4 0.657989 0.736503 0.726175
Si Si5 0.000000 0.500000 0.500000
Si Si6 0.128051 0.316723 0.301920
Si Si7 0.521218 0.583277 0.773855
O O1 0.172331 0.877299 0.107695
O O2 0.396794 0.920289 0.589840
O O3 0.349555 0.011134 0.887070
O O4 0.127165 0.997812 0.970745
O O5 0.729167 0.230800 0.475110
O O6 0.780713 0.336394 0.171032
O O7 0.012515 0.261460 0.989251
O O8 0.589895 0.088852 0.721655
O O9 0.502899 0.218880 0.996338
O O10 0.779781 0.802870 0.486100
O O11 0.738593 0.686497 0.751510
O O12 0.614866 0.669682 0.656394
O O13 0.972355 0.599861 0.555640
#
# Coordination Sequence:
#
# PCOD9252168 Si02
#       7
#     4   4   4   4   2   4   4
#     4  11  25  44  72 102 142 184 238 290 361 419
#     4  12  24  45  69 106 136 190 231 291 354 430
#     4  12  22  42  74  98 138 178 243 284 350 416
#     4  12  22  43  68 100 133 181 230 290 341 416
#     4  12  24  44  68 102 136 190 228 284 352 428
#     4  12  26  42  70  99 140 181 234 286 355 419
#     4  11  23  44  70 103 135 183 235 294 344 423
#
# _framework density 22.166535
#
# number of rings (size 3 to 8) (size 9 to 14) (size 15 to 20)
#    0.000    0.308    6.154    3.692    0.000    0.615 
#    0.000    3.846    0.000    0.000    0.000    0.000 
#    0.000    0.000    0.000    0.000    0.000    0.000 
#
# Total GULP energy -144972.739769 kJ/mol
# GULP energy per Si atom -5575.874607 kJ/mol
# Density = 2.211608 g / cm^3
# Si number density = 22.166535 Si / 1000 Ang^3
#
#
#
# Elastic Constant Matrix: (Units=GPa)
#
#
# Indices 1 2 3 4 5 6 
#
# 1 100.9398 6.5244 -11.4818 0.0000 0.1656 0.0000
# 2 6.5244 52.0184 -12.1365 0.0000 1.8883 0.0000
# 3 -11.4818 -12.1365 35.0526 0.0000 -7.3119 0.0000
# 4 0.0000 0.0000 0.0000 -2.8664 0.0000 -7.5444
# 5 0.1656 1.8883 -7.3119 0.0000 17.0034 0.0000
# 6 0.0000 0.0000 0.0000 -7.5444 0.0000 36.4159
#
#
#
# Elastic Compliance Matrix: (Units=1/GPa)
#
#
# Indices 1 2 3 4 5 6 
#
# 1 0.010338 -0.000531 0.003508 0.000000 0.001467 0.000000
# 2 -0.000531 0.020952 0.007246 0.000000 0.000794 0.000000
# 3 0.003508 0.007246 0.035166 0.000000 0.014284 0.000000
# 4 0.000000 0.000000 0.000000 -0.225764 0.000000 -0.046772
# 5 0.001467 0.000794 0.014284 0.000000 0.064852 0.000000
# 6 0.000000 0.000000 0.000000 -0.046772 0.000000 0.017770
#
#
# Mechanical properties :
#
#
# Convention : Reuss Voigt Hill
#
# Bulk Modulus (GPa) = 11.50714 17.09145 14.29930
# Shear Modulus (GPa) = -73.35210 23.78422 -24.78394
#
# Velocity S-wave (km/s) = -5.75875 3.27919 -3.34740
# Velocity P-wave (km/s) = 6.24621 4.69730 2.91122
#
# Compressibility (1/GPa) = 0.08690255
#
# Stress axis : x y z
#
# Youngs Moduli (GPa) = 96.73145 47.72727 28.43647
#
# Poissons Ratio (x) = 0.02536 -0.09976
# Poissons Ratio (y) = 0.05140 -0.20605
# Poissons Ratio (z) = -0.33936 -0.34584
#
# Static dielectric constant tensor:
#      x y z
#    x 1.829150 0.000000 0.008260 
#    y 0.000000 1.792650 0.000000 
#    z 0.008260 0.000000 1.786120 
# 
# From -- ./inp_files/16157.got.cif
#   From: 2010.05.17/outbox.cif.g08.bks.cpg/sg14_9_cif.got.tgz:16157.got - 2010.06.03 17:49:19.
