data_PCOD9252256
_publ_section_title
;
Structure prediction by ZEFSAII (Michael W. Deem and Ramdas Pophale) SiO2 
 PCOD9252256
Probable space group: P 21/C
;
_chemical_formula_sum "Si O2"
_cell_formula_units_Z 24
_cell_length_a 6.911801
_cell_length_b 21.061165
_cell_length_c 9.309780
_cell_angle_alpha 90.000000
_cell_angle_beta 119.967724
_cell_angle_gamma 90.000000
_cell_volume 1174.045212
_symmetry_space_group_name_H-M "P 21/C"
_symmetry_group_IT_number 14
_symmetry_cell_setting 'monoclinic'
loop_
_space_group_symop_operation_xyz
x,y,z
-x,1/2+y,1/2-z
-x,-y,-z
x,1/2-y,1/2+z
loop_
_atom_site_type_symbol
_atom_site_label
_atom_site_fract_x
_atom_site_fract_y
_atom_site_fract_z
Si Si1 0.272850 0.486637 0.829875
Si Si2 0.361337 0.701116 0.938369
Si Si3 0.714625 0.176270 0.259713
Si Si4 0.041649 0.392057 0.248955
Si Si5 0.430563 0.057514 0.079299
Si Si6 0.188780 0.133235 0.483187
O O1 0.109224 0.545517 0.788122
O O2 0.333429 0.472860 0.688232
O O3 0.500000 0.500000 0.000000
O O4 0.172488 0.424627 0.866568
O O5 0.362440 0.773189 0.886079
O O6 0.130811 0.666635 0.804858
O O7 0.571564 0.665234 0.947155
O O8 0.376666 0.693954 0.116032
O O9 0.631752 0.105276 0.193079
O O10 0.982125 0.178753 0.370778
O O11 0.240117 0.398848 0.435983
O O12 0.148962 0.390341 0.130318
O O13 0.500000 0.000000 0.000000
#
# Coordination Sequence:
#
# PCOD9252256 Si02
#       6
#     4   4   4   4   4   4
#     4  12  21  44  72  98 142 180 229 284 345 415
#     4  11  26  46  70 100 137 187 233 290 346 423
#     4  11  27  45  69 100 137 184 237 282 356 415
#     4  11  25  42  69 106 135 182 229 282 355 408
#     4  12  26  44  69 108 143 184 233 295 350 415
#     4  11  23  46  69  99 137 180 228 285 346 413
#
# _framework density 20.442143999999999
#
# number of rings (size 3 to 8) (size 9 to 14) (size 15 to 20)
#    0.000    0.667    3.333    4.000    4.667    2.667 
#    0.000    0.000    0.000    0.000    0.000    0.000 
#    0.000    0.000    0.000    0.000    0.000    0.000 
#
# Total GULP energy -134277.671933 kJ/mol
# GULP energy per Si atom -5594.902997 kJ/mol
# Density = 2.039562 g / cm^3
# Si number density = 20.442144 Si / 1000 Ang^3
#
#
#
# Elastic Constant Matrix: (Units=GPa)
#
#
# Indices 1 2 3 4 5 6 
#
# 1 129.8804 33.1385 48.7287 0.0000 -22.9016 0.0000
# 2 33.1385 83.8345 25.0837 0.0000 -31.2109 0.0000
# 3 48.7287 25.0837 102.0036 0.0000 -15.4868 0.0000
# 4 0.0000 0.0000 0.0000 37.0730 0.0000 -4.9772
# 5 -22.9016 -31.2109 -15.4868 0.0000 32.9931 0.0000
# 6 0.0000 0.0000 0.0000 -4.9772 0.0000 11.0729
#
#
#
# Elastic Compliance Matrix: (Units=1/GPa)
#
#
# Indices 1 2 3 4 5 6 
#
# 1 0.010229 -0.001403 -0.003946 0.000000 0.003921 0.000000
# 2 -0.001403 0.019003 -0.001530 0.000000 0.016285 0.000000
# 3 -0.003946 -0.001530 0.012307 0.000000 0.001589 0.000000
# 4 0.000000 0.000000 0.000000 0.028706 0.000000 0.012903
# 5 0.003921 0.016285 0.001589 0.000000 0.049182 0.000000
# 6 0.000000 0.000000 0.000000 0.012903 0.000000 0.096110
#
#
# Mechanical properties :
#
#
# Convention : Reuss Voigt Hill
#
# Bulk Modulus (GPa) = 35.99778 58.84668 47.42223
# Shear Modulus (GPa) = 20.95935 30.14565 25.55250
#
# Velocity S-wave (km/s) = 3.20551 3.84432 3.53936
# Velocity P-wave (km/s) = 5.59894 6.96811 6.32071
#
# Compressibility (1/GPa) = 0.02777949
#
# Stress axis : x y z
#
# Youngs Moduli (GPa) = 97.75796 52.62219 81.25773
#
# Poissons Ratio (x) = 0.07383 0.32068
# Poissons Ratio (y) = 0.13716 0.12436
# Poissons Ratio (z) = 0.38579 0.08054
#
# Static dielectric constant tensor:
#      x y z
#    x 1.731560 0.000000 0.036880 
#    y 0.000000 1.721390 0.000000 
#    z 0.036880 0.000000 1.730710 
# 
# From -- ./inp_files/6321.got.cif
#   From: 2010.05.17/outbox.cif.g08.bks.cpg/sg14_4_cif.got.tgz:6321.got - 2010.06.03 17:49:19.
