data_PCOD9252057
_publ_section_title
;
Structure prediction by ZEFSAII (Michael W. Deem and Ramdas Pophale) SiO2 
 PCOD9252057
Probable space group: P 21/C
;
_chemical_formula_sum "Si O2"
_cell_formula_units_Z 16
_cell_length_a 11.607296
_cell_length_b 7.001352
_cell_length_c 9.413281
_cell_angle_alpha 90.000000
_cell_angle_beta 54.078038
_cell_angle_gamma 90.000000
_cell_volume 619.499254
_symmetry_space_group_name_H-M "P 21/C"
_symmetry_group_IT_number 14
_symmetry_cell_setting 'monoclinic'
loop_
_space_group_symop_operation_xyz
x,y,z
-x,1/2+y,1/2-z
-x,-y,-z
x,1/2-y,1/2+z
loop_
_atom_site_type_symbol
_atom_site_label
_atom_site_fract_x
_atom_site_fract_y
_atom_site_fract_z
Si Si1 0.897198 0.502837 0.772034
Si Si2 0.390237 0.779644 0.501331
Si Si3 0.425331 0.152500 0.889458
Si Si4 0.866426 0.743777 0.039756
O O1 0.912049 0.548925 0.928228
O O2 0.874022 0.698572 0.698929
O O3 0.033566 0.401144 0.608203
O O4 0.758696 0.371722 0.847355
O O5 0.513244 0.786741 0.531262
O O6 0.444830 0.867385 0.314507
O O7 0.377275 0.551728 0.484706
O O8 0.294973 0.233257 0.894939
#
# Coordination Sequence:
#
# PCOD9252057 Si02
#       4
#     4   4   4   4
#     4  11  25  45  67  98 135 176 224 272 329 394
#     4  11  24  42  68  98 133 173 222 273 330 392
#     4  11  23  42  68  99 133 174 217 273 331 392
#     4  11  24  42  67  95 135 175 219 275 330 392
#
# _framework density 25.827311000000002
#
# number of rings (size 3 to 8) (size 9 to 14) (size 15 to 20)
#    0.000    1.000    0.000    6.000    0.000    8.000 
#    0.000    0.000    0.000    0.000    0.000    0.000 
#    0.000    0.000    0.000    0.000    0.000    0.000 
#
# Total GULP energy -89672.123616 kJ/mol
# GULP energy per Si atom -5604.507726 kJ/mol
# Density = 2.576853 g / cm^3
# Si number density = 25.827311 Si / 1000 Ang^3
#
#
#
# Elastic Constant Matrix: (Units=GPa)
#
#
# Indices 1 2 3 4 5 6 
#
# 1 112.9494 32.8728 43.8661 0.0000 14.8461 0.0000
# 2 32.8728 96.4546 20.1406 0.0000 4.5410 0.0000
# 3 43.8661 20.1406 104.6545 0.0000 12.2921 0.0000
# 4 0.0000 0.0000 0.0000 53.8766 0.0000 -1.6200
# 5 14.8461 4.5410 12.2921 0.0000 29.8087 0.0000
# 6 0.0000 0.0000 0.0000 -1.6200 0.0000 40.5245
#
#
#
# Elastic Compliance Matrix: (Units=1/GPa)
#
#
# Indices 1 2 3 4 5 6 
#
# 1 0.011740 -0.003009 -0.003898 0.000000 -0.003781 0.000000
# 2 -0.003009 0.011592 -0.000986 0.000000 0.000139 0.000000
# 3 -0.003898 -0.000986 0.011700 0.000000 -0.002733 0.000000
# 4 0.000000 0.000000 0.000000 0.018583 0.000000 0.000743
# 5 -0.003781 0.000139 -0.002733 0.000000 0.036536 0.000000
# 6 0.000000 0.000000 0.000000 0.000743 0.000000 0.024706
#
#
# Mechanical properties :
#
#
# Convention : Reuss Voigt Hill
#
# Bulk Modulus (GPa) = 51.95731 56.42419 54.19075
# Shear Modulus (GPa) = 36.48054 39.32055 37.90054
#
# Velocity S-wave (km/s) = 3.76237 3.90608 3.83490
# Velocity P-wave (km/s) = 6.24778 6.49903 6.37465
#
# Compressibility (1/GPa) = 0.01924657
#
# Stress axis : x y z
#
# Youngs Moduli (GPa) = 85.17827 86.26276 85.47211
#
# Poissons Ratio (x) = 0.25959 0.33314
# Poissons Ratio (y) = 0.25632 0.08427
# Poissons Ratio (z) = 0.33199 0.08505
#
# Static dielectric constant tensor:
#      x y z
#    x 1.965500 0.000000 0.051030 
#    y 0.000000 2.105730 0.000000 
#    z 0.051030 0.000000 1.995140 
# 
# From -- ./inp_files/7209.got.cif
#   From: 2010.05.17/outbox.cif.g08.bks.cpg/sg14_4_cif.got.tgz:7209.got - 2010.06.03 17:49:19.
