data_PCOD9252879
_publ_section_title
;
Structure prediction by ZEFSAII (Michael W. Deem and Ramdas Pophale) SiO2 
 PCOD9252879
Probable space group: P 21/C
;
_chemical_formula_sum "Si O2"
_cell_formula_units_Z 24
_cell_length_a 8.447078
_cell_length_b 13.811814
_cell_length_c 8.370642
_cell_angle_alpha 90.000000
_cell_angle_beta 82.391193
_cell_angle_gamma 90.000000
_cell_volume 967.999613
_symmetry_space_group_name_H-M "P 21/C"
_symmetry_group_IT_number 14
_symmetry_cell_setting 'monoclinic'
loop_
_space_group_symop_operation_xyz
x,y,z
-x,1/2+y,1/2-z
-x,-y,-z
x,1/2-y,1/2+z
loop_
_atom_site_type_symbol
_atom_site_label
_atom_site_fract_x
_atom_site_fract_y
_atom_site_fract_z
Si Si1 0.119742 0.165969 0.605951
Si Si2 0.353931 0.264167 0.814856
Si Si3 0.609915 0.395685 0.816976
Si Si4 0.112089 0.972670 0.216638
Si Si5 0.447355 0.594385 0.808689
Si Si6 0.936422 0.355049 0.603566
O O1 0.210542 0.209360 0.746558
O O2 0.260426 0.174335 0.459861
O O3 0.032162 0.065870 0.652046
O O4 0.985652 0.244415 0.578523
O O5 0.473998 0.343814 0.727834
O O6 0.480799 0.176027 0.817557
O O7 0.578590 0.509761 0.807703
O O8 0.781320 0.365315 0.732907
O O9 0.585051 0.367425 0.006578
O O10 0.282449 0.951060 0.269825
O O11 0.097418 0.906773 0.059813
O O12 0.077737 0.082478 0.168272
#
# Coordination Sequence:
#
# PCOD9252879 Si02
#       6
#     4   4   4   4   4   4
#     4  12  25  45  72 103 140 179 226 283 343 407
#     4  12  25  45  72 103 140 179 226 283 343 407
#     4  11  26  45  71 101 139 183 228 282 343 406
#     4  11  26  46  70 103 139 180 232 282 340 408
#     4  11  26  46  70 103 139 180 232 282 340 408
#     4  11  26  45  71 101 139 183 228 282 343 406
#
# _framework density 24.793399999999998
#
# number of rings (size 3 to 8) (size 9 to 14) (size 15 to 20)
#    0.000    0.667    3.333    3.000    9.333    4.000 
#    0.000    0.000    0.000    0.000    0.000    0.000 
#    0.000    0.000    0.000    0.000    0.000    0.000 
#
# Total GULP energy -134313.600212 kJ/mol
# GULP energy per Si atom -5596.400009 kJ/mol
# Density = 2.473697 g / cm^3
# Si number density = 24.793400 Si / 1000 Ang^3
#
#
#
# Elastic Constant Matrix: (Units=GPa)
#
#
# Indices 1 2 3 4 5 6 
#
# 1 106.1283 -12.1913 23.9067 0.0000 5.2844 0.0000
# 2 -12.1913 62.8218 3.4072 0.0000 7.0948 0.0000
# 3 23.9067 3.4072 63.8834 0.0000 3.1187 0.0000
# 4 0.0000 0.0000 0.0000 23.8067 0.0000 -3.3080
# 5 5.2844 7.0948 3.1187 0.0000 11.5336 0.0000
# 6 0.0000 0.0000 0.0000 -3.3080 0.0000 39.8081
#
#
#
# Elastic Compliance Matrix: (Units=1/GPa)
#
#
# Indices 1 2 3 4 5 6 
#
# 1 0.010950 0.002994 -0.003975 0.000000 -0.005784 0.000000
# 2 0.002994 0.017935 -0.001491 0.000000 -0.012001 0.000000
# 3 -0.003975 -0.001491 0.017315 0.000000 -0.001944 0.000000
# 4 0.000000 0.000000 0.000000 0.042496 0.000000 0.003531
# 5 -0.005784 -0.012001 -0.001944 0.000000 0.097262 0.000000
# 6 0.000000 0.000000 0.000000 0.003531 0.000000 0.025414
#
#
# Mechanical properties :
#
#
# Convention : Reuss Voigt Hill
#
# Bulk Modulus (GPa) = 24.23892 29.23099 26.73495
# Shear Modulus (GPa) = 21.73266 29.54373 25.63820
#
# Velocity S-wave (km/s) = 2.96387 3.45570 3.21919
# Velocity P-wave (km/s) = 4.63792 5.26668 4.96227
#
# Compressibility (1/GPa) = 0.04125597
#
# Stress axis : x y z
#
# Youngs Moduli (GPa) = 91.32534 55.75615 57.75180
#
# Poissons Ratio (x) = -0.16692 0.22956
# Poissons Ratio (y) = -0.27340 0.08611
# Poissons Ratio (z) = 0.36302 0.08313
#
# Static dielectric constant tensor:
#      x y z
#    x 1.897170 0.000000 0.043080 
#    y 0.000000 1.929690 0.000000 
#    z 0.043080 0.000000 2.052850 
# 
# From -- ./inp_files/8417.got.cif
#   From: 2010.05.17/outbox.cif.g08.bks.cpg/sg14_5_cif.got.tgz:8417.got - 2010.06.03 17:49:19.
