data_PCOD9252843
_publ_section_title
;
Structure prediction by ZEFSAII (Michael W. Deem and Ramdas Pophale) SiO2 
 PCOD9252843
Probable space group: P 21/C
;
_chemical_formula_sum "Si O2"
_cell_formula_units_Z 22
_cell_length_a 14.481807
_cell_length_b 8.947587
_cell_length_c 14.004117
_cell_angle_alpha 90.000000
_cell_angle_beta 28.519928
_cell_angle_gamma 90.000000
_cell_volume 866.413887
_symmetry_space_group_name_H-M "P 21/C"
_symmetry_group_IT_number 14
_symmetry_cell_setting 'monoclinic'
loop_
_space_group_symop_operation_xyz
x,y,z
-x,1/2+y,1/2-z
-x,-y,-z
x,1/2-y,1/2+z
loop_
_atom_site_type_symbol
_atom_site_label
_atom_site_fract_x
_atom_site_fract_y
_atom_site_fract_z
Si Si1 0.355497 0.303706 0.787709
Si Si2 0.652929 0.408796 0.093650
Si Si3 0.095683 0.092650 0.132397
Si Si4 0.796678 0.325924 0.602173
Si Si5 0.227612 0.219751 0.207529
Si Si6 0.500000 0.500000 0.000000
O O1 0.667465 0.196308 0.673069
O O2 0.321441 0.362305 0.713069
O O3 0.413520 0.431977 0.807728
O O4 0.161374 0.229115 0.005505
O O5 0.647163 0.629620 0.914802
O O6 0.508402 0.334816 0.147858
O O7 0.869159 0.412330 0.857872
O O8 0.206906 0.124285 0.130398
O O9 0.158138 0.942151 0.024289
O O10 0.689279 0.412161 0.782936
O O11 0.006870 0.260772 0.436376
#
# Coordination Sequence:
#
# PCOD9252843 Si02
#       6
#     4   4   4   4   4   2
#     4  12  26  48  76 113 151 203 256 313 389 453
#     4  11  26  47  76 107 159 198 253 321 381 453
#     4  11  25  48  76 111 149 198 256 320 379 450
#     4  11  25  48  76 113 148 203 256 313 385 451
#     4  11  27  45  80 111 150 202 258 313 382 454
#     4  12  24  46  76 106 154 192 252 308 374 464
#
# _framework density 25.392019999999999
#
# number of rings (size 3 to 8) (size 9 to 14) (size 15 to 20)
#    0.000    0.727    1.818    4.909    5.091    2.909 
#    0.000    8.182    0.000    0.000    0.000    0.000 
#    0.000    0.000    0.000    0.000    0.000    0.000 
#
# Total GULP energy -122989.123860 kJ/mol
# GULP energy per Si atom -5590.414721 kJ/mol
# Density = 2.533423 g / cm^3
# Si number density = 25.392020 Si / 1000 Ang^3
#
#
#
# Elastic Constant Matrix: (Units=GPa)
#
#
# Indices 1 2 3 4 5 6 
#
# 1 143.6723 11.8521 8.9733 0.0000 2.7977 0.0000
# 2 11.8521 69.8860 10.9700 0.0000 -5.0875 0.0000
# 3 8.9733 10.9700 105.5168 0.0000 -12.3813 0.0000
# 4 0.0000 0.0000 0.0000 28.9192 0.0000 -5.8440
# 5 2.7977 -5.0875 -12.3813 0.0000 40.2735 0.0000
# 6 0.0000 0.0000 0.0000 -5.8440 0.0000 34.6569
#
#
#
# Elastic Compliance Matrix: (Units=1/GPa)
#
#
# Indices 1 2 3 4 5 6 
#
# 1 0.007109 -0.001175 -0.000579 0.000000 -0.000820 0.000000
# 2 -0.001175 0.014820 -0.001257 0.000000 0.001567 0.000000
# 3 -0.000579 -0.001257 0.010004 0.000000 0.002957 0.000000
# 4 0.000000 0.000000 0.000000 0.035799 0.000000 0.006037
# 5 -0.000820 0.001567 0.002957 0.000000 0.025994 0.000000
# 6 0.000000 0.000000 0.000000 0.006037 0.000000 0.029872
#
#
# Mechanical properties :
#
#
# Convention : Reuss Voigt Hill
#
# Bulk Modulus (GPa) = 38.59132 42.51843 40.55488
# Shear Modulus (GPa) = 36.16476 39.92191 38.04334
#
# Velocity S-wave (km/s) = 3.77803 3.96943 3.87491
# Velocity P-wave (km/s) = 5.85342 6.14733 6.00217
#
# Compressibility (1/GPa) = 0.02591256
#
# Stress axis : x y z
#
# Youngs Moduli (GPa) = 140.66104 67.47821 99.95981
#
# Poissons Ratio (x) = 0.07926 0.05785
# Poissons Ratio (y) = 0.16521 0.12564
# Poissons Ratio (z) = 0.08140 0.08482
#
# Static dielectric constant tensor:
#      x y z
#    x 2.151570 0.000000 0.057230 
#    y 0.000000 1.743400 0.000000 
#    z 0.057230 0.000000 1.954150 
# 
# From -- ./inp_files/28930.got.cif
#   From: 2010.05.17/outbox.cif.g08.bks.cpg/sg14_15_cif.got.tgz:28930.got - 2010.06.03 17:49:19.
