data_PCOD9252828
_publ_section_title
;
Structure prediction by ZEFSAII (Michael W. Deem and Ramdas Pophale) SiO2 
 PCOD9252828
Probable space group: P 21/C
;
_chemical_formula_sum "Si O2"
_cell_formula_units_Z 28
_cell_length_a 8.832256
_cell_length_b 16.598913
_cell_length_c 9.058332
_cell_angle_alpha 90.000000
_cell_angle_beta 59.304190
_cell_angle_gamma 90.000000
_cell_volume 1141.937224
_symmetry_space_group_name_H-M "P 21/C"
_symmetry_group_IT_number 14
_symmetry_cell_setting 'monoclinic'
loop_
_space_group_symop_operation_xyz
x,y,z
-x,1/2+y,1/2-z
-x,-y,-z
x,1/2-y,1/2+z
loop_
_atom_site_type_symbol
_atom_site_label
_atom_site_fract_x
_atom_site_fract_y
_atom_site_fract_z
Si Si1 0.536469 0.495001 0.807984
Si Si2 0.615801 0.783804 0.904506
Si Si3 0.139128 0.940758 0.011680
Si Si4 0.525339 0.336936 0.246406
Si Si5 0.781464 0.954313 0.749558
Si Si6 0.029756 0.296680 0.221947
Si Si7 0.090381 0.646584 0.040540
O O1 0.693556 0.434036 0.682532
O O2 0.593740 0.584075 0.719891
O O3 0.986393 0.563877 0.116505
O O4 0.500000 0.500000 0.000000
O O5 0.461486 0.810399 0.091320
O O6 0.545127 0.742843 0.794812
O O7 0.643223 0.974658 0.690182
O O8 0.760199 0.719231 0.888676
O O9 0.036775 0.862294 0.124560
O O10 0.221975 0.981264 0.118050
O O11 0.000000 0.000000 0.000000
O O12 0.703701 0.361371 0.079518
O O13 0.717567 0.866385 0.830768
O O14 0.947849 0.212149 0.315103
O O15 0.975065 0.320786 0.085237
#
# Coordination Sequence:
#
# PCOD9252828 Si02
#       7
#     4   4   4   4   4   4   4
#     4  12  30  49  77 115 154 205 263 321 400 466
#     4  11  25  47  76 107 150 200 252 315 385 461
#     4  12  28  48  81 110 157 203 263 325 393 468
#     4  12  26  45  75 110 148 197 255 313 382 463
#     4  11  27  51  76 109 160 205 252 324 390 465
#     4  11  26  47  72 109 148 202 250 316 385 461
#     4  11  27  45  76 107 152 195 258 314 385 454
#
# _framework density 24.519738
#
# number of rings (size 3 to 8) (size 9 to 14) (size 15 to 20)
#    0.000    0.571    1.429    4.714   16.000    1.143 
#    0.000    0.000    0.000    0.000    0.000    0.000 
#    0.000    0.000    0.000    0.000    0.000    0.000 
#
# Total GULP energy -156716.861300 kJ/mol
# GULP energy per Si atom -5597.030761 kJ/mol
# Density = 2.446393 g / cm^3
# Si number density = 24.519738 Si / 1000 Ang^3
#
#
#
# Elastic Constant Matrix: (Units=GPa)
#
#
# Indices 1 2 3 4 5 6 
#
# 1 77.6957 -5.4825 13.2623 0.0000 -7.1553 0.0000
# 2 -5.4825 80.5960 14.5080 0.0000 -0.9229 0.0000
# 3 13.2623 14.5080 96.4811 0.0000 -10.0948 0.0000
# 4 0.0000 0.0000 0.0000 26.1597 0.0000 -12.0034
# 5 -7.1553 -0.9229 -10.0948 0.0000 45.0222 0.0000
# 6 0.0000 0.0000 0.0000 -12.0034 0.0000 27.5294
#
#
#
# Elastic Compliance Matrix: (Units=1/GPa)
#
#
# Indices 1 2 3 4 5 6 
#
# 1 0.013438 0.001268 -0.001855 0.000000 0.001746 0.000000
# 2 0.001268 0.012874 -0.002111 0.000000 -0.000008 0.000000
# 3 -0.001855 -0.002111 0.011164 0.000000 0.002165 0.000000
# 4 0.000000 0.000000 0.000000 0.047787 0.000000 0.020836
# 5 0.001746 -0.000008 0.002165 0.000000 0.022974 0.000000
# 6 0.000000 0.000000 0.000000 0.020836 0.000000 0.045410
#
#
# Mechanical properties :
#
#
# Convention : Reuss Voigt Hill
#
# Bulk Modulus (GPa) = 31.17318 33.26090 32.21704
# Shear Modulus (GPa) = 29.45760 35.24128 32.34944
#
# Velocity S-wave (km/s) = 3.46986 3.79524 3.63619
# Velocity P-wave (km/s) = 5.36603 5.72708 5.54950
#
# Compressibility (1/GPa) = 0.03207886
#
# Stress axis : x y z
#
# Youngs Moduli (GPa) = 74.41783 77.67757 89.57613
#
# Poissons Ratio (x) = -0.09850 0.16618
# Poissons Ratio (y) = -0.09436 0.18909
# Poissons Ratio (z) = 0.13806 0.16397
#
# Static dielectric constant tensor:
#      x y z
#    x 2.011660 0.000000 -0.084770 
#    y 0.000000 0.637280 0.000000 
#    z -0.084770 0.000000 1.961790 
# 
# From -- ./inp_files/9870.got.cif
#   From: 2010.05.17/outbox.cif.g08.bks.cpg/sg14_5_cif.got.tgz:9870.got - 2010.06.03 17:49:19.
