data_PCOD9252457
_publ_section_title
;
Structure prediction by ZEFSAII (Michael W. Deem and Ramdas Pophale) SiO2 
 PCOD9252457
Probable space group: P 21/C
;
_chemical_formula_sum "Si O2"
_cell_formula_units_Z 24
_cell_length_a 14.917970
_cell_length_b 8.724933
_cell_length_c 9.691694
_cell_angle_alpha 90.000000
_cell_angle_beta 98.864503
_cell_angle_gamma 90.000000
_cell_volume 1246.386897
_symmetry_space_group_name_H-M "P 21/C"
_symmetry_group_IT_number 14
_symmetry_cell_setting 'monoclinic'
loop_
_space_group_symop_operation_xyz
x,y,z
-x,1/2+y,1/2-z
-x,-y,-z
x,1/2-y,1/2+z
loop_
_atom_site_type_symbol
_atom_site_label
_atom_site_fract_x
_atom_site_fract_y
_atom_site_fract_z
Si Si1 0.426156 0.408466 0.072416
Si Si2 0.242152 0.898731 0.531061
Si Si3 0.935670 0.563457 0.103074
Si Si4 0.233870 0.593078 0.349220
Si Si5 0.422365 0.405162 0.400499
Si Si6 0.954556 0.928069 0.122912
O O1 0.336761 0.512724 0.048242
O O2 0.446966 0.382839 0.242160
O O3 0.500000 0.500000 0.000000
O O4 0.412050 0.251130 0.985033
O O5 0.243345 0.743939 0.443778
O O6 0.221308 0.863539 0.685878
O O7 0.165549 0.011048 0.453876
O O8 0.944723 0.745566 0.115393
O O9 0.974948 0.478710 0.244340
O O10 0.000000 0.500000 0.000000
O O11 0.326275 0.494461 0.381979
O O12 0.144568 0.499856 0.373153
O O13 0.500000 0.500000 0.500000
O O14 0.000000 0.000000 0.000000
#
# Coordination Sequence:
#
# PCOD9252457 Si02
#       6
#     4   4   4   4   4   4
#     4  11  24  44  68  99 135 173 222 277 337 403
#     4  11  25  43  67  96 133 173 219 275 329 401
#     4  12  24  45  66  95 135 170 226 271 333 402
#     4  11  25  44  66  97 132 172 222 270 335 397
#     4  11  24  44  69  98 134 175 222 275 338 405
#     4  12  26  43  68  97 131 178 219 277 335 395
#
# _framework density 19.255659999999999
#
# number of rings (size 3 to 8) (size 9 to 14) (size 15 to 20)
#    0.000    0.667    1.667    6.000    2.333    5.333 
#    0.000    0.000    0.000    0.000    0.000    0.000 
#    0.000    0.000    0.000    0.000    0.000    0.000 
#
# Total GULP energy -134189.722657 kJ/mol
# GULP energy per Si atom -5591.238444 kJ/mol
# Density = 1.921183 g / cm^3
# Si number density = 19.255660 Si / 1000 Ang^3
#
#
#
# Elastic Constant Matrix: (Units=GPa)
#
#
# Indices 1 2 3 4 5 6 
#
# 1 124.4359 49.3748 77.3155 0.0000 -6.1119 0.0000
# 2 49.3748 181.8650 97.5601 0.0000 -7.1930 0.0000
# 3 77.3155 97.5601 207.5597 0.0000 -7.9664 0.0000
# 4 0.0000 0.0000 0.0000 38.5991 0.0000 1.9093
# 5 -6.1119 -7.1930 -7.9664 0.0000 36.4033 0.0000
# 6 0.0000 0.0000 0.0000 1.9093 0.0000 35.5716
#
#
#
# Elastic Compliance Matrix: (Units=1/GPa)
#
#
# Indices 1 2 3 4 5 6 
#
# 1 0.010619 -0.000997 -0.003455 0.000000 0.000830 0.000000
# 2 -0.000997 0.007464 -0.003113 0.000000 0.000626 0.000000
# 3 -0.003455 -0.003113 0.007586 0.000000 0.000465 0.000000
# 4 0.000000 0.000000 0.000000 0.025976 0.000000 -0.001394
# 5 0.000830 0.000626 0.000465 0.000000 0.027835 0.000000
# 6 0.000000 0.000000 0.000000 -0.001394 0.000000 0.028187
#
#
# Mechanical properties :
#
#
# Convention : Reuss Voigt Hill
#
# Bulk Modulus (GPa) = 94.88295 106.92904 100.90600
# Shear Modulus (GPa) = 39.58488 41.42214 40.50351
#
# Velocity S-wave (km/s) = 4.53896 4.64310 4.59132
# Velocity P-wave (km/s) = 8.76652 9.18674 8.97909
#
# Compressibility (1/GPa) = 0.01053930
#
# Stress axis : x y z
#
# Youngs Moduli (GPa) = 94.16713 133.97868 131.82053
#
# Poissons Ratio (x) = 0.13353 0.45549
# Poissons Ratio (y) = 0.09385 0.41036
# Poissons Ratio (z) = 0.32539 0.41707
#
# Static dielectric constant tensor:
#      x y z
#    x 0.412920 0.000000 0.895990 
#    y 0.000000 1.633620 0.000000 
#    z 0.895990 0.000000 0.989850 
# 
# From -- ./inp_files/15063.got.cif
#   From: 2010.05.17/outbox.cif.g08.bks.cpg/sg14_8_cif.got.tgz:15063.got - 2010.06.03 17:49:19.
