data_PCOD9252738
_publ_section_title
;
Structure prediction by ZEFSAII (Michael W. Deem and Ramdas Pophale) SiO2 
 PCOD9252738
Probable space group: P 21/C
;
_chemical_formula_sum "Si O2"
_cell_formula_units_Z 18
_cell_length_a 4.810574
_cell_length_b 10.564299
_cell_length_c 12.590303
_cell_angle_alpha 90.000000
_cell_angle_beta 104.025521
_cell_angle_gamma 90.000000
_cell_volume 620.768409
_symmetry_space_group_name_H-M "P 21/C"
_symmetry_group_IT_number 14
_symmetry_cell_setting 'monoclinic'
loop_
_space_group_symop_operation_xyz
x,y,z
-x,1/2+y,1/2-z
-x,-y,-z
x,1/2-y,1/2+z
loop_
_atom_site_type_symbol
_atom_site_label
_atom_site_fract_x
_atom_site_fract_y
_atom_site_fract_z
Si Si1 0.652232 0.879074 0.842360
Si Si2 0.952357 0.364070 0.370097
Si Si3 0.664848 0.102218 0.399178
Si Si4 0.948171 0.361625 0.122593
Si Si5 0.500000 0.500000 0.500000
O O1 0.585132 0.887124 0.711588
O O2 0.855045 0.761545 0.878395
O O3 0.382465 0.888575 0.895681
O O4 0.769087 0.016856 0.902850
O O5 0.278147 0.392187 0.426620
O O6 0.851977 0.228312 0.396378
O O7 0.882953 0.366625 0.240283
O O8 0.663625 0.111578 0.526677
O O9 0.847365 0.980987 0.382667
#
# Coordination Sequence:
#
# PCOD9252738 Si02
#       5
#     4   4   4   4   2
#     4  12  26  48  76 108 148 200 257 300 376 461
#     4  12  26  48  76 108 148 200 257 300 376 461
#     4  11  25  45  70 109 149 187 245 313 376 432
#     4  11  25  45  70 109 149 187 245 313 376 432
#     4  12  26  48  80 104 148 212 242 310 358 476
#
# _framework density 28.996317999999999
#
# number of rings (size 3 to 8) (size 9 to 14) (size 15 to 20)
#    0.000    0.444    4.444    3.333    0.000    0.889 
#    0.000    0.000    0.000    0.000    0.000    0.000 
#    0.000    0.000    0.000    0.000    0.000    0.000 
#
# Total GULP energy -100631.463096 kJ/mol
# GULP energy per Si atom -5590.636839 kJ/mol
# Density = 2.893032 g / cm^3
# Si number density = 28.996318 Si / 1000 Ang^3
#
#
#
# Elastic Constant Matrix: (Units=GPa)
#
#
# Indices 1 2 3 4 5 6 
#
# 1 74.5610 77.1932 22.1776 0.0000 10.7220 0.0000
# 2 77.1932 190.1821 -4.6133 0.0000 19.6660 0.0000
# 3 22.1776 -4.6133 251.0622 0.0000 11.3720 0.0000
# 4 0.0000 0.0000 0.0000 31.4772 0.0000 -7.9420
# 5 10.7220 19.6660 11.3720 0.0000 47.3370 0.0000
# 6 0.0000 0.0000 0.0000 -7.9420 0.0000 55.4808
#
#
#
# Elastic Compliance Matrix: (Units=1/GPa)
#
#
# Indices 1 2 3 4 5 6 
#
# 1 0.024470 -0.009897 -0.002304 0.000000 -0.000877 0.000000
# 2 -0.009897 0.009508 0.001139 0.000000 -0.001982 0.000000
# 3 -0.002304 0.001139 0.004252 0.000000 -0.000973 0.000000
# 4 0.000000 0.000000 0.000000 0.032959 0.000000 0.004718
# 5 -0.000877 -0.001982 -0.000973 0.000000 0.022381 0.000000
# 6 0.000000 0.000000 0.000000 0.004718 0.000000 0.018700
#
#
# Mechanical properties :
#
#
# Convention : Reuss Voigt Hill
#
# Bulk Modulus (GPa) = 62.09276 78.36893 70.23085
# Shear Modulus (GPa) = 35.77514 54.92886 45.35200
#
# Velocity S-wave (km/s) = 3.51633 4.35712 3.95911
# Velocity P-wave (km/s) = 6.16009 7.23869 6.72106
#
# Compressibility (1/GPa) = 0.01610494
#
# Stress axis : x y z
#
# Youngs Moduli (GPa) = 40.86663 105.17597 235.20811
#
# Poissons Ratio (x) = 1.04095 0.54184
# Poissons Ratio (y) = 0.40447 -0.26784
# Poissons Ratio (z) = 0.09414 -0.11977
#
# Static dielectric constant tensor:
#      x y z
#    x 3.045540 0.000000 -0.449650 
#    y 0.000000 2.443620 0.000000 
#    z -0.449650 0.000000 2.493720 
# 
# From -- ./inp_files/36723.got.cif
#   From: 2010.05.17/outbox.cif.g08.bks.cpg/sg14_19_cif.got.tgz:36723.got - 2010.06.03 17:49:19.
