data_PCOD9252002
_publ_section_title
;
Structure prediction by ZEFSAII (Michael W. Deem and Ramdas Pophale) SiO2 
 PCOD9252002
Probable space group: P 21/C
;
_chemical_formula_sum "Si O2"
_cell_formula_units_Z 28
_cell_length_a 30.685798
_cell_length_b 5.327347
_cell_length_c 9.119744
_cell_angle_alpha 90.000000
_cell_angle_beta 56.474676
_cell_angle_gamma 90.000000
_cell_volume 1242.826581
_symmetry_space_group_name_H-M "P 21/C"
_symmetry_group_IT_number 14
_symmetry_cell_setting 'monoclinic'
loop_
_space_group_symop_operation_xyz
x,y,z
-x,1/2+y,1/2-z
-x,-y,-z
x,1/2-y,1/2+z
loop_
_atom_site_type_symbol
_atom_site_label
_atom_site_fract_x
_atom_site_fract_y
_atom_site_fract_z
Si Si1 0.322024 0.749495 0.722901
Si Si2 0.635527 0.554328 0.598428
Si Si3 0.218441 0.988275 0.864094
Si Si4 0.100270 0.988701 0.178233
Si Si5 0.482968 0.408770 0.195928
Si Si6 0.730183 0.664638 0.987953
Si Si7 0.938219 0.508281 0.584036
O O1 0.361784 0.665663 0.525294
O O2 0.349921 0.965610 0.765101
O O3 0.264285 0.784196 0.759876
O O4 0.305628 0.547625 0.874743
O O5 0.578374 0.665442 0.699621
O O6 0.687251 0.711286 0.460824
O O7 0.218869 0.097515 0.700957
O O8 0.246323 0.163588 0.930425
O O9 0.161230 0.939810 0.027908
O O10 0.082862 0.748232 0.304389
O O11 0.087604 0.245051 0.291327
O O12 0.072500 0.008377 0.070679
O O13 0.490229 0.656539 0.286910
O O14 0.500000 0.500000 0.000000
O O15 0.000000 0.500000 0.500000
#
# Coordination Sequence:
#
# PCOD9252002 Si02
#       7
#     4   4   4   4   4   4   4
#     4  11  23  41  64  97 130 179 219 281 333 437
#     4  11  25  41  72  92 136 179 232 277 359 412
#     4  11  25  40  65 100 138 174 229 277 356 412
#     4  12  27  44  77 105 148 191 236 308 360 424
#     4  12  29  49  75 108 144 187 242 311 360 427
#     4  11  23  41  63  96 134 176 222 279 333 436
#     4  12  26  50  74 108 143 196 250 299 357 424
#
# _framework density 22.52929
#
# number of rings (size 3 to 8) (size 9 to 14) (size 15 to 20)
#    0.000    0.571    2.857    4.286    8.000    0.000 
#    0.000    0.000    0.000    0.000    0.000    0.000 
#    0.000    0.000    0.000    0.000    0.000    0.000 
#
# Total GULP energy -156253.555119 kJ/mol
# GULP energy per Si atom -5580.484111 kJ/mol
# Density = 2.247801 g / cm^3
# Si number density = 22.529290 Si / 1000 Ang^3
#
#
#
# Elastic Constant Matrix: (Units=GPa)
#
#
# Indices 1 2 3 4 5 6 
#
# 1 64.6574 5.6013 -8.7687 0.0000 -1.0816 0.0000
# 2 5.6013 73.6475 14.9923 0.0000 2.5114 0.0000
# 3 -8.7687 14.9923 66.5380 0.0000 14.7099 0.0000
# 4 0.0000 0.0000 0.0000 39.3498 0.0000 1.9143
# 5 -1.0816 2.5114 14.7099 0.0000 35.9085 0.0000
# 6 0.0000 0.0000 0.0000 1.9143 0.0000 26.2383
#
#
#
# Elastic Compliance Matrix: (Units=1/GPa)
#
#
# Indices 1 2 3 4 5 6 
#
# 1 0.015960 -0.001726 0.002594 0.000000 -0.000461 0.000000
# 2 -0.001726 0.014422 -0.003565 0.000000 0.000400 0.000000
# 3 0.002594 -0.003565 0.017705 0.000000 -0.006925 0.000000
# 4 0.000000 0.000000 0.000000 0.025504 0.000000 -0.001861
# 5 -0.000461 0.000400 -0.006925 0.000000 0.030644 0.000000
# 6 0.000000 0.000000 0.000000 -0.001861 0.000000 0.038248
#
#
# Mechanical properties :
#
#
# Convention : Reuss Voigt Hill
#
# Bulk Modulus (GPa) = 23.42364 25.38808 24.40586
# Shear Modulus (GPa) = 30.84374 33.16718 32.00546
#
# Velocity S-wave (km/s) = 3.70408 3.84106 3.77319
# Velocity P-wave (km/s) = 5.35847 5.56463 5.46252
#
# Compressibility (1/GPa) = 0.04269192
#
# Stress axis : x y z
#
# Youngs Moduli (GPa) = 62.65748 69.34028 56.48029
#
# Poissons Ratio (x) = 0.11970 -0.14652
# Poissons Ratio (y) = 0.10816 0.20137
# Poissons Ratio (z) = -0.16254 0.24722
#
# Static dielectric constant tensor:
#      x y z
#    x 1.868030 0.000000 0.113670 
#    y 0.000000 3.057900 0.000000 
#    z 0.113670 0.000000 1.987310 
# 
# From -- ./inp_files/19849.got.cif
#   From: 2010.05.17/outbox.cif.g08.bks.cpg/sg14_10_cif.got.tgz:19849.got - 2010.06.03 17:49:19.
