data_PCOD9252526
_publ_section_title
;
Structure prediction by ZEFSAII (Michael W. Deem and Ramdas Pophale) SiO2 
 PCOD9252526
Probable space group: P 21/C
;
_chemical_formula_sum "Si O2"
_cell_formula_units_Z 32
_cell_length_a 8.248720
_cell_length_b 12.406811
_cell_length_c 18.140189
_cell_angle_alpha 90.000000
_cell_angle_beta 58.641796
_cell_angle_gamma 90.000000
_cell_volume 1585.298798
_symmetry_space_group_name_H-M "P 21/C"
_symmetry_group_IT_number 14
_symmetry_cell_setting 'monoclinic'
loop_
_space_group_symop_operation_xyz
x,y,z
-x,1/2+y,1/2-z
-x,-y,-z
x,1/2-y,1/2+z
loop_
_atom_site_type_symbol
_atom_site_label
_atom_site_fract_x
_atom_site_fract_y
_atom_site_fract_z
Si Si1 0.062969 0.887054 0.391348
Si Si2 0.940770 0.815982 0.824441
Si Si3 0.854908 0.761975 0.185379
Si Si4 0.237131 0.998991 0.744762
Si Si5 0.719351 0.474875 0.938071
Si Si6 0.617693 0.553555 0.238211
Si Si7 0.529251 0.586374 0.427163
Si Si8 0.804783 0.239199 0.496190
O O1 0.156539 0.826327 0.438274
O O2 0.008528 0.790710 0.349369
O O3 0.213703 0.971520 0.322482
O O4 0.868622 0.954740 0.450987
O O5 0.952743 0.790105 0.734606
O O6 0.723009 0.845832 0.894741
O O7 0.073241 0.918088 0.811119
O O8 0.786092 0.878888 0.224406
O O9 0.691803 0.675175 0.208579
O O10 0.994876 0.776999 0.083872
O O11 0.229236 0.996830 0.658504
O O12 0.438392 0.962176 0.728461
O O13 0.500000 0.500000 0.000000
O O14 0.738161 0.350759 0.954392
O O15 0.561864 0.537250 0.337438
O O16 0.500000 0.500000 0.500000
O O17 0.349530 0.666471 0.463111
#
# Coordination Sequence:
#
# PCOD9252526 Si02
#       8
#     4   4   4   4   4   4   4   4
#     4  12  25  45  72 105 147 185 238 308 358 437
#     4  11  24  45  72 100 140 190 236 286 365 433
#     4  11  25  46  68 104 145 185 235 296 357 434
#     4  12  25  45  73 101 141 194 240 289 368 441
#     4  12  24  40  68 104 141 185 233 301 364 423
#     4  11  27  45  71 103 143 192 237 295 368 431
#     4  11  26  48  72 104 146 192 245 302 361 437
#     4  12  25  44  72 108 144 180 243 307 359 423
#
# _framework density 20.185468
#
# number of rings (size 3 to 8) (size 9 to 14) (size 15 to 20)
#    0.000    0.500    3.750    4.125   10.500    1.000 
#    0.000    2.500    0.000    0.000    0.000    0.000 
#    0.000    0.000    0.000    0.000    0.000    0.000 
#
# Total GULP energy -178925.562463 kJ/mol
# GULP energy per Si atom -5591.423827 kJ/mol
# Density = 2.013953 g / cm^3
# Si number density = 20.185468 Si / 1000 Ang^3
#
#
#
# Elastic Constant Matrix: (Units=GPa)
#
#
# Indices 1 2 3 4 5 6 
#
# 1 103.5558 60.1701 28.2145 0.0000 -11.3650 0.0000
# 2 60.1701 127.3643 46.9119 0.0000 -2.1756 0.0000
# 3 28.2145 46.9119 85.8495 0.0000 -14.8868 0.0000
# 4 0.0000 0.0000 0.0000 32.0987 0.0000 -0.9861
# 5 -11.3650 -2.1756 -14.8868 0.0000 21.5108 0.0000
# 6 0.0000 0.0000 0.0000 -0.9861 0.0000 42.6204
#
#
#
# Elastic Compliance Matrix: (Units=1/GPa)
#
#
# Indices 1 2 3 4 5 6 
#
# 1 0.014256 -0.006680 0.000175 0.000000 0.006978 0.000000
# 2 -0.006680 0.013145 -0.006101 0.000000 -0.006422 0.000000
# 3 0.000175 -0.006101 0.016857 0.000000 0.011141 0.000000
# 4 0.000000 0.000000 0.000000 0.031176 0.000000 0.000721
# 5 0.006978 -0.006422 0.011141 0.000000 0.057236 0.000000
# 6 0.000000 0.000000 0.000000 0.000721 0.000000 0.023480
#
#
# Mechanical properties :
#
#
# Convention : Reuss Voigt Hill
#
# Bulk Modulus (GPa) = 52.50712 65.26249 58.88481
# Shear Modulus (GPa) = 26.63679 31.34420 28.99049
#
# Velocity S-wave (km/s) = 3.63657 3.94485 3.79384
# Velocity P-wave (km/s) = 6.61073 7.29045 6.95889
#
# Compressibility (1/GPa) = 0.01904504
#
# Stress axis : x y z
#
# Youngs Moduli (GPa) = 70.14476 76.07486 59.32370
#
# Poissons Ratio (x) = 0.50820 -0.01038
# Poissons Ratio (y) = 0.46859 0.36194
# Poissons Ratio (z) = -0.01228 0.46415
#
# Static dielectric constant tensor:
#      x y z
#    x 1.704310 0.000000 0.010720 
#    y 0.000000 1.576270 0.000000 
#    z 0.010720 0.000000 1.728480 
# 
# From -- ./inp_files/55586.got.cif
#   From: 2010.05.17/outbox.cif.g08.bks.cpg/sg14_28_cif.got.tgz:55586.got - 2010.06.03 17:49:19.
