data_PCOD9252916
_publ_section_title
;
Structure prediction by ZEFSAII (Michael W. Deem and Ramdas Pophale) SiO2 
 PCOD9252916
Probable space group: P 21/C
;
_chemical_formula_sum "Si O2"
_cell_formula_units_Z 16
_cell_length_a 5.198029
_cell_length_b 14.422683
_cell_length_c 9.384083
_cell_angle_alpha 90.000000
_cell_angle_beta 72.126090
_cell_angle_gamma 90.000000
_cell_volume 669.564317
_symmetry_space_group_name_H-M "P 21/C"
_symmetry_group_IT_number 14
_symmetry_cell_setting 'monoclinic'
loop_
_space_group_symop_operation_xyz
x,y,z
-x,1/2+y,1/2-z
-x,-y,-z
x,1/2-y,1/2+z
loop_
_atom_site_type_symbol
_atom_site_label
_atom_site_fract_x
_atom_site_fract_y
_atom_site_fract_z
Si Si1 0.261675 0.963846 0.373409
Si Si2 0.356652 0.874113 0.645080
Si Si3 0.340779 0.835237 0.100889
Si Si4 0.941613 0.899459 0.942530
O O1 0.394873 0.898685 0.472316
O O2 0.218128 0.902113 0.242559
O O3 0.454470 0.050826 0.310125
O O4 0.000000 0.000000 0.500000
O O5 0.406917 0.765697 0.652125
O O6 0.063219 0.892202 0.763784
O O7 0.123361 0.830980 0.010333
O O8 0.626628 0.877323 0.003698
O O9 0.000000 0.000000 0.000000
#
# Coordination Sequence:
#
# PCOD9252916 Si02
#       4
#     4   4   4   4
#     4  11  26  48  71 106 146 191 234 301 360 420
#     4  11  27  45  73 105 145 188 239 295 356 426
#     4  12  28  46  76 107 143 191 241 291 357 429
#     4  12  26  50  72 106 143 190 237 295 354 421
#
# _framework density 23.896138000000001
#
# number of rings (size 3 to 8) (size 9 to 14) (size 15 to 20)
#    0.000    0.500    2.500    3.750   14.000    0.000 
#    0.000    0.000    0.000    0.000    0.000    0.000 
#    0.000    0.000    0.000    0.000    0.000    0.000 
#
# Total GULP energy -89627.038571 kJ/mol
# GULP energy per Si atom -5601.689911 kJ/mol
# Density = 2.384175 g / cm^3
# Si number density = 23.896138 Si / 1000 Ang^3
#
#
#
# Elastic Constant Matrix: (Units=GPa)
#
#
# Indices 1 2 3 4 5 6 
#
# 1 78.6874 1.2306 36.9395 0.0000 -16.7829 0.0000
# 2 1.2306 127.5959 33.2667 0.0000 -11.3821 0.0000
# 3 36.9395 33.2667 125.9216 0.0000 -7.6910 0.0000
# 4 0.0000 0.0000 0.0000 33.2412 0.0000 -6.0568
# 5 -16.7829 -11.3821 -7.6910 0.0000 54.2605 0.0000
# 6 0.0000 0.0000 0.0000 -6.0568 0.0000 17.4809
#
#
#
# Elastic Compliance Matrix: (Units=1/GPa)
#
#
# Indices 1 2 3 4 5 6 
#
# 1 0.015902 0.001500 -0.004783 0.000000 0.004555 0.000000
# 2 0.001500 0.008675 -0.002615 0.000000 0.001913 0.000000
# 3 -0.004783 -0.002615 0.009998 0.000000 -0.000611 0.000000
# 4 0.000000 0.000000 0.000000 0.032110 0.000000 0.011126
# 5 0.004555 0.001913 -0.000611 0.000000 0.020153 0.000000
# 6 0.000000 0.000000 0.000000 0.011126 0.000000 0.061060
#
#
# Mechanical properties :
#
#
# Convention : Reuss Voigt Hill
#
# Bulk Modulus (GPa) = 43.89958 52.78648 48.34303
# Shear Modulus (GPa) = 29.88856 38.38106 34.13481
#
# Velocity S-wave (km/s) = 3.54046 4.01204 3.78361
# Velocity P-wave (km/s) = 5.92655 6.60302 6.27391
#
# Compressibility (1/GPa) = 0.02277926
#
# Stress axis : x y z
#
# Youngs Moduli (GPa) = 62.88537 115.27079 100.01906
#
# Poissons Ratio (x) = -0.17290 0.47838
# Poissons Ratio (y) = -0.09433 0.26155
# Poissons Ratio (z) = 0.30078 0.30144
#
# Static dielectric constant tensor:
#      x y z
#    x 1.965900 0.000000 0.070950 
#    y 0.000000 1.919560 0.000000 
#    z 0.070950 0.000000 1.899860 
# 
# From -- ./inp_files/4984.got.cif
#   From: 2010.05.17/outbox.cif.g08.bks.cpg/sg14_3_cif.got.tgz:4984.got - 2010.06.03 17:49:19.
