data_PCOD9252378
_publ_section_title
;
Structure prediction by ZEFSAII (Michael W. Deem and Ramdas Pophale) SiO2 
 PCOD9252378
Probable space group: P 21/C
;
_chemical_formula_sum "Si O2"
_cell_formula_units_Z 28
_cell_length_a 19.675113
_cell_length_b 7.328433
_cell_length_c 12.182176
_cell_angle_alpha 90.000000
_cell_angle_beta 43.159697
_cell_angle_gamma 90.000000
_cell_volume 1201.520045
_symmetry_space_group_name_H-M "P 21/C"
_symmetry_group_IT_number 14
_symmetry_cell_setting 'monoclinic'
loop_
_space_group_symop_operation_xyz
x,y,z
-x,1/2+y,1/2-z
-x,-y,-z
x,1/2-y,1/2+z
loop_
_atom_site_type_symbol
_atom_site_label
_atom_site_fract_x
_atom_site_fract_y
_atom_site_fract_z
Si Si1 0.979242 0.423213 0.379875
Si Si2 0.098976 0.055440 0.250838
Si Si3 0.134273 0.691628 0.302668
Si Si4 0.338133 0.940693 0.455055
Si Si5 0.534203 0.595266 0.847852
Si Si6 0.614688 0.541201 0.337766
Si Si7 0.678382 0.622038 0.500694
O O1 0.043817 0.592232 0.346002
O O2 0.957999 0.451029 0.278423
O O3 0.875489 0.397177 0.566005
O O4 0.043250 0.244632 0.333772
O O5 0.112481 0.907087 0.330511
O O6 0.211004 0.103041 0.084555
O O7 0.236102 0.642127 0.121499
O O8 0.347030 0.926466 0.311842
O O9 0.344684 0.159404 0.476279
O O10 0.432207 0.854021 0.406338
O O11 0.607005 0.754054 0.802453
O O12 0.600778 0.515837 0.670268
O O13 0.500000 0.500000 0.000000
O O14 0.500000 0.500000 0.500000
O O15 0.672151 0.542937 0.384562
#
# Coordination Sequence:
#
# PCOD9252378 Si02
#       7
#     4   4   4   4   4   4   4
#     4  11  25  49  71 104 144 183 244 308 365 435
#     4  12  25  47  75 105 141 187 249 293 377 435
#     4  11  26  45  73 104 143 190 233 305 370 437
#     4  11  24  45  68 105 144 192 246 287 370 425
#     4  11  24  42  69  99 149 191 230 293 353 420
#     4  11  24  43  67 101 147 187 238 296 340 432
#     4  11  25  43  69 109 141 196 241 297 357 435
#
# _framework density 23.303815
#
# number of rings (size 3 to 8) (size 9 to 14) (size 15 to 20)
#    0.000    0.857    5.714    0.429    4.000    2.286 
#    2.571    0.000    0.000    0.000    0.000    0.000 
#    0.000    0.000    0.000    0.000    0.000    0.000 
#
# Total GULP energy -156427.964380 kJ/mol
# GULP energy per Si atom -5586.713014 kJ/mol
# Density = 2.325077 g / cm^3
# Si number density = 23.303815 Si / 1000 Ang^3
#
#
#
# Elastic Constant Matrix: (Units=GPa)
#
#
# Indices 1 2 3 4 5 6 
#
# 1 81.5916 20.4818 37.6816 0.0000 5.6975 0.0000
# 2 20.4818 87.5499 24.8834 0.0000 4.6464 0.0000
# 3 37.6816 24.8834 115.8122 0.0000 -8.5633 0.0000
# 4 0.0000 0.0000 0.0000 29.2121 0.0000 -4.4224
# 5 5.6975 4.6464 -8.5633 0.0000 37.9048 0.0000
# 6 0.0000 0.0000 0.0000 -4.4224 0.0000 22.1663
#
#
#
# Elastic Compliance Matrix: (Units=1/GPa)
#
#
# Indices 1 2 3 4 5 6 
#
# 1 0.015167 -0.002041 -0.004725 0.000000 -0.003097 0.000000
# 2 -0.002041 0.012609 -0.002173 0.000000 -0.001730 0.000000
# 3 -0.004725 -0.002173 0.010893 0.000000 0.003438 0.000000
# 4 0.000000 0.000000 0.000000 0.035299 0.000000 0.007042
# 5 -0.003097 -0.001730 0.003438 0.000000 0.027836 0.000000
# 6 0.000000 0.000000 0.000000 0.007042 0.000000 0.046519
#
#
# Mechanical properties :
#
#
# Convention : Reuss Voigt Hill
#
# Bulk Modulus (GPa) = 48.09837 50.11634 49.10736
# Shear Modulus (GPa) = 28.87984 31.31710 30.09847
#
# Velocity S-wave (km/s) = 3.52415 3.66985 3.59774
# Velocity P-wave (km/s) = 6.10279 6.28565 6.19489
#
# Compressibility (1/GPa) = 0.02079073
#
# Stress axis : x y z
#
# Youngs Moduli (GPa) = 65.93229 79.30896 91.80003
#
# Poissons Ratio (x) = 0.16186 0.43379
# Poissons Ratio (y) = 0.13456 0.19948
# Poissons Ratio (z) = 0.31156 0.17234
#
# Static dielectric constant tensor:
#      x y z
#    x 1.850680 0.000000 0.072420 
#    y 0.000000 2.156760 0.000000 
#    z 0.072420 0.000000 1.977710 
# 
# From -- ./inp_files/34936.got.cif
#   From: 2010.05.17/outbox.cif.g08.bks.cpg/sg14_18_cif.got.tgz:34936.got - 2010.06.03 17:49:19.
