data_PCOD9252890
_publ_section_title
;
Structure prediction by ZEFSAII (Michael W. Deem and Ramdas Pophale) SiO2 
 PCOD9252890
Probable space group: P 21/C
;
_chemical_formula_sum "Si O2"
_cell_formula_units_Z 16
_cell_length_a 5.018494
_cell_length_b 4.892175
_cell_length_c 29.279593
_cell_angle_alpha 90.000000
_cell_angle_beta 117.737322
_cell_angle_gamma 90.000000
_cell_volume 636.250561
_symmetry_space_group_name_H-M "P 21/C"
_symmetry_group_IT_number 14
_symmetry_cell_setting 'monoclinic'
loop_
_space_group_symop_operation_xyz
x,y,z
-x,1/2+y,1/2-z
-x,-y,-z
x,1/2-y,1/2+z
loop_
_atom_site_type_symbol
_atom_site_label
_atom_site_fract_x
_atom_site_fract_y
_atom_site_fract_z
Si Si1 0.724460 0.199222 0.992187
Si Si2 0.152577 0.480844 0.282868
Si Si3 0.832513 0.920206 0.848533
Si Si4 0.878841 0.082373 0.415889
O O1 0.848875 0.436178 0.035295
O O2 0.642768 0.341225 0.937264
O O3 0.500000 0.000000 0.000000
O O4 0.000000 0.000000 0.000000
O O5 0.508518 0.484341 0.303928
O O6 0.014887 0.181485 0.265570
O O7 0.067893 0.590274 0.326296
O O8 0.779971 0.637300 0.870585
O O9 0.942604 0.140694 0.894141
#
# Coordination Sequence:
#
# PCOD9252890 Si02
#       4
#     4   4   4   4
#     4  11  26  46  71 101 153 192 238 296 355 425
#     4  12  26  48  72 103 140 183 232 300 374 432
#     4  12  26  44  76 103 142 183 242 296 354 446
#     4  11  26  47  70 111 142 193 242 295 358 425
#
# _framework density 25.147324999999999
#
# number of rings (size 3 to 8) (size 9 to 14) (size 15 to 20)
#    0.000    0.500    2.500    4.500    3.500    8.000 
#    0.000    0.000    0.000    0.000    0.000    0.000 
#    0.000    0.000    0.000    0.000    0.000    0.000 
#
# Total GULP energy -89754.803518 kJ/mol
# GULP energy per Si atom -5609.675220 kJ/mol
# Density = 2.509009 g / cm^3
# Si number density = 25.147325 Si / 1000 Ang^3
#
#
#
# Elastic Constant Matrix: (Units=GPa)
#
#
# Indices 1 2 3 4 5 6 
#
# 1 113.9055 18.0915 -4.0112 0.0000 -22.5354 0.0000
# 2 18.0915 125.6329 7.4236 0.0000 -20.7676 0.0000
# 3 -4.0112 7.4236 50.1693 0.0000 -22.7224 0.0000
# 4 0.0000 0.0000 0.0000 68.2359 0.0000 -6.1579
# 5 -22.5354 -20.7676 -22.7224 0.0000 46.7126 0.0000
# 6 0.0000 0.0000 0.0000 -6.1579 0.0000 41.4437
#
#
#
# Elastic Compliance Matrix: (Units=1/GPa)
#
#
# Indices 1 2 3 4 5 6 
#
# 1 0.010323 -0.000626 0.003908 0.000000 0.006603 0.000000
# 2 -0.000626 0.008643 0.000352 0.000000 0.003712 0.000000
# 3 0.003908 0.000352 0.027085 0.000000 0.015217 0.000000
# 4 0.000000 0.000000 0.000000 0.014854 0.000000 0.002207
# 5 0.006603 0.003712 0.015217 0.000000 0.033645 0.000000
# 6 0.000000 0.000000 0.000000 0.002207 0.000000 0.024457
#
#
# Mechanical properties :
#
#
# Convention : Reuss Voigt Hill
#
# Bulk Modulus (GPa) = 18.75491 36.96838 27.86164
# Shear Modulus (GPa) = 38.60701 49.15871 43.88286
#
# Velocity S-wave (km/s) = 3.92246 4.42614 4.18189
# Velocity P-wave (km/s) = 5.29041 6.39168 5.86694
#
# Compressibility (1/GPa) = 0.05331938
#
# Stress axis : x y z
#
# Youngs Moduli (GPa) = 96.87503 115.70615 36.92095
#
# Poissons Ratio (x) = 0.07243 -0.14430
# Poissons Ratio (y) = 0.06064 -0.01300
# Poissons Ratio (z) = -0.37863 -0.04075
#
# Static dielectric constant tensor:
#      x y z
#    x 1.990970 0.000000 0.046990 
#    y 0.000000 1.944240 0.000000 
#    z 0.046990 0.000000 2.026790 
# 
# From -- ./inp_files/75501.got.cif
#   From: 2010.05.17/outbox.cif.g08.bks.cpg/sg14_38_cif.got.tgz:75501.got - 2010.06.03 17:49:19.
