data_PCOD9252228
_publ_section_title
;
Structure prediction by ZEFSAII (Michael W. Deem and Ramdas Pophale) SiO2 
 PCOD9252228
Probable space group: P 21/C
;
_chemical_formula_sum "Si O2"
_cell_formula_units_Z 28
_cell_length_a 16.930187
_cell_length_b 10.113564
_cell_length_c 9.255136
_cell_angle_alpha 90.000000
_cell_angle_beta 132.245337
_cell_angle_gamma 90.000000
_cell_volume 1173.115049
_symmetry_space_group_name_H-M "P 21/C"
_symmetry_group_IT_number 14
_symmetry_cell_setting 'monoclinic'
loop_
_space_group_symop_operation_xyz
x,y,z
-x,1/2+y,1/2-z
-x,-y,-z
x,1/2-y,1/2+z
loop_
_atom_site_type_symbol
_atom_site_label
_atom_site_fract_x
_atom_site_fract_y
_atom_site_fract_z
Si Si1 0.591018 0.608780 0.583518
Si Si2 0.236446 0.465735 0.977838
Si Si3 0.890408 0.312646 0.584325
Si Si4 0.744603 0.259712 0.144296
Si Si5 0.595785 0.461773 0.325349
Si Si6 0.988701 0.042612 0.655964
Si Si7 0.622753 0.893124 0.573384
O O1 0.500000 0.500000 0.500000
O O2 0.693463 0.571557 0.800043
O O3 0.612896 0.591587 0.441155
O O4 0.572375 0.762693 0.585309
O O5 0.268182 0.370138 0.882636
O O6 0.279475 0.601934 0.960846
O O7 0.120012 0.490405 0.899740
O O8 0.786853 0.279738 0.358462
O O9 0.853296 0.285350 0.700649
O O10 0.925043 0.465566 0.637261
O O11 0.979924 0.202357 0.656632
O O12 0.655929 0.153666 0.988579
O O13 0.470850 0.431951 0.153141
O O14 0.634420 0.002889 0.712108
O O15 0.000000 0.000000 0.500000
#
# Coordination Sequence:
#
# PCOD9252228 Si02
#       7
#     4   4   4   4   4   4   4
#     4  12  24  43  68 100 150 193 242 307 365 448
#     4  11  25  45  70 104 145 190 250 310 374 446
#     4  11  24  46  78 103 146 186 256 303 390 447
#     4  11  23  45  72 103 135 194 248 299 369 455
#     4  11  24  41  73  98 145 193 239 303 359 451
#     4  11  25  49  74 111 147 195 248 323 384 461
#     4  11  25  44  65 110 143 192 248 299 379 432
#
# _framework density 23.868077
#
# number of rings (size 3 to 8) (size 9 to 14) (size 15 to 20)
#    0.000    0.857    2.857    4.286    0.000    4.571 
#    5.143    0.000    0.000    0.000    0.000    0.000 
#    0.000    0.000    0.000    0.000    0.000    0.000 
#
# Total GULP energy -156189.143474 kJ/mol
# GULP energy per Si atom -5578.183695 kJ/mol
# Density = 2.381375 g / cm^3
# Si number density = 23.868077 Si / 1000 Ang^3
#
#
#
# Elastic Constant Matrix: (Units=GPa)
#
#
# Indices 1 2 3 4 5 6 
#
# 1 107.5125 3.2027 11.0216 0.0000 -11.7433 0.0000
# 2 3.2027 106.7155 41.5123 0.0000 2.0969 0.0000
# 3 11.0216 41.5123 104.6788 0.0000 -22.1099 0.0000
# 4 0.0000 0.0000 0.0000 40.7357 0.0000 5.3650
# 5 -11.7433 2.0969 -22.1099 0.0000 23.4428 0.0000
# 6 0.0000 0.0000 0.0000 5.3650 0.0000 32.3161
#
#
#
# Elastic Compliance Matrix: (Units=1/GPa)
#
#
# Indices 1 2 3 4 5 6 
#
# 1 0.009861 -0.000503 0.000267 0.000000 0.005237 0.000000
# 2 -0.000503 0.011935 -0.006193 0.000000 -0.007160 0.000000
# 3 0.000267 -0.006193 0.015142 0.000000 0.014969 0.000000
# 4 0.000000 0.000000 0.000000 0.025097 0.000000 -0.004167
# 5 0.005237 -0.007160 0.014969 0.000000 0.060039 0.000000
# 6 0.000000 0.000000 0.000000 -0.004167 0.000000 0.031636
#
#
# Mechanical properties :
#
#
# Convention : Reuss Voigt Hill
#
# Bulk Modulus (GPa) = 41.52417 47.82001 44.67209
# Shear Modulus (GPa) = 28.63782 36.84359 32.74071
#
# Velocity S-wave (km/s) = 3.46763 3.93317 3.70771
# Velocity P-wave (km/s) = 5.78513 6.38006 6.08986
#
# Compressibility (1/GPa) = 0.02408236
#
# Stress axis : x y z
#
# Youngs Moduli (GPa) = 101.41162 83.78454 66.03966
#
# Poissons Ratio (x) = 0.04212 -0.01765
# Poissons Ratio (y) = 0.05099 0.40895
# Poissons Ratio (z) = -0.02710 0.51884
#
# Static dielectric constant tensor:
#      x y z
#    x 1.978240 0.000000 0.008120 
#    y 0.000000 2.051050 0.000000 
#    z 0.008120 0.000000 1.872260 
# 
# From -- ./inp_files/34992.got.cif
#   From: 2010.05.17/outbox.cif.g08.bks.cpg/sg14_18_cif.got.tgz:34992.got - 2010.06.03 17:49:19.
