data_PCOD9252475
_publ_section_title
;
Structure prediction by ZEFSAII (Michael W. Deem and Ramdas Pophale) SiO2 
 PCOD9252475
Probable space group: P 21/C
;
_chemical_formula_sum "Si O2"
_cell_formula_units_Z 32
_cell_length_a 11.944214
_cell_length_b 9.429974
_cell_length_c 22.736703
_cell_angle_alpha 90.000000
_cell_angle_beta 34.777331
_cell_angle_gamma 90.000000
_cell_volume 1460.718147
_symmetry_space_group_name_H-M "P 21/C"
_symmetry_group_IT_number 14
_symmetry_cell_setting 'monoclinic'
loop_
_space_group_symop_operation_xyz
x,y,z
-x,1/2+y,1/2-z
-x,-y,-z
x,1/2-y,1/2+z
loop_
_atom_site_type_symbol
_atom_site_label
_atom_site_fract_x
_atom_site_fract_y
_atom_site_fract_z
Si Si1 0.784620 0.763710 0.855867
Si Si2 0.210467 0.331440 0.516573
Si Si3 0.767775 0.384908 0.975212
Si Si4 0.770713 0.184264 0.218385
Si Si5 0.634084 0.593880 0.131070
Si Si6 0.460763 0.610898 0.416527
Si Si7 0.792138 0.979921 0.687268
Si Si8 0.817862 0.059838 0.322123
O O1 0.781177 0.739118 0.927317
O O2 0.589749 0.838766 0.916421
O O3 0.819831 0.609766 0.811743
O O4 0.964146 0.872128 0.767263
O O5 0.275311 0.239190 0.433290
O O6 0.356065 0.460323 0.465091
O O7 0.983386 0.375857 0.609403
O O8 0.718400 0.410371 0.927863
O O9 0.995994 0.420194 0.886614
O O10 0.650203 0.483596 0.070839
O O11 0.708574 0.226369 0.017443
O O12 0.592688 0.124314 0.257113
O O13 0.783011 0.354032 0.207930
O O14 0.729492 0.139586 0.303807
O O15 0.752609 0.538062 0.135438
O O16 0.620590 0.602032 0.295703
#
# Coordination Sequence:
#
# PCOD9252475 Si02
#       8
#     4   4   4   4   4   4   4   4
#     4  11  24  44  71 112 155 193 243 301 376 437
#     4  11  25  46  72 110 143 201 235 309 365 435
#     4  12  26  46  75 109 148 196 249 300 373 439
#     4  11  26  47  75 106 148 187 250 301 373 431
#     4  12  26  47  79 101 144 202 253 291 369 450
#     4  12  28  42  72 111 148 195 249 305 371 430
#     4  12  27  50  72 106 153 196 242 308 366 442
#     4  11  24  44  77 109 150 194 241 313 366 440
#
# _framework density 21.907031
#
# number of rings (size 3 to 8) (size 9 to 14) (size 15 to 20)
#    0.000    0.500    5.000    2.250    7.000    2.000 
#    0.000    1.250    0.000    0.000    0.000    0.000 
#    0.000    0.000    0.000    0.000    0.000    0.000 
#
# Total GULP energy -179102.960567 kJ/mol
# GULP energy per Si atom -5596.967518 kJ/mol
# Density = 2.185717 g / cm^3
# Si number density = 21.907031 Si / 1000 Ang^3
#
#
#
# Elastic Constant Matrix: (Units=GPa)
#
#
# Indices 1 2 3 4 5 6 
#
# 1 104.9200 42.0745 34.8666 0.0000 -2.6800 0.0000
# 2 42.0745 117.1527 31.8058 0.0000 -3.1725 0.0000
# 3 34.8666 31.8058 69.3267 0.0000 -4.4784 0.0000
# 4 0.0000 0.0000 0.0000 36.5110 0.0000 -8.7319
# 5 -2.6800 -3.1725 -4.4784 0.0000 9.2684 0.0000
# 6 0.0000 0.0000 0.0000 -8.7319 0.0000 26.7465
#
#
#
# Elastic Compliance Matrix: (Units=1/GPa)
#
#
# Indices 1 2 3 4 5 6 
#
# 1 0.012384 -0.003147 -0.004772 0.000000 0.000198 0.000000
# 2 -0.003147 0.010563 -0.003188 0.000000 0.001165 0.000000
# 3 -0.004772 -0.003188 0.018711 0.000000 0.006570 0.000000
# 4 0.000000 0.000000 0.000000 0.029709 0.000000 0.009699
# 5 0.000198 0.001165 0.006570 0.000000 0.111525 0.000000
# 6 0.000000 0.000000 0.000000 0.009699 0.000000 0.040554
#
#
# Mechanical properties :
#
#
# Convention : Reuss Voigt Hill
#
# Bulk Modulus (GPa) = 51.42752 56.54370 53.98561
# Shear Modulus (GPa) = 19.83018 26.68202 23.25610
#
# Velocity S-wave (km/s) = 3.01191 3.49372 3.26173
# Velocity P-wave (km/s) = 5.96840 6.49166 6.23552
#
# Compressibility (1/GPa) = 0.01944484
#
# Stress axis : x y z
#
# Youngs Moduli (GPa) = 80.75118 94.66897 53.44312
#
# Poissons Ratio (x) = 0.29789 0.25502
# Poissons Ratio (y) = 0.25410 0.17039
# Poissons Ratio (z) = 0.38532 0.30184
#
# Static dielectric constant tensor:
#      x y z
#    x 1.803870 0.000000 -0.006770 
#    y 0.000000 1.779260 0.000000 
#    z -0.006770 0.000000 1.816930 
# 
# From -- ./inp_files/73088.got.cif
#   From: 2010.05.17/outbox.cif.g08.bks.cpg/sg14_37_cif.got.tgz:73088.got - 2010.06.03 17:49:19.
