data_PCOD9252405
_publ_section_title
;
Structure prediction by ZEFSAII (Michael W. Deem and Ramdas Pophale) SiO2 
 PCOD9252405
Probable space group: P 21/C
;
_chemical_formula_sum "Si O2"
_cell_formula_units_Z 12
_cell_length_a 5.048228
_cell_length_b 16.842256
_cell_length_c 5.396494
_cell_angle_alpha 90.000000
_cell_angle_beta 86.362783
_cell_angle_gamma 90.000000
_cell_volume 457.904864
_symmetry_space_group_name_H-M "P 21/C"
_symmetry_group_IT_number 14
_symmetry_cell_setting 'monoclinic'
loop_
_space_group_symop_operation_xyz
x,y,z
-x,1/2+y,1/2-z
-x,-y,-z
x,1/2-y,1/2+z
loop_
_atom_site_type_symbol
_atom_site_label
_atom_site_fract_x
_atom_site_fract_y
_atom_site_fract_z
Si Si1 0.914779 0.730559 0.869729
Si Si2 0.387717 0.374654 0.426990
Si Si3 0.741595 0.010249 0.678547
O O1 0.063289 0.764378 0.620119
O O2 0.782355 0.647844 0.806961
O O3 0.670234 0.793630 0.920955
O O4 0.270849 0.444689 0.603262
O O5 0.672253 0.406070 0.320600
O O6 0.500000 0.000000 0.500000
O O7 0.000000 0.000000 0.500000
#
# Coordination Sequence:
#
# PCOD9252405 Si02
#       3
#     4   4   4
#     4   8  16  34  64  96 130 174 220 280 336 398
#     4   9  20  38  68  97 138 172 234 277 344 404
#     4  11  24  43  68  98 137 182 227 280 343 410
#
# _framework density 26.206319000000001
#
# number of rings (size 3 to 8) (size 9 to 14) (size 15 to 20)
#    2.000    0.667    0.000    2.000    0.000    5.333 
#    0.000    3.333    0.000    0.000    0.000    0.000 
#    0.000    0.000    0.000    0.000    0.000    0.000 
#
# Total GULP energy -66962.533743 kJ/mol
# GULP energy per Si atom -5580.211145 kJ/mol
# Density = 2.614667 g / cm^3
# Si number density = 26.206319 Si / 1000 Ang^3
#
#
#
# Elastic Constant Matrix: (Units=GPa)
#
#
# Indices 1 2 3 4 5 6 
#
# 1 98.0699 33.7386 45.5960 0.0000 -35.3951 0.0000
# 2 33.7386 110.4402 29.9844 0.0000 0.0130 0.0000
# 3 45.5960 29.9844 177.8579 0.0000 -8.8484 0.0000
# 4 0.0000 0.0000 0.0000 58.5638 0.0000 8.9213
# 5 -35.3951 0.0130 -8.8484 0.0000 50.1158 0.0000
# 6 0.0000 0.0000 0.0000 8.9213 0.0000 15.8915
#
#
#
# Elastic Compliance Matrix: (Units=1/GPa)
#
#
# Indices 1 2 3 4 5 6 
#
# 1 0.017439 -0.004479 -0.003130 0.000000 0.011765 0.000000
# 2 -0.004479 0.010643 -0.000811 0.000000 -0.003309 0.000000
# 3 -0.003130 -0.000811 0.006509 0.000000 -0.001061 0.000000
# 4 0.000000 0.000000 0.000000 0.018672 0.000000 -0.010482
# 5 0.011765 -0.003309 -0.001061 0.000000 0.028077 0.000000
# 6 0.000000 0.000000 0.000000 -0.010482 0.000000 0.068811
#
#
# Mechanical properties :
#
#
# Convention : Reuss Voigt Hill
#
# Bulk Modulus (GPa) = 56.33350 67.22288 61.77819
# Shear Modulus (GPa) = 28.91682 43.38417 36.15049
#
# Velocity S-wave (km/s) = 3.32539 4.07318 3.71813
# Velocity P-wave (km/s) = 6.02388 6.91579 6.48519
#
# Compressibility (1/GPa) = 0.01775143
#
# Stress axis : x y z
#
# Youngs Moduli (GPa) = 57.34116 93.95407 153.63720
#
# Poissons Ratio (x) = 0.42083 0.48094
# Poissons Ratio (y) = 0.25684 0.12456
# Poissons Ratio (z) = 0.17950 0.07617
#
# Static dielectric constant tensor:
#      x y z
#    x 2.027770 0.000000 0.039120 
#    y 0.000000 2.101670 0.000000 
#    z 0.039120 0.000000 2.134340 
# 
# From -- ./inp_files/137.got.cif
#   From: 2010.05.17/outbox.cif.g08.bks.cpg/sg14_1_cif.got.tgz:137.got - 2010.06.03 17:49:19.
