data_PCOD9252447
_publ_section_title
;
Structure prediction by ZEFSAII (Michael W. Deem and Ramdas Pophale) SiO2 
 PCOD9252447
Probable space group: P 21/C
;
_chemical_formula_sum "Si O2"
_cell_formula_units_Z 28
_cell_length_a 15.824687
_cell_length_b 6.701950
_cell_length_c 14.628333
_cell_angle_alpha 90.000000
_cell_angle_beta 54.167783
_cell_angle_gamma 90.000000
_cell_volume 1257.795252
_symmetry_space_group_name_H-M "P 21/C"
_symmetry_group_IT_number 14
_symmetry_cell_setting 'monoclinic'
loop_
_space_group_symop_operation_xyz
x,y,z
-x,1/2+y,1/2-z
-x,-y,-z
x,1/2-y,1/2+z
loop_
_atom_site_type_symbol
_atom_site_label
_atom_site_fract_x
_atom_site_fract_y
_atom_site_fract_z
Si Si1 0.707258 0.984435 0.916488
Si Si2 0.856662 0.959779 0.150518
Si Si3 0.874939 0.658600 0.841593
Si Si4 0.690125 0.265137 0.249717
Si Si5 0.019197 0.195502 0.545820
Si Si6 0.296716 0.875729 0.463865
Si Si7 0.537206 0.847843 0.555148
O O1 0.726672 0.086804 0.806434
O O2 0.807023 0.860515 0.886970
O O3 0.682420 0.164065 0.001179
O O4 0.612254 0.827638 0.971077
O O5 0.897941 0.876964 0.220874
O O6 0.741144 0.046759 0.233578
O O7 0.875819 0.799391 0.059640
O O8 0.926667 0.151759 0.084174
O O9 0.969033 0.666220 0.853345
O O10 0.800913 0.479998 0.924433
O O11 0.722063 0.341799 0.130486
O O12 0.566012 0.244302 0.335629
O O13 0.000000 0.000000 0.500000
O O14 0.393709 0.022567 0.419065
O O15 0.500000 0.000000 0.500000
#
# Coordination Sequence:
#
# PCOD9252447 Si02
#       7
#     4   4   4   4   4   4   4
#     4  11  24  45  67  99 139 186 218 287 344 396
#     4  11  26  47  68 104 135 180 227 289 340 418
#     4  11  25  45  72 100 136 175 231 280 341 415
#     4  12  24  44  73  95 143 183 229 281 347 405
#     4  11  27  47  72 103 138 176 230 286 351 411
#     4  11  25  43  65 102 135 176 232 276 338 408
#     4  11  24  44  65 101 139 179 235 284 333 413
#
# _framework density 22.261174
#
# number of rings (size 3 to 8) (size 9 to 14) (size 15 to 20)
#    0.000    0.857    2.857    3.000    8.000    1.143 
#    2.571    0.000    0.000    0.000    0.000    0.000 
#    0.000    0.000    0.000    0.000    0.000    0.000 
#
# Total GULP energy -156795.764659 kJ/mol
# GULP energy per Si atom -5599.848738 kJ/mol
# Density = 2.221051 g / cm^3
# Si number density = 22.261174 Si / 1000 Ang^3
#
#
#
# Elastic Constant Matrix: (Units=GPa)
#
#
# Indices 1 2 3 4 5 6 
#
# 1 58.6387 18.6573 6.0544 0.0000 17.6099 0.0000
# 2 18.6573 99.3806 19.3876 0.0000 6.9209 0.0000
# 3 6.0544 19.3876 83.6540 0.0000 30.6453 0.0000
# 4 0.0000 0.0000 0.0000 32.5220 0.0000 0.5381
# 5 17.6099 6.9209 30.6453 0.0000 39.9836 0.0000
# 6 0.0000 0.0000 0.0000 0.5381 0.0000 22.4032
#
#
#
# Elastic Compliance Matrix: (Units=1/GPa)
#
#
# Indices 1 2 3 4 5 6 
#
# 1 0.021372 -0.003908 0.003559 0.000000 -0.011464 0.000000
# 2 -0.003908 0.011254 -0.003118 0.000000 0.002163 0.000000
# 3 0.003559 -0.003118 0.017791 0.000000 -0.014663 0.000000
# 4 0.000000 0.000000 0.000000 0.030761 0.000000 -0.000739
# 5 -0.011464 0.002163 -0.014663 0.000000 0.040924 0.000000
# 6 0.000000 0.000000 0.000000 -0.000739 0.000000 0.044654
#
#
# Mechanical properties :
#
#
# Convention : Reuss Voigt Hill
#
# Bulk Modulus (GPa) = 22.99790 36.65244 29.82517
# Shear Modulus (GPa) = 26.56979 32.15336 29.36157
#
# Velocity S-wave (km/s) = 3.45853 3.80461 3.63569
# Velocity P-wave (km/s) = 5.12854 5.98336 5.57236
#
# Compressibility (1/GPa) = 0.04348223
#
# Stress axis : x y z
#
# Youngs Moduli (GPa) = 46.78924 88.86028 56.20941
#
# Poissons Ratio (x) = 0.34729 -0.20003
# Poissons Ratio (y) = 0.18286 0.17524
# Poissons Ratio (z) = -0.16651 0.27703
#
# Static dielectric constant tensor:
#      x y z
#    x 1.830470 0.000000 -0.038410 
#    y 0.000000 1.803280 0.000000 
#    z -0.038410 0.000000 1.810940 
# 
# From -- ./inp_files/48103.got.cif
#   From: 2010.05.17/outbox.cif.g08.bks.cpg/sg14_25_cif.got.tgz:48103.got - 2010.06.03 17:49:19.
