data_PCOD9252988
_publ_section_title
;
Structure prediction by ZEFSAII (Michael W. Deem and Ramdas Pophale) SiO2 
 PCOD9252988
Probable space group: P 21/C
;
_chemical_formula_sum "Si O2"
_cell_formula_units_Z 24
_cell_length_a 4.919472
_cell_length_b 11.324068
_cell_length_c 18.145092
_cell_angle_alpha 90.000000
_cell_angle_beta 60.966335
_cell_angle_gamma 90.000000
_cell_volume 883.807841
_symmetry_space_group_name_H-M "P 21/C"
_symmetry_group_IT_number 14
_symmetry_cell_setting 'monoclinic'
loop_
_space_group_symop_operation_xyz
x,y,z
-x,1/2+y,1/2-z
-x,-y,-z
x,1/2-y,1/2+z
loop_
_atom_site_type_symbol
_atom_site_label
_atom_site_fract_x
_atom_site_fract_y
_atom_site_fract_z
Si Si1 0.038570 0.170179 0.390364
Si Si2 0.902120 0.085731 0.945577
Si Si3 0.359707 0.377508 0.991907
Si Si4 0.890049 0.675719 0.815771
Si Si5 0.529786 0.029614 0.740893
Si Si6 0.575336 0.591595 0.377380
O O1 0.115458 0.310064 0.385073
O O2 0.676955 0.174229 0.413886
O O3 0.090827 0.128019 0.467243
O O4 0.248901 0.073828 0.321556
O O5 0.743773 0.011841 0.901124
O O6 0.637485 0.151130 0.031562
O O7 0.000000 0.000000 0.000000
O O8 0.500000 0.500000 0.000000
O O9 0.200111 0.332205 0.086868
O O10 0.692958 0.584590 0.791647
O O11 0.805079 0.811488 0.811741
O O12 0.242369 0.634930 0.763906
O O13 0.394851 0.967014 0.832060
#
# Coordination Sequence:
#
# PCOD9252988 Si02
#       6
#     4   4   4   4   4   4
#     4  12  24  43  74 111 142 188 241 309 357 435
#     4  11  27  50  76 104 146 202 256 294 365 458
#     4  12  21  42  72 107 146 180 243 294 365 433
#     4  12  26  48  73 108 150 193 243 311 369 445
#     4  12  28  45  74 113 150 190 244 311 381 428
#     4  11  29  49  72 109 146 202 246 306 371 447
#
# _framework density 27.155222999999999
#
# number of rings (size 3 to 8) (size 9 to 14) (size 15 to 20)
#    0.000    0.333    5.000    2.500    9.333    0.000 
#    0.000    0.000    0.000    0.000    0.000    0.000 
#    0.000    0.000    0.000    0.000    0.000    0.000 
#
# Total GULP energy -134254.348041 kJ/mol
# GULP energy per Si atom -5593.931168 kJ/mol
# Density = 2.709342 g / cm^3
# Si number density = 27.155223 Si / 1000 Ang^3
#
#
#
# Elastic Constant Matrix: (Units=GPa)
#
#
# Indices 1 2 3 4 5 6 
#
# 1 112.9048 -0.3371 26.9788 0.0000 3.7328 0.0000
# 2 -0.3371 112.5030 16.0261 0.0000 -1.5957 0.0000
# 3 26.9788 16.0261 128.9565 0.0000 12.9588 0.0000
# 4 0.0000 0.0000 0.0000 34.6657 0.0000 1.4599
# 5 3.7328 -1.5957 12.9588 0.0000 44.9646 0.0000
# 6 0.0000 0.0000 0.0000 1.4599 0.0000 36.6287
#
#
#
# Elastic Compliance Matrix: (Units=1/GPa)
#
#
# Indices 1 2 3 4 5 6 
#
# 1 0.009335 0.000306 -0.001971 0.000000 -0.000196 0.000000
# 2 0.000306 0.009078 -0.001258 0.000000 0.000659 0.000000
# 3 -0.001971 -0.001258 0.008559 0.000000 -0.002348 0.000000
# 4 0.000000 0.000000 0.000000 0.028895 0.000000 -0.001152
# 5 -0.000196 0.000659 -0.002348 0.000000 0.022956 0.000000
# 6 0.000000 0.000000 0.000000 -0.001152 0.000000 0.027347
#
#
# Mechanical properties :
#
#
# Convention : Reuss Voigt Hill
#
# Bulk Modulus (GPa) = 47.33669 48.85555 48.09612
# Shear Modulus (GPa) = 41.99532 44.03156 43.01344
#
# Velocity S-wave (km/s) = 3.93681 4.03112 3.98425
# Velocity P-wave (km/s) = 6.17530 6.30055 6.23824
#
# Compressibility (1/GPa) = 0.02112526
#
# Stress axis : x y z
#
# Youngs Moduli (GPa) = 107.11819 110.15404 116.83178
#
# Poissons Ratio (x) = -0.03371 0.23032
# Poissons Ratio (y) = -0.03278 0.14703
# Poissons Ratio (z) = 0.21117 0.13863
#
# Static dielectric constant tensor:
#      x y z
#    x 2.183260 0.000000 -0.100200 
#    y 0.000000 2.223900 0.000000 
#    z -0.100200 0.000000 2.306560 
# 
# From -- ./inp_files/52958.got.cif
#   From: 2010.05.17/outbox.cif.g08.bks.cpg/sg14_27_cif.got.tgz:52958.got - 2010.06.03 17:49:19.
