data_PCOD9252605
_publ_section_title
;
Structure prediction by ZEFSAII (Michael W. Deem and Ramdas Pophale) SiO2 
 PCOD9252605
Probable space group: P 21/C
;
_chemical_formula_sum "Si O2"
_cell_formula_units_Z 20
_cell_length_a 6.517067
_cell_length_b 7.545445
_cell_length_c 17.809041
_cell_angle_alpha 90.000000
_cell_angle_beta 83.658073
_cell_angle_gamma 90.000000
_cell_volume 870.385604
_symmetry_space_group_name_H-M "P 21/C"
_symmetry_group_IT_number 14
_symmetry_cell_setting 'monoclinic'
loop_
_space_group_symop_operation_xyz
x,y,z
-x,1/2+y,1/2-z
-x,-y,-z
x,1/2-y,1/2+z
loop_
_atom_site_type_symbol
_atom_site_label
_atom_site_fract_x
_atom_site_fract_y
_atom_site_fract_z
Si Si1 0.738982 0.781186 0.807851
Si Si2 0.927311 0.261812 0.821843
Si Si3 0.995998 0.926909 0.915708
Si Si4 0.507075 0.412459 0.824882
Si Si5 0.126281 0.538419 0.919489
O O1 0.777669 0.858099 0.889316
O O2 0.629344 0.594577 0.814296
O O3 0.614226 0.885997 0.748444
O O4 0.969384 0.769247 0.763422
O O5 0.679705 0.261324 0.829476
O O6 0.032617 0.097269 0.861024
O O7 0.991187 0.439683 0.862247
O O8 0.138736 0.750831 0.909103
O O9 0.000000 0.000000 0.000000
O O10 0.345608 0.441723 0.899205
O O11 0.000000 0.500000 0.000000
#
# Coordination Sequence:
#
# PCOD9252605 Si02
#       5
#     4   4   4   4   4
#     4  11  25  43  75 107 146 190 251 314 372 449
#     4  11  24  47  74 102 147 189 249 314 369 439
#     4  12  25  46  74 104 150 194 243 309 377 441
#     4  11  25  45  78 109 146 197 257 306 381 445
#     4  11  25  49  69 104 152 199 241 310 368 452
#
# _framework density 22.978321999999999
#
# number of rings (size 3 to 8) (size 9 to 14) (size 15 to 20)
#    0.000    0.800    4.000    2.400    8.400    0.800 
#    0.000    2.000    0.000    0.000    0.000    0.000 
#    0.000    0.000    0.000    0.000    0.000    0.000 
#
# Total GULP energy -111656.680372 kJ/mol
# GULP energy per Si atom -5582.834019 kJ/mol
# Density = 2.292602 g / cm^3
# Si number density = 22.978322 Si / 1000 Ang^3
#
#
#
# Elastic Constant Matrix: (Units=GPa)
#
#
# Indices 1 2 3 4 5 6 
#
# 1 109.8819 20.3217 48.2165 0.0000 -24.0672 0.0000
# 2 20.3217 118.1996 31.7256 0.0000 1.8464 0.0000
# 3 48.2165 31.7256 124.6188 0.0000 1.9001 0.0000
# 4 0.0000 0.0000 0.0000 36.8352 0.0000 6.8847
# 5 -24.0672 1.8464 1.9001 0.0000 28.0944 0.0000
# 6 0.0000 0.0000 0.0000 6.8847 0.0000 37.1501
#
#
#
# Elastic Compliance Matrix: (Units=1/GPa)
#
#
# Indices 1 2 3 4 5 6 
#
# 1 0.014592 -0.001227 -0.005531 0.000000 0.012955 0.000000
# 2 -0.001227 0.009189 -0.001842 0.000000 -0.001530 0.000000
# 3 -0.005531 -0.001842 0.010715 0.000000 -0.005342 0.000000
# 4 0.000000 0.000000 0.000000 0.028122 0.000000 -0.005212
# 5 0.012955 -0.001530 -0.005342 0.000000 0.047154 0.000000
# 6 0.000000 0.000000 0.000000 -0.005212 0.000000 0.027884
#
#
# Mechanical properties :
#
#
# Convention : Reuss Voigt Hill
#
# Bulk Modulus (GPa) = 57.81077 61.46977 59.64027
# Shear Modulus (GPa) = 31.12924 37.24503 34.18713
#
# Velocity S-wave (km/s) = 3.68465 4.03038 3.86138
# Velocity P-wave (km/s) = 6.58146 6.96189 6.77435
#
# Compressibility (1/GPa) = 0.01729781
#
# Stress axis : x y z
#
# Youngs Moduli (GPa) = 68.52995 108.82188 93.32877
#
# Poissons Ratio (x) = 0.13348 0.51622
# Poissons Ratio (y) = 0.08406 0.17187
# Poissons Ratio (z) = 0.37905 0.20040
#
# Static dielectric constant tensor:
#      x y z
#    x 1.935000 0.000000 0.000140 
#    y 0.000000 1.913820 0.000000 
#    z 0.000140 0.000000 1.856160 
# 
# From -- ./inp_files/52642.got.cif
#   From: 2010.05.17/outbox.cif.g08.bks.cpg/sg14_27_cif.got.tgz:52642.got - 2010.06.03 17:49:19.
