data_PCOD9252225
_publ_section_title
;
Structure prediction by ZEFSAII (Michael W. Deem and Ramdas Pophale) SiO2 
 PCOD9252225
Probable space group: P 21/C
;
_chemical_formula_sum "Si O2"
_cell_formula_units_Z 28
_cell_length_a 6.677569
_cell_length_b 8.774014
_cell_length_c 23.045958
_cell_angle_alpha 90.000000
_cell_angle_beta 84.262154
_cell_angle_gamma 90.000000
_cell_volume 1343.476517
_symmetry_space_group_name_H-M "P 21/C"
_symmetry_group_IT_number 14
_symmetry_cell_setting 'monoclinic'
loop_
_space_group_symop_operation_xyz
x,y,z
-x,1/2+y,1/2-z
-x,-y,-z
x,1/2-y,1/2+z
loop_
_atom_site_type_symbol
_atom_site_label
_atom_site_fract_x
_atom_site_fract_y
_atom_site_fract_z
Si Si1 0.989654 0.285938 0.706798
Si Si2 0.682738 0.853856 0.893775
Si Si3 0.392883 0.512625 0.307277
Si Si4 0.104141 0.617275 0.542565
Si Si5 0.756133 0.973241 0.712201
Si Si6 0.279380 0.232350 0.386904
Si Si7 0.474874 0.818789 0.504572
O O1 0.819685 0.412610 0.700615
O O2 0.136180 0.278253 0.647192
O O3 0.123610 0.341419 0.756830
O O4 0.877591 0.127741 0.719268
O O5 0.506621 0.888333 0.853053
O O6 0.765799 0.011279 0.918254
O O7 0.601010 0.754993 0.948834
O O8 0.537306 0.509468 0.247398
O O9 0.365197 0.347867 0.336414
O O10 0.253319 0.741652 0.509492
O O11 0.000000 0.500000 0.500000
O O12 0.930712 0.702972 0.583092
O O13 0.744017 0.927563 0.645434
O O14 0.427533 0.225950 0.436843
O O15 0.500000 0.000000 0.500000
#
# Coordination Sequence:
#
# PCOD9252225 Si02
#       7
#     4   4   4   4   4   4   4
#     4  11  25  45  70  99 141 176 237 288 350 419
#     4  11  24  44  70 101 133 187 227 281 350 428
#     4  11  23  45  71  99 135 183 234 284 353 422
#     4  12  24  45  75 100 139 190 240 284 348 436
#     4  11  27  43  69 104 139 183 233 290 354 421
#     4  12  25  45  73 100 141 187 232 295 354 416
#     4  12  29  45  69 109 147 180 238 295 360 421
#
# _framework density 20.841450999999999
#
# number of rings (size 3 to 8) (size 9 to 14) (size 15 to 20)
#    0.000    0.571    4.286    3.000    6.000    2.857 
#    0.000    0.000    0.000    0.000    0.000    0.000 
#    0.000    0.000    0.000    0.000    0.000    0.000 
#
# Total GULP energy -156719.064871 kJ/mol
# GULP energy per Si atom -5597.109460 kJ/mol
# Density = 2.079402 g / cm^3
# Si number density = 20.841451 Si / 1000 Ang^3
#
#
#
# Elastic Constant Matrix: (Units=GPa)
#
#
# Indices 1 2 3 4 5 6 
#
# 1 99.0708 16.8448 32.7004 0.0000 -9.4257 0.0000
# 2 16.8448 70.6139 12.4897 0.0000 -9.9110 0.0000
# 3 32.7004 12.4897 75.1907 0.0000 -4.4644 0.0000
# 4 0.0000 0.0000 0.0000 39.7522 0.0000 3.1210
# 5 -9.4257 -9.9110 -4.4644 0.0000 22.9108 0.0000
# 6 0.0000 0.0000 0.0000 3.1210 0.0000 -1.6271
#
#
#
# Elastic Compliance Matrix: (Units=1/GPa)
#
#
# Indices 1 2 3 4 5 6 
#
# 1 0.012301 -0.001591 -0.004882 0.000000 0.003421 0.000000
# 2 -0.001591 0.015631 -0.001560 0.000000 0.005804 0.000000
# 3 -0.004882 -0.001560 0.015704 0.000000 0.000377 0.000000
# 4 0.000000 0.000000 0.000000 0.021863 0.000000 0.041938
# 5 0.003421 0.005804 0.000377 0.000000 0.047639 0.000000
# 6 0.000000 0.000000 0.000000 0.041938 0.000000 -0.534163
#
#
# Mechanical properties :
#
#
# Convention : Reuss Voigt Hill
#
# Bulk Modulus (GPa) = 36.27046 40.99391 38.63219
# Shear Modulus (GPa) = -12.63370 24.39655 5.88142
#
# Velocity S-wave (km/s) = -2.46475 3.42508 1.68170
# Velocity P-wave (km/s) = 3.05628 5.94590 4.72729
#
# Compressibility (1/GPa) = 0.02757064
#
# Stress axis : x y z
#
# Youngs Moduli (GPa) = 81.29196 63.97351 63.67634
#
# Poissons Ratio (x) = 0.10176 0.31090
# Poissons Ratio (y) = 0.12931 0.09934
# Poissons Ratio (z) = 0.39691 0.09981
#
# Static dielectric constant tensor:
#      x y z
#    x 1.723770 0.000000 0.014090 
#    y 0.000000 1.742820 0.000000 
#    z 0.014090 0.000000 1.716650 
# 
# From -- ./inp_files/75643.got.cif
#   From: 2010.05.17/outbox.cif.g08.bks.cpg/sg14_38_cif.got.tgz:75643.got - 2010.06.03 17:49:19.
