data_PCOD9252426
_publ_section_title
;
Structure prediction by ZEFSAII (Michael W. Deem and Ramdas Pophale) SiO2 
 PCOD9252426
Probable space group: P 21/C
;
_chemical_formula_sum "Si O2"
_cell_formula_units_Z 16
_cell_length_a 9.653807
_cell_length_b 4.753296
_cell_length_c 15.517967
_cell_angle_alpha 90.000000
_cell_angle_beta 115.234445
_cell_angle_gamma 90.000000
_cell_volume 644.126130
_symmetry_space_group_name_H-M "P 21/C"
_symmetry_group_IT_number 14
_symmetry_cell_setting 'monoclinic'
loop_
_space_group_symop_operation_xyz
x,y,z
-x,1/2+y,1/2-z
-x,-y,-z
x,1/2-y,1/2+z
loop_
_atom_site_type_symbol
_atom_site_label
_atom_site_fract_x
_atom_site_fract_y
_atom_site_fract_z
Si Si1 0.895757 0.221067 0.418532
Si Si2 0.407325 0.806837 0.747888
Si Si3 0.161342 0.971298 0.922796
Si Si4 0.342956 0.475188 0.904731
O O1 0.749770 0.084450 0.335302
O O2 0.829641 0.444373 0.470758
O O3 0.993960 0.389670 0.372992
O O4 0.000000 0.000000 0.500000
O O5 0.490485 0.580107 0.707656
O O6 0.375553 0.612821 0.821659
O O7 0.201732 0.660088 0.903983
O O8 0.281870 0.161919 0.903912
O O9 0.500000 0.500000 0.000000
#
# Coordination Sequence:
#
# PCOD9252426 Si02
#       4
#     4   4   4   4
#     4  11  25  47  76 104 150 196 244 304 372 439
#     4  12  28  46  73 106 147 191 251 302 369 442
#     4  11  24  43  72 102 138 190 240 287 375 421
#     4  12  24  44  70 105 145 185 237 304 360 433
#
# _framework density 24.839852
#
# number of rings (size 3 to 8) (size 9 to 14) (size 15 to 20)
#    0.000    0.500    2.500    5.250    7.000    2.000 
#    0.000    0.000    0.000    0.000    0.000    0.000 
#    0.000    0.000    0.000    0.000    0.000    0.000 
#
# Total GULP energy -89426.605671 kJ/mol
# GULP energy per Si atom -5589.162854 kJ/mol
# Density = 2.478332 g / cm^3
# Si number density = 24.839852 Si / 1000 Ang^3
#
#
#
# Elastic Constant Matrix: (Units=GPa)
#
#
# Indices 1 2 3 4 5 6 
#
# 1 99.3270 22.4462 33.8853 0.0000 -5.8168 0.0000
# 2 22.4462 111.1621 21.7263 0.0000 1.3277 0.0000
# 3 33.8853 21.7263 95.5138 0.0000 28.8210 0.0000
# 4 0.0000 0.0000 0.0000 26.9220 0.0000 -5.9414
# 5 -5.8168 1.3277 28.8210 0.0000 46.3333 0.0000
# 6 0.0000 0.0000 0.0000 -5.9414 0.0000 48.5345
#
#
#
# Elastic Compliance Matrix: (Units=1/GPa)
#
#
# Indices 1 2 3 4 5 6 
#
# 1 0.012661 -0.001501 -0.005715 0.000000 0.005188 0.000000
# 2 -0.001501 0.009657 -0.001876 0.000000 0.000702 0.000000
# 3 -0.005715 -0.001876 0.016157 0.000000 -0.010714 0.000000
# 4 0.000000 0.000000 0.000000 0.038176 0.000000 0.004673
# 5 0.005188 0.000702 -0.010714 0.000000 0.028878 0.000000
# 6 0.000000 0.000000 0.000000 0.004673 0.000000 0.021176
#
#
# Mechanical properties :
#
#
# Convention : Reuss Voigt Hill
#
# Bulk Modulus (GPa) = 49.28619 51.34650 50.31634
# Shear Modulus (GPa) = 32.96995 39.55431 36.26213
#
# Velocity S-wave (km/s) = 3.64717 3.99478 3.82493
# Velocity P-wave (km/s) = 6.13355 6.48025 6.30928
#
# Compressibility (1/GPa) = 0.02028966
#
# Stress axis : x y z
#
# Youngs Moduli (GPa) = 78.98484 103.54892 61.89296
#
# Poissons Ratio (x) = 0.15547 0.35375
# Poissons Ratio (y) = 0.11859 0.11610
# Poissons Ratio (z) = 0.45143 0.19423
#
# Static dielectric constant tensor:
#      x y z
#    x 2.078270 0.000000 -0.040670 
#    y 0.000000 1.951910 0.000000 
#    z -0.040670 0.000000 1.949190 
# 
# From -- ./inp_files/53897.got.cif
#   From: 2010.05.17/outbox.cif.g08.bks.cpg/sg14_27_cif.got.tgz:53897.got - 2010.06.03 17:49:19.
