data_PCOD9252108
_publ_section_title
;
Structure prediction by ZEFSAII (Michael W. Deem and Ramdas Pophale) SiO2 
 PCOD9252108
Probable space group: P 21/C
;
_chemical_formula_sum "Si O2"
_cell_formula_units_Z 16
_cell_length_a 19.344009
_cell_length_b 9.194937
_cell_length_c 9.707112
_cell_angle_alpha 90.000000
_cell_angle_beta 154.753363
_cell_angle_gamma 90.000000
_cell_volume 736.410983
_symmetry_space_group_name_H-M "P 21/C"
_symmetry_group_IT_number 14
_symmetry_cell_setting 'monoclinic'
loop_
_space_group_symop_operation_xyz
x,y,z
-x,1/2+y,1/2-z
-x,-y,-z
x,1/2-y,1/2+z
loop_
_atom_site_type_symbol
_atom_site_label
_atom_site_fract_x
_atom_site_fract_y
_atom_site_fract_z
Si Si1 0.109346 0.433930 0.073620
Si Si2 0.088520 0.832478 0.314469
Si Si3 0.464449 0.952396 0.281079
Si Si4 0.297310 0.660866 0.918740
O O1 0.295388 0.471154 0.435137
O O2 0.060540 0.520398 0.847473
O O3 0.000000 0.500000 0.000000
O O4 0.070147 0.264769 0.992038
O O5 0.205218 0.732129 0.621849
O O6 0.175404 0.856424 0.325981
O O7 0.610016 0.014566 0.452525
O O8 0.500000 0.000000 0.500000
O O9 0.429982 0.781992 0.202503
#
# Coordination Sequence:
#
# PCOD9252108 Si02
#       4
#     4   4   4   4
#     4  11  23  43  68  96 136 172 217 273 328 388
#     4  11  23  45  66  95 135 171 217 276 324 388
#     4  11  23  43  69  96 135 174 217 271 329 388
#     4  11  23  44  67  94 136 170 220 276 322 391
#
# _framework density 21.727
#
# number of rings (size 3 to 8) (size 9 to 14) (size 15 to 20)
#    0.000    1.000    7.500    0.000    0.000    9.000 
#    4.500    0.000    0.000    0.000    0.000    0.000 
#    0.000    0.000    0.000    0.000    0.000    0.000 
#
# Total GULP energy -89565.368582 kJ/mol
# GULP energy per Si atom -5597.835536 kJ/mol
# Density = 2.167755 g / cm^3
# Si number density = 21.727000 Si / 1000 Ang^3
#
#
#
# Elastic Constant Matrix: (Units=GPa)
#
#
# Indices 1 2 3 4 5 6 
#
# 1 136.0065 34.8162 15.5427 0.0000 1.1212 0.0000
# 2 34.8162 71.1416 11.4514 0.0000 10.6013 0.0000
# 3 15.5427 11.4514 41.4495 0.0000 -6.5198 0.0000
# 4 0.0000 0.0000 0.0000 37.1211 0.0000 8.5789
# 5 1.1212 10.6013 -6.5198 0.0000 29.9779 0.0000
# 6 0.0000 0.0000 0.0000 8.5789 0.0000 40.3346
#
#
#
# Elastic Compliance Matrix: (Units=1/GPa)
#
#
# Indices 1 2 3 4 5 6 
#
# 1 0.008597 -0.003978 -0.002023 0.000000 0.000645 0.000000
# 2 -0.003978 0.017798 -0.004548 0.000000 -0.007134 0.000000
# 3 -0.002023 -0.004548 0.027341 0.000000 0.007630 0.000000
# 4 0.000000 0.000000 0.000000 0.028331 0.000000 -0.006026
# 5 0.000645 -0.007134 0.007630 0.000000 0.037516 0.000000
# 6 0.000000 0.000000 0.000000 -0.006026 0.000000 0.026074
#
#
# Mechanical properties :
#
#
# Convention : Reuss Voigt Hill
#
# Bulk Modulus (GPa) = 30.63851 41.35757 35.99804
# Shear Modulus (GPa) = 28.14757 33.93919 31.04338
#
# Velocity S-wave (km/s) = 3.60323 3.95660 3.78404
# Velocity P-wave (km/s) = 5.60742 6.32055 5.97463
#
# Compressibility (1/GPa) = 0.03263867
#
# Stress axis : x y z
#
# Youngs Moduli (GPa) = 116.32346 56.18508 36.57499
#
# Poissons Ratio (x) = 0.22348 0.07400
# Poissons Ratio (y) = 0.46269 0.16634
# Poissons Ratio (z) = 0.23535 0.25552
#
# Static dielectric constant tensor:
#      x y z
#    x 1.742230 0.000000 -0.018380 
#    y 0.000000 1.792460 0.000000 
#    z -0.018380 0.000000 1.800100 
# 
# From -- ./inp_files/7218.got.cif
#   From: 2010.05.17/outbox.cif.g08.bks.cpg/sg14_4_cif.got.tgz:7218.got - 2010.06.03 17:49:19.
