data_PCOD9252601
_publ_section_title
;
Structure prediction by ZEFSAII (Michael W. Deem and Ramdas Pophale) SiO2 
 PCOD9252601
Probable space group: P 21/C
;
_chemical_formula_sum "Si O2"
_cell_formula_units_Z 24
_cell_length_a 18.723763
_cell_length_b 6.865352
_cell_length_c 22.402265
_cell_angle_alpha 90.000000
_cell_angle_beta 17.591234
_cell_angle_gamma 90.000000
_cell_volume 870.315866
_symmetry_space_group_name_H-M "P 21/C"
_symmetry_group_IT_number 14
_symmetry_cell_setting 'monoclinic'
loop_
_space_group_symop_operation_xyz
x,y,z
-x,1/2+y,1/2-z
-x,-y,-z
x,1/2-y,1/2+z
loop_
_atom_site_type_symbol
_atom_site_label
_atom_site_fract_x
_atom_site_fract_y
_atom_site_fract_z
Si Si1 0.343525 0.697640 0.741701
Si Si2 0.433187 0.436300 0.831188
Si Si3 0.214956 0.661975 0.542334
Si Si4 0.808046 0.653211 0.195830
Si Si5 0.263351 0.082489 0.646547
Si Si6 0.905941 0.142084 0.727323
O O1 0.388833 0.969941 0.864985
O O2 0.360195 0.464316 0.715083
O O3 0.513888 0.814148 0.561785
O O4 0.057428 0.707825 0.966808
O O5 0.583197 0.298164 0.755069
O O6 0.211829 0.646788 0.185695
O O7 0.189900 0.350782 0.999158
O O8 0.344796 0.628121 0.936882
O O9 0.150940 0.586597 0.658755
O O10 0.968530 0.669659 0.702377
O O11 0.727176 0.847108 0.292692
O O12 0.831273 0.502258 0.233586
#
# Coordination Sequence:
#
# PCOD9252601 Si02
#       6
#     4   4   4   4   4   4
#     4  11  24  47  73 101 149 193 237 295 366 438
#     4  12  23  43  74 107 143 189 237 310 363 427
#     4  12  24  43  72 107 145 181 246 303 363 428
#     4  11  27  48  70 104 149 193 237 293 369 438
#     4  12  24  44  71 106 145 184 242 300 359 433
#     4  12  25  45  75 108 141 191 245 302 362 433
#
# _framework density 27.576195999999999
#
# number of rings (size 3 to 8) (size 9 to 14) (size 15 to 20)
#    0.000    0.333    6.667    1.500    0.000    3.333 
#    0.000    3.333    0.000    0.000    0.000    0.000 
#    0.000    0.000    0.000    0.000    0.000    0.000 
#
# Total GULP energy -134565.993901 kJ/mol
# GULP energy per Si atom -5606.916413 kJ/mol
# Density = 2.751343 g / cm^3
# Si number density = 27.576196 Si / 1000 Ang^3
#
#
#
# Elastic Constant Matrix: (Units=GPa)
#
#
# Indices 1 2 3 4 5 6 
#
# 1 73.0036 58.9248 -9.1491 0.0000 19.6114 0.0000
# 2 58.9248 12.0245 169.8538 0.0000 -49.3780 0.0000
# 3 -9.1491 169.8538 60.7934 0.0000 58.1343 0.0000
# 4 0.0000 0.0000 0.0000 36.8896 0.0000 -11.9737
# 5 19.6114 -49.3780 58.1343 0.0000 40.6523 0.0000
# 6 0.0000 0.0000 0.0000 -11.9737 0.0000 52.4725
#
#
#
# Elastic Compliance Matrix: (Units=1/GPa)
#
#
# Indices 1 2 3 4 5 6 
#
# 1 0.011661 0.001458 -0.003722 0.000000 0.001468 0.000000
# 2 0.001458 0.000576 0.003772 0.000000 -0.005398 0.000000
# 3 -0.003722 0.003772 0.002033 0.000000 0.003470 0.000000
# 4 0.000000 0.000000 0.000000 0.029276 0.000000 0.006681
# 5 0.001468 -0.005398 0.003470 0.000000 0.012373 0.000000
# 6 0.000000 0.000000 0.000000 0.006681 0.000000 0.020582
#
#
# Mechanical properties :
#
#
# Convention : Reuss Voigt Hill
#
# Bulk Modulus (GPa) = 57.85357 65.00896 61.43126
# Shear Modulus (GPa) = 63.09442 21.08234 42.08838
#
# Velocity S-wave (km/s) = 4.78850 2.76798 3.91097
# Velocity P-wave (km/s) = 7.18318 5.81731 6.53602
#
# Compressibility (1/GPa) = 0.01728502
#
# Stress axis : x y z
#
# Youngs Moduli (GPa) = 85.75913 1736.37106 491.92820
#
# Poissons Ratio (x) = -2.53132 1.83083
# Poissons Ratio (y) = -0.12502 -1.85545
# Poissons Ratio (z) = 0.31917 -6.54922
#
# Static dielectric constant tensor:
#      x y z
#    x 2.165630 0.000000 0.032290 
#    y 0.000000 2.220220 0.000000 
#    z 0.032290 0.000000 2.132500 
# 
# From -- ./inp_files/74575.got.cif
#   From: 2010.05.17/outbox.cif.g08.bks.cpg/sg14_38_cif.got.tgz:74575.got - 2010.06.03 17:49:19.
