data_PCOD9252741
_publ_section_title
;
Structure prediction by ZEFSAII (Michael W. Deem and Ramdas Pophale) SiO2 
 PCOD9252741
Probable space group: P 21/C
;
_chemical_formula_sum "Si O2"
_cell_formula_units_Z 20
_cell_length_a 20.545416
_cell_length_b 5.105462
_cell_length_c 10.577623
_cell_angle_alpha 90.000000
_cell_angle_beta 131.281857
_cell_angle_gamma 90.000000
_cell_volume 833.780059
_symmetry_space_group_name_H-M "P 21/C"
_symmetry_group_IT_number 14
_symmetry_cell_setting 'monoclinic'
loop_
_space_group_symop_operation_xyz
x,y,z
-x,1/2+y,1/2-z
-x,-y,-z
x,1/2-y,1/2+z
loop_
_atom_site_type_symbol
_atom_site_label
_atom_site_fract_x
_atom_site_fract_y
_atom_site_fract_z
Si Si1 0.278937 0.302267 0.408163
Si Si2 0.580495 0.060035 0.463792
Si Si3 0.833279 0.211486 0.786834
Si Si4 0.943119 0.130922 0.181394
Si Si5 0.616150 0.083601 0.776659
O O1 0.228854 0.537847 0.278559
O O2 0.303626 0.401663 0.581128
O O3 0.373536 0.223953 0.474443
O O4 0.220754 0.044877 0.322500
O O5 0.616653 0.191238 0.636643
O O6 0.611108 0.194657 0.375605
O O7 0.477060 0.060437 0.334903
O O8 0.896040 0.286747 0.750785
O O9 0.883006 0.158638 0.980958
O O10 0.021770 0.335831 0.264219
#
# Coordination Sequence:
#
# PCOD9252741 Si02
#       5
#     4   4   4   4   4
#     4  12  26  44  70 110 154 182 250 308 368 410
#     4  11  25  45  71 103 149 208 260 306 363 429
#     4  12  28  44  76 112 144 186 236 306 372 434
#     4  12  26  52  78 104 142 186 236 288 370 464
#     4  11  25  45  71 103 149 208 260 306 363 429
#
# _framework density 23.987144000000001
#
# number of rings (size 3 to 8) (size 9 to 14) (size 15 to 20)
#    0.000    0.400    4.000    3.600    5.600    2.400 
#    0.000    0.000    0.000    0.000    0.000    0.000 
#    0.000    0.000    0.000    0.000    0.000    0.000 
#
# Total GULP energy -111999.345326 kJ/mol
# GULP energy per Si atom -5599.967266 kJ/mol
# Density = 2.393255 g / cm^3
# Si number density = 23.987144 Si / 1000 Ang^3
#
#
#
# Elastic Constant Matrix: (Units=GPa)
#
#
# Indices 1 2 3 4 5 6 
#
# 1 61.9290 23.9674 31.1995 0.0000 18.6968 0.0000
# 2 23.9674 77.0634 13.3682 0.0000 -38.7893 0.0000
# 3 31.1995 13.3682 156.3120 0.0000 -54.0477 0.0000
# 4 0.0000 0.0000 0.0000 40.0037 0.0000 13.7158
# 5 18.6968 -38.7893 -54.0477 0.0000 -30.7570 0.0000
# 6 0.0000 0.0000 0.0000 13.7158 0.0000 40.5803
#
#
#
# Elastic Compliance Matrix: (Units=1/GPa)
#
#
# Indices 1 2 3 4 5 6 
#
# 1 0.013647 -0.000127 0.000131 0.000000 0.008226 0.000000
# 2 -0.000127 0.010048 -0.003261 0.000000 -0.007019 0.000000
# 3 0.000131 -0.003261 0.005038 0.000000 -0.004661 0.000000
# 4 0.000000 0.000000 0.000000 0.028274 0.000000 -0.009556
# 5 0.008226 -0.007019 -0.004661 0.000000 -0.010469 0.000000
# 6 0.000000 0.000000 0.000000 -0.009556 0.000000 0.027873
#
#
# Mechanical properties :
#
#
# Convention : Reuss Voigt Hill
#
# Bulk Modulus (GPa) = 45.00372 48.04161 46.52266
# Shear Modulus (GPa) = 56.60456 25.08336 40.84396
#
# Velocity S-wave (km/s) = 4.86303 3.23724 4.13091
# Velocity P-wave (km/s) = 7.09468 5.83477 6.49534
#
# Compressibility (1/GPa) = 0.02222039
#
# Stress axis : x y z
#
# Youngs Moduli (GPa) = 73.27507 99.51819 198.47466
#
# Poissons Ratio (x) = 0.01262 -0.02601
# Poissons Ratio (y) = 0.00929 0.64724
# Poissons Ratio (z) = -0.00960 0.32453
#
# Static dielectric constant tensor:
#      x y z
#    x 1.963270 0.000000 0.007920 
#    y 0.000000 1.932640 0.000000 
#    z 0.007920 0.000000 1.896160 
# 
# From -- ./inp_files/35564.got.cif
#   From: 2010.05.17/outbox.cif.g08.bks.cpg/sg14_18_cif.got.tgz:35564.got - 2010.06.03 17:49:19.
