data_PCOD9252872
_publ_section_title
;
Structure prediction by ZEFSAII (Michael W. Deem and Ramdas Pophale) SiO2 
 PCOD9252872
Probable space group: P 21/C
;
_chemical_formula_sum "Si O2"
_cell_formula_units_Z 12
_cell_length_a 6.884625
_cell_length_b 10.058687
_cell_length_c 6.809091
_cell_angle_alpha 90.000000
_cell_angle_beta 90.909919
_cell_angle_gamma 90.000000
_cell_volume 471.472052
_symmetry_space_group_name_H-M "P 21/C"
_symmetry_group_IT_number 14
_symmetry_cell_setting 'monoclinic'
loop_
_space_group_symop_operation_xyz
x,y,z
-x,1/2+y,1/2-z
-x,-y,-z
x,1/2-y,1/2+z
loop_
_atom_site_type_symbol
_atom_site_label
_atom_site_fract_x
_atom_site_fract_y
_atom_site_fract_z
Si Si1 0.747220 0.631134 0.013876
Si Si2 0.912584 0.430126 0.695632
Si Si3 0.496393 0.875968 0.858515
O O1 0.585096 0.572624 0.156913
O O2 0.931209 0.643665 0.164373
O O3 0.821861 0.544921 0.833198
O O4 0.639718 0.762536 0.936904
O O5 0.729090 0.334209 0.651293
O O6 0.000000 0.500000 0.500000
O O7 0.500000 0.000000 0.000000
#
# Coordination Sequence:
#
# PCOD9252872 Si02
#       3
#     4   4   4
#     4  11  27  49  80 118 161 224 266 335 417 484
#     4  11  25  53  81 113 163 213 283 336 403 491
#     4  12  25  50  80 117 166 209 270 339 413 488
#
# _framework density 25.452196000000001
#
# number of rings (size 3 to 8) (size 9 to 14) (size 15 to 20)
#    0.000    0.667    3.333    3.000    0.000    2.667 
#    0.000    0.000    0.000    0.000    0.000    0.000 
#    0.000    0.000    0.000    0.000    0.000    0.000 
#
# Total GULP energy -67213.175285 kJ/mol
# GULP energy per Si atom -5601.097940 kJ/mol
# Density = 2.539427 g / cm^3
# Si number density = 25.452196 Si / 1000 Ang^3
#
#
#
# Elastic Constant Matrix: (Units=GPa)
#
#
# Indices 1 2 3 4 5 6 
#
# 1 236.2106 70.6198 98.8601 0.0000 14.9191 0.0000
# 2 70.6198 110.8458 71.6399 0.0000 1.3060 0.0000
# 3 98.8601 71.6399 207.0331 0.0000 -25.4748 0.0000
# 4 0.0000 0.0000 0.0000 49.8848 0.0000 8.4085
# 5 14.9191 1.3060 -25.4748 0.0000 72.2761 0.0000
# 6 0.0000 0.0000 0.0000 8.4085 0.0000 59.5102
#
#
#
# Elastic Compliance Matrix: (Units=1/GPa)
#
#
# Indices 1 2 3 4 5 6 
#
# 1 0.006026 -0.002312 -0.002326 0.000000 -0.002022 0.000000
# 2 -0.002312 0.012711 -0.003412 0.000000 -0.000955 0.000000
# 3 -0.002326 -0.003412 0.007514 0.000000 0.003190 0.000000
# 4 0.000000 0.000000 0.000000 0.020535 0.000000 -0.002902
# 5 -0.002022 -0.000955 0.003190 0.000000 0.015395 0.000000
# 6 0.000000 0.000000 0.000000 -0.002902 0.000000 0.017214
#
#
# Mechanical properties :
#
#
# Convention : Reuss Voigt Hill
#
# Bulk Modulus (GPa) = 98.51414 115.14769 106.83091
# Shear Modulus (GPa) = 50.56696 57.19887 53.88291
#
# Velocity S-wave (km/s) = 4.46212 4.74572 4.60610
# Velocity P-wave (km/s) = 8.08313 8.68148 8.38764
#
# Compressibility (1/GPa) = 0.01015083
#
# Stress axis : x y z
#
# Youngs Moduli (GPa) = 165.94722 78.67322 133.08189
#
# Poissons Ratio (x) = 0.18188 0.30959
# Poissons Ratio (y) = 0.38364 0.45407
# Poissons Ratio (z) = 0.38604 0.26843
#
# Static dielectric constant tensor:
#      x y z
#    x 2.123500 0.000000 0.053150 
#    y 0.000000 1.985340 0.000000 
#    z 0.053150 0.000000 2.038560 
# 
# From -- ./inp_files/811.got.cif
#   From: 2010.05.17/outbox.cif.g08.bks.cpg/sg14_1_cif.got.tgz:811.got - 2010.06.03 17:49:19.
