data_PCOD9252081
_publ_section_title
;
Structure prediction by ZEFSAII (Michael W. Deem and Ramdas Pophale) SiO2 
 PCOD9252081
Probable space group: P 21/C
;
_chemical_formula_sum "Si O2"
_cell_formula_units_Z 28
_cell_length_a 23.754440
_cell_length_b 8.304295
_cell_length_c 8.007970
_cell_angle_alpha 90.000000
_cell_angle_beta 46.756135
_cell_angle_gamma 90.000000
_cell_volume 1150.711282
_symmetry_space_group_name_H-M "P 21/C"
_symmetry_group_IT_number 14
_symmetry_cell_setting 'monoclinic'
loop_
_space_group_symop_operation_xyz
x,y,z
-x,1/2+y,1/2-z
-x,-y,-z
x,1/2-y,1/2+z
loop_
_atom_site_type_symbol
_atom_site_label
_atom_site_fract_x
_atom_site_fract_y
_atom_site_fract_z
Si Si1 0.856693 0.964026 0.802746
Si Si2 0.904190 0.863499 0.076642
Si Si3 0.767887 0.247052 0.562686
Si Si4 0.568787 0.589449 0.027672
Si Si5 0.472513 0.769340 0.001899
Si Si6 0.925907 0.106373 0.345419
Si Si7 0.328171 0.580839 0.982553
O O1 0.850988 0.785368 0.738276
O O2 0.783183 0.082993 0.937553
O O3 0.919529 0.042514 0.547915
O O4 0.875876 0.943187 0.960607
O O5 0.915022 0.975409 0.218617
O O6 0.992141 0.810143 0.851991
O O7 0.850929 0.215931 0.473504
O O8 0.740221 0.094247 0.512009
O O9 0.700911 0.284809 0.828542
O O10 0.558098 0.410271 0.975647
O O11 0.496372 0.624794 0.296334
O O12 0.649299 0.578543 0.962546
O O13 0.554275 0.730636 0.926272
O O14 0.407594 0.861040 0.237043
#
# Coordination Sequence:
#
# PCOD9252081 Si02
#       7
#     4   4   4   4   4   4   4
#     4  12  25  45  73 104 144 187 246 298 360 432
#     4  11  26  44  73 106 142 187 242 319 358 406
#     4  12  26  44  72  97 141 195 232 280 361 448
#     4  11  23  42  72 105 137 178 232 294 343 417
#     4  11  23  42  75 104 138 179 235 298 344 406
#     4  11  26  45  71 106 143 191 245 299 366 423
#     4  12  23  45  69 101 140 182 230 282 359 434
#
# _framework density 24.332777
#
# number of rings (size 3 to 8) (size 9 to 14) (size 15 to 20)
#    0.000    0.571    5.714    1.714    4.000    0.000 
#    0.000    2.857    0.000    0.000    0.000    0.000 
#    0.000    0.000    0.000    0.000    0.000    0.000 
#
# Total GULP energy -156292.552537 kJ/mol
# GULP energy per Si atom -5581.876876 kJ/mol
# Density = 2.427739 g / cm^3
# Si number density = 24.332777 Si / 1000 Ang^3
#
#
#
# Elastic Constant Matrix: (Units=GPa)
#
#
# Indices 1 2 3 4 5 6 
#
# 1 95.9270 21.1211 8.9974 0.0000 4.9648 0.0000
# 2 21.1211 62.3243 3.7540 0.0000 -0.1539 0.0000
# 3 8.9974 3.7540 47.5641 0.0000 25.3921 0.0000
# 4 0.0000 0.0000 0.0000 29.7349 0.0000 -4.7600
# 5 4.9648 -0.1539 25.3921 0.0000 35.3834 0.0000
# 6 0.0000 0.0000 0.0000 -4.7600 0.0000 41.7655
#
#
#
# Elastic Compliance Matrix: (Units=1/GPa)
#
#
# Indices 1 2 3 4 5 6 
#
# 1 0.011432 -0.003778 -0.001620 0.000000 -0.000458 0.000000
# 2 -0.003778 0.017426 -0.001595 0.000000 0.001751 0.000000
# 3 -0.001620 -0.001595 0.034591 0.000000 -0.024603 0.000000
# 4 0.000000 0.000000 0.000000 0.034256 0.000000 0.003904
# 5 -0.000458 0.001751 -0.024603 0.000000 0.045990 0.000000
# 6 0.000000 0.000000 0.000000 0.003904 0.000000 0.024388
#
#
# Mechanical properties :
#
#
# Convention : Reuss Voigt Hill
#
# Bulk Modulus (GPa) = 20.21718 30.39562 25.30640
# Shear Modulus (GPa) = 25.18186 32.83961 29.01073
#
# Velocity S-wave (km/s) = 3.22047 3.67768 3.45664
# Velocity P-wave (km/s) = 4.70693 5.52743 5.13360
#
# Compressibility (1/GPa) = 0.04946289
#
# Stress axis : x y z
#
# Youngs Moduli (GPa) = 87.47360 57.38629 28.90927
#
# Poissons Ratio (x) = 0.21679 0.04683
# Poissons Ratio (y) = 0.33046 0.04612
# Poissons Ratio (z) = 0.14169 0.09155
#
# Static dielectric constant tensor:
#      x y z
#    x 2.086640 0.000000 0.072640 
#    y 0.000000 1.946750 0.000000 
#    z 0.072640 0.000000 1.906910 
# 
# From -- ./inp_files/19719.got.cif
#   From: 2010.05.17/outbox.cif.g08.bks.cpg/sg14_10_cif.got.tgz:19719.got - 2010.06.03 17:49:19.
