data_PCOD9252141
_publ_section_title
;
Structure prediction by ZEFSAII (Michael W. Deem and Ramdas Pophale) SiO2 
 PCOD9252141
Probable space group: P 21/C
;
_chemical_formula_sum "Si O2"
_cell_formula_units_Z 24
_cell_length_a 28.756920
_cell_length_b 9.504121
_cell_length_c 9.107418
_cell_angle_alpha 90.000000
_cell_angle_beta 151.990135
_cell_angle_gamma 90.000000
_cell_volume 1168.959567
_symmetry_space_group_name_H-M "P 21/C"
_symmetry_group_IT_number 14
_symmetry_cell_setting 'monoclinic'
loop_
_space_group_symop_operation_xyz
x,y,z
-x,1/2+y,1/2-z
-x,-y,-z
x,1/2-y,1/2+z
loop_
_atom_site_type_symbol
_atom_site_label
_atom_site_fract_x
_atom_site_fract_y
_atom_site_fract_z
Si Si1 0.585828 0.407090 0.164542
Si Si2 0.947329 0.600466 0.241966
Si Si3 0.276625 0.120315 0.800620
Si Si4 0.414724 0.900301 0.693253
Si Si5 0.263332 0.408118 0.920368
Si Si6 0.976017 0.583754 0.787818
O O1 0.682540 0.491270 0.489963
O O2 0.577612 0.254338 0.215387
O O3 0.500000 0.500000 0.000000
O O4 0.580186 0.399989 0.970969
O O5 0.998248 0.750343 0.356321
O O6 0.000000 0.500000 0.500000
O O7 0.950749 0.501750 0.112134
O O8 0.840629 0.628755 0.008880
O O9 0.305406 0.269360 0.953795
O O10 0.298282 0.101874 0.687963
O O11 0.311749 0.964059 0.466960
O O12 0.500000 0.000000 0.000000
O O13 0.142614 0.421092 0.581452
O O14 0.000000 0.500000 0.000000
#
# Coordination Sequence:
#
# PCOD9252141 Si02
#       6
#     4   4   4   4   4   4
#     4  12  26  46  71 101 134 174 219 274 333 399
#     4  11  23  44  64  97 134 180 228 282 341 405
#     4  11  24  43  69  95 136 176 225 274 335 400
#     4  12  26  46  71 100 136 172 221 272 335 399
#     4  11  24  44  67  98 132 179 223 275 336 399
#     4  11  25  40  68  95 136 180 230 282 344 404
#
# _framework density 20.531078000000001
#
# number of rings (size 3 to 8) (size 9 to 14) (size 15 to 20)
#    0.000    0.667    1.667    6.000    9.333    2.667 
#    0.000    0.000    0.000    0.000    0.000    0.000 
#    0.000    0.000    0.000    0.000    0.000    0.000 
#
# Total GULP energy -133938.160494 kJ/mol
# GULP energy per Si atom -5580.756687 kJ/mol
# Density = 2.048435 g / cm^3
# Si number density = 20.531078 Si / 1000 Ang^3
#
#
#
# Elastic Constant Matrix: (Units=GPa)
#
#
# Indices 1 2 3 4 5 6 
#
# 1 148.6069 52.0430 20.1170 0.0000 -49.3590 0.0000
# 2 52.0430 189.5426 27.1356 0.0000 -20.4425 0.0000
# 3 20.1170 27.1356 49.7565 0.0000 -35.9235 0.0000
# 4 0.0000 0.0000 0.0000 36.8552 0.0000 -2.7117
# 5 -49.3590 -20.4425 -35.9235 0.0000 47.1194 0.0000
# 6 0.0000 0.0000 0.0000 -2.7117 0.0000 35.5709
#
#
#
# Elastic Compliance Matrix: (Units=1/GPa)
#
#
# Indices 1 2 3 4 5 6 
#
# 1 0.013481 -0.003061 0.012136 0.000000 0.022045 0.000000
# 2 -0.003061 0.006419 -0.005711 0.000000 -0.004776 0.000000
# 3 0.012136 -0.005711 0.057156 0.000000 0.053810 0.000000
# 4 0.000000 0.000000 0.000000 0.027286 0.000000 0.002080
# 5 0.022045 -0.004776 0.053810 0.000000 0.083268 0.000000
# 6 0.000000 0.000000 0.000000 0.002080 0.000000 0.028271
#
#
# Mechanical properties :
#
#
# Convention : Reuss Voigt Hill
#
# Bulk Modulus (GPa) = 11.93576 65.16635 38.55105
# Shear Modulus (GPa) = 21.08974 43.14982 32.11978
#
# Velocity S-wave (km/s) = 3.20849 4.58938 3.95960
# Velocity P-wave (km/s) = 4.42176 7.73903 6.30256
#
# Compressibility (1/GPa) = 0.08378184
#
# Stress axis : x y z
#
# Youngs Moduli (GPa) = 74.18036 155.79011 17.49600
#
# Poissons Ratio (x) = 0.47689 -0.21232
# Poissons Ratio (y) = 0.22708 0.09992
# Poissons Ratio (z) = -0.90022 0.88975
#
# Static dielectric constant tensor:
#      x y z
#    x 1.668110 0.000000 0.031840 
#    y 0.000000 1.631730 0.000000 
#    z 0.031840 0.000000 1.619380 
# 
# From -- ./inp_files/19967.got.cif
#   From: 2010.05.17/outbox.cif.g08.bks.cpg/sg14_10_cif.got.tgz:19967.got - 2010.06.03 17:49:19.
