data_PCOD9252438
_publ_section_title
;
Structure prediction by ZEFSAII (Michael W. Deem and Ramdas Pophale) SiO2 
 PCOD9252438
Probable space group: P 21/C
;
_chemical_formula_sum "Si O2"
_cell_formula_units_Z 30
_cell_length_a 21.423758
_cell_length_b 13.402031
_cell_length_c 9.330958
_cell_angle_alpha 90.000000
_cell_angle_beta 29.517907
_cell_angle_gamma 90.000000
_cell_volume 1319.991546
_symmetry_space_group_name_H-M "P 21/C"
_symmetry_group_IT_number 14
_symmetry_cell_setting 'monoclinic'
loop_
_space_group_symop_operation_xyz
x,y,z
-x,1/2+y,1/2-z
-x,-y,-z
x,1/2-y,1/2+z
loop_
_atom_site_type_symbol
_atom_site_label
_atom_site_fract_x
_atom_site_fract_y
_atom_site_fract_z
Si Si1 0.500000 0.000000 0.500000
Si Si2 0.585776 0.816127 0.807637
Si Si3 0.826936 0.685699 0.263494
Si Si4 0.074149 0.366512 0.623322
Si Si5 0.206464 0.854661 0.410244
Si Si6 0.679763 0.551870 0.376293
Si Si7 0.684556 0.204170 0.537312
Si Si8 0.322661 0.013746 0.589913
O O1 0.629144 0.984958 0.343328
O O2 0.578287 0.976942 0.197346
O O3 0.685649 0.729338 0.575763
O O4 0.628509 0.865079 0.871492
O O5 0.601414 0.902354 0.655841
O O6 0.445286 0.774025 0.115462
O O7 0.896914 0.660870 0.270147
O O8 0.804165 0.592249 0.206738
O O9 0.893909 0.771606 0.039542
O O10 0.175745 0.451391 0.378626
O O11 0.928187 0.385570 0.883138
O O12 0.204341 0.799544 0.566717
O O13 0.286352 0.954033 0.279909
O O14 0.281440 0.787378 0.146141
O O15 0.667125 0.097227 0.495334
#
# Coordination Sequence:
#
# PCOD9252438 Si02
#       8
#     2   4   4   4   4   4   4   4
#     4  12  24  40  72 110 132 172 226 298 348 418
#     4  11  24  46  72 105 136 179 233 293 360 419
#     4  11  24  43  75 104 134 183 236 290 347 414
#     4  11  25  47  68 103 137 192 237 281 340 430
#     4  12  30  45  68 101 146 189 235 284 351 414
#     4  12  25  45  72 105 143 179 227 297 352 418
#     4  12  27  46  69 106 137 189 228 300 347 419
#     4  11  24  45  74  99 142 180 236 286 359 413
#
# _framework density 22.727418
#
# number of rings (size 3 to 8) (size 9 to 14) (size 15 to 20)
#    0.000    0.533    5.333    2.000    5.600    2.133 
#    0.000    0.000    0.000    0.000    0.000    0.000 
#    0.000    0.000    0.000    0.000    0.000    0.000 
#
# Total GULP energy -167501.777205 kJ/mol
# GULP energy per Si atom -5583.392574 kJ/mol
# Density = 2.267569 g / cm^3
# Si number density = 22.727418 Si / 1000 Ang^3
#
#
#
# Elastic Constant Matrix: (Units=GPa)
#
#
# Indices 1 2 3 4 5 6 
#
# 1 127.5570 -4.6598 21.9389 0.0000 -1.3171 0.0000
# 2 -4.6598 38.1339 19.7645 0.0000 -6.5479 0.0000
# 3 21.9389 19.7645 55.2687 0.0000 -7.9294 0.0000
# 4 0.0000 0.0000 0.0000 10.9661 0.0000 0.9174
# 5 -1.3171 -6.5479 -7.9294 0.0000 36.0050 0.0000
# 6 0.0000 0.0000 0.0000 0.9174 0.0000 22.7332
#
#
#
# Elastic Compliance Matrix: (Units=1/GPa)
#
#
# Indices 1 2 3 4 5 6 
#
# 1 0.008786 0.003527 -0.004761 0.000000 -0.000086 0.000000
# 2 0.003527 0.034020 -0.013073 0.000000 0.003437 0.000000
# 3 -0.004761 -0.013073 0.025085 0.000000 0.002973 0.000000
# 4 0.000000 0.000000 0.000000 0.091499 0.000000 -0.003692
# 5 -0.000086 0.003437 0.002973 0.000000 0.029051 0.000000
# 6 0.000000 0.000000 0.000000 -0.003692 0.000000 0.044138
#
#
# Mechanical properties :
#
#
# Convention : Reuss Voigt Hill
#
# Bulk Modulus (GPa) = 25.46033 32.78298 29.12166
# Shear Modulus (GPa) = 18.22921 26.20193 22.21557
#
# Velocity S-wave (km/s) = 2.83517 3.39909 3.12986
# Velocity P-wave (km/s) = 4.68449 5.46450 5.08946
#
# Compressibility (1/GPa) = 0.03927678
#
# Stress axis : x y z
#
# Youngs Moduli (GPa) = 113.81110 29.39455 39.86474
#
# Poissons Ratio (x) = -0.10367 0.18981
# Poissons Ratio (y) = -0.40138 0.52114
# Poissons Ratio (z) = 0.54189 0.38426
#
# Static dielectric constant tensor:
#      x y z
#    x 1.810430 0.000000 -0.051880 
#    y 0.000000 1.842140 0.000000 
#    z -0.051880 0.000000 1.849860 
# 
# From -- ./inp_files/16212.got.cif
#   From: 2010.05.17/outbox.cif.g08.bks.cpg/sg14_9_cif.got.tgz:16212.got - 2010.06.03 17:49:19.
