data_PCOD9252305
_publ_section_title
;
Structure prediction by ZEFSAII (Michael W. Deem and Ramdas Pophale) SiO2 
 PCOD9252305
Probable space group: P 21/C
;
_chemical_formula_sum "Si O2"
_cell_formula_units_Z 28
_cell_length_a 9.497003
_cell_length_b 19.435266
_cell_length_c 9.226766
_cell_angle_alpha 90.000000
_cell_angle_beta 135.562023
_cell_angle_gamma 90.000000
_cell_volume 1192.365630
_symmetry_space_group_name_H-M "P 21/C"
_symmetry_group_IT_number 14
_symmetry_cell_setting 'monoclinic'
loop_
_space_group_symop_operation_xyz
x,y,z
-x,1/2+y,1/2-z
-x,-y,-z
x,1/2-y,1/2+z
loop_
_atom_site_type_symbol
_atom_site_label
_atom_site_fract_x
_atom_site_fract_y
_atom_site_fract_z
Si Si1 0.485545 0.393599 0.218484
Si Si2 0.935316 0.206549 0.259146
Si Si3 0.106813 0.934911 0.150099
Si Si4 0.182654 0.992731 0.519130
Si Si5 0.561538 0.235301 0.308101
Si Si6 0.147063 0.303305 0.629234
Si Si7 0.366474 0.611910 0.357137
O O1 0.677544 0.422693 0.270293
O O2 0.287489 0.437534 0.038410
O O3 0.502000 0.311566 0.211670
O O4 0.499104 0.401611 0.404437
O O5 0.846935 0.131615 0.227215
O O6 0.026078 0.240823 0.466624
O O7 0.107288 0.201418 0.268139
O O8 0.757793 0.251668 0.052558
O O9 0.126226 0.948762 0.335776
O O10 0.962307 0.870224 0.014325
O O11 0.000000 0.000000 0.000000
O O12 0.349151 0.949138 0.731240
O O13 0.000000 0.000000 0.500000
O O14 0.378945 0.203511 0.263831
O O15 0.588882 0.182204 0.196781
#
# Coordination Sequence:
#
# PCOD9252305 Si02
#       7
#     4   4   4   4   4   4   4
#     4  11  26  51  70 111 149 196 247 315 378 446
#     4  11  24  47  68 110 150 186 246 316 363 451
#     4  12  27  50  73 107 149 201 251 307 376 460
#     4  12  29  46  77 107 151 197 252 304 384 450
#     4  11  26  44  79 108 147 192 247 315 373 434
#     4  12  27  44  78 105 149 196 250 299 386 439
#     4  11  23  48  72 104 150 191 246 315 367 447
#
# _framework density 23.48273
#
# number of rings (size 3 to 8) (size 9 to 14) (size 15 to 20)
#    0.000    0.571    4.286    2.571   10.000    1.143 
#    2.571    0.000    0.000    0.000    0.000    0.000 
#    0.000    0.000    0.000    0.000    0.000    0.000 
#
# Total GULP energy -156765.030872 kJ/mol
# GULP energy per Si atom -5598.751103 kJ/mol
# Density = 2.342928 g / cm^3
# Si number density = 23.482730 Si / 1000 Ang^3
#
#
#
# Elastic Constant Matrix: (Units=GPa)
#
#
# Indices 1 2 3 4 5 6 
#
# 1 152.3949 20.2411 10.8565 0.0000 16.5510 0.0000
# 2 20.2411 79.3174 5.0455 0.0000 1.2219 0.0000
# 3 10.8565 5.0455 66.2330 0.0000 -0.0323 0.0000
# 4 0.0000 0.0000 0.0000 33.1496 0.0000 -8.6147
# 5 16.5510 1.2219 -0.0323 0.0000 32.0594 0.0000
# 6 0.0000 0.0000 0.0000 -8.6147 0.0000 38.2932
#
#
#
# Elastic Compliance Matrix: (Units=1/GPa)
#
#
# Indices 1 2 3 4 5 6 
#
# 1 0.007268 -0.001730 -0.001061 0.000000 -0.003687 0.000000
# 2 -0.001730 0.013088 -0.000713 0.000000 0.000394 0.000000
# 3 -0.001061 -0.000713 0.015327 0.000000 0.000591 0.000000
# 4 0.000000 0.000000 0.000000 0.032039 0.000000 0.007208
# 5 -0.003687 0.000394 0.000591 0.000000 0.033081 0.000000
# 6 0.000000 0.000000 0.000000 0.007208 0.000000 0.027736
#
#
# Mechanical properties :
#
#
# Convention : Reuss Voigt Hill
#
# Bulk Modulus (GPa) = 34.87564 41.13682 38.00623
# Shear Modulus (GPa) = 34.45735 38.15393 36.30564
#
# Velocity S-wave (km/s) = 3.83475 4.03521 3.93626
# Velocity P-wave (km/s) = 5.87290 6.26630 6.07279
#
# Compressibility (1/GPa) = 0.02867331
#
# Stress axis : x y z
#
# Youngs Moduli (GPa) = 137.59350 76.40320 65.24521
#
# Poissons Ratio (x) = 0.13221 0.06924
# Poissons Ratio (y) = 0.23809 0.04653
# Poissons Ratio (z) = 0.14603 0.05449
#
# Static dielectric constant tensor:
#      x y z
#    x 1.895460 0.000000 0.004440 
#    y 0.000000 1.945310 0.000000 
#    z 0.004440 0.000000 1.905280 
# 
# From -- ./inp_files/10420.got.cif
#   From: 2010.05.17/outbox.cif.g08.bks.cpg/sg14_6_cif.got.tgz:10420.got - 2010.06.03 17:49:19.
