data_PCOD9252616
_publ_section_title
;
Structure prediction by ZEFSAII (Michael W. Deem and Ramdas Pophale) SiO2 
 PCOD9252616
Probable space group: P 21/C
;
_chemical_formula_sum "Si O2"
_cell_formula_units_Z 20
_cell_length_a 17.865402
_cell_length_b 4.806740
_cell_length_c 28.457317
_cell_angle_alpha 90.000000
_cell_angle_beta 20.438044
_cell_angle_gamma 90.000000
_cell_volume 853.344799
_symmetry_space_group_name_H-M "P 21/C"
_symmetry_group_IT_number 14
_symmetry_cell_setting 'monoclinic'
loop_
_space_group_symop_operation_xyz
x,y,z
-x,1/2+y,1/2-z
-x,-y,-z
x,1/2-y,1/2+z
loop_
_atom_site_type_symbol
_atom_site_label
_atom_site_fract_x
_atom_site_fract_y
_atom_site_fract_z
Si Si1 0.074646 0.702330 0.913915
Si Si2 0.801079 0.641623 0.249670
Si Si3 0.534977 0.136358 0.428259
Si Si4 0.645726 0.491630 0.677575
Si Si5 0.077515 0.969755 0.675017
O O1 0.137054 0.502329 0.834947
O O2 0.270425 0.877808 0.821415
O O3 0.000000 0.500000 0.000000
O O4 0.867227 0.893594 0.024538
O O5 0.608917 0.452803 0.383878
O O6 0.987191 0.623989 0.178506
O O7 0.719383 0.954878 0.295015
O O8 0.312367 0.094605 0.533045
O O9 0.500000 0.000000 0.500000
O O10 0.473817 0.741850 0.779289
O O11 0.931971 0.210234 0.783833
#
# Coordination Sequence:
#
# PCOD9252616 Si02
#       5
#     4   4   4   4   4
#     4  11  27  49  75 107 154 191 248 312 360 445
#     4  12  27  45  72 105 140 191 236 288 370 425
#     4  12  24  44  73 100 143 183 235 297 355 426
#     4  11  24  47  78 101 145 197 244 306 376 425
#     4  12  23  44  71  99 140 185 229 292 354 420
#
# _framework density 23.437186000000001
#
# number of rings (size 3 to 8) (size 9 to 14) (size 15 to 20)
#    0.000    0.400    6.000    1.800    5.600    1.600 
#    3.600    0.000    0.000    0.000    0.000    0.000 
#    0.000    0.000    0.000    0.000    0.000    0.000 
#
# Total GULP energy -112058.199172 kJ/mol
# GULP energy per Si atom -5602.909959 kJ/mol
# Density = 2.338384 g / cm^3
# Si number density = 23.437186 Si / 1000 Ang^3
#
#
#
# Elastic Constant Matrix: (Units=GPa)
#
#
# Indices 1 2 3 4 5 6 
#
# 1 92.5815 11.3957 51.3670 0.0000 -17.8360 0.0000
# 2 11.3957 109.0758 8.8790 0.0000 -5.3169 0.0000
# 3 51.3670 8.8790 62.6644 0.0000 -12.3080 0.0000
# 4 0.0000 0.0000 0.0000 51.7970 0.0000 -6.6468
# 5 -17.8360 -5.3169 -12.3080 0.0000 59.9469 0.0000
# 6 0.0000 0.0000 0.0000 -6.6468 0.0000 31.3424
#
#
#
# Elastic Compliance Matrix: (Units=1/GPa)
#
#
# Indices 1 2 3 4 5 6 
#
# 1 0.020280 -0.000685 -0.015999 0.000000 0.002688 0.000000
# 2 -0.000685 0.009317 -0.000663 0.000000 0.000486 0.000000
# 3 -0.015999 -0.000663 0.029406 0.000000 0.001218 0.000000
# 4 0.000000 0.000000 0.000000 0.019846 0.000000 0.004209
# 5 0.002688 0.000486 0.001218 0.000000 0.017775 0.000000
# 6 0.000000 0.000000 0.000000 0.004209 0.000000 0.032798
#
#
# Mechanical properties :
#
#
# Convention : Reuss Voigt Hill
#
# Bulk Modulus (GPa) = 41.13693 45.28947 43.21320
# Shear Modulus (GPa) = 29.03274 41.46259 35.24767
#
# Velocity S-wave (km/s) = 3.52340 4.21062 3.88225
# Velocity P-wave (km/s) = 5.84316 6.55781 6.21077
#
# Compressibility (1/GPa) = 0.02430906
#
# Stress axis : x y z
#
# Youngs Moduli (GPa) = 49.30912 107.32832 34.00694
#
# Poissons Ratio (x) = 0.07356 0.54407
# Poissons Ratio (y) = 0.03380 0.02254
# Poissons Ratio (z) = 0.78889 0.07114
#
# Static dielectric constant tensor:
#      x y z
#    x 1.839840 0.000000 0.022280 
#    y 0.000000 1.874780 0.000000 
#    z 0.022280 0.000000 1.864930 
# 
# From -- ./inp_files/77691.got.cif
#   From: 2010.05.17/outbox.cif.g08.bks.cpg/sg14_39_cif.got.tgz:77691.got - 2010.06.03 17:49:19.
