data_PCOD9252645
_publ_section_title
;
Structure prediction by ZEFSAII (Michael W. Deem and Ramdas Pophale) SiO2 
 PCOD9252645
Probable space group: P 21/C
;
_chemical_formula_sum "Si O2"
_cell_formula_units_Z 12
_cell_length_a 20.531888
_cell_length_b 5.099871
_cell_length_c 9.352953
_cell_angle_alpha 90.000000
_cell_angle_beta 26.032365
_cell_angle_gamma 90.000000
_cell_volume 429.814850
_symmetry_space_group_name_H-M "P 21/C"
_symmetry_group_IT_number 14
_symmetry_cell_setting 'monoclinic'
loop_
_space_group_symop_operation_xyz
x,y,z
-x,1/2+y,1/2-z
-x,-y,-z
x,1/2-y,1/2+z
loop_
_atom_site_type_symbol
_atom_site_label
_atom_site_fract_x
_atom_site_fract_y
_atom_site_fract_z
Si Si1 0.117537 0.803591 0.695346
Si Si2 0.821703 0.912143 0.690115
Si Si3 0.449472 0.070127 0.260152
O O1 0.206307 0.615395 0.626230
O O2 0.212284 0.965013 0.396074
O O3 0.000079 0.620258 0.841806
O O4 0.000000 0.000000 0.000000
O O5 0.724557 0.654303 0.902220
O O6 0.519875 0.332209 0.191923
O O7 0.500000 0.000000 0.000000
#
# Coordination Sequence:
#
# PCOD9252645 Si02
#       3
#     4   4   4
#     4  11  24  48  81 123 168 217 275 366 431 509
#     4  11  27  48  83 124 169 222 290 349 441 510
#     4  12  32  59  89 123 174 240 294 357 426 518
#
# _framework density 27.918997000000001
#
# number of rings (size 3 to 8) (size 9 to 14) (size 15 to 20)
#    0.000    0.667    3.333    1.000    9.333    2.667 
#    0.000    0.000    0.000    0.000    0.000    0.000 
#    0.000    0.000    0.000    0.000    0.000    0.000 
#
# Total GULP energy -67430.581626 kJ/mol
# GULP energy per Si atom -5619.215136 kJ/mol
# Density = 2.785545 g / cm^3
# Si number density = 27.918997 Si / 1000 Ang^3
#
#
#
# Elastic Constant Matrix: (Units=GPa)
#
#
# Indices 1 2 3 4 5 6 
#
# 1 171.2443 74.3255 58.8389 0.0000 15.4576 0.0000
# 2 74.3255 181.2495 51.9339 0.0000 18.0405 0.0000
# 3 58.8389 51.9339 138.3254 0.0000 18.2235 0.0000
# 4 0.0000 0.0000 0.0000 72.2486 0.0000 -5.9964
# 5 15.4576 18.0405 18.2235 0.0000 54.7646 0.0000
# 6 0.0000 0.0000 0.0000 -5.9964 0.0000 77.8209
#
#
#
# Elastic Compliance Matrix: (Units=1/GPa)
#
#
# Indices 1 2 3 4 5 6 
#
# 1 0.007751 -0.002460 -0.002292 0.000000 -0.000614 0.000000
# 2 -0.002460 0.007056 -0.001452 0.000000 -0.001147 0.000000
# 3 -0.002292 -0.001452 0.008995 0.000000 -0.001868 0.000000
# 4 0.000000 0.000000 0.000000 0.013930 0.000000 0.001073
# 5 -0.000614 -0.001147 -0.001868 0.000000 0.019433 0.000000
# 6 0.000000 0.000000 0.000000 0.001073 0.000000 0.012933
#
#
# Mechanical properties :
#
#
# Convention : Reuss Voigt Hill
#
# Bulk Modulus (GPa) = 87.76494 95.66842 91.71668
# Shear Modulus (GPa) = 57.93460 61.34821 59.64140
#
# Velocity S-wave (km/s) = 4.56026 4.69269 4.62695
# Velocity P-wave (km/s) = 7.69622 7.98139 7.84010
#
# Compressibility (1/GPa) = 0.01139407
#
# Stress axis : x y z
#
# Youngs Moduli (GPa) = 129.02377 141.71785 111.16733
#
# Poissons Ratio (x) = 0.34868 0.25481
# Poissons Ratio (y) = 0.31744 0.16137
# Poissons Ratio (z) = 0.29574 0.20572
#
# Static dielectric constant tensor:
#      x y z
#    x 2.280960 0.000000 -0.148460 
#    y 0.000000 2.188360 0.000000 
#    z -0.148460 0.000000 2.182890 
# 
# From -- ./inp_files/14691.got.cif
#   From: 2010.05.17/outbox.cif.g08.bks.cpg/sg14_8_cif.got.tgz:14691.got - 2010.06.03 17:49:19.
