data_PCOD9252665
_publ_section_title
;
Structure prediction by ZEFSAII (Michael W. Deem and Ramdas Pophale) SiO2 
 PCOD9252665
Probable space group: P 21/C
;
_chemical_formula_sum "Si O2"
_cell_formula_units_Z 24
_cell_length_a 15.501781
_cell_length_b 5.056697
_cell_length_c 13.238696
_cell_angle_alpha 90.000000
_cell_angle_beta 117.211135
_cell_angle_gamma 90.000000
_cell_volume 922.901753
_symmetry_space_group_name_H-M "P 21/C"
_symmetry_group_IT_number 14
_symmetry_cell_setting 'monoclinic'
loop_
_space_group_symop_operation_xyz
x,y,z
-x,1/2+y,1/2-z
-x,-y,-z
x,1/2-y,1/2+z
loop_
_atom_site_type_symbol
_atom_site_label
_atom_site_fract_x
_atom_site_fract_y
_atom_site_fract_z
Si Si1 0.441689 0.511701 0.691684
Si Si2 0.890602 0.947792 0.908789
Si Si3 0.234248 0.122258 0.509677
Si Si4 0.717861 0.256191 0.777861
Si Si5 0.063352 0.139821 0.272669
Si Si6 0.601597 0.135716 0.523643
O O1 0.488308 0.225513 0.716973
O O2 0.345764 0.517128 0.707866
O O3 0.420842 0.646191 0.573729
O O4 0.824356 0.862218 0.968010
O O5 0.895442 0.759872 0.813478
O O6 0.829483 0.183056 0.825838
O O7 0.000000 0.000000 0.000000
O O8 0.144893 0.024822 0.391820
O O9 0.276060 0.965575 0.628696
O O10 0.324542 0.089219 0.480659
O O11 0.659880 0.291752 0.643277
O O12 0.008639 0.395701 0.285781
O O13 0.500000 0.000000 0.500000
#
# Coordination Sequence:
#
# PCOD9252665 Si02
#       6
#     4   4   4   4   4   4
#     4  11  26  49  78 114 157 203 265 334 404 484
#     4  12  26  49  79 112 163 211 270 338 407 486
#     4  11  27  48  76 115 161 213 269 341 405 494
#     4  11  26  46  75 114 155 210 267 330 407 481
#     4  12  27  49  82 118 159 212 272 334 412 488
#     4  11  24  49  78 117 156 212 269 336 409 490
#
# _framework density 26.004932
#
# number of rings (size 3 to 8) (size 9 to 14) (size 15 to 20)
#    0.000    0.667    5.000    1.000    7.000    2.000 
#    6.000    0.000    0.000    0.000    0.000    0.000 
#    0.000    0.000    0.000    0.000    0.000    0.000 
#
# Total GULP energy -133994.554536 kJ/mol
# GULP energy per Si atom -5583.106439 kJ/mol
# Density = 2.594574 g / cm^3
# Si number density = 26.004932 Si / 1000 Ang^3
#
#
#
# Elastic Constant Matrix: (Units=GPa)
#
#
# Indices 1 2 3 4 5 6 
#
# 1 93.1718 33.0148 44.1294 0.0000 22.2096 0.0000
# 2 33.0148 74.0186 28.8569 0.0000 21.8400 0.0000
# 3 44.1294 28.8569 227.6623 0.0000 21.1980 0.0000
# 4 0.0000 0.0000 0.0000 -0.1475 0.0000 1.3212
# 5 22.2096 21.8400 21.1980 0.0000 53.3765 0.0000
# 6 0.0000 0.0000 0.0000 1.3212 0.0000 37.6580
#
#
#
# Elastic Compliance Matrix: (Units=1/GPa)
#
#
# Indices 1 2 3 4 5 6 
#
# 1 0.013990 -0.004575 -0.001832 0.000000 -0.003221 0.000000
# 2 -0.004575 0.017313 -0.000857 0.000000 -0.004840 0.000000
# 3 -0.001832 -0.000857 0.004935 0.000000 -0.000847 0.000000
# 4 0.000000 0.000000 0.000000 -5.158321 0.000000 0.180971
# 5 -0.003221 -0.004840 -0.000847 0.000000 0.022392 0.000000
# 6 0.000000 0.000000 0.000000 0.180971 0.000000 0.020206
#
#
# Mechanical properties :
#
#
# Convention : Reuss Voigt Hill
#
# Bulk Modulus (GPa) = 46.06245 67.42833 56.74539
# Shear Modulus (GPa) = -0.98859 37.43415 18.22278
#
# Velocity S-wave (km/s) = -0.61724 3.79819 2.65003
# Velocity P-wave (km/s) = 4.15252 6.72461 5.58855
#
# Compressibility (1/GPa) = 0.02170966
#
# Stress axis : x y z
#
# Youngs Moduli (GPa) = 71.48186 57.76019 202.63245
#
# Poissons Ratio (x) = 0.26426 0.37119
# Poissons Ratio (y) = 0.32704 0.17365
# Poissons Ratio (z) = 0.13094 0.04950
#
# Static dielectric constant tensor:
#      x y z
#    x 2.357050 0.000000 -0.101770 
#    y 0.000000 2.079720 0.000000 
#    z -0.101770 0.000000 2.090210 
# 
# From -- ./inp_files/45989.got.cif
#   From: 2010.05.17/outbox.cif.g08.bks.cpg/sg14_23_cif.got.tgz:45989.got - 2010.06.03 17:49:19.
