data_PCOD9252393
_publ_section_title
;
Structure prediction by ZEFSAII (Michael W. Deem and Ramdas Pophale) SiO2 
 PCOD9252393
Probable space group: P 21/C
;
_chemical_formula_sum "Si O2"
_cell_formula_units_Z 24
_cell_length_a 26.263687
_cell_length_b 5.071929
_cell_length_c 14.228870
_cell_angle_alpha 90.000000
_cell_angle_beta 27.925528
_cell_angle_gamma 90.000000
_cell_volume 887.657133
_symmetry_space_group_name_H-M "P 21/C"
_symmetry_group_IT_number 14
_symmetry_cell_setting 'monoclinic'
loop_
_space_group_symop_operation_xyz
x,y,z
-x,1/2+y,1/2-z
-x,-y,-z
x,1/2-y,1/2+z
loop_
_atom_site_type_symbol
_atom_site_label
_atom_site_fract_x
_atom_site_fract_y
_atom_site_fract_z
Si Si1 0.685235 0.295740 0.024317
Si Si2 0.173943 0.022295 0.424527
Si Si3 0.389842 0.282787 0.237380
Si Si4 0.039400 0.233190 0.802051
Si Si5 0.128068 0.366125 0.342710
Si Si6 0.368837 0.624679 0.099841
O O1 0.657563 0.514398 0.146485
O O2 0.654787 0.018761 0.121703
O O3 0.809414 0.372832 0.794716
O O4 0.623167 0.358708 0.026945
O O5 0.139108 0.191466 0.570420
O O6 0.260767 0.793956 0.297720
O O7 0.056545 0.903281 0.584884
O O8 0.205780 0.207849 0.285522
O O9 0.365111 0.358140 0.169295
O O10 0.519105 0.260090 0.042247
O O11 0.090856 0.310902 0.817081
O O12 0.977756 0.960292 0.928220
#
# Coordination Sequence:
#
# PCOD9252393 Si02
#       6
#     4   4   4   4   4   4
#     4  12  25  48  75 110 148 199 250 318 392 465
#     4  12  23  46  72 107 152 207 260 318 389 468
#     4  11  28  48  75 112 150 192 258 322 390 463
#     4  11  24  43  66 106 148 202 253 317 380 460
#     4  11  25  42  70 102 152 196 258 314 388 460
#     4  11  26  48  76 107 147 197 255 319 390 466
#
# _framework density 27.037468000000001
#
# number of rings (size 3 to 8) (size 9 to 14) (size 15 to 20)
#    0.000    0.667    3.333    3.500    0.000    9.333 
#    0.000    0.000    0.000    0.000    0.000    0.000 
#    0.000    0.000    0.000    0.000    0.000    0.000 
#
# Total GULP energy -134601.522383 kJ/mol
# GULP energy per Si atom -5608.396766 kJ/mol
# Density = 2.697593 g / cm^3
# Si number density = 27.037468 Si / 1000 Ang^3
#
#
#
# Elastic Constant Matrix: (Units=GPa)
#
#
# Indices 1 2 3 4 5 6 
#
# 1 191.9179 28.6716 23.6535 0.0000 5.6804 0.0000
# 2 28.6716 102.0693 28.5597 0.0000 4.0727 0.0000
# 3 23.6535 28.5597 105.6437 0.0000 -9.5570 0.0000
# 4 0.0000 0.0000 0.0000 45.6822 0.0000 2.4209
# 5 5.6804 4.0727 -9.5570 0.0000 53.5458 0.0000
# 6 0.0000 0.0000 0.0000 2.4209 0.0000 39.4646
#
#
#
# Elastic Compliance Matrix: (Units=1/GPa)
#
#
# Indices 1 2 3 4 5 6 
#
# 1 0.005537 -0.001261 -0.000959 0.000000 -0.000663 0.000000
# 2 -0.001261 0.010981 -0.002795 0.000000 -0.001200 0.000000
# 3 -0.000959 -0.002795 0.010636 0.000000 0.002213 0.000000
# 4 0.000000 0.000000 0.000000 0.021962 0.000000 -0.001347
# 5 -0.000663 -0.001200 0.002213 0.000000 0.019232 0.000000
# 6 0.000000 0.000000 0.000000 -0.001347 0.000000 0.025422
#
#
# Mechanical properties :
#
#
# Convention : Reuss Voigt Hill
#
# Bulk Modulus (GPa) = 58.39277 62.37783 60.38530
# Shear Modulus (GPa) = 45.65909 48.98826 47.32367
#
# Velocity S-wave (km/s) = 4.11388 4.26122 4.18820
# Velocity P-wave (km/s) = 6.64900 6.87980 6.76538
#
# Compressibility (1/GPa) = 0.01712541
#
# Stress axis : x y z
#
# Youngs Moduli (GPa) = 180.61413 91.06372 94.01818
#
# Poissons Ratio (x) = 0.11479 0.09015
# Poissons Ratio (y) = 0.22767 0.26279
# Poissons Ratio (z) = 0.17318 0.25453
#
# Static dielectric constant tensor:
#      x y z
#    x 2.148330 0.000000 0.015450 
#    y 0.000000 2.100480 0.000000 
#    z 0.015450 0.000000 2.088130 
# 
# From -- ./inp_files/51652.got.cif
#   From: 2010.05.17/outbox.cif.g08.bks.cpg/sg14_26_cif.got.tgz:51652.got - 2010.06.03 17:49:19.
