data_PCOD9252963
_publ_section_title
;
Structure prediction by ZEFSAII (Michael W. Deem and Ramdas Pophale) SiO2 
 PCOD9252963
Probable space group: P 21/C
;
_chemical_formula_sum "Si O2"
_cell_formula_units_Z 24
_cell_length_a 15.792292
_cell_length_b 4.939493
_cell_length_c 22.894852
_cell_angle_alpha 90.000000
_cell_angle_beta 148.554658
_cell_angle_gamma 90.000000
_cell_volume 931.694819
_symmetry_space_group_name_H-M "P 21/C"
_symmetry_group_IT_number 14
_symmetry_cell_setting 'monoclinic'
loop_
_space_group_symop_operation_xyz
x,y,z
-x,1/2+y,1/2-z
-x,-y,-z
x,1/2-y,1/2+z
loop_
_atom_site_type_symbol
_atom_site_label
_atom_site_fract_x
_atom_site_fract_y
_atom_site_fract_z
Si Si1 0.634616 0.194774 0.606400
Si Si2 0.870695 0.307886 0.956269
Si Si3 0.470452 0.442088 0.357088
Si Si4 0.319385 0.435300 0.055384
Si Si5 0.094413 0.933043 0.319911
Si Si6 0.184270 0.091155 0.178809
O O1 0.548886 0.444273 0.588737
O O2 0.767689 0.229896 0.634682
O O3 0.500000 0.000000 0.500000
O O4 0.735054 0.053894 0.718491
O O5 0.712265 0.634380 0.768648
O O6 0.742197 0.473421 0.917978
O O7 0.798424 0.092602 0.868639
O O8 0.992370 0.144085 0.071659
O O9 0.565504 0.165507 0.403613
O O10 0.575871 0.663409 0.384734
O O11 0.166269 0.438100 0.921296
O O12 0.962891 0.695715 0.250516
O O13 0.000000 0.500000 0.000000
#
# Coordination Sequence:
#
# PCOD9252963 Si02
#       6
#     4   4   4   4   4   4
#     4  12  26  50  81 116 165 207 268 329 417 485
#     4  11  28  52  80 115 164 215 272 340 407 487
#     4  12  26  52  78 118 159 213 267 336 409 487
#     4  12  28  51  77 117 163 209 279 335 409 487
#     4  12  28  45  77 117 158 211 270 338 403 490
#     4  11  26  51  80 118 157 218 266 330 413 484
#
# _framework density 25.759511
#
# number of rings (size 3 to 8) (size 9 to 14) (size 15 to 20)
#    0.000    0.333    3.333    3.000   11.667    1.333 
#    6.000    0.000    0.000    0.000    0.000    0.000 
#    0.000    0.000    0.000    0.000    0.000    0.000 
#
# Total GULP energy -134568.832193 kJ/mol
# GULP energy per Si atom -5607.034675 kJ/mol
# Density = 2.570088 g / cm^3
# Si number density = 25.759511 Si / 1000 Ang^3
#
#
#
# Elastic Constant Matrix: (Units=GPa)
#
#
# Indices 1 2 3 4 5 6 
#
# 1 92.6868 -7.4739 1.1544 0.0000 -17.4993 0.0000
# 2 -7.4739 107.9469 20.7131 0.0000 -2.4151 0.0000
# 3 1.1544 20.7131 119.0670 0.0000 -18.8322 0.0000
# 4 0.0000 0.0000 0.0000 55.9374 0.0000 9.2053
# 5 -17.4993 -2.4151 -18.8322 0.0000 28.5611 0.0000
# 6 0.0000 0.0000 0.0000 9.2053 0.0000 50.4619
#
#
#
# Elastic Compliance Matrix: (Units=1/GPa)
#
#
# Indices 1 2 3 4 5 6 
#
# 1 0.012427 0.000845 0.001058 0.000000 0.008383 0.000000
# 2 0.000845 0.009644 -0.001647 0.000000 0.000247 0.000000
# 3 0.001058 -0.001647 0.009775 0.000000 0.006954 0.000000
# 4 0.000000 0.000000 0.000000 0.018430 0.000000 -0.003362
# 5 0.008383 0.000247 0.006954 0.000000 0.044756 0.000000
# 6 0.000000 0.000000 0.000000 -0.003362 0.000000 0.020430
#
#
# Mechanical properties :
#
#
# Convention : Reuss Voigt Hill
#
# Bulk Modulus (GPa) = 30.90378 38.72088 34.81233
# Shear Modulus (GPa) = 39.76635 47.34589 43.55612
#
# Velocity S-wave (km/s) = 3.93333 4.29184 4.11649
# Velocity P-wave (km/s) = 5.71412 6.29477 6.01146
#
# Compressibility (1/GPa) = 0.03235850
#
# Stress axis : x y z
#
# Youngs Moduli (GPa) = 80.47182 103.69340 102.30404
#
# Poissons Ratio (x) = -0.08760 -0.10829
# Poissons Ratio (y) = -0.06799 0.16847
# Poissons Ratio (z) = -0.08518 0.17075
#
# Static dielectric constant tensor:
#      x y z
#    x 1.993020 0.000000 -0.001220 
#    y 0.000000 2.077830 0.000000 
#    z -0.001220 0.000000 2.134230 
# 
# From -- ./inp_files/74079.got.cif
#   From: 2010.05.17/outbox.cif.g08.bks.cpg/sg14_38_cif.got.tgz:74079.got - 2010.06.03 17:49:19.
