data_PCOD9252266
_publ_section_title
;
Structure prediction by ZEFSAII (Michael W. Deem and Ramdas Pophale) SiO2 
 PCOD9252266
Probable space group: P 21/C
;
_chemical_formula_sum "Si O2"
_cell_formula_units_Z 24
_cell_length_a 10.913224
_cell_length_b 8.845392
_cell_length_c 12.240800
_cell_angle_alpha 90.000000
_cell_angle_beta 83.093902
_cell_angle_gamma 90.000000
_cell_volume 1173.052549
_symmetry_space_group_name_H-M "P 21/C"
_symmetry_group_IT_number 14
_symmetry_cell_setting 'monoclinic'
loop_
_space_group_symop_operation_xyz
x,y,z
-x,1/2+y,1/2-z
-x,-y,-z
x,1/2-y,1/2+z
loop_
_atom_site_type_symbol
_atom_site_label
_atom_site_fract_x
_atom_site_fract_y
_atom_site_fract_z
Si Si1 0.365730 0.441018 0.047673
Si Si2 0.742599 0.926556 0.210779
Si Si3 0.812209 0.600518 0.281049
Si Si4 0.871442 0.431337 0.058632
Si Si5 0.368340 0.078621 0.014282
Si Si6 0.956087 0.391374 0.601826
O O1 0.340385 0.474506 0.178118
O O2 0.369236 0.260373 0.028134
O O3 0.500000 0.500000 0.000000
O O4 0.249207 0.510991 0.994223
O O5 0.761076 0.747446 0.224369
O O6 0.871296 0.015585 0.194787
O O7 0.689777 0.956335 0.096755
O O8 0.856186 0.485184 0.184970
O O9 0.713589 0.527083 0.373865
O O10 0.922844 0.659381 0.345706
O O11 0.885769 0.251083 0.058816
O O12 0.000000 0.500000 0.000000
O O13 0.500000 0.000000 0.000000
O O14 0.000000 0.500000 0.500000
#
# Coordination Sequence:
#
# PCOD9252266 Si02
#       6
#     4   4   4   4   4   4
#     4  11  27  45  69 104 140 180 231 286 348 420
#     4  11  24  46  68  99 138 176 230 286 342 416
#     4  11  23  46  70  99 139 182 228 293 350 413
#     4  12  25  45  70 101 144 183 229 291 353 410
#     4  11  25  44  72  99 138 183 228 284 348 415
#     4  12  24  41  73 104 136 179 236 287 347 422
#
# _framework density 20.459441000000002
#
# number of rings (size 3 to 8) (size 9 to 14) (size 15 to 20)
#    0.000    0.667    3.333    5.000    4.667    2.667 
#    0.000    0.000    0.000    0.000    0.000    0.000 
#    0.000    0.000    0.000    0.000    0.000    0.000 
#
# Total GULP energy -134202.976413 kJ/mol
# GULP energy per Si atom -5591.790684 kJ/mol
# Density = 2.041287 g / cm^3
# Si number density = 20.459441 Si / 1000 Ang^3
#
#
#
# Elastic Constant Matrix: (Units=GPa)
#
#
# Indices 1 2 3 4 5 6 
#
# 1 141.8772 38.3423 69.3356 0.0000 -23.5051 0.0000
# 2 38.3423 87.2544 49.0867 0.0000 -14.2969 0.0000
# 3 69.3356 49.0867 139.2130 0.0000 -30.4039 0.0000
# 4 0.0000 0.0000 0.0000 26.1627 0.0000 -6.3031
# 5 -23.5051 -14.2969 -30.4039 0.0000 48.5357 0.0000
# 6 0.0000 0.0000 0.0000 -6.3031 0.0000 37.8036
#
#
#
# Elastic Compliance Matrix: (Units=1/GPa)
#
#
# Indices 1 2 3 4 5 6 
#
# 1 0.009692 -0.001834 -0.003792 0.000000 0.001778 0.000000
# 2 -0.001834 0.014707 -0.004078 0.000000 0.000889 0.000000
# 3 -0.003792 -0.004078 0.011407 0.000000 0.004108 0.000000
# 4 0.000000 0.000000 0.000000 0.039822 0.000000 0.006640
# 5 0.001778 0.000889 0.004108 0.000000 0.024300 0.000000
# 6 0.000000 0.000000 0.000000 0.006640 0.000000 0.027560
#
#
# Mechanical properties :
#
#
# Convention : Reuss Voigt Hill
#
# Bulk Modulus (GPa) = 60.98638 75.76375 68.37506
# Shear Modulus (GPa) = 32.81703 36.60574 34.71138
#
# Velocity S-wave (km/s) = 4.00935 4.23447 4.12344
# Velocity P-wave (km/s) = 7.16284 7.81148 7.49418
#
# Compressibility (1/GPa) = 0.01639710
#
# Stress axis : x y z
#
# Youngs Moduli (GPa) = 103.18060 67.99713 87.66688
#
# Poissons Ratio (x) = 0.12473 0.33243
# Poissons Ratio (y) = 0.18926 0.35748
# Poissons Ratio (z) = 0.39126 0.27727
#
# Static dielectric constant tensor:
#      x y z
#    x 1.765540 0.000000 -0.010320 
#    y 0.000000 1.726120 0.000000 
#    z -0.010320 0.000000 1.759750 
# 
# From -- ./inp_files/28099.got.cif
#   From: 2010.05.17/outbox.cif.g08.bks.cpg/sg14_15_cif.got.tgz:28099.got - 2010.06.03 17:49:19.
