data_PCOD9252443
_publ_section_title
;
Structure prediction by ZEFSAII (Michael W. Deem and Ramdas Pophale) SiO2 
 PCOD9252443
Probable space group: P 21/C
;
_chemical_formula_sum "Si O2"
_cell_formula_units_Z 32
_cell_length_a 13.787622
_cell_length_b 9.010033
_cell_length_c 10.964236
_cell_angle_alpha 90.000000
_cell_angle_beta 101.969404
_cell_angle_gamma 90.000000
_cell_volume 1332.440267
_symmetry_space_group_name_H-M "P 21/C"
_symmetry_group_IT_number 14
_symmetry_cell_setting 'monoclinic'
loop_
_space_group_symop_operation_xyz
x,y,z
-x,1/2+y,1/2-z
-x,-y,-z
x,1/2-y,1/2+z
loop_
_atom_site_type_symbol
_atom_site_label
_atom_site_fract_x
_atom_site_fract_y
_atom_site_fract_z
Si Si1 0.743531 0.210497 0.480524
Si Si2 0.426674 0.208939 0.122466
Si Si3 0.084669 0.378395 0.504848
Si Si4 0.350137 0.432036 0.924748
Si Si5 0.950771 0.126581 0.404258
Si Si6 0.231475 0.243268 0.721376
Si Si7 0.580665 0.101059 0.799636
Si Si8 0.809595 0.048680 0.165356
O O1 0.851644 0.185063 0.448663
O O2 0.674076 0.311574 0.377996
O O3 0.757367 0.299647 0.612144
O O4 0.689670 0.054862 0.492205
O O5 0.315288 0.222770 0.143920
O O6 0.496518 0.282615 0.242195
O O7 0.449480 0.034555 0.118952
O O8 0.425681 0.313790 0.003633
O O9 0.129216 0.297591 0.635073
O O10 0.169981 0.462800 0.454380
O O11 0.000000 0.500000 0.500000
O O12 0.032483 0.252603 0.411876
O O13 0.258163 0.339189 0.846749
O O14 0.394108 0.518440 0.820680
O O15 0.912119 0.079030 0.262088
O O16 0.000000 0.000000 0.500000
O O17 0.240760 0.070923 0.759580
#
# Coordination Sequence:
#
# PCOD9252443 Si02
#       8
#     4   4   4   4   4   4   4   4
#     4  12  26  47  69 104 140 184 232 295 341 420
#     4  11  24  46  73 104 143 185 232 289 347 417
#     4  12  27  46  68  98 140 182 234 289 347 412
#     4  11  24  43  76  97 143 180 233 281 358 403
#     4  12  28  46  66 103 135 184 236 288 345 419
#     4  11  25  47  68 104 137 184 230 293 342 420
#     4  11  25  47  71 106 143 182 235 288 348 417
#     4  12  26  44  70  96 141 181 234 280 363 405
#
# _framework density 24.016085
#
# number of rings (size 3 to 8) (size 9 to 14) (size 15 to 20)
#    0.000    0.500    2.500    5.625    7.000    2.000 
#    0.000    3.750    0.000    0.000    0.000    0.000 
#    0.000    0.000    0.000    0.000    0.000    0.000 
#
# Total GULP energy -179168.281102 kJ/mol
# GULP energy per Si atom -5599.008784 kJ/mol
# Density = 2.396142 g / cm^3
# Si number density = 24.016085 Si / 1000 Ang^3
#
#
#
# Elastic Constant Matrix: (Units=GPa)
#
#
# Indices 1 2 3 4 5 6 
#
# 1 53.8463 31.0470 34.8950 0.0000 20.7771 0.0000
# 2 31.0470 120.3771 52.0326 0.0000 18.1848 0.0000
# 3 34.8950 52.0326 130.0176 0.0000 27.0693 0.0000
# 4 0.0000 0.0000 0.0000 60.0376 0.0000 12.9641
# 5 20.7771 18.1848 27.0693 0.0000 43.5434 0.0000
# 6 0.0000 0.0000 0.0000 12.9641 0.0000 44.8446
#
#
#
# Elastic Compliance Matrix: (Units=1/GPa)
#
#
# Indices 1 2 3 4 5 6 
#
# 1 0.026643 -0.003927 -0.003761 0.000000 -0.008735 0.000000
# 2 -0.003927 0.010769 -0.003113 0.000000 -0.000689 0.000000
# 3 -0.003761 -0.003113 0.010685 0.000000 -0.003548 0.000000
# 4 0.000000 0.000000 0.000000 0.017765 0.000000 -0.005136
# 5 -0.008735 -0.000689 -0.003548 0.000000 0.029627 0.000000
# 6 0.000000 0.000000 0.000000 -0.005136 0.000000 0.023784
#
#
# Mechanical properties :
#
#
# Convention : Reuss Voigt Hill
#
# Bulk Modulus (GPa) = 37.73878 60.02113 48.87995
# Shear Modulus (GPa) = 33.39885 42.10288 37.75087
#
# Velocity S-wave (km/s) = 3.73324 4.19156 3.96902
# Velocity P-wave (km/s) = 5.85925 6.96217 6.43439
#
# Compressibility (1/GPa) = 0.02649794
#
# Stress axis : x y z
#
# Youngs Moduli (GPa) = 37.53334 92.85536 93.58982
#
# Poissons Ratio (x) = 0.36460 0.35195
# Poissons Ratio (y) = 0.14738 0.29131
# Poissons Ratio (z) = 0.14115 0.28902
#
# Static dielectric constant tensor:
#      x y z
#    x 1.901720 0.000000 -0.030920 
#    y 0.000000 2.008770 0.000000 
#    z -0.030920 0.000000 1.928950 
# 
# From -- ./inp_files/31868.got.cif
#   From: 2010.05.17/outbox.cif.g08.bks.cpg/sg14_16_cif.got.tgz:31868.got - 2010.06.03 17:49:19.
