data_PCOD9252848
_publ_section_title
;
Structure prediction by ZEFSAII (Michael W. Deem and Ramdas Pophale) SiO2 
 PCOD9252848
Probable space group: P 21/C
;
_chemical_formula_sum "Si O2"
_cell_formula_units_Z 32
_cell_length_a 14.622110
_cell_length_b 12.486644
_cell_length_c 9.318321
_cell_angle_alpha 90.000000
_cell_angle_beta 66.477845
_cell_angle_gamma 90.000000
_cell_volume 1559.976918
_symmetry_space_group_name_H-M "P 21/C"
_symmetry_group_IT_number 14
_symmetry_cell_setting 'monoclinic'
loop_
_space_group_symop_operation_xyz
x,y,z
-x,1/2+y,1/2-z
-x,-y,-z
x,1/2-y,1/2+z
loop_
_atom_site_type_symbol
_atom_site_label
_atom_site_fract_x
_atom_site_fract_y
_atom_site_fract_z
Si Si1 0.595529 0.544025 0.023577
Si Si2 0.701235 0.738584 0.435719
Si Si3 0.760246 0.360620 0.888809
Si Si4 0.601685 0.964725 0.860220
Si Si5 0.996812 0.104106 0.605453
Si Si6 0.768151 0.350525 0.221875
Si Si7 0.090539 0.018990 0.838760
Si Si8 0.838112 0.764405 0.108671
O O1 0.579558 0.557494 0.205211
O O2 0.500000 0.500000 0.000000
O O3 0.637698 0.656150 0.937624
O O4 0.679671 0.454705 0.946479
O O5 0.639106 0.635581 0.430474
O O6 0.804775 0.724918 0.285034
O O7 0.742788 0.758447 0.568677
O O8 0.727549 0.255408 0.824629
O O9 0.852678 0.412524 0.745402
O O10 0.781055 0.334905 0.042391
O O11 0.691048 0.052958 0.800471
O O12 0.500000 0.000000 0.000000
O O13 0.880918 0.129484 0.705697
O O14 0.051580 0.072722 0.717398
O O15 0.061868 0.202455 0.500217
O O16 0.000000 0.000000 0.500000
O O17 0.154344 0.108095 0.881806
O O18 0.000000 0.000000 0.000000
#
# Coordination Sequence:
#
# PCOD9252848 Si02
#       8
#     4   4   4   4   4   4   4   4
#     4  11  26  48  75 104 142 181 233 304 360 426
#     4  12  25  48  76 106 140 187 243 296 359 429
#     4  11  25  49  67 101 142 185 234 286 357 423
#     4  11  28  49  75 109 139 187 242 297 368 422
#     4  12  25  44  70 100 147 189 235 291 352 418
#     4  11  27  46  72 101 147 187 232 293 350 426
#     4  12  27  43  68 105 141 187 243 286 353 426
#     4  12  25  44  73 104 142 188 240 295 347 429
#
# _framework density 20.513124000000001
#
# number of rings (size 3 to 8) (size 9 to 14) (size 15 to 20)
#    0.000    0.500    5.000    1.500   10.500    1.000 
#    0.000    0.000    0.000    0.000    0.000    0.000 
#    0.000    0.000    0.000    0.000    0.000    0.000 
#
# Total GULP energy -178773.639715 kJ/mol
# GULP energy per Si atom -5586.676241 kJ/mol
# Density = 2.046644 g / cm^3
# Si number density = 20.513124 Si / 1000 Ang^3
#
#
#
# Elastic Constant Matrix: (Units=GPa)
#
#
# Indices 1 2 3 4 5 6 
#
# 1 82.1079 34.3557 17.3922 0.0000 -3.6495 0.0000
# 2 34.3557 109.3298 18.6527 0.0000 2.6860 0.0000
# 3 17.3922 18.6527 56.4163 0.0000 -12.6775 0.0000
# 4 0.0000 0.0000 0.0000 27.9222 0.0000 1.3553
# 5 -3.6495 2.6860 -12.6775 0.0000 30.3916 0.0000
# 6 0.0000 0.0000 0.0000 1.3553 0.0000 41.5887
#
#
#
# Elastic Compliance Matrix: (Units=1/GPa)
#
#
# Indices 1 2 3 4 5 6 
#
# 1 0.014553 -0.004094 -0.002934 0.000000 0.000886 0.000000
# 2 -0.004094 0.011009 -0.002987 0.000000 -0.002711 0.000000
# 3 -0.002934 -0.002987 0.021625 0.000000 0.008932 0.000000
# 4 0.000000 0.000000 0.000000 0.035871 0.000000 -0.001169
# 5 0.000886 -0.002711 0.008932 0.000000 0.036976 0.000000
# 6 0.000000 0.000000 0.000000 -0.001169 0.000000 0.024083
#
#
# Mechanical properties :
#
#
# Convention : Reuss Voigt Hill
#
# Bulk Modulus (GPa) = 36.82292 43.18390 40.00341
# Shear Modulus (GPa) = 28.86858 31.81072 30.33965
#
# Velocity S-wave (km/s) = 3.75550 3.94223 3.85000
# Velocity P-wave (km/s) = 6.06588 6.46677 6.26953
#
# Compressibility (1/GPa) = 0.02715700
#
# Stress axis : x y z
#
# Youngs Moduli (GPa) = 68.71407 90.83112 46.24384
#
# Poissons Ratio (x) = 0.37190 0.13567
# Poissons Ratio (y) = 0.28134 0.13813
# Poissons Ratio (z) = 0.20159 0.27130
#
# Static dielectric constant tensor:
#      x y z
#    x 1.758370 0.000000 0.010340 
#    y 0.000000 1.739330 0.000000 
#    z 0.010340 0.000000 1.723420 
# 
# From -- ./inp_files/15756.got.cif
#   From: 2010.05.17/outbox.cif.g08.bks.cpg/sg14_8_cif.got.tgz:15756.got - 2010.06.03 17:49:19.
