data_PCOD9252794
_publ_section_title
;
Structure prediction by ZEFSAII (Michael W. Deem and Ramdas Pophale) SiO2 
 PCOD9252794
Probable space group: P 21/C
;
_chemical_formula_sum "Si O2"
_cell_formula_units_Z 28
_cell_length_a 9.747049
_cell_length_b 8.550674
_cell_length_c 15.206162
_cell_angle_alpha 90.000000
_cell_angle_beta 105.128797
_cell_angle_gamma 90.000000
_cell_volume 1223.415909
_symmetry_space_group_name_H-M "P 21/C"
_symmetry_group_IT_number 14
_symmetry_cell_setting 'monoclinic'
loop_
_space_group_symop_operation_xyz
x,y,z
-x,1/2+y,1/2-z
-x,-y,-z
x,1/2-y,1/2+z
loop_
_atom_site_type_symbol
_atom_site_label
_atom_site_fract_x
_atom_site_fract_y
_atom_site_fract_z
Si Si1 0.354470 0.403144 0.470351
Si Si2 0.176784 0.095023 0.270767
Si Si3 0.069286 0.775230 0.216025
Si Si4 0.130779 0.676106 0.425690
Si Si5 0.243739 0.606614 0.096231
Si Si6 0.818637 0.749843 0.406901
Si Si7 0.450203 0.085172 0.402558
O O1 0.500000 0.500000 0.500000
O O2 0.225703 0.521846 0.428470
O O3 0.300983 0.323922 0.551627
O O4 0.392728 0.259102 0.413309
O O5 0.220179 0.211888 0.200372
O O6 0.313092 0.010707 0.334103
O O7 0.082286 0.191680 0.323997
O O8 0.077974 0.961132 0.211189
O O9 0.101965 0.743590 0.324008
O O10 0.177074 0.697643 0.166734
O O11 0.218543 0.792782 0.503824
O O12 0.975179 0.674711 0.446504
O O13 0.174844 0.435255 0.076922
O O14 0.412149 0.586710 0.135204
O O15 0.500000 0.000000 0.500000
#
# Coordination Sequence:
#
# PCOD9252794 Si02
#       7
#     4   4   4   4   4   4   4
#     4  12  26  44  73 103 151 188 255 297 382 449
#     4  11  27  46  73 106 148 189 254 314 373 447
#     4  11  26  47  74 109 145 190 257 311 378 441
#     4  11  25  46  75 110 144 196 250 322 371 448
#     4  12  25  47  74 106 152 196 245 311 384 450
#     4  11  26  46  74 107 143 196 255 306 384 438
#     4  12  27  48  72 106 145 203 240 307 378 460
#
# _framework density 22.886737
#
# number of rings (size 3 to 8) (size 9 to 14) (size 15 to 20)
#    0.000    0.571    2.857    4.286    8.000    2.286 
#    0.000    0.000    0.000    0.000    0.000    0.000 
#    0.000    0.000    0.000    0.000    0.000    0.000 
#
# Total GULP energy -156656.120942 kJ/mol
# GULP energy per Si atom -5594.861462 kJ/mol
# Density = 2.283465 g / cm^3
# Si number density = 22.886737 Si / 1000 Ang^3
#
#
#
# Elastic Constant Matrix: (Units=GPa)
#
#
# Indices 1 2 3 4 5 6 
#
# 1 139.2246 30.5129 12.0878 0.0000 8.1488 0.0000
# 2 30.5129 114.1756 2.7298 0.0000 -3.0501 0.0000
# 3 12.0878 2.7298 41.5215 0.0000 -0.1344 0.0000
# 4 0.0000 0.0000 0.0000 24.2627 0.0000 -6.9466
# 5 8.1488 -3.0501 -0.1344 0.0000 41.2575 0.0000
# 6 0.0000 0.0000 0.0000 -6.9466 0.0000 49.7290
#
#
#
# Elastic Compliance Matrix: (Units=1/GPa)
#
#
# Indices 1 2 3 4 5 6 
#
# 1 0.007937 -0.002115 -0.002177 0.000000 -0.001731 0.000000
# 2 -0.002115 0.009353 0.000004 0.000000 0.001109 0.000000
# 3 -0.002177 0.000004 0.024719 0.000000 0.000511 0.000000
# 4 0.000000 0.000000 0.000000 0.042933 0.000000 0.005997
# 5 -0.001731 0.001109 0.000511 0.000000 0.024664 0.000000
# 6 0.000000 0.000000 0.000000 0.005997 0.000000 0.020947
#
#
# Mechanical properties :
#
#
# Convention : Reuss Voigt Hill
#
# Bulk Modulus (GPa) = 29.91035 42.84253 36.37644
# Shear Modulus (GPa) = 33.27306 39.68925 36.48116
#
# Velocity S-wave (km/s) = 3.81703 4.16884 3.99681
# Velocity P-wave (km/s) = 5.70294 6.47552 6.10147
#
# Compressibility (1/GPa) = 0.03343325
#
# Stress axis : x y z
#
# Youngs Moduli (GPa) = 125.99938 106.91486 40.45460
#
# Poissons Ratio (x) = 0.22615 0.08807
# Poissons Ratio (y) = 0.26651 -0.00018
# Poissons Ratio (z) = 0.27431 -0.00047
#
# Static dielectric constant tensor:
#      x y z
#    x 1.873990 0.000000 0.066910 
#    y 0.000000 1.881130 0.000000 
#    z 0.066910 0.000000 1.877870 
# 
# From -- ./inp_files/54930.got.cif
#   From: 2010.05.17/outbox.cif.g08.bks.cpg/sg14_28_cif.got.tgz:54930.got - 2010.06.03 17:49:19.
