data_PCOD9252325
_publ_section_title
;
Structure prediction by ZEFSAII (Michael W. Deem and Ramdas Pophale) SiO2 
 PCOD9252325
Probable space group: P 21/C
;
_chemical_formula_sum "Si O2"
_cell_formula_units_Z 32
_cell_length_a 5.761503
_cell_length_b 9.052819
_cell_length_c 26.906683
_cell_angle_alpha 90.000000
_cell_angle_beta 108.986911
_cell_angle_gamma 90.000000
_cell_volume 1327.039977
_symmetry_space_group_name_H-M "P 21/C"
_symmetry_group_IT_number 14
_symmetry_cell_setting 'monoclinic'
loop_
_space_group_symop_operation_xyz
x,y,z
-x,1/2+y,1/2-z
-x,-y,-z
x,1/2-y,1/2+z
loop_
_atom_site_type_symbol
_atom_site_label
_atom_site_fract_x
_atom_site_fract_y
_atom_site_fract_z
Si Si1 0.896051 0.460049 0.090470
Si Si2 0.636107 0.820475 0.323329
Si Si3 0.924951 0.928392 0.143256
Si Si4 0.291965 0.519482 0.528468
Si Si5 0.340569 0.336738 0.841365
Si Si6 0.338523 0.469761 0.738838
Si Si7 0.163666 0.782548 0.581355
Si Si8 0.614840 0.288381 0.600443
O O1 0.783695 0.573582 0.122794
O O2 0.697004 0.332834 0.065433
O O3 0.112908 0.368857 0.132879
O O4 0.002276 0.573779 0.056927
O O5 0.620856 0.661009 0.296892
O O6 0.437357 0.806052 0.353711
O O7 0.563775 0.935141 0.275101
O O8 0.008040 0.841288 0.099915
O O9 0.713423 0.835166 0.154788
O O10 0.146063 0.927740 0.197510
O O11 0.825321 0.089624 0.123679
O O12 0.500000 0.500000 0.500000
O O13 0.304852 0.687044 0.550003
O O14 0.377904 0.388078 0.571442
O O15 0.000000 0.500000 0.500000
O O16 0.240128 0.394502 0.782370
O O17 0.632795 0.348651 0.866995
#
# Coordination Sequence:
#
# PCOD9252325 Si02
#       8
#     4   4   4   4   4   4   4   4
#     4  11  24  45  71 101 144 206 242 298 382 460
#     4  12  27  42  65 102 154 202 250 317 353 445
#     4  11  25  39  71 100 148 206 248 304 359 444
#     4  12  29  51  87 120 143 186 258 333 400 498
#     4  11  24  42  65  97 144 205 241 298 362 443
#     4  12  25  39  62 103 148 192 270 300 352 416
#     4  11  23  51  73 104 151 193 244 304 401 456
#     4  12  25  49  74 105 148 198 248 307 409 456
#
# _framework density 24.11382
#
# number of rings (size 3 to 8) (size 9 to 14) (size 15 to 20)
#    0.000    0.500    5.000    2.250   10.500    0.000 
#    0.000    1.250    0.000    0.000    0.000    0.000 
#    0.000    0.000    0.000    0.000    0.000    0.000 
#
# Total GULP energy -178803.798660 kJ/mol
# GULP energy per Si atom -5587.618708 kJ/mol
# Density = 2.405894 g / cm^3
# Si number density = 24.113820 Si / 1000 Ang^3
#
#
#
# Elastic Constant Matrix: (Units=GPa)
#
#
# Indices 1 2 3 4 5 6 
#
# 1 78.0353 35.6581 20.7719 0.0000 3.1989 0.0000
# 2 35.6581 127.7876 17.3361 0.0000 -1.0464 0.0000
# 3 20.7719 17.3361 58.5218 0.0000 1.8783 0.0000
# 4 0.0000 0.0000 0.0000 21.6440 0.0000 -9.0969
# 5 3.1989 -1.0464 1.8783 0.0000 27.5239 0.0000
# 6 0.0000 0.0000 0.0000 -9.0969 0.0000 61.9648
#
#
#
# Elastic Compliance Matrix: (Units=1/GPa)
#
#
# Indices 1 2 3 4 5 6 
#
# 1 0.015809 -0.003825 -0.004424 0.000000 -0.001681 0.000000
# 2 -0.003825 0.009085 -0.001362 0.000000 0.000883 0.000000
# 3 -0.004424 -0.001362 0.019088 0.000000 -0.000840 0.000000
# 4 0.000000 0.000000 0.000000 0.049240 0.000000 0.007229
# 5 -0.001681 0.000883 -0.000840 0.000000 0.036618 0.000000
# 6 0.000000 0.000000 0.000000 0.007229 0.000000 0.017199
#
#
# Mechanical properties :
#
#
# Convention : Reuss Voigt Hill
#
# Bulk Modulus (GPa) = 40.38774 45.76411 43.07593
# Shear Modulus (GPa) = 28.65064 34.93179 31.79121
#
# Velocity S-wave (km/s) = 3.45068 3.81020 3.63489
# Velocity P-wave (km/s) = 5.71502 6.19487 5.95978
#
# Compressibility (1/GPa) = 0.02475999
#
# Stress axis : x y z
#
# Youngs Moduli (GPa) = 63.25467 110.07401 52.38772
#
# Poissons Ratio (x) = 0.42103 0.23178
# Poissons Ratio (y) = 0.24195 0.07135
# Poissons Ratio (z) = 0.27986 0.14991
#
# Static dielectric constant tensor:
#      x y z
#    x 1.977580 0.000000 -0.019280 
#    y 0.000000 1.966470 0.000000 
#    z -0.019280 0.000000 1.911850 
# 
# From -- ./inp_files/78847.got.cif
#   From: 2010.05.17/outbox.cif.g08.bks.cpg/sg14_40_cif.got.tgz:78847.got - 2010.06.03 17:49:19.
