data_PCOD9252686
_publ_section_title
;
Structure prediction by ZEFSAII (Michael W. Deem and Ramdas Pophale) SiO2 
 PCOD9252686
Probable space group: P 21/C
;
_chemical_formula_sum "Si O2"
_cell_formula_units_Z 20
_cell_length_a 7.262747
_cell_length_b 14.590175
_cell_length_c 8.591091
_cell_angle_alpha 90.000000
_cell_angle_beta 60.206308
_cell_angle_gamma 90.000000
_cell_volume 790.022522
_symmetry_space_group_name_H-M "P 21/C"
_symmetry_group_IT_number 14
_symmetry_cell_setting 'monoclinic'
loop_
_space_group_symop_operation_xyz
x,y,z
-x,1/2+y,1/2-z
-x,-y,-z
x,1/2-y,1/2+z
loop_
_atom_site_type_symbol
_atom_site_label
_atom_site_fract_x
_atom_site_fract_y
_atom_site_fract_z
Si Si1 0.089913 0.061730 0.181621
Si Si2 0.656741 0.990822 0.205150
Si Si3 0.178260 0.724037 0.070768
Si Si4 0.934414 0.129296 0.683517
Si Si5 0.575462 0.635272 0.033756
O O1 0.879091 0.027345 0.180129
O O2 0.009644 0.159099 0.278872
O O3 0.114699 0.978491 0.295220
O O4 0.288002 0.057246 0.980537
O O5 0.503383 0.078217 0.282820
O O6 0.571246 0.924143 0.375520
O O7 0.113933 0.828756 0.125918
O O8 0.400116 0.709785 0.066269
O O9 0.193018 0.685842 0.891310
O O10 0.178607 0.153873 0.547574
#
# Coordination Sequence:
#
# PCOD9252686 Si02
#       5
#     4   4   4   4   4
#     4   9  19  39  65  89 129 158 211 252 312 364
#     4   8  16  35  68  92 115 170 202 257 309 367
#     4  11  25  42  65  93 127 165 207 260 308 369
#     4  11  25  42  65  93 127 165 207 260 308 369
#     4   9  20  40  64  89 130 160 208 251 318 361
#
# _framework density 25.315735
#
# number of rings (size 3 to 8) (size 9 to 14) (size 15 to 20)
#    0.000    2.400    0.000    1.800   11.200    1.600 
#    0.000    2.000    0.000    0.000    0.000    0.000 
#    0.000    0.000    0.000    0.000    0.000    0.000 
#
# Total GULP energy -111731.412600 kJ/mol
# GULP energy per Si atom -5586.570630 kJ/mol
# Density = 2.525812 g / cm^3
# Si number density = 25.315735 Si / 1000 Ang^3
#
#
#
# Elastic Constant Matrix: (Units=GPa)
#
#
# Indices 1 2 3 4 5 6 
#
# 1 85.2569 8.5158 3.3476 0.0000 -11.0845 0.0000
# 2 8.5158 51.0023 13.1990 0.0000 -10.3517 0.0000
# 3 3.3476 13.1990 128.6681 0.0000 -11.3778 0.0000
# 4 0.0000 0.0000 0.0000 33.1816 0.0000 0.7430
# 5 -11.0845 -10.3517 -11.3778 0.0000 28.1714 0.0000
# 6 0.0000 0.0000 0.0000 0.7430 0.0000 11.3982
#
#
#
# Elastic Compliance Matrix: (Units=1/GPa)
#
#
# Indices 1 2 3 4 5 6 
#
# 1 0.012431 -0.001209 0.000201 0.000000 0.004528 0.000000
# 2 -0.001209 0.021603 -0.001581 0.000000 0.006824 0.000000
# 3 0.000201 -0.001581 0.008177 0.000000 0.002800 0.000000
# 4 0.000000 0.000000 0.000000 0.030181 0.000000 -0.001967
# 5 0.004528 0.006824 0.002800 0.000000 0.040917 0.000000
# 6 0.000000 0.000000 0.000000 -0.001967 0.000000 0.087862
#
#
# Mechanical properties :
#
#
# Convention : Reuss Voigt Hill
#
# Bulk Modulus (GPa) = 27.00304 35.00579 31.00441
# Shear Modulus (GPa) = 22.86318 30.54122 26.70220
#
# Velocity S-wave (km/s) = 3.00846 3.47711 3.25124
# Velocity P-wave (km/s) = 4.77047 5.47523 5.13496
#
# Compressibility (1/GPa) = 0.03703287
#
# Stress axis : x y z
#
# Youngs Moduli (GPa) = 80.44533 46.28989 122.30119
#
# Poissons Ratio (x) = 0.05594 -0.02458
# Poissons Ratio (y) = 0.09722 0.19338
# Poissons Ratio (z) = -0.01617 0.07319
#
# Static dielectric constant tensor:
#      x y z
#    x 1.975900 0.000000 0.042420 
#    y 0.000000 1.902110 0.000000 
#    z 0.042420 0.000000 2.025940 
# 
# From -- ./inp_files/8980.got.cif
#   From: 2010.05.17/outbox.cif.g08.bks.cpg/sg14_5_cif.got.tgz:8980.got - 2010.06.03 17:49:19.
