data_PCOD9252711
_publ_section_title
;
Structure prediction by ZEFSAII (Michael W. Deem and Ramdas Pophale) SiO2 
 PCOD9252711
Probable space group: P 21/C
;
_chemical_formula_sum "Si O2"
_cell_formula_units_Z 20
_cell_length_a 11.661488
_cell_length_b 9.449819
_cell_length_c 16.335587
_cell_angle_alpha 90.000000
_cell_angle_beta 152.320370
_cell_angle_gamma 90.000000
_cell_volume 836.225466
_symmetry_space_group_name_H-M "P 21/C"
_symmetry_group_IT_number 14
_symmetry_cell_setting 'monoclinic'
loop_
_space_group_symop_operation_xyz
x,y,z
-x,1/2+y,1/2-z
-x,-y,-z
x,1/2-y,1/2+z
loop_
_atom_site_type_symbol
_atom_site_label
_atom_site_fract_x
_atom_site_fract_y
_atom_site_fract_z
Si Si1 0.724865 0.392145 0.643815
Si Si2 0.556028 0.807244 0.271228
Si Si3 0.743257 0.606380 0.058849
Si Si4 0.750975 0.093444 0.345047
Si Si5 0.421444 0.164918 0.372014
O O1 0.500000 0.500000 0.500000
O O2 0.734509 0.344262 0.743933
O O3 0.656434 0.263660 0.541731
O O4 0.986059 0.457563 0.784335
O O5 0.694003 0.801525 0.446161
O O6 0.303769 0.720225 0.127054
O O7 0.691380 0.727606 0.282004
O O8 0.548966 0.971303 0.239630
O O9 0.735699 0.673887 0.144181
O O10 0.524624 0.491330 0.922446
O O11 0.000000 0.000000 0.500000
#
# Coordination Sequence:
#
# PCOD9252711 Si02
#       5
#     4   4   4   4   4
#     4  12  25  43  71 100 143 190 239 297 369 433
#     4  12  23  45  75 102 149 193 242 307 376 439
#     4  11  26  46  69 107 149 187 247 306 360 447
#     4  12  25  46  72 104 147 195 243 308 374 438
#     4  11  25  44  72 105 141 190 245 301 365 443
#
# _framework density 23.916993000000002
#
# number of rings (size 3 to 8) (size 9 to 14) (size 15 to 20)
#    0.000    0.400    8.000    0.000    2.800    1.600 
#    0.000    1.000    0.000    0.000    0.000    0.000 
#    0.000    0.000    0.000    0.000    0.000    0.000 
#
# Total GULP energy -111686.432421 kJ/mol
# GULP energy per Si atom -5584.321621 kJ/mol
# Density = 2.386256 g / cm^3
# Si number density = 23.916993 Si / 1000 Ang^3
#
#
#
# Elastic Constant Matrix: (Units=GPa)
#
#
# Indices 1 2 3 4 5 6 
#
# 1 199.2853 40.7739 57.0189 0.0000 -27.6218 0.0000
# 2 40.7739 77.8022 17.4538 0.0000 -0.0165 0.0000
# 3 57.0189 17.4538 62.5879 0.0000 1.2686 0.0000
# 4 0.0000 0.0000 0.0000 28.0450 0.0000 -0.6542
# 5 -27.6218 -0.0165 1.2686 0.0000 39.6303 0.0000
# 6 0.0000 0.0000 0.0000 -0.6542 0.0000 53.5571
#
#
#
# Elastic Compliance Matrix: (Units=1/GPa)
#
#
# Indices 1 2 3 4 5 6 
#
# 1 0.008465 -0.002856 -0.007040 0.000000 0.006124 0.000000
# 2 -0.002856 0.014675 -0.001451 0.000000 -0.001938 0.000000
# 3 -0.007040 -0.001451 0.022910 0.000000 -0.005641 0.000000
# 4 0.000000 0.000000 0.000000 0.035667 0.000000 0.000436
# 5 0.006124 -0.001938 -0.005641 0.000000 0.029682 0.000000
# 6 0.000000 0.000000 0.000000 0.000436 0.000000 0.018677
#
#
# Mechanical properties :
#
#
# Convention : Reuss Voigt Hill
#
# Bulk Modulus (GPa) = 42.81512 63.35206 53.08359
# Shear Modulus (GPa) = 31.14192 39.20841 35.17517
#
# Velocity S-wave (km/s) = 3.61235 4.05329 3.83916
# Velocity P-wave (km/s) = 5.94468 6.96070 6.47265
#
# Compressibility (1/GPa) = 0.02335623
#
# Stress axis : x y z
#
# Youngs Moduli (GPa) = 118.12936 68.14328 43.64913
#
# Poissons Ratio (x) = 0.19461 0.30728
# Poissons Ratio (y) = 0.33736 0.06335
# Poissons Ratio (z) = 0.83160 0.09890
#
# Static dielectric constant tensor:
#      x y z
#    x 1.946880 0.000000 -0.023070 
#    y 0.000000 1.933770 0.000000 
#    z -0.023070 0.000000 1.943200 
# 
# From -- ./inp_files/57319.got.cif
#   From: 2010.05.17/outbox.cif.g08.bks.cpg/sg14_29_cif.got.tgz:57319.got - 2010.06.03 17:49:19.
