data_PCOD9252670
_publ_section_title
;
Structure prediction by ZEFSAII (Michael W. Deem and Ramdas Pophale) SiO2 
 PCOD9252670
Probable space group: P 21/C
;
_chemical_formula_sum "Si O2"
_cell_formula_units_Z 20
_cell_length_a 16.282004
_cell_length_b 5.194585
_cell_length_c 10.179590
_cell_angle_alpha 90.000000
_cell_angle_beta 100.162710
_cell_angle_gamma 90.000000
_cell_volume 847.463858
_symmetry_space_group_name_H-M "P 21/C"
_symmetry_group_IT_number 14
_symmetry_cell_setting 'monoclinic'
loop_
_space_group_symop_operation_xyz
x,y,z
-x,1/2+y,1/2-z
-x,-y,-z
x,1/2-y,1/2+z
loop_
_atom_site_type_symbol
_atom_site_label
_atom_site_fract_x
_atom_site_fract_y
_atom_site_fract_z
Si Si1 0.306120 0.585984 0.467178
Si Si2 0.831531 0.781436 0.177797
Si Si3 0.056639 0.243642 0.538496
Si Si4 0.670676 0.482210 0.240490
Si Si5 0.446741 0.247234 0.446287
O O1 0.215306 0.544042 0.378721
O O2 0.312181 0.665784 0.619150
O O3 0.357194 0.316155 0.487312
O O4 0.348384 0.774758 0.377000
O O5 0.904222 0.774958 0.305355
O O6 0.756938 0.620728 0.224630
O O7 0.870093 0.707720 0.048497
O O8 0.000000 0.500000 0.500000
O O9 0.000000 0.000000 0.500000
O O10 0.591047 0.677624 0.209881
O O11 0.500000 0.500000 0.500000
O O12 0.500000 0.000000 0.500000
#
# Coordination Sequence:
#
# PCOD9252670 Si02
#       5
#     4   4   4   4   4
#     4  11  26  46  78 112 151 209 253 309 380 445
#     4  11  26  46  72 109 152 196 254 307 368 464
#     4  12  28  48  76 110 148 196 246 312 384 442
#     4  11  26  46  78 112 151 209 253 309 380 445
#     4  11  24  50  72 111 150 194 248 313 368 440
#
# _framework density 23.599826
#
# number of rings (size 3 to 8) (size 9 to 14) (size 15 to 20)
#    0.000    0.800    4.000    1.200    8.400    3.200 
#    0.000    0.000    0.000    0.000    0.000    0.000 
#    0.000    0.000    0.000    0.000    0.000    0.000 
#
# Total GULP energy -111444.691498 kJ/mol
# GULP energy per Si atom -5572.234575 kJ/mol
# Density = 2.354611 g / cm^3
# Si number density = 23.599826 Si / 1000 Ang^3
#
#
#
# Elastic Constant Matrix: (Units=GPa)
#
#
# Indices 1 2 3 4 5 6 
#
# 1 54.0527 23.7099 -0.5592 0.0000 26.1214 0.0000
# 2 23.7099 119.7130 32.1147 0.0000 25.4826 0.0000
# 3 -0.5592 32.1147 159.9035 0.0000 15.3451 0.0000
# 4 0.0000 0.0000 0.0000 28.9632 0.0000 5.2840
# 5 26.1214 25.4826 15.3451 0.0000 37.9518 0.0000
# 6 0.0000 0.0000 0.0000 5.2840 0.0000 46.3612
#
#
#
# Elastic Compliance Matrix: (Units=1/GPa)
#
#
# Indices 1 2 3 4 5 6 
#
# 1 0.028847 -0.002246 0.002406 0.000000 -0.019319 0.000000
# 2 -0.002246 0.010224 -0.001613 0.000000 -0.004667 0.000000
# 3 0.002406 -0.001613 0.006909 0.000000 -0.003366 0.000000
# 4 0.000000 0.000000 0.000000 0.035260 0.000000 -0.004019
# 5 -0.019319 -0.004667 -0.003366 0.000000 0.044141 0.000000
# 6 0.000000 0.000000 0.000000 -0.004019 0.000000 0.022028
#
#
# Mechanical properties :
#
#
# Convention : Reuss Voigt Hill
#
# Bulk Modulus (GPa) = 23.21643 49.35555 36.28599
# Shear Modulus (GPa) = 30.36297 41.21548 35.78923
#
# Velocity S-wave (km/s) = 3.59078 4.18357 3.89846
# Velocity P-wave (km/s) = 5.20101 6.65547 5.97268
#
# Compressibility (1/GPa) = 0.04307294
#
# Stress axis : x y z
#
# Youngs Moduli (GPa) = 34.66573 97.80507 144.73293
#
# Poissons Ratio (x) = 0.21971 -0.34823
# Poissons Ratio (y) = 0.07787 0.23352
# Poissons Ratio (z) = -0.08341 0.15781
#
# Static dielectric constant tensor:
#      x y z
#    x 1.910950 0.000000 0.007520 
#    y 0.000000 1.987830 0.000000 
#    z 0.007520 0.000000 1.949500 
# 
# From -- ./inp_files/17287.got.cif
#   From: 2010.05.17/outbox.cif.g08.bks.cpg/sg14_9_cif.got.tgz:17287.got - 2010.06.03 17:49:19.
