data_PCOD9252926
_publ_section_title
;
Structure prediction by ZEFSAII (Michael W. Deem and Ramdas Pophale) SiO2 
 PCOD9252926
Probable space group: P 21/C
;
_chemical_formula_sum "Si O2"
_cell_formula_units_Z 20
_cell_length_a 6.840076
_cell_length_b 4.829273
_cell_length_c 28.233214
_cell_angle_alpha 90.000000
_cell_angle_beta 52.308397
_cell_angle_gamma 90.000000
_cell_volume 737.991543
_symmetry_space_group_name_H-M "P 21/C"
_symmetry_group_IT_number 14
_symmetry_cell_setting 'monoclinic'
loop_
_space_group_symop_operation_xyz
x,y,z
-x,1/2+y,1/2-z
-x,-y,-z
x,1/2-y,1/2+z
loop_
_atom_site_type_symbol
_atom_site_label
_atom_site_fract_x
_atom_site_fract_y
_atom_site_fract_z
Si Si1 0.572470 0.087968 0.708381
Si Si2 0.976820 0.313324 0.078550
Si Si3 0.740037 0.411869 0.405346
Si Si4 0.613604 0.098042 0.544025
Si Si5 0.138159 0.311356 0.711487
O O1 0.543547 0.305209 0.755459
O O2 0.838817 0.055268 0.644600
O O3 0.401201 0.219073 0.692851
O O4 0.786854 0.337508 0.063249
O O5 0.059402 0.008171 0.084558
O O6 0.215431 0.469247 0.022219
O O7 0.508897 0.613083 0.450566
O O8 0.846004 0.531347 0.340336
O O9 0.390056 0.881460 0.585960
O O10 0.019701 0.532068 0.764975
#
# Coordination Sequence:
#
# PCOD9252926 Si02
#       5
#     4   4   4   4   4
#     4  12  27  46  72 106 143 192 246 303 373 449
#     4  11  26  48  75 109 150 197 251 313 381 453
#     4  12  25  47  73 108 149 196 250 310 383 455
#     4  11  27  46  74 110 150 195 252 311 375 463
#     4  12  25  46  69 104 145 190 244 305 370 451
#
# _framework density 27.100580000000001
#
# number of rings (size 3 to 8) (size 9 to 14) (size 15 to 20)
#    0.000    0.400    2.000    6.000    2.800    8.000 
#    0.000    0.000    0.000    0.000    0.000    0.000 
#    0.000    0.000    0.000    0.000    0.000    0.000 
#
# Total GULP energy -112186.745541 kJ/mol
# GULP energy per Si atom -5609.337277 kJ/mol
# Density = 2.703890 g / cm^3
# Si number density = 27.100580 Si / 1000 Ang^3
#
#
#
# Elastic Constant Matrix: (Units=GPa)
#
#
# Indices 1 2 3 4 5 6 
#
# 1 125.1885 22.1280 31.4122 0.0000 24.3988 0.0000
# 2 22.1280 130.5578 29.3417 0.0000 -1.5648 0.0000
# 3 31.4122 29.3417 168.2390 0.0000 -20.8043 0.0000
# 4 0.0000 0.0000 0.0000 49.1326 0.0000 -13.1973
# 5 24.3988 -1.5648 -20.8043 0.0000 53.5103 0.0000
# 6 0.0000 0.0000 0.0000 -13.1973 0.0000 34.0917
#
#
#
# Elastic Compliance Matrix: (Units=1/GPa)
#
#
# Indices 1 2 3 4 5 6 
#
# 1 0.009833 -0.001216 -0.002293 0.000000 -0.005410 0.000000
# 2 -0.001216 0.008128 -0.001148 0.000000 0.000346 0.000000
# 3 -0.002293 -0.001148 0.007036 0.000000 0.003747 0.000000
# 4 0.000000 0.000000 0.000000 0.022715 0.000000 0.008793
# 5 -0.005410 0.000346 0.003747 0.000000 0.022622 0.000000
# 6 0.000000 0.000000 0.000000 0.008793 0.000000 0.032737
#
#
# Mechanical properties :
#
#
# Convention : Reuss Voigt Hill
#
# Bulk Modulus (GPa) = 63.76434 65.52766 64.64600
# Shear Modulus (GPa) = 42.51336 50.08716 46.30026
#
# Velocity S-wave (km/s) = 3.96501 4.30373 4.13784
# Velocity P-wave (km/s) = 6.67395 6.99486 6.83629
#
# Compressibility (1/GPa) = 0.01568275
#
# Stress axis : x y z
#
# Youngs Moduli (GPa) = 101.70179 123.03716 142.13508
#
# Poissons Ratio (x) = 0.14962 0.32589
# Poissons Ratio (y) = 0.12368 0.16312
# Poissons Ratio (z) = 0.23318 0.14121
#
# Static dielectric constant tensor:
#      x y z
#    x 2.180430 0.000000 0.015870 
#    y 0.000000 2.050060 0.000000 
#    z 0.015870 0.000000 2.154300 
# 
# From -- ./inp_files/10836.got.cif
#   From: 2010.05.17/outbox.cif.g08.bks.cpg/sg14_6_cif.got.tgz:10836.got - 2010.06.03 17:49:19.
