data_PCOD9252349
_publ_section_title
;
Structure prediction by ZEFSAII (Michael W. Deem and Ramdas Pophale) SiO2 
 PCOD9252349
Probable space group: P 21/C
;
_chemical_formula_sum "Si O2"
_cell_formula_units_Z 20
_cell_length_a 21.011667
_cell_length_b 6.590103
_cell_length_c 10.530279
_cell_angle_alpha 90.000000
_cell_angle_beta 38.327876
_cell_angle_gamma 90.000000
_cell_volume 904.267418
_symmetry_space_group_name_H-M "P 21/C"
_symmetry_group_IT_number 14
_symmetry_cell_setting 'monoclinic'
loop_
_space_group_symop_operation_xyz
x,y,z
-x,1/2+y,1/2-z
-x,-y,-z
x,1/2-y,1/2+z
loop_
_atom_site_type_symbol
_atom_site_label
_atom_site_fract_x
_atom_site_fract_y
_atom_site_fract_z
Si Si1 0.259808 0.676546 0.657422
Si Si2 0.532468 0.199231 0.029559
Si Si3 0.651036 0.549789 0.695635
Si Si4 0.806808 0.672303 0.067621
Si Si5 0.882751 0.564892 0.671905
O O1 0.381453 0.685247 0.497074
O O2 0.259891 0.539365 0.531602
O O3 0.216223 0.551795 0.844513
O O4 0.196289 0.880052 0.734099
O O5 0.587040 0.361735 0.850720
O O6 0.429225 0.299760 0.245914
O O7 0.500000 0.000000 0.000000
O O8 0.703796 0.691001 0.719243
O O9 0.874899 0.780379 0.067000
O O10 0.850724 0.655545 0.857998
O O11 0.000000 0.500000 0.500000
#
# Coordination Sequence:
#
# PCOD9252349 Si02
#       5
#     4   4   4   4   4
#     4  12  26  45  74 105 156 193 257 310 382 449
#     4  11  24  41  68 107 154 201 248 302 369 450
#     4  11  25  42  69 110 147 199 248 300 374 452
#     4  12  26  51  76 110 153 197 253 319 389 453
#     4  12  31  50  80 110 148 199 260 325 390 454
#
# _framework density 22.117349999999998
#
# number of rings (size 3 to 8) (size 9 to 14) (size 15 to 20)
#    0.000    0.400    6.000    1.200    5.600    0.800 
#    0.000    0.000    0.000    0.000    0.000    0.000 
#    0.000    0.000    0.000    0.000    0.000    0.000 
#
# Total GULP energy -111757.407546 kJ/mol
# GULP energy per Si atom -5587.870377 kJ/mol
# Density = 2.206701 g / cm^3
# Si number density = 22.117350 Si / 1000 Ang^3
#
#
#
# Elastic Constant Matrix: (Units=GPa)
#
#
# Indices 1 2 3 4 5 6 
#
# 1 120.5188 44.8456 41.2701 0.0000 0.1867 0.0000
# 2 44.8456 82.2448 55.7350 0.0000 20.3834 0.0000
# 3 41.2701 55.7350 67.0873 0.0000 0.4983 0.0000
# 4 0.0000 0.0000 0.0000 32.7907 0.0000 2.0392
# 5 0.1867 20.3834 0.4983 0.0000 33.2234 0.0000
# 6 0.0000 0.0000 0.0000 2.0392 0.0000 47.1736
#
#
#
# Elastic Compliance Matrix: (Units=1/GPa)
#
#
# Indices 1 2 3 4 5 6 
#
# 1 0.011061 -0.004913 -0.002745 0.000000 0.002993 0.000000
# 2 -0.004913 0.043958 -0.033301 0.000000 -0.026442 0.000000
# 3 -0.002745 -0.033301 0.044114 0.000000 0.019785 0.000000
# 4 0.000000 0.000000 0.000000 0.030579 0.000000 -0.001322
# 5 0.002993 -0.026442 0.019785 0.000000 0.046009 0.000000
# 6 0.000000 0.000000 0.000000 -0.001322 0.000000 0.021255
#
#
# Mechanical properties :
#
#
# Convention : Reuss Voigt Hill
#
# Bulk Modulus (GPa) = 58.08949 61.50582 59.79765
# Shear Modulus (GPa) = 17.56650 31.17089 24.36869
#
# Velocity S-wave (km/s) = 2.82129 3.75819 3.32292
# Velocity P-wave (km/s) = 6.07734 6.83383 6.46666
#
# Compressibility (1/GPa) = 0.01721482
#
# Stress axis : x y z
#
# Youngs Moduli (GPa) = 90.40855 22.74886 22.66854
#
# Poissons Ratio (x) = 0.11175 0.06223
# Poissons Ratio (y) = 0.44413 0.75489
# Poissons Ratio (z) = 0.24820 0.75757
#
# Static dielectric constant tensor:
#      x y z
#    x 1.885260 0.000000 0.007430 
#    y 0.000000 1.857040 0.000000 
#    z 0.007430 0.000000 1.850510 
# 
# From -- ./inp_files/34529.got.cif
#   From: 2010.05.17/outbox.cif.g08.bks.cpg/sg14_18_cif.got.tgz:34529.got - 2010.06.03 17:49:19.
