data_PCOD9252208
_publ_section_title
;
Structure prediction by ZEFSAII (Michael W. Deem and Ramdas Pophale) SiO2 
 PCOD9252208
Probable space group: P 21/C
;
_chemical_formula_sum "Si O2"
_cell_formula_units_Z 24
_cell_length_a 11.879696
_cell_length_b 9.057463
_cell_length_c 12.031856
_cell_angle_alpha 90.000000
_cell_angle_beta 112.733291
_cell_angle_gamma 90.000000
_cell_volume 1194.051847
_symmetry_space_group_name_H-M "P 21/C"
_symmetry_group_IT_number 14
_symmetry_cell_setting 'monoclinic'
loop_
_space_group_symop_operation_xyz
x,y,z
-x,1/2+y,1/2-z
-x,-y,-z
x,1/2-y,1/2+z
loop_
_atom_site_type_symbol
_atom_site_label
_atom_site_fract_x
_atom_site_fract_y
_atom_site_fract_z
Si Si1 0.625507 0.428310 0.005629
Si Si2 0.769294 0.570334 0.428836
Si Si3 0.862633 0.535305 0.226730
Si Si4 0.545139 0.108217 0.920129
Si Si5 0.886030 0.886625 0.209103
Si Si6 0.309948 0.110667 0.682816
O O1 0.605297 0.253768 0.994192
O O2 0.654956 0.488691 0.893797
O O3 0.500000 0.500000 0.000000
O O4 0.737349 0.478524 0.125188
O O5 0.850166 0.521840 0.355131
O O6 0.645456 0.476615 0.385979
O O7 0.834800 0.556226 0.572070
O O8 0.733993 0.741386 0.395982
O O9 0.879853 0.708629 0.207084
O O10 0.977271 0.444549 0.225412
O O11 0.427920 0.149297 0.801822
O O12 0.500000 0.000000 0.000000
O O13 0.797106 0.937680 0.274320
#
# Coordination Sequence:
#
# PCOD9252208 Si02
#       6
#     4   4   4   4   4   4
#     4  12  25  45  69 102 139 174 227 279 343 400
#     4  11  23  46  66  98 135 177 226 280 337 395
#     4  11  26  44  71  99 135 181 222 283 335 408
#     4  12  24  40  72 100 134 173 226 280 332 404
#     4  11  24  45  68  97 139 174 230 272 341 405
#     4  11  23  45  69  97 137 179 217 285 336 397
#
# _framework density 20.099630999999999
#
# number of rings (size 3 to 8) (size 9 to 14) (size 15 to 20)
#    0.000    0.667    3.333    5.500    2.333    3.333 
#    0.000    0.000    0.000    0.000    0.000    0.000 
#    0.000    0.000    0.000    0.000    0.000    0.000 
#
# Total GULP energy -134326.901505 kJ/mol
# GULP energy per Si atom -5596.954229 kJ/mol
# Density = 2.005388 g / cm^3
# Si number density = 20.099631 Si / 1000 Ang^3
#
#
#
# Elastic Constant Matrix: (Units=GPa)
#
#
# Indices 1 2 3 4 5 6 
#
# 1 176.4492 54.7641 56.6012 0.0000 -3.4455 0.0000
# 2 54.7641 86.1109 26.5089 0.0000 -17.6895 0.0000
# 3 56.6012 26.5089 88.4067 0.0000 -2.6999 0.0000
# 4 0.0000 0.0000 0.0000 11.7532 0.0000 2.1948
# 5 -3.4455 -17.6895 -2.6999 0.0000 34.1828 0.0000
# 6 0.0000 0.0000 0.0000 2.1948 0.0000 34.0717
#
#
#
# Elastic Compliance Matrix: (Units=1/GPa)
#
#
# Indices 1 2 3 4 5 6 
#
# 1 0.008294 -0.004389 -0.004047 0.000000 -0.001755 0.000000
# 2 -0.004389 0.016648 -0.001937 0.000000 0.008020 0.000000
# 3 -0.004047 -0.001937 0.014475 0.000000 -0.000267 0.000000
# 4 0.000000 0.000000 0.000000 0.086119 0.000000 -0.005547
# 5 -0.001755 0.008020 -0.000267 0.000000 0.033207 0.000000
# 6 0.000000 0.000000 0.000000 -0.005547 0.000000 0.029707
#
#
# Mechanical properties :
#
#
# Convention : Reuss Voigt Hill
#
# Bulk Modulus (GPa) = 53.56166 69.63501 61.59834
# Shear Modulus (GPa) = 23.21043 30.20771 26.70907
#
# Velocity S-wave (km/s) = 3.40188 3.88093 3.64927
# Velocity P-wave (km/s) = 6.49125 7.40286 6.96199
#
# Compressibility (1/GPa) = 0.01867007
#
# Stress axis : x y z
#
# Youngs Moduli (GPa) = 120.57445 60.06708 69.08311
#
# Poissons Ratio (x) = 0.26364 0.27961
# Poissons Ratio (y) = 0.52921 0.13381
# Poissons Ratio (z) = 0.48801 0.11635
#
# Static dielectric constant tensor:
#      x y z
#    x 1.689170 0.000000 -0.009430 
#    y 0.000000 1.689710 0.000000 
#    z -0.009430 0.000000 1.701300 
# 
# From -- ./inp_files/28182.got.cif
#   From: 2010.05.17/outbox.cif.g08.bks.cpg/sg14_15_cif.got.tgz:28182.got - 2010.06.03 17:49:19.
