data_PCOD9252200
_publ_section_title
;
Structure prediction by ZEFSAII (Michael W. Deem and Ramdas Pophale) SiO2 
 PCOD9252200
Probable space group: P 21/C
;
_chemical_formula_sum "Si O2"
_cell_formula_units_Z 28
_cell_length_a 18.024371
_cell_length_b 5.597108
_cell_length_c 14.247434
_cell_angle_alpha 90.000000
_cell_angle_beta 57.897929
_cell_angle_gamma 90.000000
_cell_volume 1217.577269
_symmetry_space_group_name_H-M "P 21/C"
_symmetry_group_IT_number 14
_symmetry_cell_setting 'monoclinic'
loop_
_space_group_symop_operation_xyz
x,y,z
-x,1/2+y,1/2-z
-x,-y,-z
x,1/2-y,1/2+z
loop_
_atom_site_type_symbol
_atom_site_label
_atom_site_fract_x
_atom_site_fract_y
_atom_site_fract_z
Si Si1 0.694569 0.948006 0.949988
Si Si2 0.832577 0.002112 0.160260
Si Si3 0.834357 0.581215 0.869295
Si Si4 0.664099 0.263746 0.281677
Si Si5 0.097712 0.004311 0.473963
Si Si6 0.329378 0.854205 0.415569
Si Si7 0.528130 0.890200 0.579012
O O1 0.792751 0.843721 0.879299
O O2 0.679212 0.117540 0.871289
O O3 0.608861 0.783377 0.004214
O O4 0.684446 0.075138 0.057387
O O5 0.865248 0.009979 0.247146
O O6 0.859226 0.748892 0.097233
O O7 0.727229 0.033933 0.238478
O O8 0.864345 0.242374 0.083707
O O9 0.896814 0.539618 0.916353
O O10 0.744320 0.460015 0.966669
O O11 0.690723 0.429224 0.176102
O O12 0.563073 0.216163 0.326206
O O13 0.000000 0.000000 0.500000
O O14 0.426214 0.922019 0.382990
O O15 0.500000 0.000000 0.500000
#
# Coordination Sequence:
#
# PCOD9252200 Si02
#       7
#     4   4   4   4   4   4   4
#     4  11  23  45  65  99 149 200 244 318 363 433
#     4  12  26  49  79 111 147 198 241 305 376 451
#     4  11  25  46  75 106 148 190 249 297 375 446
#     4  12  23  42  70  99 144 194 260 298 377 435
#     4  12  29  52  80 116 150 185 241 309 379 466
#     4  11  24  41  62 101 139 194 246 306 365 428
#     4  11  24  40  60  96 143 194 254 314 364 423
#
# _framework density 22.996490000000001
#
# number of rings (size 3 to 8) (size 9 to 14) (size 15 to 20)
#    0.000    0.571    4.286    3.429    2.000    1.143 
#    2.571    0.000    0.000    0.000    0.000    0.000 
#    0.000    0.000    0.000    0.000    0.000    0.000 
#
# Total GULP energy -156203.922098 kJ/mol
# GULP energy per Si atom -5578.711503 kJ/mol
# Density = 2.294415 g / cm^3
# Si number density = 22.996490 Si / 1000 Ang^3
#
#
#
# Elastic Constant Matrix: (Units=GPa)
#
#
# Indices 1 2 3 4 5 6 
#
# 1 117.0402 13.3268 -2.5544 0.0000 19.8460 0.0000
# 2 13.3268 79.1422 15.2809 0.0000 -3.4028 0.0000
# 3 -2.5544 15.2809 48.5641 0.0000 35.2333 0.0000
# 4 0.0000 0.0000 0.0000 17.6611 0.0000 -11.1568
# 5 19.8460 -3.4028 35.2333 0.0000 43.9447 0.0000
# 6 0.0000 0.0000 0.0000 -11.1568 0.0000 24.2027
#
#
#
# Elastic Compliance Matrix: (Units=1/GPa)
#
#
# Indices 1 2 3 4 5 6 
#
# 1 0.013195 -0.006551 0.017801 0.000000 -0.020739 0.000000
# 2 -0.006551 0.019147 -0.022928 0.000000 0.022824 0.000000
# 3 0.017801 -0.022928 0.085730 0.000000 -0.078550 0.000000
# 4 0.000000 0.000000 0.000000 0.079884 0.000000 0.036825
# 5 -0.020739 0.022824 -0.078550 0.000000 0.096868 0.000000
# 6 0.000000 0.000000 0.000000 0.036825 0.000000 0.058293
#
#
# Mechanical properties :
#
#
# Convention : Reuss Voigt Hill
#
# Bulk Modulus (GPa) = 10.55772 32.98369 21.77071
# Shear Modulus (GPa) = 12.25355 31.74124 21.99739
#
# Velocity S-wave (km/s) = 2.31085 3.71922 3.09618
# Velocity P-wave (km/s) = 3.42359 5.72866 4.71903
#
# Compressibility (1/GPa) = 0.09471743
#
# Stress axis : x y z
#
# Youngs Moduli (GPa) = 75.78601 52.22777 11.66447
#
# Poissons Ratio (x) = 0.34213 -0.20764
# Poissons Ratio (y) = 0.49645 0.26744
# Poissons Ratio (z) = -1.34908 1.19748
#
# Static dielectric constant tensor:
#      x y z
#    x 1.837130 0.000000 -0.041760 
#    y 0.000000 2.140840 0.000000 
#    z -0.041760 0.000000 1.963520 
# 
# From -- ./inp_files/48098.got.cif
#   From: 2010.05.17/outbox.cif.g08.bks.cpg/sg14_25_cif.got.tgz:48098.got - 2010.06.03 17:49:19.
