data_PCOD9252186
_publ_section_title
;
Structure prediction by ZEFSAII (Michael W. Deem and Ramdas Pophale) SiO2 
 PCOD9252186
Probable space group: P 21/C
;
_chemical_formula_sum "Si O2"
_cell_formula_units_Z 28
_cell_length_a 11.642986
_cell_length_b 9.475942
_cell_length_c 14.667750
_cell_angle_alpha 90.000000
_cell_angle_beta 125.019879
_cell_angle_gamma 90.000000
_cell_volume 1325.284874
_symmetry_space_group_name_H-M "P 21/C"
_symmetry_group_IT_number 14
_symmetry_cell_setting 'monoclinic'
loop_
_space_group_symop_operation_xyz
x,y,z
-x,1/2+y,1/2-z
-x,-y,-z
x,1/2-y,1/2+z
loop_
_atom_site_type_symbol
_atom_site_label
_atom_site_fract_x
_atom_site_fract_y
_atom_site_fract_z
Si Si1 0.078800 0.129854 0.428966
Si Si2 0.580703 0.961731 0.129551
Si Si3 0.235997 0.770149 0.752136
Si Si4 0.873867 0.887917 0.924340
Si Si5 0.147515 0.665263 0.901747
Si Si6 0.306396 0.613147 0.599061
Si Si7 0.834359 0.746406 0.220135
O O1 0.096577 0.232462 0.523068
O O2 0.163590 0.185525 0.379988
O O3 0.914534 0.150510 0.328383
O O4 0.140173 0.972093 0.463602
O O5 0.467636 0.890274 0.144818
O O6 0.707388 0.853170 0.173472
O O7 0.648058 0.108241 0.192082
O O8 0.500000 0.000000 0.000000
O O9 0.227242 0.676836 0.840798
O O10 0.270492 0.673841 0.681655
O O11 0.837671 0.870217 0.801836
O O12 0.746904 0.952828 0.923802
O O13 0.000000 0.000000 0.000000
O O14 0.985318 0.680642 0.800784
O O15 0.212892 0.795231 0.987052
#
# Coordination Sequence:
#
# PCOD9252186 Si02
#       7
#     4   4   4   4   4   4   4
#     4  11  24  41  74 107 141 175 241 306 356 417
#     4  12  26  48  69 102 147 196 237 290 369 438
#     4  11  24  43  70 104 142 185 240 294 357 431
#     4  12  24  44  71 110 144 182 243 299 355 429
#     4  11  23  44  72 105 138 180 239 301 350 416
#     4  12  26  45  72 101 148 190 233 295 365 431
#     4  11  25  42  71 102 140 186 237 294 354 427
#
# _framework density 21.127531000000001
#
# number of rings (size 3 to 8) (size 9 to 14) (size 15 to 20)
#    0.000    0.571    5.714    1.714    6.000    1.143 
#    0.000    0.714    0.000    0.000    0.000    0.000 
#    0.000    0.000    0.000    0.000    0.000    0.000 
#
# Total GULP energy -156441.420764 kJ/mol
# GULP energy per Si atom -5587.193599 kJ/mol
# Density = 2.107944 g / cm^3
# Si number density = 21.127531 Si / 1000 Ang^3
#
#
#
# Elastic Constant Matrix: (Units=GPa)
#
#
# Indices 1 2 3 4 5 6 
#
# 1 117.3807 25.1693 30.1604 0.0000 -2.7624 0.0000
# 2 25.1693 57.0919 9.4421 0.0000 -0.9045 0.0000
# 3 30.1604 9.4421 62.7409 0.0000 -15.7683 0.0000
# 4 0.0000 0.0000 0.0000 35.9089 0.0000 3.6421
# 5 -2.7624 -0.9045 -15.7683 0.0000 38.6064 0.0000
# 6 0.0000 0.0000 0.0000 3.6421 0.0000 40.8900
#
#
#
# Elastic Compliance Matrix: (Units=1/GPa)
#
#
# Indices 1 2 3 4 5 6 
#
# 1 0.010559 -0.003878 -0.004820 0.000000 -0.001304 0.000000
# 2 -0.003878 0.019407 -0.001128 0.000000 -0.000283 0.000000
# 3 -0.004820 -0.001128 0.020429 0.000000 0.007973 0.000000
# 4 0.000000 0.000000 0.000000 0.028102 0.000000 -0.002503
# 5 -0.001304 -0.000283 0.007973 0.000000 0.029059 0.000000
# 6 0.000000 0.000000 0.000000 -0.002503 0.000000 0.024679
#
#
# Mechanical properties :
#
#
# Convention : Reuss Voigt Hill
#
# Bulk Modulus (GPa) = 32.52700 40.75080 36.63890
# Shear Modulus (GPa) = 30.83873 34.57717 32.70795
#
# Velocity S-wave (km/s) = 3.82468 4.04987 3.93888
# Velocity P-wave (km/s) = 5.91043 6.41861 6.16975
#
# Compressibility (1/GPa) = 0.03074369
#
# Stress axis : x y z
#
# Youngs Moduli (GPa) = 94.70933 51.52672 48.95028
#
# Poissons Ratio (x) = 0.19984 0.23593
# Poissons Ratio (y) = 0.36732 0.05519
# Poissons Ratio (z) = 0.45647 0.05810
#
# Static dielectric constant tensor:
#      x y z
#    x 1.770820 0.000000 -0.001390 
#    y 0.000000 1.872140 0.000000 
#    z -0.001390 0.000000 1.771620 
# 
# From -- ./inp_files/43816.got.cif
#   From: 2010.05.17/outbox.cif.g08.bks.cpg/sg14_22_cif.got.tgz:43816.got - 2010.06.03 17:49:19.
