data_PCOD9252065
_publ_section_title
;
Structure prediction by ZEFSAII (Michael W. Deem and Ramdas Pophale) SiO2 
 PCOD9252065
Probable space group: P 21/C
;
_chemical_formula_sum "Si O2"
_cell_formula_units_Z 24
_cell_length_a 8.384598
_cell_length_b 8.012279
_cell_length_c 13.535064
_cell_angle_alpha 90.000000
_cell_angle_beta 77.085892
_cell_angle_gamma 90.000000
_cell_volume 886.282855
_symmetry_space_group_name_H-M "P 21/C"
_symmetry_group_IT_number 14
_symmetry_cell_setting 'monoclinic'
loop_
_space_group_symop_operation_xyz
x,y,z
-x,1/2+y,1/2-z
-x,-y,-z
x,1/2-y,1/2+z
loop_
_atom_site_type_symbol
_atom_site_label
_atom_site_fract_x
_atom_site_fract_y
_atom_site_fract_z
Si Si1 0.691198 0.021747 0.237371
Si Si2 0.907130 0.168994 0.046467
Si Si3 0.191198 0.978253 0.237371
Si Si4 0.369446 0.330643 0.854414
Si Si5 0.592870 0.168994 0.953533
Si Si6 0.130554 0.169357 0.645586
O O1 0.686979 0.851080 0.174312
O O2 0.734916 0.966311 0.342879
O O3 0.822318 0.134762 0.163937
O O4 0.515196 0.105680 0.262418
O O5 0.050497 0.302216 0.049506
O O6 0.750000 0.206521 1.000000
O O7 0.000000 0.000000 0.000000
O O8 0.322318 0.865238 0.163937
O O9 0.015196 0.894320 0.262417
O O10 0.234916 0.033689 0.342879
O O11 0.186979 0.148920 0.174312
O O12 0.449503 0.302216 0.950494
O O13 0.500000 0.000000 0.000000
#
# Coordination Sequence:
#
# PCOD9252065 Si02
#       6
#     4   4   4   4   4   4
#     4  11  23  42  73  98 129 177 234 267 323 404
#     4  12  23  42  68 100 135 173 217 277 342 388
#     4  11  23  42  73  98 129 177 234 267 323 404
#     4  11  23  42  70 100 131 176 229 270 325 403
#     4  12  23  42  68 100 135 173 217 277 342 388
#     4  11  23  42  70 100 131 176 229 270 325 403
#
# _framework density 27.079391000000001
#
# number of rings (size 3 to 8) (size 9 to 14) (size 15 to 20)
#    0.000    0.667    6.667    1.000    0.000    0.000 
#    0.000    1.667    0.000    0.000    0.000    0.000 
#    0.000    0.000    0.000    0.000    0.000    0.000 
#
# Total GULP energy -134306.743789 kJ/mol
# GULP energy per Si atom -5596.114325 kJ/mol
# Density = 2.701776 g / cm^3
# Si number density = 27.079391 Si / 1000 Ang^3
#
#
#
# Elastic Constant Matrix: (Units=GPa)
#
#
# Indices 1 2 3 4 5 6 
#
# 1 125.8025 21.5380 31.3818 0.0000 55.8422 0.0000
# 2 21.5380 63.0609 20.6793 0.0000 20.3446 0.0000
# 3 31.3818 20.6793 92.0303 0.0000 23.3442 0.0000
# 4 0.0000 0.0000 0.0000 47.1032 0.0000 9.2027
# 5 55.8422 20.3446 23.3442 0.0000 72.3376 0.0000
# 6 0.0000 0.0000 0.0000 9.2027 0.0000 71.3644
#
#
#
# Elastic Compliance Matrix: (Units=1/GPa)
#
#
# Indices 1 2 3 4 5 6 
#
# 1 0.012446 -0.000815 -0.001832 0.000000 -0.008788 0.000000
# 2 -0.000815 0.018241 -0.002918 0.000000 -0.003559 0.000000
# 3 -0.001832 -0.002918 0.012612 0.000000 -0.001835 0.000000
# 4 0.000000 0.000000 0.000000 0.021779 0.000000 -0.002808
# 5 -0.008788 -0.003559 -0.001835 0.000000 0.022201 0.000000
# 6 0.000000 0.000000 0.000000 -0.002808 0.000000 0.014375
#
#
# Mechanical properties :
#
#
# Convention : Reuss Voigt Hill
#
# Bulk Modulus (GPa) = 31.08560 47.56579 39.32569
# Shear Modulus (GPa) = 40.48352 51.98067 46.23209
#
# Velocity S-wave (km/s) = 3.87071 4.38604 4.13641
# Velocity P-wave (km/s) = 5.61078 6.57672 6.11286
#
# Compressibility (1/GPa) = 0.03216924
#
# Stress axis : x y z
#
# Youngs Moduli (GPa) = 80.34575 54.82068 79.29064
#
# Poissons Ratio (x) = 0.04469 0.14525
# Poissons Ratio (y) = 0.06549 0.23137
# Poissons Ratio (z) = 0.14718 0.15997
#
# Static dielectric constant tensor:
#      x y z
#    x 2.087140 0.000000 0.100210 
#    y 0.000000 2.115480 0.000000 
#    z 0.100210 0.000000 2.126740 
# 
# From -- ./inp_files/38926.got.cif
#   From: 2010.05.17/outbox.cif.g08.bks.cpg/sg14_20_cif.got.tgz:38926.got - 2010.06.03 17:49:19.
