data_PCOD9252292
_publ_section_title
;
Structure prediction by ZEFSAII (Michael W. Deem and Ramdas Pophale) SiO2 
 PCOD9252292
Probable space group: P 21/C
;
_chemical_formula_sum "Si O2"
_cell_formula_units_Z 28
_cell_length_a 6.591935
_cell_length_b 26.883144
_cell_length_c 7.779343
_cell_angle_alpha 90.000000
_cell_angle_beta 113.165012
_cell_angle_gamma 90.000000
_cell_volume 1267.444439
_symmetry_space_group_name_H-M "P 21/C"
_symmetry_group_IT_number 14
_symmetry_cell_setting 'monoclinic'
loop_
_space_group_symop_operation_xyz
x,y,z
-x,1/2+y,1/2-z
-x,-y,-z
x,1/2-y,1/2+z
loop_
_atom_site_type_symbol
_atom_site_label
_atom_site_fract_x
_atom_site_fract_y
_atom_site_fract_z
Si Si1 0.775971 0.311422 0.885371
Si Si2 0.398971 0.109318 0.245866
Si Si3 0.097632 0.893899 0.025469
Si Si4 0.245862 0.147049 0.547915
Si Si5 0.752568 0.458516 0.749840
Si Si6 0.678558 0.199237 0.748747
Si Si7 0.048620 0.435737 0.185170
O O1 0.013620 0.331091 0.905537
O O2 0.777087 0.312197 0.093424
O O3 0.578244 0.347928 0.763389
O O4 0.733667 0.255212 0.816083
O O5 0.161820 0.116728 0.084080
O O6 0.355769 0.113807 0.435368
O O7 0.508189 0.057741 0.224019
O O8 0.179226 0.926892 0.894072
O O9 0.109542 0.924678 0.207414
O O10 0.226169 0.842259 0.091205
O O11 0.416691 0.190394 0.648285
O O12 0.197366 0.112072 0.693099
O O13 0.801694 0.516120 0.734340
O O14 0.905837 0.443646 0.964229
#
# Coordination Sequence:
#
# PCOD9252292 Si02
#       7
#     4   4   4   4   4   4   4
#     4  11  25  45  67 104 136 180 233 284 350 418
#     4  11  24  44  69 100 140 184 226 289 345 410
#     4  12  25  46  69 105 142 185 235 292 346 421
#     4  11  23  49  68  99 148 177 228 291 342 420
#     4  11  25  46  71 102 142 187 238 287 347 421
#     4  11  28  41  73  99 135 187 227 286 352 413
#     4  11  23  47  71 102 143 185 234 291 351 410
#
# _framework density 22.091698999999998
#
# number of rings (size 3 to 8) (size 9 to 14) (size 15 to 20)
#    0.000    0.857    4.286    1.286    8.000    2.286 
#    2.571    0.000    0.000    0.000    0.000    0.000 
#    0.000    0.000    0.000    0.000    0.000    0.000 
#
# Total GULP energy -156744.000623 kJ/mol
# GULP energy per Si atom -5598.000022 kJ/mol
# Density = 2.204142 g / cm^3
# Si number density = 22.091699 Si / 1000 Ang^3
#
#
#
# Elastic Constant Matrix: (Units=GPa)
#
#
# Indices 1 2 3 4 5 6 
#
# 1 105.1956 14.5238 27.7411 0.0000 -2.1483 0.0000
# 2 14.5238 68.7506 12.8456 0.0000 -8.4073 0.0000
# 3 27.7411 12.8456 54.8723 0.0000 -18.1602 0.0000
# 4 0.0000 0.0000 0.0000 27.6181 0.0000 -8.2518
# 5 -2.1483 -8.4073 -18.1602 0.0000 44.1095 0.0000
# 6 0.0000 0.0000 0.0000 -8.2518 0.0000 18.1738
#
#
#
# Elastic Compliance Matrix: (Units=1/GPa)
#
#
# Indices 1 2 3 4 5 6 
#
# 1 0.011276 -0.001519 -0.006088 0.000000 -0.002247 0.000000
# 2 -0.001519 0.015521 -0.002212 0.000000 0.001974 0.000000
# 3 -0.006088 -0.002212 0.024987 0.000000 0.009569 0.000000
# 4 0.000000 0.000000 0.000000 0.041891 0.000000 0.019021
# 5 -0.002247 0.001974 0.009569 0.000000 0.026877 0.000000
# 6 0.000000 0.000000 0.000000 0.019021 0.000000 0.063660
#
#
# Mechanical properties :
#
#
# Convention : Reuss Voigt Hill
#
# Bulk Modulus (GPa) = 31.11033 37.67105 34.39069
# Shear Modulus (GPa) = 23.30278 29.56083 26.43181
#
# Velocity S-wave (km/s) = 3.25132 3.66197 3.46274
# Velocity P-wave (km/s) = 5.31110 5.91347 5.62036
#
# Compressibility (1/GPa) = 0.03214367
#
# Stress axis : x y z
#
# Youngs Moduli (GPa) = 88.68743 64.42910 40.02073
#
# Poissons Ratio (x) = 0.09788 0.24367
# Poissons Ratio (y) = 0.13473 0.08854
# Poissons Ratio (z) = 0.53997 0.14253
#
# Static dielectric constant tensor:
#      x y z
#    x 1.799840 0.000000 -0.008580 
#    y 0.000000 1.785700 0.000000 
#    z -0.008580 0.000000 1.852990 
# 
# From -- ./inp_files/7015.got.cif
#   From: 2010.05.17/outbox.cif.g08.bks.cpg/sg14_4_cif.got.tgz:7015.got - 2010.06.03 17:49:19.
