data_PCOD9252342
_publ_section_title
;
Structure prediction by ZEFSAII (Michael W. Deem and Ramdas Pophale) SiO2 
 PCOD9252342
Probable space group: P 21/C
;
_chemical_formula_sum "Si O2"
_cell_formula_units_Z 24
_cell_length_a 12.556145
_cell_length_b 7.826560
_cell_length_c 9.863086
_cell_angle_alpha 90.000000
_cell_angle_beta 92.587308
_cell_angle_gamma 90.000000
_cell_volume 968.271420
_symmetry_space_group_name_H-M "P 21/C"
_symmetry_group_IT_number 14
_symmetry_cell_setting 'monoclinic'
loop_
_space_group_symop_operation_xyz
x,y,z
-x,1/2+y,1/2-z
-x,-y,-z
x,1/2-y,1/2+z
loop_
_atom_site_type_symbol
_atom_site_label
_atom_site_fract_x
_atom_site_fract_y
_atom_site_fract_z
Si Si1 0.328654 0.228431 0.910854
Si Si2 0.338013 0.771570 0.755814
Si Si3 0.225268 0.919118 0.495966
Si Si4 0.108065 0.080882 0.837368
Si Si5 0.004680 0.728431 0.922480
Si Si6 0.441399 0.419118 0.670701
O O1 0.272413 0.393207 0.977120
O O2 0.381548 0.301033 0.778211
O O3 0.232969 0.097818 0.875351
O O4 0.412542 0.153824 0.022119
O O5 0.285119 0.698967 0.888457
O O6 0.254125 0.846176 0.644548
O O7 0.394254 0.606793 0.689548
O O8 0.433698 0.902182 0.791315
O O9 0.100365 0.902182 0.457982
O O10 0.920792 0.846176 0.311214
O O11 0.060920 0.893207 0.856214
O O12 0.048215 0.198968 0.944877
#
# Coordination Sequence:
#
# PCOD9252342 Si02
#       6
#     4   4   4   4   4   4
#     4  11  24  41  62  90 122 157 200 247 296 354
#     4  11  24  41  62  90 122 157 200 247 296 354
#     4  11  24  41  62  90 122 157 200 247 296 354
#     4  11  24  41  62  90 122 157 200 247 296 354
#     4  11  24  41  62  90 122 157 200 247 296 354
#     4  11  24  41  62  90 122 157 200 247 296 354
#
# _framework density 24.786439000000001
#
# number of rings (size 3 to 8) (size 9 to 14) (size 15 to 20)
#    0.000    1.000    0.000    6.000    0.000   20.000 
#    0.000    0.000    0.000    0.000    0.000    0.000 
#    0.000    0.000    0.000    0.000    0.000    0.000 
#
# Total GULP energy -134886.643640 kJ/mol
# GULP energy per Si atom -5620.276818 kJ/mol
# Density = 2.473002 g / cm^3
# Si number density = 24.786439 Si / 1000 Ang^3
#
#
#
# Elastic Constant Matrix: (Units=GPa)
#
#
# Indices 1 2 3 4 5 6 
#
# 1 113.3099 3.0658 15.8632 0.0000 12.9608 0.0000
# 2 3.0658 104.0240 30.0586 0.0000 9.4789 0.0000
# 3 15.8632 30.0586 141.9440 0.0000 10.8632 0.0000
# 4 0.0000 0.0000 0.0000 38.4003 0.0000 -5.2471
# 5 12.9608 9.4789 10.8632 0.0000 50.9242 0.0000
# 6 0.0000 0.0000 0.0000 -5.2471 0.0000 49.9015
#
#
#
# Elastic Compliance Matrix: (Units=1/GPa)
#
#
# Indices 1 2 3 4 5 6 
#
# 1 0.009196 0.000188 -0.000900 0.000000 -0.002183 0.000000
# 2 0.000188 0.010353 -0.002096 0.000000 -0.001528 0.000000
# 3 -0.000900 -0.002096 0.007667 0.000000 -0.001016 0.000000
# 4 0.000000 0.000000 0.000000 0.026421 0.000000 0.002778
# 5 -0.002183 -0.001528 -0.001016 0.000000 0.020694 0.000000
# 6 0.000000 0.000000 0.000000 0.002778 0.000000 0.020332
#
#
# Mechanical properties :
#
#
# Convention : Reuss Voigt Hill
#
# Bulk Modulus (GPa) = 46.29938 50.80590 48.55264
# Shear Modulus (GPa) = 46.52044 48.53121 47.52583
#
# Velocity S-wave (km/s) = 4.33696 4.42970 4.38358
# Velocity P-wave (km/s) = 6.61807 6.83410 6.72695
#
# Compressibility (1/GPa) = 0.02159856
#
# Stress axis : x y z
#
# Youngs Moduli (GPa) = 108.74210 96.59408 130.42261
#
# Poissons Ratio (x) = -0.01817 0.11744
# Poissons Ratio (y) = -0.02046 0.27342
# Poissons Ratio (z) = 0.09792 0.20250
#
# Static dielectric constant tensor:
#      x y z
#    x 1.894620 0.000000 -0.047820 
#    y 0.000000 1.968260 0.000000 
#    z -0.047820 0.000000 1.880130 
# 
# From -- ./inp_files/28123.got.cif
#   From: 2010.05.17/outbox.cif.g08.bks.cpg/sg14_15_cif.got.tgz:28123.got - 2010.06.03 17:49:19.
