data_PCOD9252821
_publ_section_title
;
Structure prediction by ZEFSAII (Michael W. Deem and Ramdas Pophale) SiO2 
 PCOD9252821
Probable space group: P 21/C
;
_chemical_formula_sum "Si O2"
_cell_formula_units_Z 24
_cell_length_a 11.799886
_cell_length_b 10.000598
_cell_length_c 8.557026
_cell_angle_alpha 90.000000
_cell_angle_beta 118.223268
_cell_angle_gamma 90.000000
_cell_volume 889.728476
_symmetry_space_group_name_H-M "P 21/C"
_symmetry_group_IT_number 14
_symmetry_cell_setting 'monoclinic'
loop_
_space_group_symop_operation_xyz
x,y,z
-x,1/2+y,1/2-z
-x,-y,-z
x,1/2-y,1/2+z
loop_
_atom_site_type_symbol
_atom_site_label
_atom_site_fract_x
_atom_site_fract_y
_atom_site_fract_z
Si Si1 0.563552 0.898666 0.841330
Si Si2 0.674775 0.132939 0.092820
Si Si3 0.333323 0.148496 0.419472
Si Si4 0.929234 0.827042 0.906513
Si Si5 0.102559 0.828310 0.304619
Si Si6 0.191910 0.457326 0.090491
O O1 0.431711 0.858547 0.840966
O O2 0.567596 0.869218 0.658559
O O3 0.657678 0.797316 0.001279
O O4 0.606832 0.051436 0.907373
O O5 0.753880 0.269542 0.125402
O O6 0.777462 0.028582 0.228722
O O7 0.200555 0.108407 0.244298
O O8 0.322321 0.063595 0.571164
O O9 0.023138 0.793755 0.826190
O O10 0.870496 0.685675 0.927512
O O11 0.021025 0.877900 0.103825
O O12 0.106753 0.940549 0.438178
#
# Coordination Sequence:
#
# PCOD9252821 Si02
#       6
#     4   4   4   4   4   4
#     4  11  25  47  74 101 143 184 246 292 349 429
#     4  11  27  48  70 104 141 189 237 301 350 419
#     4  12  24  46  76 103 137 194 234 289 361 421
#     4  12  24  45  70 105 141 183 231 288 356 425
#     4  12  27  43  72 105 142 186 230 296 352 429
#     4  12  26  47  70 106 145 187 234 291 363 418
#
# _framework density 26.974522
#
# number of rings (size 3 to 8) (size 9 to 14) (size 15 to 20)
#    0.000    0.333    6.667    0.500    4.667    1.333 
#    3.000    0.000    0.000    0.000    0.000    0.000 
#    0.000    0.000    0.000    0.000    0.000    0.000 
#
# Total GULP energy -134329.843221 kJ/mol
# GULP energy per Si atom -5597.076801 kJ/mol
# Density = 2.691313 g / cm^3
# Si number density = 26.974522 Si / 1000 Ang^3
#
#
#
# Elastic Constant Matrix: (Units=GPa)
#
#
# Indices 1 2 3 4 5 6 
#
# 1 130.2324 14.2403 6.8451 0.0000 -12.9196 0.0000
# 2 14.2403 63.2330 12.3090 0.0000 2.0247 0.0000
# 3 6.8451 12.3090 82.8081 0.0000 -0.3026 0.0000
# 4 0.0000 0.0000 0.0000 51.1317 0.0000 -6.1206
# 5 -12.9196 2.0247 -0.3026 0.0000 50.1646 0.0000
# 6 0.0000 0.0000 0.0000 -6.1206 0.0000 39.2944
#
#
#
# Elastic Compliance Matrix: (Units=1/GPa)
#
#
# Indices 1 2 3 4 5 6 
#
# 1 0.008113 -0.001820 -0.000392 0.000000 0.002160 0.000000
# 2 -0.001820 0.016717 -0.002339 0.000000 -0.001157 0.000000
# 3 -0.000392 -0.002339 0.012456 0.000000 0.000069 0.000000
# 4 0.000000 0.000000 0.000000 0.019929 0.000000 0.003104
# 5 0.002160 -0.001157 0.000069 0.000000 0.020538 0.000000
# 6 0.000000 0.000000 0.000000 0.003104 0.000000 0.025932
#
#
# Mechanical properties :
#
#
# Convention : Reuss Voigt Hill
#
# Bulk Modulus (GPa) = 35.48076 38.11803 36.79939
# Shear Modulus (GPa) = 40.92294 44.31009 42.61652
#
# Velocity S-wave (km/s) = 3.89922 4.05738 3.97908
# Velocity P-wave (km/s) = 5.78393 6.00929 5.89769
#
# Compressibility (1/GPa) = 0.02818429
#
# Stress axis : x y z
#
# Youngs Moduli (GPa) = 123.26649 59.82053 80.27993
#
# Poissons Ratio (x) = 0.10886 0.03149
# Poissons Ratio (y) = 0.22432 0.18775
# Poissons Ratio (z) = 0.04835 0.13990
#
# Static dielectric constant tensor:
#      x y z
#    x 2.162540 0.000000 0.037360 
#    y 0.000000 2.142560 0.000000 
#    z 0.037360 0.000000 2.098090 
# 
# From -- ./inp_files/12354.got.cif
#   From: 2010.05.17/outbox.cif.g08.bks.cpg/sg14_7_cif.got.tgz:12354.got - 2010.06.03 17:49:19.
