data_PCOD9252150
_publ_section_title
;
Structure prediction by ZEFSAII (Michael W. Deem and Ramdas Pophale) SiO2 
 PCOD9252150
Probable space group: P 21/C
;
_chemical_formula_sum "Si O2"
_cell_formula_units_Z 32
_cell_length_a 9.041159
_cell_length_b 11.787739
_cell_length_c 15.777584
_cell_angle_alpha 90.000000
_cell_angle_beta 70.122073
_cell_angle_gamma 90.000000
_cell_volume 1581.308483
_symmetry_space_group_name_H-M "P 21/C"
_symmetry_group_IT_number 14
_symmetry_cell_setting 'monoclinic'
loop_
_space_group_symop_operation_xyz
x,y,z
-x,1/2+y,1/2-z
-x,-y,-z
x,1/2-y,1/2+z
loop_
_atom_site_type_symbol
_atom_site_label
_atom_site_fract_x
_atom_site_fract_y
_atom_site_fract_z
Si Si1 0.018662 0.513418 0.096309
Si Si2 0.808052 0.832845 0.751002
Si Si3 0.699707 0.193171 0.093084
Si Si4 0.627004 0.450525 0.911367
Si Si5 0.920448 0.223969 0.699150
Si Si6 0.563029 0.638163 0.789233
Si Si7 0.461831 0.508616 0.645560
Si Si8 0.305323 0.797128 0.095805
O O1 0.197985 0.539520 0.085688
O O2 0.906019 0.610393 0.156159
O O3 0.971406 0.395472 0.149760
O O4 0.000000 0.500000 0.000000
O O5 0.708395 0.722142 0.744550
O O6 0.929948 0.796355 0.800041
O O7 0.683887 0.925030 0.808673
O O8 0.819518 0.211223 0.147094
O O9 0.564848 0.289041 0.133187
O O10 0.614042 0.071445 0.112533
O O11 0.764908 0.209388 0.985315
O O12 0.616164 0.527308 0.830221
O O13 0.597606 0.317513 0.904454
O O14 0.500000 0.500000 0.000000
O O15 0.821685 0.199470 0.804146
O O16 0.482858 0.593895 0.720107
O O17 0.416628 0.592843 0.578563
#
# Coordination Sequence:
#
# PCOD9252150 Si02
#       8
#     4   4   4   4   4   4   4   4
#     4  12  26  45  71 105 145 188 236 296 360 432
#     4  11  25  45  72 100 146 183 237 291 360 418
#     4  11  24  44  69 100 138 183 235 285 359 420
#     4  12  25  40  68 104 137 177 243 292 347 425
#     4  12  24  46  70 105 143 186 235 298 359 420
#     4  11  23  44  67 101 136 187 230 291 352 417
#     4  11  25  44  71  99 143 186 234 291 349 426
#     4  12  23  43  71  99 142 185 234 296 351 419
#
# _framework density 20.236408000000001
#
# number of rings (size 3 to 8) (size 9 to 14) (size 15 to 20)
#    0.000    0.500    6.250    1.875    3.500    0.000 
#    0.000    1.875    0.000    0.000    0.000    0.000 
#    0.000    0.000    0.000    0.000    0.000    0.000 
#
# Total GULP energy -178972.548397 kJ/mol
# GULP energy per Si atom -5592.892137 kJ/mol
# Density = 2.019035 g / cm^3
# Si number density = 20.236408 Si / 1000 Ang^3
#
#
#
# Elastic Constant Matrix: (Units=GPa)
#
#
# Indices 1 2 3 4 5 6 
#
# 1 116.3801 44.3340 44.3823 0.0000 8.1249 0.0000
# 2 44.3340 121.0345 46.7637 0.0000 -5.3602 0.0000
# 3 44.3823 46.7637 123.7710 0.0000 11.9698 0.0000
# 4 0.0000 0.0000 0.0000 32.5259 0.0000 -0.7481
# 5 8.1249 -5.3602 11.9698 0.0000 33.3644 0.0000
# 6 0.0000 0.0000 0.0000 -0.7481 0.0000 35.5334
#
#
#
# Elastic Compliance Matrix: (Units=1/GPa)
#
#
# Indices 1 2 3 4 5 6 
#
# 1 0.010896 -0.003121 -0.002510 0.000000 -0.002254 0.000000
# 2 -0.003121 0.010861 -0.003342 0.000000 0.003704 0.000000
# 3 -0.002510 -0.003342 0.010603 0.000000 -0.003730 0.000000
# 4 0.000000 0.000000 0.000000 0.030760 0.000000 0.000648
# 5 -0.002254 0.003704 -0.003730 0.000000 0.032454 0.000000
# 6 0.000000 0.000000 0.000000 0.000648 0.000000 0.028156
#
#
# Mechanical properties :
#
#
# Convention : Reuss Voigt Hill
#
# Bulk Modulus (GPa) = 69.38300 70.23841 69.81070
# Shear Modulus (GPa) = 34.13401 35.33177 34.73289
#
# Velocity S-wave (km/s) = 4.11148 4.18299 4.14739
# Velocity P-wave (km/s) = 7.54319 7.62326 7.58333
#
# Compressibility (1/GPa) = 0.01441275
#
# Stress axis : x y z
#
# Youngs Moduli (GPa) = 91.77601 92.07369 94.31291
#
# Poissons Ratio (x) = 0.28739 0.23671
# Poissons Ratio (y) = 0.28646 0.31524
# Poissons Ratio (z) = 0.23034 0.30775
#
# Static dielectric constant tensor:
#      x y z
#    x 1.712490 0.000000 0.000840 
#    y 0.000000 1.726300 0.000000 
#    z 0.000840 0.000000 1.721590 
# 
# From -- ./inp_files/40267.got.cif
#   From: 2010.05.17/outbox.cif.g08.bks.cpg/sg14_21_cif.got.tgz:40267.got - 2010.06.03 17:49:19.
