data_PCOD9252688
_publ_section_title
;
Structure prediction by ZEFSAII (Michael W. Deem and Ramdas Pophale) SiO2 
 PCOD9252688
Probable space group: P 21/C
;
_chemical_formula_sum "Si O2"
_cell_formula_units_Z 20
_cell_length_a 8.862839
_cell_length_b 4.918250
_cell_length_c 18.438161
_cell_angle_alpha 90.000000
_cell_angle_beta 89.542994
_cell_angle_gamma 90.000000
_cell_volume 803.687564
_symmetry_space_group_name_H-M "P 21/C"
_symmetry_group_IT_number 14
_symmetry_cell_setting 'monoclinic'
loop_
_space_group_symop_operation_xyz
x,y,z
-x,1/2+y,1/2-z
-x,-y,-z
x,1/2-y,1/2+z
loop_
_atom_site_type_symbol
_atom_site_label
_atom_site_fract_x
_atom_site_fract_y
_atom_site_fract_z
Si Si1 0.423013 0.853975 0.219855
Si Si2 0.083550 0.533302 0.719430
Si Si3 0.768080 0.926116 0.557244
Si Si4 0.571027 0.439707 0.577716
Si Si5 0.946103 0.707587 0.436730
O O1 0.483657 0.550197 0.227035
O O2 0.455771 0.981876 0.141123
O O3 0.248500 0.865054 0.240559
O O4 0.087609 0.455569 0.635131
O O5 0.963265 0.764614 0.737344
O O6 0.635426 0.137167 0.573387
O O7 0.922949 0.072493 0.580145
O O8 0.714984 0.639875 0.589584
O O9 0.803502 0.864435 0.472119
O O10 0.500000 0.500000 0.500000
O O11 0.000000 0.500000 0.500000
#
# Coordination Sequence:
#
# PCOD9252688 Si02
#       5
#     4   4   4   4   4
#     4  12  29  50  74 109 153 198 248 308 377 455
#     4  12  31  49  78 110 153 202 256 309 381 454
#     4  11  25  42  77 106 143 190 246 310 370 436
#     4  12  26  46  75 105 149 192 255 302 381 435
#     4  11  26  47  78 110 153 189 259 309 379 441
#
# _framework density 24.885290000000001
#
# number of rings (size 3 to 8) (size 9 to 14) (size 15 to 20)
#    0.000    0.400    2.000    4.200   14.000    1.600 
#    0.000    0.000    0.000    0.000    0.000    0.000 
#    0.000    0.000    0.000    0.000    0.000    0.000 
#
# Total GULP energy -112201.300292 kJ/mol
# GULP energy per Si atom -5610.065015 kJ/mol
# Density = 2.482865 g / cm^3
# Si number density = 24.885290 Si / 1000 Ang^3
#
#
#
# Elastic Constant Matrix: (Units=GPa)
#
#
# Indices 1 2 3 4 5 6 
#
# 1 70.4628 5.5633 0.7846 0.0000 -13.4410 0.0000
# 2 5.5633 107.2219 15.1118 0.0000 -2.6687 0.0000
# 3 0.7846 15.1118 86.7465 0.0000 -12.4515 0.0000
# 4 0.0000 0.0000 0.0000 43.0727 0.0000 -11.4810
# 5 -13.4410 -2.6687 -12.4515 0.0000 33.0113 0.0000
# 6 0.0000 0.0000 0.0000 -11.4810 0.0000 33.7445
#
#
#
# Elastic Compliance Matrix: (Units=1/GPa)
#
#
# Indices 1 2 3 4 5 6 
#
# 1 0.015502 -0.000773 0.000942 0.000000 0.006605 0.000000
# 2 -0.000773 0.009600 -0.001691 0.000000 -0.000176 0.000000
# 3 0.000942 -0.001691 0.012528 0.000000 0.004972 0.000000
# 4 0.000000 0.000000 0.000000 0.025532 0.000000 0.008687
# 5 0.006605 -0.000176 0.004972 0.000000 0.034843 0.000000
# 6 0.000000 0.000000 0.000000 0.008687 0.000000 0.032590
#
#
# Mechanical properties :
#
#
# Convention : Reuss Voigt Hill
#
# Bulk Modulus (GPa) = 28.91157 34.15006 31.53082
# Shear Modulus (GPa) = 34.44302 38.16378 36.30340
#
# Velocity S-wave (km/s) = 3.72435 3.92035 3.82361
# Velocity P-wave (km/s) = 5.48976 5.85192 5.67373
#
# Compressibility (1/GPa) = 0.03458823
#
# Stress axis : x y z
#
# Youngs Moduli (GPa) = 64.50636 104.16169 79.82384
#
# Poissons Ratio (x) = 0.08050 -0.07523
# Poissons Ratio (y) = 0.04985 0.13496
# Poissons Ratio (z) = -0.06080 0.17611
#
# Static dielectric constant tensor:
#      x y z
#    x 1.963180 0.000000 0.008180 
#    y 0.000000 1.907370 0.000000 
#    z 0.008180 0.000000 1.983550 
# 
# From -- ./inp_files/54002.got.cif
#   From: 2010.05.17/outbox.cif.g08.bks.cpg/sg14_28_cif.got.tgz:54002.got - 2010.06.03 17:49:19.
