data_PCOD9252986
_publ_section_title
;
Structure prediction by ZEFSAII (Michael W. Deem and Ramdas Pophale) SiO2 
 PCOD9252986
Probable space group: P 21/C
;
_chemical_formula_sum "Si O2"
_cell_formula_units_Z 18
_cell_length_a 22.208085
_cell_length_b 4.685097
_cell_length_c 27.367598
_cell_angle_alpha 90.000000
_cell_angle_beta 166.201223
_cell_angle_gamma 90.000000
_cell_volume 679.169133
_symmetry_space_group_name_H-M "P 21/C"
_symmetry_group_IT_number 14
_symmetry_cell_setting 'monoclinic'
loop_
_space_group_symop_operation_xyz
x,y,z
-x,1/2+y,1/2-z
-x,-y,-z
x,1/2-y,1/2+z
loop_
_atom_site_type_symbol
_atom_site_label
_atom_site_fract_x
_atom_site_fract_y
_atom_site_fract_z
Si Si1 0.868566 0.227870 0.296694
Si Si2 0.345891 0.499858 0.116011
Si Si3 0.478527 0.185942 0.911289
Si Si4 0.177597 0.174079 0.890310
Si Si5 0.000000 0.500000 0.500000
O O1 0.984573 0.441621 0.427812
O O2 0.089752 0.060620 0.443314
O O3 0.707760 0.012388 0.203704
O O4 0.673985 0.338929 0.102150
O O5 0.430823 0.823734 0.181954
O O6 0.318977 0.355444 0.042410
O O7 0.291924 0.379443 0.732663
O O8 0.641174 0.978443 0.005164
O O9 0.006020 0.917394 0.776542
#
# Coordination Sequence:
#
# PCOD9252986 Si02
#       5
#     4   4   4   4   2
#     4  11  27  49  78 113 162 208 264 332 398 478
#     4  12  28  49  77 116 159 209 268 335 400 478
#     4  11  27  50  78 115 157 212 268 329 399 479
#     4  12  27  51  79 114 158 214 268 328 402 476
#     4  12  26  46  80 114 150 204 264 328 396 472
#
# _framework density 26.502970000000001
#
# number of rings (size 3 to 8) (size 9 to 14) (size 15 to 20)
#    0.000    0.444    2.222    4.000    9.333    1.778 
#    0.000    0.000    0.000    0.000    0.000    0.000 
#    0.000    0.000    0.000    0.000    0.000    0.000 
#
# Total GULP energy -100478.276946 kJ/mol
# GULP energy per Si atom -5582.126497 kJ/mol
# Density = 2.644265 g / cm^3
# Si number density = 26.502970 Si / 1000 Ang^3
#
#
#
# Elastic Constant Matrix: (Units=GPa)
#
#
# Indices 1 2 3 4 5 6 
#
# 1 149.8779 21.4748 77.6314 0.0000 -3.3150 0.0000
# 2 21.4748 68.4707 38.2309 0.0000 -11.8669 0.0000
# 3 77.6314 38.2309 150.1515 0.0000 -26.3885 0.0000
# 4 0.0000 0.0000 0.0000 7.3454 0.0000 52.8706
# 5 -3.3150 -11.8669 -26.3885 0.0000 84.9829 0.0000
# 6 0.0000 0.0000 0.0000 52.8706 0.0000 -2.4294
#
#
#
# Elastic Compliance Matrix: (Units=1/GPa)
#
#
# Indices 1 2 3 4 5 6 
#
# 1 0.009232 -0.000375 -0.004891 0.000000 -0.001211 0.000000
# 2 -0.000375 0.017137 -0.003968 0.000000 0.001146 0.000000
# 3 -0.004891 -0.003968 0.010649 0.000000 0.002562 0.000000
# 4 0.000000 0.000000 0.000000 0.000864 0.000000 0.018794
# 5 -0.001211 0.001146 0.002562 0.000000 0.012675 0.000000
# 6 0.000000 0.000000 0.000000 0.018794 0.000000 -0.002611
#
#
# Mechanical properties :
#
#
# Convention : Reuss Voigt Hill
#
# Bulk Modulus (GPa) = 53.90543 71.46383 62.68463
# Shear Modulus (GPa) = 68.87429 33.39065 51.13247
#
# Velocity S-wave (km/s) = 5.10331 3.55333 4.39716
# Velocity P-wave (km/s) = 7.42352 6.62253 7.03443
#
# Compressibility (1/GPa) = 0.01855101
#
# Stress axis : x y z
#
# Youngs Moduli (GPa) = 108.31693 58.35486 93.90508
#
# Poissons Ratio (x) = 0.02186 0.45925
# Poissons Ratio (y) = 0.04058 0.37262
# Poissons Ratio (z) = 0.52974 0.23156
#
# Static dielectric constant tensor:
#      x y z
#    x 2.084270 0.000000 -0.079810 
#    y 0.000000 2.063280 0.000000 
#    z -0.079810 0.000000 2.166360 
# 
# From -- ./inp_files/80596.got.cif
#   From: 2010.05.17/outbox.cif.g08.bks.cpg/sg14_41_cif.got.tgz:80596.got - 2010.06.03 17:49:19.
