data_PCOD9252420
_publ_section_title
;
Structure prediction by ZEFSAII (Michael W. Deem and Ramdas Pophale) SiO2 
 PCOD9252420
Probable space group: P 21/C
;
_chemical_formula_sum "Si O2"
_cell_formula_units_Z 16
_cell_length_a 15.798678
_cell_length_b 4.870416
_cell_length_c 26.520428
_cell_angle_alpha 90.000000
_cell_angle_beta 18.019151
_cell_angle_gamma 90.000000
_cell_volume 631.242465
_symmetry_space_group_name_H-M "P 21/C"
_symmetry_group_IT_number 14
_symmetry_cell_setting 'monoclinic'
loop_
_space_group_symop_operation_xyz
x,y,z
-x,1/2+y,1/2-z
-x,-y,-z
x,1/2-y,1/2+z
loop_
_atom_site_type_symbol
_atom_site_label
_atom_site_fract_x
_atom_site_fract_y
_atom_site_fract_z
Si Si1 0.451946 0.915131 0.809260
Si Si2 0.637564 0.249424 0.851933
Si Si3 0.157748 0.265369 0.819684
Si Si4 0.171534 0.570338 0.650778
O O1 0.508750 0.731782 0.727380
O O2 0.673999 0.822609 0.724658
O O3 0.142782 0.851811 0.000645
O O4 0.670007 0.549089 0.811549
O O5 0.674451 0.226155 0.891100
O O6 0.855372 0.055250 0.701345
O O7 0.350070 0.089015 0.008122
O O8 0.008025 0.317639 0.768786
#
# Coordination Sequence:
#
# PCOD9252420 Si02
#       4
#     4   4   4   4
#     4  12  26  48  72 104 140 184 230 296 366 414
#     4  11  26  43  66 109 135 188 234 286 348 404
#     4  12  26  44  76 103 141 182 238 289 342 437
#     4  11  24  43  70  96 150 183 230 289 344 413
#
# _framework density 25.346834999999999
#
# number of rings (size 3 to 8) (size 9 to 14) (size 15 to 20)
#    0.000    0.500    0.000    7.500   10.500    4.000 
#    0.000    0.000    0.000    0.000    0.000    0.000 
#    0.000    0.000    0.000    0.000    0.000    0.000 
#
# Total GULP energy -89667.460392 kJ/mol
# GULP energy per Si atom -5604.216274 kJ/mol
# Density = 2.528914 g / cm^3
# Si number density = 25.346835 Si / 1000 Ang^3
#
#
#
# Elastic Constant Matrix: (Units=GPa)
#
#
# Indices 1 2 3 4 5 6 
#
# 1 78.1780 3.4442 -0.0658 0.0000 -7.7151 0.0001
# 2 3.4442 114.5812 -6.9127 0.0000 -1.8737 0.0000
# 3 -0.0658 -6.9127 88.4018 0.0000 -8.6798 0.0003
# 4 0.0000 0.0000 0.0000 58.2601 0.0000 13.6594
# 5 -7.7151 -1.8737 -8.6798 0.0000 22.7994 -0.0002
# 6 0.0001 0.0000 0.0003 13.6594 -0.0002 -102.1041
#
#
#
# Elastic Compliance Matrix: (Units=1/GPa)
#
#
# Indices 1 2 3 4 5 6 
#
# 1 0.013262 -0.000296 0.000441 0.000000 0.004631 0.000000
# 2 -0.000296 0.008798 0.000778 0.000000 0.000919 0.000000
# 3 0.000441 0.000778 0.011837 0.000000 0.004719 0.000000
# 4 0.000000 0.000000 0.000000 0.016642 0.000000 0.002226
# 5 0.004631 0.000919 0.004719 0.000000 0.047300 0.000000
# 6 0.000000 0.000000 0.000000 0.002226 0.000000 -0.009496
#
#
# Mechanical properties :
#
#
# Convention : Reuss Voigt Hill
#
# Bulk Modulus (GPa) = 27.97751 30.45471 29.21611
# Shear Modulus (GPa) = 50.80724 14.77079 32.78901
#
# Velocity S-wave (km/s) = 4.48200 2.41663 3.60059
# Velocity P-wave (km/s) = 6.15193 4.45288 5.37003
#
# Compressibility (1/GPa) = 0.03574300
#
# Stress axis : x y z
#
# Youngs Moduli (GPa) = 75.40451 113.65822 84.48418
#
# Poissons Ratio (x) = 0.03367 -0.03729
# Poissons Ratio (y) = 0.02234 -0.06573
# Poissons Ratio (z) = -0.03329 -0.08843
#
# Static dielectric constant tensor:
#      x y z
#    x 2.055500 0.000000 -0.077800 
#    y 0.000000 1.911040 0.000000 
#    z -0.077800 0.000000 2.103170 
# 
# From -- ./inp_files/27283.got.cif
#   From: 2010.05.17/outbox.cif.g08.bks.cpg/sg14_14_cif.got.tgz:27283.got - 2010.06.03 17:49:19.
