data_PCOD9252434
_publ_section_title
;
Structure prediction by ZEFSAII (Michael W. Deem and Ramdas Pophale) SiO2 
 PCOD9252434
Probable space group: P 21/C
;
_chemical_formula_sum "Si O2"
_cell_formula_units_Z 32
_cell_length_a 22.840274
_cell_length_b 5.325640
_cell_length_c 20.168164
_cell_angle_alpha 90.000000
_cell_angle_beta 148.578147
_cell_angle_gamma 90.000000
_cell_volume 1278.958587
_symmetry_space_group_name_H-M "P 21/C"
_symmetry_group_IT_number 14
_symmetry_cell_setting 'monoclinic'
loop_
_space_group_symop_operation_xyz
x,y,z
-x,1/2+y,1/2-z
-x,-y,-z
x,1/2-y,1/2+z
loop_
_atom_site_type_symbol
_atom_site_label
_atom_site_fract_x
_atom_site_fract_y
_atom_site_fract_z
Si Si1 0.419807 0.296857 0.452751
Si Si2 0.404012 0.993701 0.306968
Si Si3 0.141371 0.580278 0.552158
Si Si4 0.467829 0.637752 0.186994
Si Si5 0.990673 0.789992 0.784043
Si Si6 0.745195 0.383088 0.636649
Si Si7 0.734025 0.620378 0.062252
Si Si8 0.959576 0.291335 0.911628
O O1 0.500000 0.500000 0.500000
O O2 0.492906 0.205717 0.586755
O O3 0.307757 0.456020 0.355857
O O4 0.396647 0.091959 0.374968
O O5 0.463656 0.191026 0.315238
O O6 0.274640 0.925239 0.166041
O O7 0.116700 0.639628 0.607291
O O8 0.075526 0.729779 0.429430
O O9 0.067986 0.325541 0.481211
O O10 0.463553 0.896952 0.220879
O O11 0.343400 0.513207 0.066257
O O12 0.024996 0.025721 0.769809
O O13 0.866964 0.882348 0.685874
O O14 0.709919 0.581984 0.545554
O O15 0.876563 0.383546 0.775120
O O16 0.709834 0.092483 0.596427
O O17 0.000000 0.500000 0.000000
#
# Coordination Sequence:
#
# PCOD9252434 Si02
#       8
#     4   4   4   4   4   4   4   4
#     4  11  24  43  73 110 148 194 240 304 387 453
#     4  11  26  46  72 111 150 193 247 311 376 456
#     4  11  26  46  72 111 150 193 247 311 376 456
#     4  12  29  50  75 106 145 202 257 314 373 441
#     4  12  29  50  75 106 145 202 257 314 373 441
#     4  12  24  44  77 108 151 194 244 306 380 472
#     4  12  26  50  75 106 151 200 254 310 378 458
#     4  11  24  43  73 110 148 194 240 304 387 453
#
# _framework density 25.020358000000002
#
# number of rings (size 3 to 8) (size 9 to 14) (size 15 to 20)
#    0.000    0.500    2.500    4.500   12.250    0.000 
#    0.000    0.000    0.000    0.000    0.000    0.000 
#    0.000    0.000    0.000    0.000    0.000    0.000 
#
# Total GULP energy -178226.347636 kJ/mol
# GULP energy per Si atom -5569.573364 kJ/mol
# Density = 2.496341 g / cm^3
# Si number density = 25.020358 Si / 1000 Ang^3
#
#
#
# Elastic Constant Matrix: (Units=GPa)
#
#
# Indices 1 2 3 4 5 6 
#
# 1 72.2084 11.8223 16.2146 0.0000 12.7996 0.0000
# 2 11.8223 91.9029 31.2237 0.0000 -5.5079 0.0000
# 3 16.2146 31.2237 163.9323 0.0000 19.0610 0.0000
# 4 0.0000 0.0000 0.0000 33.3654 0.0000 -6.3307
# 5 12.7996 -5.5079 19.0610 0.0000 43.1907 0.0000
# 6 0.0000 0.0000 0.0000 -6.3307 0.0000 44.0235
#
#
#
# Elastic Compliance Matrix: (Units=1/GPa)
#
#
# Indices 1 2 3 4 5 6 
#
# 1 0.015103 -0.002010 -0.000591 0.000000 -0.004471 0.000000
# 2 -0.002010 0.012184 -0.002500 0.000000 0.003253 0.000000
# 3 -0.000591 -0.002500 0.007011 0.000000 -0.003238 0.000000
# 4 0.000000 0.000000 0.000000 0.030812 0.000000 0.004431
# 5 -0.004471 0.003253 -0.003238 0.000000 0.026322 0.000000
# 6 0.000000 0.000000 0.000000 0.004431 0.000000 0.023352
#
#
# Mechanical properties :
#
#
# Convention : Reuss Voigt Hill
#
# Bulk Modulus (GPa) = 41.50064 49.61832 45.55948
# Shear Modulus (GPa) = 37.58868 42.03480 39.81174
#
# Velocity S-wave (km/s) = 3.88019 4.10326 3.99328
# Velocity P-wave (km/s) = 6.05782 6.50563 6.28571
#
# Compressibility (1/GPa) = 0.02409601
#
# Stress axis : x y z
#
# Youngs Moduli (GPa) = 66.21105 82.07534 142.62907
#
# Poissons Ratio (x) = 0.16497 0.08431
# Poissons Ratio (y) = 0.13308 0.35658
# Poissons Ratio (z) = 0.03914 0.20519
#
# Static dielectric constant tensor:
#      x y z
#    x 2.227300 0.000000 -0.111160 
#    y 0.000000 2.022610 0.000000 
#    z -0.111160 0.000000 1.979610 
# 
# From -- ./inp_files/70110.got.cif
#   From: 2010.05.17/outbox.cif.g08.bks.cpg/sg14_36_cif.got.tgz:70110.got - 2010.06.03 17:49:19.
