data_PCOD9252717
_publ_section_title
;
Structure prediction by ZEFSAII (Michael W. Deem and Ramdas Pophale) SiO2 
 PCOD9252717
Probable space group: P 21/C
;
_chemical_formula_sum "Si O2"
_cell_formula_units_Z 20
_cell_length_a 18.960042
_cell_length_b 5.479190
_cell_length_c 15.186163
_cell_angle_alpha 90.000000
_cell_angle_beta 32.188500
_cell_angle_gamma 90.000000
_cell_volume 840.410842
_symmetry_space_group_name_H-M "P 21/C"
_symmetry_group_IT_number 14
_symmetry_cell_setting 'monoclinic'
loop_
_space_group_symop_operation_xyz
x,y,z
-x,1/2+y,1/2-z
-x,-y,-z
x,1/2-y,1/2+z
loop_
_atom_site_type_symbol
_atom_site_label
_atom_site_fract_x
_atom_site_fract_y
_atom_site_fract_z
Si Si1 0.180043 0.666741 0.738789
Si Si2 0.141762 0.514319 0.121638
Si Si3 0.578317 0.693282 0.188058
Si Si4 0.518529 0.250858 0.530777
Si Si5 0.968425 0.281506 0.932461
O O1 0.333685 0.717279 0.589327
O O2 0.102306 0.410895 0.826675
O O3 0.161795 0.739312 0.655984
O O4 0.112341 0.800452 0.895721
O O5 0.117158 0.544151 0.043269
O O6 0.018461 0.409244 0.306950
O O7 0.274132 0.356840 0.001062
O O8 0.498401 0.432859 0.267742
O O9 0.587727 0.755721 0.279993
O O10 0.500000 0.500000 0.500000
O O11 0.500000 0.000000 0.500000
#
# Coordination Sequence:
#
# PCOD9252717 Si02
#       5
#     4   4   4   4   4
#     4  11  25  48  70 105 152 192 247 319 370 452
#     4  12  24  45  74 107 148 192 256 307 376 462
#     4  12  26  47  77 107 148 201 249 313 381 444
#     4  12  27  48  74 109 150 199 256 313 382 451
#     4  11  25  44  74 107 144 198 250 303 389 444
#
# _framework density 23.797884
#
# number of rings (size 3 to 8) (size 9 to 14) (size 15 to 20)
#    0.000    0.400    4.000    4.200    2.800    1.600 
#    0.000    0.000    0.000    0.000    0.000    0.000 
#    0.000    0.000    0.000    0.000    0.000    0.000 
#
# Total GULP energy -111509.965772 kJ/mol
# GULP energy per Si atom -5575.498289 kJ/mol
# Density = 2.374372 g / cm^3
# Si number density = 23.797884 Si / 1000 Ang^3
#
#
#
# Elastic Constant Matrix: (Units=GPa)
#
#
# Indices 1 2 3 4 5 6 
#
# 1 80.8220 16.9813 7.4908 0.0000 -2.1144 0.0000
# 2 16.9813 89.4263 0.7310 0.0000 -4.2726 0.0000
# 3 7.4908 0.7310 110.8724 0.0000 13.2854 0.0000
# 4 0.0000 0.0000 0.0000 32.6197 0.0000 8.5696
# 5 -2.1144 -4.2726 13.2854 0.0000 50.0261 0.0000
# 6 0.0000 0.0000 0.0000 8.5696 0.0000 35.7725
#
#
#
# Elastic Compliance Matrix: (Units=1/GPa)
#
#
# Indices 1 2 3 4 5 6 
#
# 1 0.012985 -0.002430 -0.000932 0.000000 0.000589 0.000000
# 2 -0.002430 0.011687 -0.000021 0.000000 0.000901 0.000000
# 3 -0.000932 -0.000021 0.009386 0.000000 -0.002534 0.000000
# 4 0.000000 0.000000 0.000000 0.032715 0.000000 -0.007837
# 5 0.000589 0.000901 -0.002534 0.000000 0.020764 0.000000
# 6 0.000000 0.000000 0.000000 -0.007837 0.000000 0.029832
#
#
# Mechanical properties :
#
#
# Convention : Reuss Voigt Hill
#
# Bulk Modulus (GPa) = 36.63953 36.83632 36.73793
# Shear Modulus (GPa) = 37.52825 40.74482 39.13654
#
# Velocity S-wave (km/s) = 3.97540 4.14227 4.05969
# Velocity P-wave (km/s) = 6.04163 6.19599 6.11930
#
# Compressibility (1/GPa) = 0.02729293
#
# Stress axis : x y z
#
# Youngs Moduli (GPa) = 77.01069 85.56482 106.54064
#
# Poissons Ratio (x) = 0.20792 0.09928
# Poissons Ratio (y) = 0.18714 0.00222
# Poissons Ratio (z) = 0.07176 0.00178
#
# Static dielectric constant tensor:
#      x y z
#    x 1.729060 0.000000 0.213700 
#    y 0.000000 1.934440 0.000000 
#    z 0.213700 0.000000 1.706090 
# 
# From -- ./inp_files/42613.got.cif
#   From: 2010.05.17/outbox.cif.g08.bks.cpg/sg14_22_cif.got.tgz:42613.got - 2010.06.03 17:49:19.
