data_PCOD9252348
_publ_section_title
;
Structure prediction by ZEFSAII (Michael W. Deem and Ramdas Pophale) SiO2 
 PCOD9252348
Probable space group: P 21/C
;
_chemical_formula_sum "Si O2"
_cell_formula_units_Z 24
_cell_length_a 14.538736
_cell_length_b 7.803892
_cell_length_c 17.182459
_cell_angle_alpha 90.000000
_cell_angle_beta 29.931202
_cell_angle_gamma 90.000000
_cell_volume 972.721999
_symmetry_space_group_name_H-M "P 21/C"
_symmetry_group_IT_number 14
_symmetry_cell_setting 'monoclinic'
loop_
_space_group_symop_operation_xyz
x,y,z
-x,1/2+y,1/2-z
-x,-y,-z
x,1/2-y,1/2+z
loop_
_atom_site_type_symbol
_atom_site_label
_atom_site_fract_x
_atom_site_fract_y
_atom_site_fract_z
Si Si1 0.735329 0.993476 0.539377
Si Si2 0.589179 0.124935 0.128058
Si Si3 0.071648 0.469017 0.535704
Si Si4 0.065009 0.583737 0.872072
Si Si5 0.739431 0.601482 0.867560
Si Si6 0.410439 0.788956 0.044725
O O1 0.620330 0.909585 0.693640
O O2 0.953169 0.024957 0.390672
O O3 0.714244 0.879512 0.477894
O O4 0.641851 0.177464 0.600189
O O5 0.613865 0.106408 0.017269
O O6 0.722761 0.019130 0.088535
O O7 0.028442 0.268850 0.575873
O O8 0.000000 0.500000 0.500000
O O9 0.944200 0.583996 0.685346
O O10 0.280268 0.619204 0.703382
O O11 0.000000 0.500000 0.000000
O O12 0.665483 0.406652 0.906646
O O13 0.620603 0.746207 0.911971
#
# Coordination Sequence:
#
# PCOD9252348 Si02
#       6
#     4   4   4   4   4   4
#     4  11  24  41  68 100 141 183 239 299 362 431
#     4  11  24  43  69 102 138 186 239 297 362 435
#     4  11  24  41  71  99 136 187 236 289 366 431
#     4  11  24  43  68 101 143 181 232 297 361 436
#     4   9  21  40  70  98 137 187 234 293 355 438
#     4   9  21  42  69 100 139 181 238 290 361 428
#
# _framework density 24.673030000000001
#
# number of rings (size 3 to 8) (size 9 to 14) (size 15 to 20)
#    0.000    1.667    0.000    3.000   14.000    0.000 
#    0.000    5.833    0.000    0.000    0.000    0.000 
#    0.000    0.000    0.000    0.000    0.000    0.000 
#
# Total GULP energy -134100.709817 kJ/mol
# GULP energy per Si atom -5587.529576 kJ/mol
# Density = 2.461687 g / cm^3
# Si number density = 24.673030 Si / 1000 Ang^3
#
#
#
# Elastic Constant Matrix: (Units=GPa)
#
#
# Indices 1 2 3 4 5 6 
#
# 1 85.9061 32.6231 30.8603 0.0000 0.2893 0.0000
# 2 32.6231 88.5103 32.1138 0.0000 -0.9630 0.0000
# 3 30.8603 32.1138 126.7967 0.0000 -5.2641 0.0000
# 4 0.0000 0.0000 0.0000 38.5905 0.0000 -7.2579
# 5 0.2893 -0.9630 -5.2641 0.0000 46.7992 0.0000
# 6 0.0000 0.0000 0.0000 -7.2579 0.0000 40.3070
#
#
#
# Elastic Compliance Matrix: (Units=1/GPa)
#
#
# Indices 1 2 3 4 5 6 
#
# 1 0.014146 -0.004364 -0.002356 0.000000 -0.000442 0.000000
# 2 -0.004364 0.013788 -0.002428 0.000000 0.000038 0.000000
# 3 -0.002356 -0.002428 0.009116 0.000000 0.000990 0.000000
# 4 0.000000 0.000000 0.000000 0.026821 0.000000 0.004830
# 5 -0.000442 0.000038 0.000990 0.000000 0.021483 0.000000
# 6 0.000000 0.000000 0.000000 0.004830 0.000000 0.025679
#
#
# Mechanical properties :
#
#
# Convention : Reuss Voigt Hill
#
# Bulk Modulus (GPa) = 53.32360 54.71195 54.01778
# Shear Modulus (GPa) = 36.87838 38.84707 37.86273
#
# Velocity S-wave (km/s) = 3.87031 3.97227 3.92162
# Velocity P-wave (km/s) = 6.45224 6.57735 6.51509
#
# Compressibility (1/GPa) = 0.01875342
#
# Stress axis : x y z
#
# Youngs Moduli (GPa) = 70.69338 72.52663 109.69483
#
# Poissons Ratio (x) = 0.31649 0.25844
# Poissons Ratio (y) = 0.30849 0.26639
# Poissons Ratio (z) = 0.16655 0.17613
#
# Static dielectric constant tensor:
#      x y z
#    x 2.031960 0.000000 -0.023200 
#    y 0.000000 2.045150 0.000000 
#    z -0.023200 0.000000 1.916790 
# 
# From -- ./inp_files/58989.got.cif
#   From: 2010.05.17/outbox.cif.g08.bks.cpg/sg14_30_cif.got.tgz:58989.got - 2010.06.03 17:49:19.
