data_PCOD9252211
_publ_section_title
;
Structure prediction by ZEFSAII (Michael W. Deem and Ramdas Pophale) SiO2 
 PCOD9252211
Probable space group: P 21/C
;
_chemical_formula_sum "Si O2"
_cell_formula_units_Z 24
_cell_length_a 8.938802
_cell_length_b 8.830309
_cell_length_c 12.971081
_cell_angle_alpha 90.000000
_cell_angle_beta 71.970254
_cell_angle_gamma 90.000000
_cell_volume 973.563741
_symmetry_space_group_name_H-M "P 21/C"
_symmetry_group_IT_number 14
_symmetry_cell_setting 'monoclinic'
loop_
_space_group_symop_operation_xyz
x,y,z
-x,1/2+y,1/2-z
-x,-y,-z
x,1/2-y,1/2+z
loop_
_atom_site_type_symbol
_atom_site_label
_atom_site_fract_x
_atom_site_fract_y
_atom_site_fract_z
Si Si1 0.068185 0.556262 0.266145
Si Si2 0.862839 0.865480 0.611545
Si Si3 0.859900 0.200819 0.581947
Si Si4 0.506047 0.525621 0.351507
Si Si5 0.650702 0.655688 0.778426
Si Si6 0.758908 0.078258 0.937231
O O1 0.147001 0.685145 0.320811
O O2 0.200059 0.433532 0.204604
O O3 0.979249 0.622309 0.186027
O O4 0.929730 0.485091 0.368258
O O5 0.732391 0.746469 0.667556
O O6 0.958068 0.820621 0.489848
O O7 0.799177 0.034042 0.613552
O O8 0.784500 0.270417 0.495942
O O9 0.457298 0.473149 0.248401
O O10 0.560058 0.702890 0.350812
O O11 0.356168 0.493176 0.457275
O O12 0.651394 0.424916 0.359603
#
# Coordination Sequence:
#
# PCOD9252211 Si02
#       6
#     4   4   4   4   4   4
#     4  12  23  47  80 103 148 200 255 298 368 442
#     4  11  25  42  73 114 141 182 255 308 359 432
#     4  11  24  43  72 110 142 182 248 316 353 434
#     4  11  27  43  70 104 151 186 241 304 384 436
#     4  12  25  47  70 107 142 197 245 306 370 451
#     4  11  23  45  70 101 143 198 240 296 370 443
#
# _framework density 24.651700000000002
#
# number of rings (size 3 to 8) (size 9 to 14) (size 15 to 20)
#    0.000    0.667    5.000    2.500    2.333    1.333 
#    3.000    0.833    0.000    0.000    0.000    0.000 
#    0.000    0.000    0.000    0.000    0.000    0.000 
#
# Total GULP energy -134121.634247 kJ/mol
# GULP energy per Si atom -5588.401427 kJ/mol
# Density = 2.459559 g / cm^3
# Si number density = 24.651700 Si / 1000 Ang^3
#
#
#
# Elastic Constant Matrix: (Units=GPa)
#
#
# Indices 1 2 3 4 5 6 
#
# 1 101.5994 45.6742 28.3749 0.0000 -13.0953 0.0000
# 2 45.6742 112.4537 29.9851 0.0000 11.1365 0.0000
# 3 28.3749 29.9851 75.8167 0.0000 -6.6452 0.0000
# 4 0.0000 0.0000 0.0000 22.7004 0.0000 -19.9134
# 5 -13.0953 11.1365 -6.6452 0.0000 30.9601 0.0000
# 6 0.0000 0.0000 0.0000 -19.9134 0.0000 30.3384
#
#
#
# Elastic Compliance Matrix: (Units=1/GPa)
#
#
# Indices 1 2 3 4 5 6 
#
# 1 0.014096 -0.005865 -0.002292 0.000000 0.007580 0.000000
# 2 -0.005865 0.013038 -0.003659 0.000000 -0.007956 0.000000
# 3 -0.002292 -0.003659 0.015822 0.000000 0.003743 0.000000
# 4 0.000000 0.000000 0.000000 0.103845 0.000000 0.068162
# 5 0.007580 -0.007956 0.003743 0.000000 0.039171 0.000000
# 6 0.000000 0.000000 0.000000 0.068162 0.000000 0.077701
#
#
# Mechanical properties :
#
#
# Convention : Reuss Voigt Hill
#
# Bulk Modulus (GPa) = 51.74389 55.32646 53.53518
# Shear Modulus (GPa) = 17.02144 29.18883 23.10513
#
# Velocity S-wave (km/s) = 2.63054 3.44473 3.06480
# Velocity P-wave (km/s) = 5.50108 6.18980 5.85557
#
# Compressibility (1/GPa) = 0.01932595
#
# Stress axis : x y z
#
# Youngs Moduli (GPa) = 70.94113 76.69807 63.20117
#
# Poissons Ratio (x) = 0.44983 0.14484
# Poissons Ratio (y) = 0.41606 0.23124
# Poissons Ratio (z) = 0.16257 0.28063
#
# Static dielectric constant tensor:
#      x y z
#    x 1.994900 0.000000 -0.052410 
#    y 0.000000 1.955260 0.000000 
#    z -0.052410 0.000000 1.975860 
# 
# From -- ./inp_files/38924.got.cif
#   From: 2010.05.17/outbox.cif.g08.bks.cpg/sg14_20_cif.got.tgz:38924.got - 2010.06.03 17:49:19.
