data_PCOD9252487
_publ_section_title
;
Structure prediction by ZEFSAII (Michael W. Deem and Ramdas Pophale) SiO2 
 PCOD9252487
Probable space group: P 21/C
;
_chemical_formula_sum "Si O2"
_cell_formula_units_Z 24
_cell_length_a 8.962614
_cell_length_b 17.774053
_cell_length_c 13.326266
_cell_angle_alpha 90.000000
_cell_angle_beta 146.236016
_cell_angle_gamma 90.000000
_cell_volume 1179.851105
_symmetry_space_group_name_H-M "P 21/C"
_symmetry_group_IT_number 14
_symmetry_cell_setting 'monoclinic'
loop_
_space_group_symop_operation_xyz
x,y,z
-x,1/2+y,1/2-z
-x,-y,-z
x,1/2-y,1/2+z
loop_
_atom_site_type_symbol
_atom_site_label
_atom_site_fract_x
_atom_site_fract_y
_atom_site_fract_z
Si Si1 0.266459 0.505124 0.083956
Si Si2 0.093002 0.087349 0.300783
Si Si3 0.453435 0.841268 0.588540
Si Si4 0.728079 0.802606 0.941426
Si Si5 0.182136 0.479645 0.506269
Si Si6 0.234001 0.727256 0.308904
O O1 0.303723 0.587565 0.054885
O O2 0.520966 0.492786 0.298271
O O3 0.245616 0.445059 0.982908
O O4 0.000000 0.500000 0.000000
O O5 0.309808 0.124742 0.348103
O O6 0.870214 0.148109 0.207134
O O7 0.946277 0.019768 0.160840
O O8 0.589820 0.795845 0.755785
O O9 0.271920 0.787694 0.418897
O O10 0.801787 0.890213 0.996423
O O11 0.511961 0.779971 0.904726
O O12 0.997702 0.755394 0.103928
O O13 0.000000 0.500000 0.500000
#
# Coordination Sequence:
#
# PCOD9252487 Si02
#       6
#     4   4   4   4   4   4
#     4  11  25  45  71 104 137 177 233 293 338 404
#     4  12  24  44  73 103 134 184 234 280 353 405
#     4  11  25  45  69 103 138 183 232 281 351 412
#     4  11  26  45  68 100 140 178 231 281 347 408
#     4  11  24  44  73  99 134 181 234 285 335 408
#     4  12  27  44  69 103 141 182 222 290 345 422
#
# _framework density 20.341549000000001
#
# number of rings (size 3 to 8) (size 9 to 14) (size 15 to 20)
#    0.000    0.667    5.000    3.500    4.667    5.333 
#    0.000    0.000    0.000    0.000    0.000    0.000 
#    0.000    0.000    0.000    0.000    0.000    0.000 
#
# Total GULP energy -134328.001028 kJ/mol
# GULP energy per Si atom -5597.000043 kJ/mol
# Density = 2.029525 g / cm^3
# Si number density = 20.341549 Si / 1000 Ang^3
#
#
#
# Elastic Constant Matrix: (Units=GPa)
#
#
# Indices 1 2 3 4 5 6 
#
# 1 54.4792 15.2763 5.5291 0.0000 4.3401 0.0000
# 2 15.2763 37.4717 8.7102 0.0000 2.8112 0.0000
# 3 5.5291 8.7102 35.3720 0.0000 13.2641 0.0000
# 4 0.0000 0.0000 0.0000 40.0261 0.0000 0.2218
# 5 4.3401 2.8112 13.2641 0.0000 37.7649 0.0000
# 6 0.0000 0.0000 0.0000 0.2218 0.0000 24.7104
#
#
#
# Elastic Compliance Matrix: (Units=1/GPa)
#
#
# Indices 1 2 3 4 5 6 
#
# 1 0.020854 -0.008234 -0.000649 0.000000 -0.001556 0.000000
# 2 -0.008234 0.031563 -0.006863 0.000000 0.001007 0.000000
# 3 -0.000649 -0.006863 0.034369 0.000000 -0.011486 0.000000
# 4 0.000000 0.000000 0.000000 0.024985 0.000000 -0.000224
# 5 -0.001556 0.001007 -0.011486 0.000000 0.030618 0.000000
# 6 0.000000 0.000000 0.000000 -0.000224 0.000000 0.040471
#
#
# Mechanical properties :
#
#
# Convention : Reuss Voigt Hill
#
# Bulk Modulus (GPa) = 18.08468 20.70602 19.39535
# Shear Modulus (GPa) = 21.47912 27.02077 24.24995
#
# Velocity S-wave (km/s) = 3.25302 3.64861 3.45648
# Velocity P-wave (km/s) = 4.79785 5.28688 5.04829
#
# Compressibility (1/GPa) = 0.05529542
#
# Stress axis : x y z
#
# Youngs Moduli (GPa) = 47.95157 31.68226 29.09561
#
# Poissons Ratio (x) = 0.26088 0.01888
# Poissons Ratio (y) = 0.39485 0.19968
# Poissons Ratio (z) = 0.03111 0.21743
#
# Static dielectric constant tensor:
#      x y z
#    x 1.702510 0.000000 -0.033110 
#    y 0.000000 1.704970 0.000000 
#    z -0.033110 0.000000 1.569690 
# 
# From -- ./inp_files/16601.got.cif
#   From: 2010.05.17/outbox.cif.g08.bks.cpg/sg14_9_cif.got.tgz:16601.got - 2010.06.03 17:49:19.
