data_PCOD9252679
_publ_section_title
;
Structure prediction by ZEFSAII (Michael W. Deem and Ramdas Pophale) SiO2 
 PCOD9252679
Probable space group: P 21/C
;
_chemical_formula_sum "Si O2"
_cell_formula_units_Z 20
_cell_length_a 4.837911
_cell_length_b 5.116045
_cell_length_c 31.466053
_cell_angle_alpha 90.000000
_cell_angle_beta 81.447739
_cell_angle_gamma 90.000000
_cell_volume 770.155411
_symmetry_space_group_name_H-M "P 21/C"
_symmetry_group_IT_number 14
_symmetry_cell_setting 'monoclinic'
loop_
_space_group_symop_operation_xyz
x,y,z
-x,1/2+y,1/2-z
-x,-y,-z
x,1/2-y,1/2+z
loop_
_atom_site_type_symbol
_atom_site_label
_atom_site_fract_x
_atom_site_fract_y
_atom_site_fract_z
Si Si1 0.398853 0.843616 0.776805
Si Si2 0.163686 0.664847 0.413761
Si Si3 0.406815 0.288125 0.347733
Si Si4 0.943831 0.931888 0.332261
Si Si5 0.403607 0.250636 0.028646
O O1 0.355232 0.929722 0.656776
O O2 0.445984 0.085495 0.744043
O O3 0.511631 0.956761 0.819517
O O4 0.920330 0.699830 0.453720
O O5 0.271854 0.380983 0.395178
O O6 0.437099 0.775470 0.430084
O O7 0.036605 0.794401 0.374334
O O8 0.151148 0.181354 0.326146
O O9 0.079793 0.748391 0.292637
O O10 0.500000 0.500000 0.000000
O O11 0.500000 0.000000 0.000000
#
# Coordination Sequence:
#
# PCOD9252679 Si02
#       5
#     4   4   4   4   4
#     4  11  24  52  74 115 154 200 252 323 384 462
#     4  11  26  46  78 111 154 200 254 315 372 468
#     4  11  25  48  79 109 149 204 255 311 383 451
#     4  11  25  48  79 109 149 204 255 311 383 451
#     4  12  28  48  76 112 154 198 248 312 388 450
#
# _framework density 25.968786000000001
#
# number of rings (size 3 to 8) (size 9 to 14) (size 15 to 20)
#    0.000    0.800    2.000    3.600    8.400    4.800 
#    7.200    0.000    0.000    0.000    0.000    0.000 
#    0.000    0.000    0.000    0.000    0.000    0.000 
#
# Total GULP energy -111873.743691 kJ/mol
# GULP energy per Si atom -5593.687185 kJ/mol
# Density = 2.590968 g / cm^3
# Si number density = 25.968786 Si / 1000 Ang^3
#
#
#
# Elastic Constant Matrix: (Units=GPa)
#
#
# Indices 1 2 3 4 5 6 
#
# 1 152.4970 49.5305 27.0405 0.0000 -23.6012 0.0000
# 2 49.5305 189.7086 48.6366 0.0000 -27.3643 0.0000
# 3 27.0405 48.6366 82.7791 0.0000 -19.8530 0.0000
# 4 0.0000 0.0000 0.0000 68.7256 0.0000 -10.5085
# 5 -23.6012 -27.3643 -19.8530 0.0000 47.5076 0.0000
# 6 0.0000 0.0000 0.0000 -10.5085 0.0000 37.3083
#
#
#
# Elastic Compliance Matrix: (Units=1/GPa)
#
#
# Indices 1 2 3 4 5 6 
#
# 1 0.007576 -0.001334 -0.001081 0.000000 0.002544 0.000000
# 2 -0.001334 0.006671 -0.003024 0.000000 0.001916 0.000000
# 3 -0.001081 -0.003024 0.015186 0.000000 0.004067 0.000000
# 4 0.000000 0.000000 0.000000 0.015205 0.000000 0.004283
# 5 0.002544 0.001916 0.004067 0.000000 0.025116 0.000000
# 6 0.000000 0.000000 0.000000 0.004283 0.000000 0.028010
#
#
# Mechanical properties :
#
#
# Convention : Reuss Voigt Hill
#
# Bulk Modulus (GPa) = 53.89536 75.04443 64.46989
# Shear Modulus (GPa) = 43.54324 50.69345 47.11835
#
# Velocity S-wave (km/s) = 4.09926 4.42304 4.26422
# Velocity P-wave (km/s) = 6.57299 7.41924 7.00890
#
# Compressibility (1/GPa) = 0.01855447
#
# Stress axis : x y z
#
# Youngs Moduli (GPa) = 131.99363 149.89597 65.85097
#
# Poissons Ratio (x) = 0.19996 0.07118
# Poissons Ratio (y) = 0.17608 0.19916
# Poissons Ratio (z) = 0.14268 0.45335
#
# Static dielectric constant tensor:
#      x y z
#    x 2.105620 0.000000 0.007070 
#    y 0.000000 2.083810 0.000000 
#    z 0.007070 0.000000 2.134280 
# 
# From -- ./inp_files/75382.got.cif
#   From: 2010.05.17/outbox.cif.g08.bks.cpg/sg14_38_cif.got.tgz:75382.got - 2010.06.03 17:49:19.
