data_PCOD9252855
_publ_section_title
;
Structure prediction by ZEFSAII (Michael W. Deem and Ramdas Pophale) SiO2 
 PCOD9252855
Probable space group: P 21/C
;
_chemical_formula_sum "Si O2"
_cell_formula_units_Z 22
_cell_length_a 9.200552
_cell_length_b 5.261127
_cell_length_c 19.515176
_cell_angle_alpha 90.000000
_cell_angle_beta 118.098322
_cell_angle_gamma 90.000000
_cell_volume 833.303071
_symmetry_space_group_name_H-M "P 21/C"
_symmetry_group_IT_number 14
_symmetry_cell_setting 'monoclinic'
loop_
_space_group_symop_operation_xyz
x,y,z
-x,1/2+y,1/2-z
-x,-y,-z
x,1/2-y,1/2+z
loop_
_atom_site_type_symbol
_atom_site_label
_atom_site_fract_x
_atom_site_fract_y
_atom_site_fract_z
Si Si1 0.077852 0.732520 0.375040
Si Si2 0.325848 0.268179 0.538879
Si Si3 0.177530 0.997750 0.268794
Si Si4 0.625225 0.865823 0.095681
Si Si5 0.516156 0.188142 0.710226
Si Si6 0.000000 0.500000 0.000000
O O1 0.248676 0.584362 0.402554
O O2 0.928262 0.549146 0.321478
O O3 0.066740 0.932393 0.309570
O O4 0.056201 0.855662 0.443058
O O5 0.367203 0.185806 0.470224
O O6 0.443929 0.520837 0.569807
O O7 0.132156 0.241206 0.508703
O O8 0.397594 0.116611 0.620599
O O9 0.294787 0.220860 0.323020
O O10 0.302277 0.772188 0.279675
O O11 0.532213 0.947738 0.763780
#
# Coordination Sequence:
#
# PCOD9252855 Si02
#       6
#     4   4   4   4   4   2
#     4  12  26  47  80 115 160 213 279 348 428 517
#     4  11  26  48  76 114 161 211 276 351 425 510
#     4  12  25  49  82 114 157 220 278 346 426 528
#     4  11  25  49  78 115 152 225 280 346 429 531
#     4  12  28  49  79 120 165 220 282 358 434 518
#     4  12  28  46  72 124 158 208 272 362 416 506
#
# _framework density 26.400956999999998
#
# number of rings (size 3 to 8) (size 9 to 14) (size 15 to 20)
#    0.000    0.364    5.455    2.182    0.000    9.455 
#    0.000    0.000    0.000    0.000    0.000    0.000 
#    0.000    0.000    0.000    0.000    0.000    0.000 
#
# Total GULP energy -122554.548867 kJ/mol
# GULP energy per Si atom -5570.661312 kJ/mol
# Density = 2.634087 g / cm^3
# Si number density = 26.400957 Si / 1000 Ang^3
#
#
#
# Elastic Constant Matrix: (Units=GPa)
#
#
# Indices 1 2 3 4 5 6 
#
# 1 137.7568 44.9066 35.7298 0.0000 -31.6984 0.0000
# 2 44.9066 66.3641 34.9282 0.0000 -9.3227 0.0000
# 3 35.7298 34.9282 121.5537 0.0000 -10.2073 0.0000
# 4 0.0000 0.0000 0.0000 17.4641 0.0000 9.5811
# 5 -31.6984 -9.3227 -10.2073 0.0000 46.3643 0.0000
# 6 0.0000 0.0000 0.0000 9.5811 0.0000 38.6345
#
#
#
# Elastic Compliance Matrix: (Units=1/GPa)
#
#
# Indices 1 2 3 4 5 6 
#
# 1 0.010840 -0.005986 -0.000963 0.000000 0.005995 0.000000
# 2 -0.005986 0.021346 -0.004440 0.000000 -0.000778 0.000000
# 3 -0.000963 -0.004440 0.009837 0.000000 0.000615 0.000000
# 4 0.000000 0.000000 0.000000 0.066278 0.000000 -0.016436
# 5 0.005995 -0.000778 0.000615 0.000000 0.025646 0.000000
# 6 0.000000 0.000000 0.000000 -0.016436 0.000000 0.029960
#
#
# Mechanical properties :
#
#
# Convention : Reuss Voigt Hill
#
# Bulk Modulus (GPa) = 51.95745 61.86709 56.91227
# Shear Modulus (GPa) = 25.89346 34.49992 30.19669
#
# Velocity S-wave (km/s) = 3.13513 3.61885 3.38564
# Velocity P-wave (km/s) = 5.72960 6.39890 6.07348
#
# Compressibility (1/GPa) = 0.01924652
#
# Stress axis : x y z
#
# Youngs Moduli (GPa) = 92.25276 46.84651 101.65558
#
# Poissons Ratio (x) = 0.28042 0.09787
# Poissons Ratio (y) = 0.55223 0.45131
# Poissons Ratio (z) = 0.08882 0.20798
#
# Static dielectric constant tensor:
#      x y z
#    x 2.007630 0.000000 0.037050 
#    y 0.000000 2.106600 0.000000 
#    z 0.037050 0.000000 2.160830 
# 
# From -- ./inp_files/64210.got.cif
#   From: 2010.05.17/outbox.cif.g08.bks.cpg/sg14_33_cif.got.tgz:64210.got - 2010.06.03 17:49:19.
