data_PCOD9252014
_publ_section_title
;
Structure prediction by ZEFSAII (Michael W. Deem and Ramdas Pophale) SiO2 
 PCOD9252014
Probable space group: P 21/C
;
_chemical_formula_sum "Si O2"
_cell_formula_units_Z 30
_cell_length_a 16.695289
_cell_length_b 5.231030
_cell_length_c 13.645389
_cell_angle_alpha 90.000000
_cell_angle_beta 103.270924
_cell_angle_gamma 90.000000
_cell_volume 1159.876594
_symmetry_space_group_name_H-M "P 21/C"
_symmetry_group_IT_number 14
_symmetry_cell_setting 'monoclinic'
loop_
_space_group_symop_operation_xyz
x,y,z
-x,1/2+y,1/2-z
-x,-y,-z
x,1/2-y,1/2+z
loop_
_atom_site_type_symbol
_atom_site_label
_atom_site_fract_x
_atom_site_fract_y
_atom_site_fract_z
Si Si1 0.500000 0.000000 0.500000
Si Si2 0.702722 0.976515 0.814831
Si Si3 0.212966 0.695109 0.323020
Si Si4 0.091387 0.431849 0.153006
Si Si5 0.459514 0.280206 0.283248
Si Si6 0.921501 0.597283 0.180179
Si Si7 0.676492 0.197423 0.487363
Si Si8 0.182478 0.218387 0.506275
O O1 0.528552 0.809778 0.602012
O O2 0.406005 0.905358 0.489315
O O3 0.636162 0.756147 0.774725
O O4 0.782929 0.907905 0.901992
O O5 0.732526 0.097693 0.722417
O O6 0.659711 0.173231 0.878145
O O7 0.176483 0.522292 0.226781
O O8 0.276051 0.608249 0.425393
O O9 0.133654 0.844561 0.343778
O O10 0.072792 0.168296 0.204381
O O11 0.109133 0.424953 0.044175
O O12 0.011930 0.591725 0.161730
O O13 0.491875 0.565473 0.268990
O O14 0.864033 0.800366 0.105480
O O15 0.741585 0.968826 0.492581
#
# Coordination Sequence:
#
# PCOD9252014 Si02
#       8
#     2   4   4   4   4   4   4   4
#     4  12  24  48  72 112 146 196 252 312 378 456
#     4  12  23  45  69 100 139 185 234 293 371 431
#     4  11  23  41  67  97 135 181 226 289 352 427
#     4  12  22  43  68  96 137 178 231 287 357 428
#     4  12  28  50  78 111 154 199 254 320 386 458
#     4  11  24  42  64 100 134 179 231 283 356 429
#     4  11  24  45  67  99 138 181 237 291 362 437
#     4  11  25  42  67 100 136 179 231 295 356 436
#
# _framework density 25.864822
#
# number of rings (size 3 to 8) (size 9 to 14) (size 15 to 20)
#    0.000    0.533    6.667    2.000    0.000    0.533 
#    2.400    1.333    0.000    0.000    0.000    0.000 
#    0.000    0.000    0.000    0.000    0.000    0.000 
#
# Total GULP energy -167343.640968 kJ/mol
# GULP energy per Si atom -5578.121366 kJ/mol
# Density = 2.580595 g / cm^3
# Si number density = 25.864822 Si / 1000 Ang^3
#
#
#
# Elastic Constant Matrix: (Units=GPa)
#
#
# Indices 1 2 3 4 5 6 
#
# 1 127.7901 8.1462 10.3085 0.0000 9.1347 0.0000
# 2 8.1462 42.9234 -5.4517 0.0000 5.1362 0.0000
# 3 10.3085 -5.4517 103.3112 0.0000 9.0543 0.0000
# 4 0.0000 0.0000 0.0000 25.8196 0.0000 9.3854
# 5 9.1347 5.1362 9.0543 0.0000 28.6314 0.0000
# 6 0.0000 0.0000 0.0000 9.3854 0.0000 30.7133
#
#
#
# Elastic Compliance Matrix: (Units=1/GPa)
#
#
# Indices 1 2 3 4 5 6 
#
# 1 0.008121 -0.001376 -0.000697 0.000000 -0.002124 0.000000
# 2 -0.001376 0.024327 0.001815 0.000000 -0.004499 0.000000
# 3 -0.000697 0.001815 0.010135 0.000000 -0.003308 0.000000
# 4 0.000000 0.000000 0.000000 0.043570 0.000000 -0.013314
# 5 -0.002124 -0.004499 -0.003308 0.000000 0.037458 0.000000
# 6 0.000000 0.000000 0.000000 -0.013314 0.000000 0.036628
#
#
# Mechanical properties :
#
#
# Convention : Reuss Voigt Hill
#
# Bulk Modulus (GPa) = 23.77044 33.33675 28.55360
# Shear Modulus (GPa) = 28.60813 34.43432 31.52122
#
# Velocity S-wave (km/s) = 3.32936 3.65268 3.49476
# Velocity P-wave (km/s) = 4.89793 5.54132 5.22953
#
# Compressibility (1/GPa) = 0.04206906
#
# Stress axis : x y z
#
# Youngs Moduli (GPa) = 123.13678 41.10597 98.67028
#
# Poissons Ratio (x) = 0.05655 0.06875
# Poissons Ratio (y) = 0.16939 -0.17912
# Poissons Ratio (z) = 0.08580 -0.07462
#
# Static dielectric constant tensor:
#      x y z
#    x 2.013900 0.000000 -0.015080 
#    y 0.000000 2.170840 0.000000 
#    z -0.015080 0.000000 2.058890 
# 
# From -- ./inp_files/48030.got.cif
#   From: 2010.05.17/outbox.cif.g08.bks.cpg/sg14_25_cif.got.tgz:48030.got - 2010.06.03 17:49:19.
