data_PCOD9252678
_publ_section_title
;
Structure prediction by ZEFSAII (Michael W. Deem and Ramdas Pophale) SiO2 
 PCOD9252678
Probable space group: P 21/C
;
_chemical_formula_sum "Si O2"
_cell_formula_units_Z 28
_cell_length_a 13.740851
_cell_length_b 11.970249
_cell_length_c 7.232463
_cell_angle_alpha 90.000000
_cell_angle_beta 69.542084
_cell_angle_gamma 90.000000
_cell_volume 1114.576273
_symmetry_space_group_name_H-M "P 21/C"
_symmetry_group_IT_number 14
_symmetry_cell_setting 'monoclinic'
loop_
_space_group_symop_operation_xyz
x,y,z
-x,1/2+y,1/2-z
-x,-y,-z
x,1/2-y,1/2+z
loop_
_atom_site_type_symbol
_atom_site_label
_atom_site_fract_x
_atom_site_fract_y
_atom_site_fract_z
Si Si1 0.576283 0.099693 0.783981
Si Si2 0.077940 0.467710 0.695386
Si Si3 0.289221 0.887212 0.612470
Si Si4 0.863762 0.930470 0.416209
Si Si5 0.240938 0.846240 0.056492
Si Si6 0.616134 0.645184 0.370448
Si Si7 0.775850 0.801199 0.033521
O O1 0.600030 0.129346 0.557817
O O2 0.571568 0.964309 0.796643
O O3 0.678394 0.128544 0.834342
O O4 0.482957 0.169440 0.934494
O O5 0.136842 0.584826 0.641856
O O6 0.124552 0.383513 0.510273
O O7 0.957457 0.498442 0.767120
O O8 0.106292 0.424432 0.884566
O O9 0.292678 0.878749 0.828293
O O10 0.219308 0.785003 0.585717
O O11 0.238772 0.999973 0.568968
O O12 0.831577 0.803244 0.392348
O O13 0.683963 0.737221 0.212352
O O14 0.705320 0.614181 0.459133
#
# Coordination Sequence:
#
# PCOD9252678 Si02
#       7
#     4   4   4   4   4   4   4
#     4  11  24  52  63 107 142 197 236 303 366 441
#     4  11  25  46  70 103 151 197 242 310 376 438
#     4  12  24  43  72  99 142 188 244 302 361 440
#     4  11  25  46  70 103 151 197 242 310 376 438
#     4  12  24  43  72  99 142 188 244 302 361 440
#     4  11  26  42  74  95 155 183 239 306 371 427
#     4  12  22  46  68 108 138 190 238 306 356 450
#
# _framework density 25.121655000000001
#
# number of rings (size 3 to 8) (size 9 to 14) (size 15 to 20)
#    0.000    0.571    7.143    0.000    6.000    0.571 
#    0.000    1.429    0.000    0.000    0.000    0.000 
#    0.000    0.000    0.000    0.000    0.000    0.000 
#
# Total GULP energy -156218.735371 kJ/mol
# GULP energy per Si atom -5579.240549 kJ/mol
# Density = 2.506448 g / cm^3
# Si number density = 25.121655 Si / 1000 Ang^3
#
#
#
# Elastic Constant Matrix: (Units=GPa)
#
#
# Indices 1 2 3 4 5 6 
#
# 1 21.7097 8.0316 30.5801 0.0000 -6.3487 0.0000
# 2 8.0316 117.4324 6.6139 0.0000 -4.7070 0.0000
# 3 30.5801 6.6139 112.4029 0.0000 -25.3567 0.0000
# 4 0.0000 0.0000 0.0000 0.3012 0.0000 -8.1970
# 5 -6.3487 -4.7070 -25.3567 0.0000 46.2453 0.0000
# 6 0.0000 0.0000 0.0000 -8.1970 0.0000 29.3854
#
#
#
# Elastic Compliance Matrix: (Units=1/GPa)
#
#
# Indices 1 2 3 4 5 6 
#
# 1 0.076655 -0.004119 -0.020921 0.000000 -0.001367 0.000000
# 2 -0.004119 0.008784 0.000774 0.000000 0.000753 0.000000
# 3 -0.020921 0.000774 0.015876 0.000000 0.005912 0.000000
# 4 0.000000 0.000000 0.000000 -0.503704 0.000000 -0.140507
# 5 -0.001367 0.000753 0.005912 0.000000 0.024754 0.000000
# 6 0.000000 0.000000 0.000000 -0.140507 0.000000 -0.005164
#
#
# Mechanical properties :
#
#
# Convention : Reuss Voigt Hill
#
# Bulk Modulus (GPa) = 18.94551 37.99957 28.47254
# Shear Modulus (GPa) = -15.78924 28.94101 6.57589
#
# Velocity S-wave (km/s) = -2.50973 3.39785 1.61966
# Velocity P-wave (km/s) = 0.91677 5.52746 3.85437
#
# Compressibility (1/GPa) = 0.05278296
#
# Stress axis : x y z
#
# Youngs Moduli (GPa) = 13.04543 113.84511 62.98704
#
# Poissons Ratio (x) = 0.46895 1.31773
# Poissons Ratio (y) = 0.05374 -0.04873
# Poissons Ratio (z) = 0.27292 -0.08807
#
# Static dielectric constant tensor:
#      x y z
#    x 1.948160 0.000000 0.050670 
#    y 0.000000 1.987320 0.000000 
#    z 0.050670 0.000000 2.141990 
# 
# From -- ./inp_files/15675.got.cif
#   From: 2010.05.17/outbox.cif.g08.bks.cpg/sg14_8_cif.got.tgz:15675.got - 2010.06.03 17:49:19.
