data_PCOD9252382
_publ_section_title
;
Structure prediction by ZEFSAII (Michael W. Deem and Ramdas Pophale) SiO2 
 PCOD9252382
Probable space group: P 21/C
;
_chemical_formula_sum "Si O2"
_cell_formula_units_Z 32
_cell_length_a 23.791947
_cell_length_b 8.300041
_cell_length_c 14.727000
_cell_angle_alpha 90.000000
_cell_angle_beta 151.395984
_cell_angle_gamma 90.000000
_cell_volume 1392.311392
_symmetry_space_group_name_H-M "P 21/C"
_symmetry_group_IT_number 14
_symmetry_cell_setting 'monoclinic'
loop_
_space_group_symop_operation_xyz
x,y,z
-x,1/2+y,1/2-z
-x,-y,-z
x,1/2-y,1/2+z
loop_
_atom_site_type_symbol
_atom_site_label
_atom_site_fract_x
_atom_site_fract_y
_atom_site_fract_z
Si Si1 0.123964 0.915061 0.866629
Si Si2 0.863792 0.546498 0.803504
Si Si3 0.109823 0.082376 0.205508
Si Si4 0.106982 0.219613 0.400463
Si Si5 0.662225 0.282654 0.224422
Si Si6 0.348151 0.912993 0.495249
Si Si7 0.500105 0.292200 0.152799
Si Si8 0.687858 0.938817 0.206890
O O1 0.180147 0.957011 0.849349
O O2 0.102331 0.091227 0.877491
O O3 0.998143 0.829147 0.681632
O O4 0.209750 0.814010 0.051755
O O5 0.857671 0.740678 0.788282
O O6 0.785616 0.491603 0.776193
O O7 0.000000 0.500000 0.000000
O O8 0.085133 0.123363 0.275740
O O9 0.220628 0.966189 0.349387
O O10 0.000000 0.000000 0.000000
O O11 0.235293 0.173404 0.618364
O O12 0.657131 0.349108 0.115518
O O13 0.570125 0.358281 0.164435
O O14 0.636521 0.091995 0.185573
O O15 0.408969 0.790223 0.649978
O O16 0.429536 0.070763 0.604927
O O17 0.406425 0.162673 0.982240
#
# Coordination Sequence:
#
# PCOD9252382 Si02
#       8
#     4   4   4   4   4   4   4   4
#     4  11  25  43  69 107 143 189 232 296 360 436
#     4  11  25  43  70 104 149 187 230 294 362 428
#     4  11  26  45  73 108 146 188 237 297 367 431
#     4  11  24  42  70 105 147 183 237 292 365 433
#     4  12  28  45  75 104 140 192 246 297 360 424
#     4  12  27  49  75 108 144 195 243 300 364 426
#     4  12  28  50  74 104 146 190 244 303 351 430
#     4  12  25  48  71 105 143 187 239 295 357 428
#
# _framework density 22.983364999999999
#
# number of rings (size 3 to 8) (size 9 to 14) (size 15 to 20)
#    0.000    0.500    2.500    4.500    8.750    2.000 
#    0.000    0.000    0.000    0.000    0.000    0.000 
#    0.000    0.000    0.000    0.000    0.000    0.000 
#
# Total GULP energy -179352.803288 kJ/mol
# GULP energy per Si atom -5604.775103 kJ/mol
# Density = 2.293105 g / cm^3
# Si number density = 22.983365 Si / 1000 Ang^3
#
#
#
# Elastic Constant Matrix: (Units=GPa)
#
#
# Indices 1 2 3 4 5 6 
#
# 1 71.0386 2.3827 13.3210 0.0000 -0.1366 0.0000
# 2 2.3827 39.2784 33.9439 0.0000 -5.7912 0.0000
# 3 13.3210 33.9439 121.7368 0.0000 -6.5977 0.0000
# 4 0.0000 0.0000 0.0000 42.9341 0.0000 -0.6554
# 5 -0.1366 -5.7912 -6.5977 0.0000 40.9128 0.0000
# 6 0.0000 0.0000 0.0000 -0.6554 0.0000 31.9999
#
#
#
# Elastic Compliance Matrix: (Units=1/GPa)
#
#
# Indices 1 2 3 4 5 6 
#
# 1 0.014385 0.000623 -0.001756 0.000000 -0.000147 0.000000
# 2 0.000623 0.034007 -0.009371 0.000000 0.003305 0.000000
# 3 -0.001756 -0.009371 0.011044 0.000000 0.000449 0.000000
# 4 0.000000 0.000000 0.000000 0.023299 0.000000 0.000477
# 5 -0.000147 0.003305 0.000449 0.000000 0.024982 0.000000
# 6 0.000000 0.000000 0.000000 0.000477 0.000000 0.031260
#
#
# Mechanical properties :
#
#
# Convention : Reuss Voigt Hill
#
# Bulk Modulus (GPa) = 26.02272 36.81657 31.41965
# Shear Modulus (GPa) = 28.93617 35.32977 32.13297
#
# Velocity S-wave (km/s) = 3.55210 3.92495 3.74317
# Velocity P-wave (km/s) = 5.30756 6.04929 5.69052
#
# Compressibility (1/GPa) = 0.03842795
#
# Stress axis : x y z
#
# Youngs Moduli (GPa) = 69.51730 29.40542 90.54780
#
# Poissons Ratio (x) = -0.01832 0.15898
# Poissons Ratio (y) = -0.04331 0.84856
# Poissons Ratio (z) = 0.12205 0.27557
#
# Static dielectric constant tensor:
#      x y z
#    x 1.858600 0.000000 -0.013530 
#    y 0.000000 1.835560 0.000000 
#    z -0.013530 0.000000 1.832150 
# 
# From -- ./inp_files/51395.got.cif
#   From: 2010.05.17/outbox.cif.g08.bks.cpg/sg14_26_cif.got.tgz:51395.got - 2010.06.03 17:49:19.
