data_PCOD9252629
_publ_section_title
;
Structure prediction by ZEFSAII (Michael W. Deem and Ramdas Pophale) SiO2 
 PCOD9252629
Probable space group: P 21/C
;
_chemical_formula_sum "Si O2"
_cell_formula_units_Z 20
_cell_length_a 28.494874
_cell_length_b 4.877904
_cell_length_c 12.280836
_cell_angle_alpha 90.000000
_cell_angle_beta 25.698139
_cell_angle_gamma 90.000000
_cell_volume 740.196554
_symmetry_space_group_name_H-M "P 21/C"
_symmetry_group_IT_number 14
_symmetry_cell_setting 'monoclinic'
loop_
_space_group_symop_operation_xyz
x,y,z
-x,1/2+y,1/2-z
-x,-y,-z
x,1/2-y,1/2+z
loop_
_atom_site_type_symbol
_atom_site_label
_atom_site_fract_x
_atom_site_fract_y
_atom_site_fract_z
Si Si1 0.938918 0.691982 0.044233
Si Si2 0.735175 0.965580 0.400787
Si Si3 0.654258 0.829801 0.875788
Si Si4 0.593900 0.318945 0.860574
Si Si5 0.869968 0.372454 0.975469
O O1 0.920102 0.514760 0.975206
O O2 0.034832 0.893949 0.810726
O O3 0.819466 0.815692 0.305044
O O4 0.000000 0.500000 0.000000
O O5 0.653786 0.765950 0.504310
O O6 0.668179 0.186431 0.610133
O O7 0.814701 0.099680 0.142958
O O8 0.576434 0.057821 0.980794
O O9 0.769084 0.975705 0.635078
O O10 0.648231 0.551968 0.820710
O O11 0.500000 0.500000 0.000000
#
# Coordination Sequence:
#
# PCOD9252629 Si02
#       5
#     4   4   4   4   4
#     4  11  26  44  79 122 169 234 278 338 411 511
#     4  11  27  50  82 121 174 226 276 348 427 501
#     4  11  27  53  83 119 173 213 274 363 424 509
#     4  12  29  55  87 126 158 219 296 355 435 514
#     4  11  24  48  72 119 171 216 283 326 420 508
#
# _framework density 27.019850000000002
#
# number of rings (size 3 to 8) (size 9 to 14) (size 15 to 20)
#    0.000    0.800    4.000    0.600   11.200    0.800 
#    3.600    1.000    0.000    0.000    0.000    0.000 
#    0.000    0.000    0.000    0.000    0.000    0.000 
#
# Total GULP energy -111854.712223 kJ/mol
# GULP energy per Si atom -5592.735611 kJ/mol
# Density = 2.695835 g / cm^3
# Si number density = 27.019850 Si / 1000 Ang^3
#
#
#
# Elastic Constant Matrix: (Units=GPa)
#
#
# Indices 1 2 3 4 5 6 
#
# 1 197.0338 76.4838 73.9804 0.0000 -21.5320 0.0000
# 2 76.4838 167.1320 55.1276 0.0000 -11.2888 0.0000
# 3 73.9804 55.1276 118.7561 0.0000 -24.9477 0.0000
# 4 0.0000 0.0000 0.0000 32.2473 0.0000 7.7461
# 5 -21.5320 -11.2888 -24.9477 0.0000 25.1148 0.0000
# 6 0.0000 0.0000 0.0000 7.7461 0.0000 75.7378
#
#
#
# Elastic Compliance Matrix: (Units=1/GPa)
#
#
# Indices 1 2 3 4 5 6 
#
# 1 0.007324 -0.002185 -0.003078 0.000000 0.002240 0.000000
# 2 -0.002185 0.007717 -0.002383 0.000000 -0.000772 0.000000
# 3 -0.003078 -0.002383 0.013477 0.000000 0.009678 0.000000
# 4 0.000000 0.000000 0.000000 0.031791 0.000000 -0.003251
# 5 0.002240 -0.000772 0.009678 0.000000 0.051004 0.000000
# 6 0.000000 0.000000 0.000000 -0.003251 0.000000 0.013536
#
#
# Mechanical properties :
#
#
# Convention : Reuss Voigt Hill
#
# Bulk Modulus (GPa) = 75.60766 99.34505 87.47636
# Shear Modulus (GPa) = 34.59003 45.10864 39.84933
#
# Velocity S-wave (km/s) = 3.58183 4.09034 3.84450
# Velocity P-wave (km/s) = 6.71930 7.69123 7.22164
#
# Compressibility (1/GPa) = 0.01322617
#
# Stress axis : x y z
#
# Youngs Moduli (GPa) = 136.54140 129.57962 74.19898
#
# Poissons Ratio (x) = 0.28315 0.22835
# Poissons Ratio (y) = 0.29836 0.17684
# Poissons Ratio (z) = 0.42021 0.30883
#
# Static dielectric constant tensor:
#      x y z
#    x 2.132840 0.000000 0.197780 
#    y 0.000000 2.200350 0.000000 
#    z 0.197780 0.000000 4.281100 
# 
# From -- ./inp_files/36028.got.cif
#   From: 2010.05.17/outbox.cif.g08.bks.cpg/sg14_19_cif.got.tgz:36028.got - 2010.06.03 17:49:19.
