data_PCOD9252820
_publ_section_title
;
Structure prediction by ZEFSAII (Michael W. Deem and Ramdas Pophale) SiO2 
 PCOD9252820
Probable space group: P 21/C
;
_chemical_formula_sum "Si O2"
_cell_formula_units_Z 24
_cell_length_a 10.867105
_cell_length_b 9.710984
_cell_length_c 8.793275
_cell_angle_alpha 90.000000
_cell_angle_beta 91.756170
_cell_angle_gamma 90.000000
_cell_volume 927.520933
_symmetry_space_group_name_H-M "P 21/C"
_symmetry_group_IT_number 14
_symmetry_cell_setting 'monoclinic'
loop_
_space_group_symop_operation_xyz
x,y,z
-x,1/2+y,1/2-z
-x,-y,-z
x,1/2-y,1/2+z
loop_
_atom_site_type_symbol
_atom_site_label
_atom_site_fract_x
_atom_site_fract_y
_atom_site_fract_z
Si Si1 0.911119 0.654153 0.482559
Si Si2 0.711502 0.128639 0.319521
Si Si3 0.655045 0.567178 0.345238
Si Si4 0.561942 0.313746 0.513811
Si Si5 0.785736 0.936070 0.552913
Si Si6 0.927794 0.328344 0.241276
O O1 0.792242 0.570858 0.420490
O O2 0.996058 0.716824 0.352934
O O3 0.991206 0.596880 0.625744
O O4 0.854971 0.793544 0.552668
O O5 0.614557 0.176276 0.444075
O O6 0.648582 0.135503 0.154512
O O7 0.756989 0.982077 0.379965
O O8 0.820063 0.241400 0.318888
O O9 0.581364 0.428460 0.383835
O O10 0.573811 0.684963 0.421740
O O11 0.673720 0.578689 0.166804
O O12 0.868997 0.059637 0.625802
#
# Coordination Sequence:
#
# PCOD9252820 Si02
#       6
#     4   4   4   4   4   4
#     4  12  27  44  70 106 145 184 232 291 353 421
#     4  12  24  46  75 102 139 187 235 293 358 421
#     4  11  27  48  69 104 142 187 241 295 346 421
#     4  11  25  47  74 101 142 187 240 291 353 421
#     4  12  26  47  69 108 140 185 238 282 360 419
#     4  12  24  44  71 104 141 184 229 289 350 427
#
# _framework density 25.875425
#
# number of rings (size 3 to 8) (size 9 to 14) (size 15 to 20)
#    0.000    0.333    6.667    0.500    4.667    1.333 
#    3.000    0.000    0.000    0.000    0.000    0.000 
#    0.000    0.000    0.000    0.000    0.000    0.000 
#
# Total GULP energy -134621.077128 kJ/mol
# GULP energy per Si atom -5609.211547 kJ/mol
# Density = 2.581653 g / cm^3
# Si number density = 25.875425 Si / 1000 Ang^3
#
#
#
# Elastic Constant Matrix: (Units=GPa)
#
#
# Indices 1 2 3 4 5 6 
#
# 1 92.3483 5.2238 12.0397 0.0000 -19.1087 0.0000
# 2 5.2238 44.3784 -5.6785 0.0000 -10.8280 0.0000
# 3 12.0397 -5.6785 88.6324 0.0000 -4.8426 0.0000
# 4 0.0000 0.0000 0.0000 35.1186 0.0000 7.3323
# 5 -19.1087 -10.8280 -4.8426 0.0000 36.1366 0.0000
# 6 0.0000 0.0000 0.0000 7.3323 0.0000 27.0075
#
#
#
# Elastic Compliance Matrix: (Units=1/GPa)
#
#
# Indices 1 2 3 4 5 6 
#
# 1 0.012312 -0.000081 -0.001333 0.000000 0.006308 0.000000
# 2 -0.000081 0.024658 0.002007 0.000000 0.007615 0.000000
# 3 -0.001333 0.002007 0.011672 0.000000 0.001461 0.000000
# 4 0.000000 0.000000 0.000000 0.030186 0.000000 -0.008195
# 5 0.006308 0.007615 0.001461 0.000000 0.033486 0.000000
# 6 0.000000 0.000000 0.000000 -0.008195 0.000000 0.039252
#
#
# Mechanical properties :
#
#
# Convention : Reuss Voigt Hill
#
# Bulk Modulus (GPa) = 20.06916 27.61435 23.84176
# Shear Modulus (GPa) = 29.94222 33.90416 31.92319
#
# Velocity S-wave (km/s) = 3.40541 3.62371 3.51625
# Velocity P-wave (km/s) = 4.82030 5.31070 5.07143
#
# Compressibility (1/GPa) = 0.04982769
#
# Stress axis : x y z
#
# Youngs Moduli (GPa) = 81.22080 40.55536 85.67517
#
# Poissons Ratio (x) = 0.00328 0.11421
# Poissons Ratio (y) = 0.00656 -0.17193
# Poissons Ratio (z) = 0.10827 -0.08139
#
# Static dielectric constant tensor:
#      x y z
#    x 2.061420 0.000000 0.023930 
#    y 0.000000 2.022080 0.000000 
#    z 0.023930 0.000000 1.988290 
# 
# From -- ./inp_files/12433.got.cif
#   From: 2010.05.17/outbox.cif.g08.bks.cpg/sg14_7_cif.got.tgz:12433.got - 2010.06.03 17:49:19.
