data_PCOD9252804
_publ_section_title
;
Structure prediction by ZEFSAII (Michael W. Deem and Ramdas Pophale) SiO2 
 PCOD9252804
Probable space group: P 21/C
;
_chemical_formula_sum "Si O2"
_cell_formula_units_Z 12
_cell_length_a 16.574017
_cell_length_b 6.672026
_cell_length_c 12.250448
_cell_angle_alpha 90.000000
_cell_angle_beta 156.832783
_cell_angle_gamma 90.000000
_cell_volume 532.953644
_symmetry_space_group_name_H-M "P 21/C"
_symmetry_group_IT_number 14
_symmetry_cell_setting 'monoclinic'
loop_
_space_group_symop_operation_xyz
x,y,z
-x,1/2+y,1/2-z
-x,-y,-z
x,1/2-y,1/2+z
loop_
_atom_site_type_symbol
_atom_site_label
_atom_site_fract_x
_atom_site_fract_y
_atom_site_fract_z
Si Si1 0.057169 0.197349 0.003172
Si Si2 0.401254 0.361767 0.783900
Si Si3 0.332781 0.979782 0.965755
O O1 0.161722 0.150322 0.017302
O O2 0.230232 0.328468 0.280779
O O3 0.855332 0.330315 0.743549
O O4 0.000000 0.000000 0.000000
O O5 0.431062 0.456458 0.702150
O O6 0.500000 0.500000 0.000000
O O7 0.507484 0.145108 0.907990
#
# Coordination Sequence:
#
# PCOD9252804 Si02
#       3
#     4   4   4
#     4  11  25  47  69 103 141 186 236 292 359 422
#     4  12  25  45  73 100 144 184 239 293 356 423
#     4  11  27  44  71 104 139 189 236 292 361 419
#
# _framework density 22.516029
#
# number of rings (size 3 to 8) (size 9 to 14) (size 15 to 20)
#    0.000    0.667    3.333    3.000    4.667    0.000 
#    0.000    0.000    0.000    0.000    0.000    0.000 
#    0.000    0.000    0.000    0.000    0.000    0.000 
#
# Total GULP energy -67199.803630 kJ/mol
# GULP energy per Si atom -5599.983636 kJ/mol
# Density = 2.246478 g / cm^3
# Si number density = 22.516029 Si / 1000 Ang^3
#
#
#
# Elastic Constant Matrix: (Units=GPa)
#
#
# Indices 1 2 3 4 5 6 
#
# 1 118.1452 56.6648 18.2050 0.0000 18.4182 0.0000
# 2 56.6648 152.6007 37.4949 0.0000 -1.5214 0.0000
# 3 18.2050 37.4949 56.6873 0.0000 -11.0862 0.0000
# 4 0.0000 0.0000 0.0000 41.2652 0.0000 6.4814
# 5 18.4182 -1.5214 -11.0862 0.0000 49.7391 0.0000
# 6 0.0000 0.0000 0.0000 6.4814 0.0000 58.0477
#
#
#
# Elastic Compliance Matrix: (Units=1/GPa)
#
#
# Indices 1 2 3 4 5 6 
#
# 1 0.011324 -0.003737 -0.002099 0.000000 -0.004776 0.000000
# 2 -0.003737 0.009102 -0.004700 0.000000 0.000615 0.000000
# 3 -0.002099 -0.004700 0.022529 0.000000 0.005655 0.000000
# 4 0.000000 0.000000 0.000000 0.024666 0.000000 -0.002754
# 5 -0.004776 0.000615 0.005655 0.000000 0.023153 0.000000
# 6 0.000000 0.000000 0.000000 -0.002754 0.000000 0.017535
#
#
# Mechanical properties :
#
#
# Convention : Reuss Voigt Hill
#
# Bulk Modulus (GPa) = 45.69592 61.35139 53.52365
# Shear Modulus (GPa) = 36.58326 44.14829 40.36577
#
# Velocity S-wave (km/s) = 4.03521 4.43284 4.23869
# Velocity P-wave (km/s) = 6.48456 7.31486 6.91218
#
# Compressibility (1/GPa) = 0.02188379
#
# Stress axis : x y z
#
# Youngs Moduli (GPa) = 88.30501 109.87122 44.38671
#
# Poissons Ratio (x) = 0.41058 0.09317
# Poissons Ratio (y) = 0.32999 0.20861
# Poissons Ratio (z) = 0.18535 0.51637
#
# Static dielectric constant tensor:
#      x y z
#    x 1.830910 0.000000 0.008590 
#    y 0.000000 1.873240 0.000000 
#    z 0.008590 0.000000 1.823560 
# 
# From -- ./inp_files/22388.got.cif
#   From: 2010.05.17/outbox.cif.g08.bks.cpg/sg14_12_cif.got.tgz:22388.got - 2010.06.03 17:49:19.
