data_PCOD9252272
_publ_section_title
;
Structure prediction by ZEFSAII (Michael W. Deem and Ramdas Pophale) SiO2 
 PCOD9252272
Probable space group: P 21/C
;
_chemical_formula_sum "Si O2"
_cell_formula_units_Z 20
_cell_length_a 9.077806
_cell_length_b 5.565781
_cell_length_c 16.924742
_cell_angle_alpha 90.000000
_cell_angle_beta 78.771654
_cell_angle_gamma 90.000000
_cell_volume 838.755969
_symmetry_space_group_name_H-M "P 21/C"
_symmetry_group_IT_number 14
_symmetry_cell_setting 'monoclinic'
loop_
_space_group_symop_operation_xyz
x,y,z
-x,1/2+y,1/2-z
-x,-y,-z
x,1/2-y,1/2+z
loop_
_atom_site_type_symbol
_atom_site_label
_atom_site_fract_x
_atom_site_fract_y
_atom_site_fract_z
Si Si1 0.890755 0.201623 0.330801
Si Si2 0.515821 0.347685 0.701590
Si Si3 0.651506 0.563094 0.437265
Si Si4 0.078289 0.184810 0.549496
Si Si5 0.152458 0.532753 0.337191
O O1 0.766981 0.357928 0.391993
O O2 0.853826 0.188334 0.242782
O O3 0.062273 0.293619 0.322754
O O4 0.889882 0.943371 0.370383
O O5 0.467354 0.581733 0.760150
O O6 0.406420 0.316905 0.638248
O O7 0.676792 0.446635 0.656275
O O8 0.500000 0.500000 0.500000
O O9 0.757686 0.714944 0.485365
O O10 0.951635 0.376612 0.581588
O O11 0.000000 0.000000 0.500000
#
# Coordination Sequence:
#
# PCOD9252272 Si02
#       5
#     4   4   4   4   4
#     4  11  23  46  72 101 140 194 250 309 378 453
#     4  12  28  47  76 113 150 199 258 318 387 456
#     4  11  28  48  69 108 155 197 250 323 389 461
#     4  11  27  46  74 105 145 199 252 314 384 465
#     4  11  24  42  74 102 142 190 254 310 373 455
#
# _framework density 23.844835
#
# number of rings (size 3 to 8) (size 9 to 14) (size 15 to 20)
#    0.000    0.800    4.000    1.200   11.200    2.400 
#    0.000    0.000    0.000    0.000    0.000    0.000 
#    0.000    0.000    0.000    0.000    0.000    0.000 
#
# Total GULP energy -111619.848293 kJ/mol
# GULP energy per Si atom -5580.992415 kJ/mol
# Density = 2.379056 g / cm^3
# Si number density = 23.844835 Si / 1000 Ang^3
#
#
#
# Elastic Constant Matrix: (Units=GPa)
#
#
# Indices 1 2 3 4 5 6 
#
# 1 190.3374 24.0810 35.9157 0.0000 -9.8318 0.0000
# 2 24.0810 41.2513 22.7380 0.0000 -0.1403 0.0000
# 3 35.9157 22.7380 98.0411 0.0000 3.8457 0.0000
# 4 0.0000 0.0000 0.0000 34.8529 0.0000 12.4989
# 5 -9.8318 -0.1403 3.8457 0.0000 43.5005 0.0000
# 6 0.0000 0.0000 0.0000 12.4989 0.0000 24.7086
#
#
#
# Elastic Compliance Matrix: (Units=1/GPa)
#
#
# Indices 1 2 3 4 5 6 
#
# 1 0.005967 -0.002570 -0.001648 0.000000 0.001486 0.000000
# 2 -0.002570 0.028921 -0.005767 0.000000 0.000022 0.000000
# 3 -0.001648 -0.005767 0.012199 0.000000 -0.001470 0.000000
# 4 0.000000 0.000000 0.000000 0.035051 0.000000 -0.017730
# 5 0.001486 0.000022 -0.001470 0.000000 0.023454 0.000000
# 6 0.000000 0.000000 0.000000 -0.017730 0.000000 0.049441
#
#
# Mechanical properties :
#
#
# Convention : Reuss Voigt Hill
#
# Bulk Modulus (GPa) = 36.87769 55.01103 45.94436
# Shear Modulus (GPa) = 27.16809 37.07207 32.12008
#
# Velocity S-wave (km/s) = 3.37912 3.94727 3.67419
# Velocity P-wave (km/s) = 5.54291 6.62534 6.10815
#
# Compressibility (1/GPa) = 0.02711667
#
# Stress axis : x y z
#
# Youngs Moduli (GPa) = 167.59737 34.57749 81.97611
#
# Poissons Ratio (x) = 0.08885 0.13511
# Poissons Ratio (y) = 0.43066 0.47275
# Poissons Ratio (z) = 0.27622 0.19940
#
# Static dielectric constant tensor:
#      x y z
#    x 1.906330 0.000000 -0.004010 
#    y 0.000000 1.977640 0.000000 
#    z -0.004010 0.000000 1.929500 
# 
# From -- ./inp_files/53834.got.cif
#   From: 2010.05.17/outbox.cif.g08.bks.cpg/sg14_27_cif.got.tgz:53834.got - 2010.06.03 17:49:19.
