data_PCOD9252132
_publ_section_title
;
Structure prediction by ZEFSAII (Michael W. Deem and Ramdas Pophale) SiO2 
 PCOD9252132
Probable space group: P 21/C
;
_chemical_formula_sum "Si O2"
_cell_formula_units_Z 32
_cell_length_a 14.859387
_cell_length_b 10.840435
_cell_length_c 9.053425
_cell_angle_alpha 90.000000
_cell_angle_beta 97.640581
_cell_angle_gamma 90.000000
_cell_volume 1445.398037
_symmetry_space_group_name_H-M "P 21/C"
_symmetry_group_IT_number 14
_symmetry_cell_setting 'monoclinic'
loop_
_space_group_symop_operation_xyz
x,y,z
-x,1/2+y,1/2-z
-x,-y,-z
x,1/2-y,1/2+z
loop_
_atom_site_type_symbol
_atom_site_label
_atom_site_fract_x
_atom_site_fract_y
_atom_site_fract_z
Si Si1 0.982575 0.870589 0.582644
Si Si2 0.682656 0.636829 0.390606
Si Si3 0.770709 0.849910 0.601387
Si Si4 0.048076 0.879997 0.935834
Si Si5 0.256534 0.595321 0.427396
Si Si6 0.587144 0.217410 0.510798
Si Si7 0.535348 0.808795 0.248182
Si Si8 0.677628 0.014140 0.353702
O O1 0.875286 0.848478 0.581250
O O2 0.023781 0.877998 0.756554
O O3 0.018982 0.749646 0.504244
O O4 0.000000 0.000000 0.500000
O O5 0.717256 0.733506 0.521176
O O6 0.753731 0.644899 0.271114
O O7 0.688179 0.503340 0.463384
O O8 0.587147 0.681257 0.301387
O O9 0.725933 0.966989 0.511390
O O10 0.156991 0.890254 0.971451
O O11 0.000000 0.000000 0.000000
O O12 0.318858 0.715788 0.434420
O O13 0.251637 0.549496 0.257199
O O14 0.511870 0.304408 0.419689
O O15 0.540153 0.162344 0.644720
O O16 0.610763 0.122024 0.387191
O O17 0.614876 0.907344 0.275188
#
# Coordination Sequence:
#
# PCOD9252132 Si02
#       8
#     4   4   4   4   4   4   4   4
#     4  12  26  46  77 107 147 193 239 310 370 449
#     4  11  24  44  71 103 133 186 226 293 336 425
#     4  11  23  43  73  99 139 175 241 277 357 411
#     4  12  28  49  74 111 147 193 248 305 372 443
#     4  12  27  44  71  98 147 178 235 288 362 408
#     4  12  26  42  66  99 136 181 224 286 344 415
#     4  11  24  43  68  97 135 178 237 277 344 410
#     4  11  25  45  68  98 137 183 227 291 334 421
#
# _framework density 22.139227999999999
#
# number of rings (size 3 to 8) (size 9 to 14) (size 15 to 20)
#    0.000    0.500    1.250    7.875    7.000    1.000 
#    0.000    0.000    0.000    0.000    0.000    0.000 
#    0.000    0.000    0.000    0.000    0.000    0.000 
#
# Total GULP energy -179131.917932 kJ/mol
# GULP energy per Si atom -5597.872435 kJ/mol
# Density = 2.208884 g / cm^3
# Si number density = 22.139228 Si / 1000 Ang^3
#
#
#
# Elastic Constant Matrix: (Units=GPa)
#
#
# Indices 1 2 3 4 5 6 
#
# 1 115.4652 27.7438 3.0738 0.0000 -15.6838 0.0000
# 2 27.7438 96.6737 36.4611 0.0000 -14.3864 0.0000
# 3 3.0738 36.4611 108.8166 0.0000 -19.3579 0.0000
# 4 0.0000 0.0000 0.0000 18.4783 0.0000 -4.3656
# 5 -15.6838 -14.3864 -19.3579 0.0000 46.1582 0.0000
# 6 0.0000 0.0000 0.0000 -4.3656 0.0000 17.6170
#
#
#
# Elastic Compliance Matrix: (Units=1/GPa)
#
#
# Indices 1 2 3 4 5 6 
#
# 1 0.009697 -0.002794 0.001182 0.000000 0.002920 0.000000
# 2 -0.002794 0.012854 -0.003981 0.000000 0.001387 0.000000
# 3 0.001182 -0.003981 0.011175 0.000000 0.003847 0.000000
# 4 0.000000 0.000000 0.000000 0.057483 0.000000 0.014244
# 5 0.002920 0.001387 0.003847 0.000000 0.024702 0.000000
# 6 0.000000 0.000000 0.000000 0.014244 0.000000 0.060293
#
#
# Mechanical properties :
#
#
# Convention : Reuss Voigt Hill
#
# Bulk Modulus (GPa) = 44.36859 50.61253 47.49056
# Shear Modulus (GPa) = 25.65361 33.36250 29.50806
#
# Velocity S-wave (km/s) = 3.40772 3.88614 3.65477
# Velocity P-wave (km/s) = 5.96386 6.56101 6.26955
#
# Compressibility (1/GPa) = 0.02253847
#
# Stress axis : x y z
#
# Youngs Moduli (GPa) = 103.12356 77.79723 89.48728
#
# Poissons Ratio (x) = 0.21737 -0.10575
# Poissons Ratio (y) = 0.28814 0.35627
# Poissons Ratio (z) = -0.12186 0.30973
#
# Static dielectric constant tensor:
#      x y z
#    x 1.783810 0.000000 0.005740 
#    y 0.000000 1.857130 0.000000 
#    z 0.005740 0.000000 1.800880 
# 
# From -- ./inp_files/15782.got.cif
#   From: 2010.05.17/outbox.cif.g08.bks.cpg/sg14_8_cif.got.tgz:15782.got - 2010.06.03 17:49:19.
