data_PCOD9252673
_publ_section_title
;
Structure prediction by ZEFSAII (Michael W. Deem and Ramdas Pophale) SiO2 
 PCOD9252673
Probable space group: P 21/C
;
_chemical_formula_sum "Si O2"
_cell_formula_units_Z 22
_cell_length_a 17.885920
_cell_length_b 11.340472
_cell_length_c 8.842157
_cell_angle_alpha 90.000000
_cell_angle_beta 29.015974
_cell_angle_gamma 90.000000
_cell_volume 869.941861
_symmetry_space_group_name_H-M "P 21/C"
_symmetry_group_IT_number 14
_symmetry_cell_setting 'monoclinic'
loop_
_space_group_symop_operation_xyz
x,y,z
-x,1/2+y,1/2-z
-x,-y,-z
x,1/2-y,1/2+z
loop_
_atom_site_type_symbol
_atom_site_label
_atom_site_fract_x
_atom_site_fract_y
_atom_site_fract_z
Si Si1 0.258988 0.625726 0.739260
Si Si2 0.972261 0.173839 0.831413
Si Si3 0.511420 0.812247 0.205761
Si Si4 0.000000 0.000000 0.500000
Si Si5 0.248675 0.521408 0.082572
Si Si6 0.725025 0.730679 0.048755
O O1 0.414438 0.692583 0.412129
O O2 0.158133 0.570478 0.783623
O O3 0.274303 0.541803 0.857861
O O4 0.155734 0.732740 0.987359
O O5 0.115486 0.247922 0.646275
O O6 0.013388 0.091065 0.619986
O O7 0.898889 0.089439 0.090153
O O8 0.392583 0.919002 0.411556
O O9 0.648481 0.830309 0.082834
O O10 0.593075 0.798637 0.901663
O O11 0.243674 0.382061 0.113249
#
# Coordination Sequence:
#
# PCOD9252673 Si02
#       6
#     4   4   4   2   4   4
#     4  11  25  48  74 109 149 196 248 311 376 453
#     4  11  26  45  76 113 146 193 259 310 371 452
#     4  11  26  45  72 104 146 194 239 310 372 444
#     4  12  26  44  80 108 144 202 252 310 376 448
#     4  11  24  50  74 100 151 200 240 307 378 443
#     4  12  26  46  72 110 146 194 245 309 373 446
#
# _framework density 25.289048000000001
#
# number of rings (size 3 to 8) (size 9 to 14) (size 15 to 20)
#    0.000    0.727    3.636    3.273    7.636    0.000 
#    0.000    0.909    0.000    0.000    0.000    0.000 
#    0.000    0.000    0.000    0.000    0.000    0.000 
#
# Total GULP energy -122778.839608 kJ/mol
# GULP energy per Si atom -5580.856346 kJ/mol
# Density = 2.523149 g / cm^3
# Si number density = 25.289048 Si / 1000 Ang^3
#
#
#
# Elastic Constant Matrix: (Units=GPa)
#
#
# Indices 1 2 3 4 5 6 
#
# 1 135.2011 30.1285 45.4086 0.0000 -11.7774 0.0000
# 2 30.1285 40.1145 23.7685 0.0000 -6.9213 0.0000
# 3 45.4086 23.7685 103.2668 0.0000 -19.4065 0.0000
# 4 0.0000 0.0000 0.0000 27.9090 0.0000 1.1467
# 5 -11.7774 -6.9213 -19.4065 0.0000 27.1084 0.0000
# 6 0.0000 0.0000 0.0000 1.1467 0.0000 42.2990
#
#
#
# Elastic Compliance Matrix: (Units=1/GPa)
#
#
# Indices 1 2 3 4 5 6 
#
# 1 0.009624 -0.005412 -0.002842 0.000000 0.000764 0.000000
# 2 -0.005412 0.032124 -0.004523 0.000000 0.002613 0.000000
# 3 -0.002842 -0.004523 0.013317 0.000000 0.007144 0.000000
# 4 0.000000 0.000000 0.000000 0.035871 0.000000 -0.000972
# 5 0.000764 0.002613 0.007144 0.000000 0.043002 0.000000
# 6 0.000000 0.000000 0.000000 -0.000972 0.000000 0.023668
#
#
# Mechanical properties :
#
#
# Convention : Reuss Voigt Hill
#
# Bulk Modulus (GPa) = 33.88696 53.02151 43.45424
# Shear Modulus (GPa) = 25.90713 31.41505 28.66109
#
# Velocity S-wave (km/s) = 3.20416 3.52837 3.37016
# Velocity P-wave (km/s) = 5.20748 6.13277 5.68897
#
# Compressibility (1/GPa) = 0.02950988
#
# Stress axis : x y z
#
# Youngs Moduli (GPa) = 103.91093 31.12924 75.09133
#
# Poissons Ratio (x) = 0.16847 0.21344
# Poissons Ratio (y) = 0.56235 0.33965
# Poissons Ratio (z) = 0.29536 0.14080
#
# Static dielectric constant tensor:
#      x y z
#    x 1.949530 0.000000 -0.019060 
#    y 0.000000 2.008280 0.000000 
#    z -0.019060 0.000000 1.980030 
# 
# From -- ./inp_files/17927.got.cif
#   From: 2010.05.17/outbox.cif.g08.bks.cpg/sg14_9_cif.got.tgz:17927.got - 2010.06.03 17:49:19.
