data_PCOD9252909
_publ_section_title
;
Structure prediction by ZEFSAII (Michael W. Deem and Ramdas Pophale) SiO2 
 PCOD9252909
Probable space group: P 21/C
;
_chemical_formula_sum "Si O2"
_cell_formula_units_Z 20
_cell_length_a 7.339558
_cell_length_b 21.315180
_cell_length_c 7.836635
_cell_angle_alpha 90.000000
_cell_angle_beta 143.286776
_cell_angle_gamma 90.000000
_cell_volume 732.912011
_symmetry_space_group_name_H-M "P 21/C"
_symmetry_group_IT_number 14
_symmetry_cell_setting 'monoclinic'
loop_
_space_group_symop_operation_xyz
x,y,z
-x,1/2+y,1/2-z
-x,-y,-z
x,1/2-y,1/2+z
loop_
_atom_site_type_symbol
_atom_site_label
_atom_site_fract_x
_atom_site_fract_y
_atom_site_fract_z
Si Si1 0.681346 0.937081 0.343330
Si Si2 0.865123 0.731163 0.100174
Si Si3 0.329162 0.433207 0.561513
Si Si4 0.942318 0.113246 0.072731
Si Si5 0.269575 0.689579 0.103359
O O1 0.005354 0.805761 0.546416
O O2 0.942112 0.928055 0.678488
O O3 0.506729 0.002852 0.235327
O O4 0.421096 0.885223 0.187222
O O5 0.532514 0.759182 0.834040
O O6 0.908681 0.681713 0.287524
O O7 0.092844 0.789587 0.302537
O O8 0.058292 0.420157 0.489799
O O9 0.230939 0.433554 0.289428
O O10 0.564741 0.376305 0.766041
#
# Coordination Sequence:
#
# PCOD9252909 Si02
#       5
#     4   4   4   4   4
#     4  11  27  46  74 110 147 191 246 294 365 442
#     4  12  26  46  71 105 143 190 243 303 362 440
#     4  11  26  47  75 107 149 194 239 305 364 434
#     4  12  25  48  73 106 148 189 246 299 367 431
#     4  12  26  46  70 105 144 188 243 300 367 430
#
# _framework density 27.288405000000001
#
# number of rings (size 3 to 8) (size 9 to 14) (size 15 to 20)
#    0.000    0.400    2.000    6.000    2.800    8.000 
#    0.000    0.000    0.000    0.000    0.000    0.000 
#    0.000    0.000    0.000    0.000    0.000    0.000 
#
# Total GULP energy -112502.153054 kJ/mol
# GULP energy per Si atom -5625.107653 kJ/mol
# Density = 2.722630 g / cm^3
# Si number density = 27.288405 Si / 1000 Ang^3
#
#
#
# Elastic Constant Matrix: (Units=GPa)
#
#
# Indices 1 2 3 4 5 6 
#
# 1 140.7488 22.1619 39.6205 0.0000 6.6266 0.0000
# 2 22.1619 131.0280 25.7484 0.0000 -0.5682 0.0000
# 3 39.6205 25.7484 126.5354 0.0000 17.9157 0.0000
# 4 0.0000 0.0000 0.0000 29.5403 0.0000 9.9957
# 5 6.6266 -0.5682 17.9157 0.0000 41.9252 0.0000
# 6 0.0000 0.0000 0.0000 9.9957 0.0000 44.7094
#
#
#
# Elastic Compliance Matrix: (Units=1/GPa)
#
#
# Indices 1 2 3 4 5 6 
#
# 1 0.007892 -0.000895 -0.002247 0.000000 -0.000299 0.000000
# 2 -0.000895 0.008080 -0.001490 0.000000 0.000887 0.000000
# 3 -0.002247 -0.001490 0.009433 0.000000 -0.003696 0.000000
# 4 0.000000 0.000000 0.000000 0.036623 0.000000 -0.008188
# 5 -0.000299 0.000887 -0.003696 0.000000 0.025491 0.000000
# 6 0.000000 0.000000 0.000000 -0.008188 0.000000 0.024197
#
#
# Mechanical properties :
#
#
# Convention : Reuss Voigt Hill
#
# Bulk Modulus (GPa) = 61.94718 63.70822 62.82770
# Shear Modulus (GPa) = 39.56990 43.95373 41.76182
#
# Velocity S-wave (km/s) = 3.81210 4.01772 3.91626
# Velocity P-wave (km/s) = 6.49048 6.70222 6.59720
#
# Compressibility (1/GPa) = 0.01614279
#
# Stress axis : x y z
#
# Youngs Moduli (GPa) = 126.70597 123.76439 106.01242
#
# Poissons Ratio (x) = 0.11073 0.23818
# Poissons Ratio (y) = 0.11336 0.15792
# Poissons Ratio (z) = 0.28468 0.18437
#
# Static dielectric constant tensor:
#      x y z
#    x 2.098250 0.000000 -0.054720 
#    y 0.000000 2.180860 0.000000 
#    z -0.054720 0.000000 2.018790 
# 
# From -- ./inp_files/47462.got.cif
#   From: 2010.05.17/outbox.cif.g08.bks.cpg/sg14_24_cif.got.tgz:47462.got - 2010.06.03 17:49:19.
