data_PCOD9252194
_publ_section_title
;
Structure prediction by ZEFSAII (Michael W. Deem and Ramdas Pophale) SiO2 
 PCOD9252194
Probable space group: P 21/C
;
_chemical_formula_sum "Si O2"
_cell_formula_units_Z 24
_cell_length_a 11.384236
_cell_length_b 10.051105
_cell_length_c 11.397301
_cell_angle_alpha 90.000000
_cell_angle_beta 48.306298
_cell_angle_gamma 90.000000
_cell_volume 973.805991
_symmetry_space_group_name_H-M "P 21/C"
_symmetry_group_IT_number 14
_symmetry_cell_setting 'monoclinic'
loop_
_space_group_symop_operation_xyz
x,y,z
-x,1/2+y,1/2-z
-x,-y,-z
x,1/2-y,1/2+z
loop_
_atom_site_type_symbol
_atom_site_label
_atom_site_fract_x
_atom_site_fract_y
_atom_site_fract_z
Si Si1 0.865971 0.804990 0.528060
Si Si2 0.255706 0.282435 0.636503
Si Si3 0.580606 0.339293 0.945312
Si Si4 0.682652 0.063873 0.992727
Si Si5 0.197034 0.704705 0.384702
Si Si6 0.379499 0.538271 0.837481
O O1 0.788139 0.745841 0.700222
O O2 0.849853 0.741168 0.409092
O O3 0.047432 0.786717 0.441561
O O4 0.773475 0.944203 0.573018
O O5 0.414610 0.203343 0.502178
O O6 0.277900 0.441925 0.617679
O O7 0.722174 0.384150 0.768322
O O8 0.641570 0.196092 0.951209
O O9 0.566787 0.435629 0.064910
O O10 0.819891 0.108644 0.991679
O O11 0.527701 0.019587 0.168488
O O12 0.327694 0.815385 0.329839
#
# Coordination Sequence:
#
# PCOD9252194 Si02
#       6
#     4   4   4   4   4   4
#     4  12  28  46  71 108 151 189 237 304 373 430
#     4  12  25  47  74 106 146 194 243 298 363 437
#     4  11  23  44  75 103 140 192 250 297 351 439
#     4  11  23  44  76 101 140 193 248 298 355 432
#     4  11  26  45  69 109 144 189 244 299 364 438
#     4  11  23  45  77 105 141 195 245 299 360 434
#
# _framework density 24.645567
#
# number of rings (size 3 to 8) (size 9 to 14) (size 15 to 20)
#    0.000    0.667    3.333    4.000    4.667    4.667 
#    0.000    0.000    0.000    0.000    0.000    0.000 
#    0.000    0.000    0.000    0.000    0.000    0.000 
#
# Total GULP energy -134176.146715 kJ/mol
# GULP energy per Si atom -5590.672780 kJ/mol
# Density = 2.458947 g / cm^3
# Si number density = 24.645567 Si / 1000 Ang^3
#
#
#
# Elastic Constant Matrix: (Units=GPa)
#
#
# Indices 1 2 3 4 5 6 
#
# 1 138.9012 1.5236 16.4771 0.0000 6.8110 0.0000
# 2 1.5236 66.9961 2.8638 0.0000 9.6057 0.0000
# 3 16.4771 2.8638 47.2085 0.0000 8.6447 0.0000
# 4 0.0000 0.0000 0.0000 20.4085 0.0000 10.7889
# 5 6.8110 9.6057 8.6447 0.0000 36.0835 0.0000
# 6 0.0000 0.0000 0.0000 10.7889 0.0000 23.2254
#
#
#
# Elastic Compliance Matrix: (Units=1/GPa)
#
#
# Indices 1 2 3 4 5 6 
#
# 1 0.007534 0.000055 -0.002479 0.000000 -0.000843 0.000000
# 2 0.000055 0.015521 -0.000212 0.000000 -0.004091 0.000000
# 3 -0.002479 -0.000212 0.022972 0.000000 -0.004979 0.000000
# 4 0.000000 0.000000 0.000000 0.064949 0.000000 -0.030171
# 5 -0.000843 -0.004091 -0.004979 0.000000 0.030155 0.000000
# 6 0.000000 0.000000 0.000000 -0.030171 0.000000 0.057072
#
#
# Mechanical properties :
#
#
# Convention : Reuss Voigt Hill
#
# Bulk Modulus (GPa) = 24.53530 32.75941 28.64736
# Shear Modulus (GPa) = 23.03532 31.42623 27.23077
#
# Velocity S-wave (km/s) = 3.06054 3.57477 3.32760
# Velocity P-wave (km/s) = 4.73984 5.50996 5.13935
#
# Compressibility (1/GPa) = 0.04075760
#
# Stress axis : x y z
#
# Youngs Moduli (GPa) = 132.72954 64.43029 43.53049
#
# Poissons Ratio (x) = -0.00358 0.10789
# Poissons Ratio (y) = -0.00737 0.00921
# Poissons Ratio (z) = 0.32898 0.01364
#
# Static dielectric constant tensor:
#      x y z
#    x 1.998790 0.000000 0.080030 
#    y 0.000000 1.965130 0.000000 
#    z 0.080030 0.000000 1.992780 
# 
# From -- ./inp_files/28478.got.cif
#   From: 2010.05.17/outbox.cif.g08.bks.cpg/sg14_15_cif.got.tgz:28478.got - 2010.06.03 17:49:19.
