data_PCOD9252612
_publ_section_title
;
Structure prediction by ZEFSAII (Michael W. Deem and Ramdas Pophale) SiO2 
 PCOD9252612
Probable space group: P 21/C
;
_chemical_formula_sum "Si O2"
_cell_formula_units_Z 22
_cell_length_a 7.752177
_cell_length_b 9.611344
_cell_length_c 15.997282
_cell_angle_alpha 90.000000
_cell_angle_beta 50.507019
_cell_angle_gamma 90.000000
_cell_volume 919.822247
_symmetry_space_group_name_H-M "P 21/C"
_symmetry_group_IT_number 14
_symmetry_cell_setting 'monoclinic'
loop_
_space_group_symop_operation_xyz
x,y,z
-x,1/2+y,1/2-z
-x,-y,-z
x,1/2-y,1/2+z
loop_
_atom_site_type_symbol
_atom_site_label
_atom_site_fract_x
_atom_site_fract_y
_atom_site_fract_z
Si Si1 0.274819 0.279450 0.883726
Si Si2 0.869357 0.018893 0.676796
Si Si3 0.508991 0.908925 0.915008
Si Si4 0.752056 0.308390 0.647116
Si Si5 0.670228 0.626597 0.942796
Si Si6 0.000000 0.000000 0.000000
O O1 0.107526 0.381943 0.885992
O O2 0.515445 0.311442 0.766006
O O3 0.177566 0.125848 0.910828
O O4 0.308280 0.320498 0.969095
O O5 0.671986 0.989609 0.802402
O O6 0.809558 0.147617 0.634796
O O7 0.090763 0.065042 0.656208
O O8 0.271691 0.883207 0.938865
O O9 0.592899 0.753679 0.908788
O O10 0.500000 0.000000 0.000000
O O11 0.958176 0.406066 0.605360
O O12 0.500000 0.500000 0.000000
#
# Coordination Sequence:
#
# PCOD9252612 Si02
#       6
#     4   4   4   4   4   2
#     4  11  24  47  75 109 141 197 258 311 378 468
#     4  11  25  48  73 105 149 197 251 303 378 468
#     4  11  26  47  72 111 151 187 246 320 387 448
#     4  11  24  47  76 108 142 198 255 311 370 466
#     4  12  26  46  70 106 148 197 239 319 385 441
#     4  12  24  42  82 104 144 194 256 312 374 442
#
# _framework density 23.917662
#
# number of rings (size 3 to 8) (size 9 to 14) (size 15 to 20)
#    0.000    0.727    1.818    6.000    2.545    4.364 
#    9.818    0.000    0.000    0.000    0.000    0.000 
#    0.000    0.000    0.000    0.000    0.000    0.000 
#
# Total GULP energy -122670.138766 kJ/mol
# GULP energy per Si atom -5575.915398 kJ/mol
# Density = 2.386322 g / cm^3
# Si number density = 23.917662 Si / 1000 Ang^3
#
#
#
# Elastic Constant Matrix: (Units=GPa)
#
#
# Indices 1 2 3 4 5 6 
#
# 1 72.5165 41.0090 23.5573 0.0000 -5.6732 0.0000
# 2 41.0090 213.0412 51.8178 0.0000 1.4410 0.0000
# 3 23.5573 51.8178 151.6598 0.0000 -23.8227 0.0000
# 4 0.0000 0.0000 0.0000 49.1222 0.0000 0.4911
# 5 -5.6732 1.4410 -23.8227 0.0000 41.9744 0.0000
# 6 0.0000 0.0000 0.0000 0.4911 0.0000 47.2220
#
#
#
# Elastic Compliance Matrix: (Units=1/GPa)
#
#
# Indices 1 2 3 4 5 6 
#
# 1 0.015884 -0.002754 -0.001289 0.000000 0.001510 0.000000
# 2 -0.002754 0.005661 -0.001751 0.000000 -0.001561 0.000000
# 3 -0.001289 -0.001751 0.008096 0.000000 0.004481 0.000000
# 4 0.000000 0.000000 0.000000 0.020359 0.000000 -0.000212
# 5 0.001510 -0.001561 0.004481 0.000000 0.026625 0.000000
# 6 0.000000 0.000000 0.000000 -0.000212 0.000000 0.021179
#
#
# Mechanical properties :
#
#
# Convention : Reuss Voigt Hill
#
# Bulk Modulus (GPa) = 55.39643 74.44287 64.91965
# Shear Modulus (GPa) = 43.32329 49.05260 46.18795
#
# Velocity S-wave (km/s) = 4.26061 4.53359 4.39922
# Velocity P-wave (km/s) = 6.88588 7.65486 7.28053
#
# Compressibility (1/GPa) = 0.01805170
#
# Stress axis : x y z
#
# Youngs Moduli (GPa) = 62.95457 176.65767 123.51463
#
# Poissons Ratio (x) = 0.48657 0.15922
# Poissons Ratio (y) = 0.17340 0.21632
# Poissons Ratio (z) = 0.08115 0.30940
#
# Static dielectric constant tensor:
#      x y z
#    x 2.545950 0.000000 -0.297710 
#    y 0.000000 1.531580 0.000000 
#    z -0.297710 0.000000 2.080810 
# 
# From -- ./inp_files/54760.got.cif
#   From: 2010.05.17/outbox.cif.g08.bks.cpg/sg14_28_cif.got.tgz:54760.got - 2010.06.03 17:49:19.
