data_PCOD9252994
_publ_section_title
;
Structure prediction by ZEFSAII (Michael W. Deem and Ramdas Pophale) SiO2 
 PCOD9252994
Probable space group: P 21/C
;
_chemical_formula_sum "Si O2"
_cell_formula_units_Z 28
_cell_length_a 9.312453
_cell_length_b 10.567449
_cell_length_c 20.399391
_cell_angle_alpha 90.000000
_cell_angle_beta 28.847011
_cell_angle_gamma 90.000000
_cell_volume 968.554443
_symmetry_space_group_name_H-M "P 21/C"
_symmetry_group_IT_number 14
_symmetry_cell_setting 'monoclinic'
loop_
_space_group_symop_operation_xyz
x,y,z
-x,1/2+y,1/2-z
-x,-y,-z
x,1/2-y,1/2+z
loop_
_atom_site_type_symbol
_atom_site_label
_atom_site_fract_x
_atom_site_fract_y
_atom_site_fract_z
Si Si1 0.102948 0.789074 0.871424
Si Si2 0.631244 0.868851 0.286216
Si Si3 0.204247 0.027403 0.264579
Si Si4 0.280365 0.119160 0.381842
Si Si5 0.194793 0.619251 0.467774
Si Si6 0.715052 0.885639 0.399335
Si Si7 0.725231 0.616201 0.402688
O O1 0.457394 0.775120 0.720606
O O2 0.105386 0.893988 0.928369
O O3 0.962398 0.858084 0.864950
O O4 0.950931 0.675437 0.973464
O O5 0.412023 0.747045 0.381833
O O6 0.782500 0.892389 0.296027
O O7 0.910929 0.856161 0.125819
O O8 0.430605 0.989839 0.347610
O O9 0.168644 0.085602 0.352069
O O10 0.557777 0.013875 0.115677
O O11 0.128430 0.107386 0.228590
O O12 0.991793 0.096384 0.672921
O O13 0.558308 0.751425 0.473413
O O14 0.500000 0.000000 0.500000
O O15 0.500000 0.500000 0.500000
#
# Coordination Sequence:
#
# PCOD9252994 Si02
#       7
#     4   4   4   4   4   4   4
#     4  11  27  53  80 126 175 241 306 379 462 559
#     4  12  28  52  84 129 178 237 309 382 473 553
#     4  11  28  52  85 125 176 235 303 382 461 553
#     4  11  28  53  87 126 180 243 311 387 467 567
#     4  11  27  51  86 122 181 234 303 383 461 556
#     4  12  30  51  86 130 179 238 307 386 470 550
#     4  12  30  52  84 127 175 238 302 385 463 559
#
# _framework density 28.90906
#
# number of rings (size 3 to 8) (size 9 to 14) (size 15 to 20)
#    0.000    0.571    1.429    3.429   12.000    4.000 
#    0.000    1.429    0.000    0.000    0.000    0.000 
#    0.000    0.000    0.000    0.000    0.000    0.000 
#
# Total GULP energy -156849.842001 kJ/mol
# GULP energy per Si atom -5601.780071 kJ/mol
# Density = 2.884326 g / cm^3
# Si number density = 28.909060 Si / 1000 Ang^3
#
#
#
# Elastic Constant Matrix: (Units=GPa)
#
#
# Indices 1 2 3 4 5 6 
#
# 1 240.9363 60.9389 118.0222 0.0000 39.6442 0.0000
# 2 60.9389 197.5783 69.3841 0.0000 -22.2174 0.0000
# 3 118.0222 69.3841 186.1956 0.0000 7.2671 0.0000
# 4 0.0000 0.0000 0.0000 52.9198 0.0000 -17.9623
# 5 39.6442 -22.2174 7.2671 0.0000 83.9420 0.0000
# 6 0.0000 0.0000 0.0000 -17.9623 0.0000 56.1002
#
#
#
# Elastic Compliance Matrix: (Units=1/GPa)
#
#
# Indices 1 2 3 4 5 6 
#
# 1 0.006808 -0.001135 -0.003768 0.000000 -0.003190 0.000000
# 2 -0.001135 0.006276 -0.001711 0.000000 0.002345 0.000000
# 3 -0.003768 -0.001711 0.008373 0.000000 0.000602 0.000000
# 4 0.000000 0.000000 0.000000 0.021201 0.000000 0.006788
# 5 -0.003190 0.002345 0.000602 0.000000 0.013988 0.000000
# 6 0.000000 0.000000 0.000000 0.006788 0.000000 0.019999
#
#
# Mechanical properties :
#
#
# Convention : Reuss Voigt Hill
#
# Bulk Modulus (GPa) = 121.51439 124.60009 123.05724
# Shear Modulus (GPa) = 53.98701 63.68339 58.83520
#
# Velocity S-wave (km/s) = 4.32612 4.69858 4.51619
# Velocity P-wave (km/s) = 8.19014 8.52232 8.35788
#
# Compressibility (1/GPa) = 0.00822948
#
# Stress axis : x y z
#
# Youngs Moduli (GPa) = 146.88304 159.34017 119.43265
#
# Poissons Ratio (x) = 0.18090 0.45000
# Poissons Ratio (y) = 0.16676 0.20429
# Poissons Ratio (z) = 0.55343 0.27256
#
# Static dielectric constant tensor:
#      x y z
#    x 2.384580 0.000000 0.069550 
#    y 0.000000 2.532470 0.000000 
#    z 0.069550 0.000000 2.259800 
# 
# From -- ./inp_files/40211.got.cif
#   From: 2010.05.17/outbox.cif.g08.bks.cpg/sg14_21_cif.got.tgz:40211.got - 2010.06.03 17:49:19.
