data_PCOD9252105
_publ_section_title
;
Structure prediction by ZEFSAII (Michael W. Deem and Ramdas Pophale) SiO2 
 PCOD9252105
Probable space group: P 21/C
;
_chemical_formula_sum "Si O2"
_cell_formula_units_Z 28
_cell_length_a 12.038340
_cell_length_b 6.137464
_cell_length_c 21.494602
_cell_angle_alpha 90.000000
_cell_angle_beta 123.727765
_cell_angle_gamma 90.000000
_cell_volume 1320.820859
_symmetry_space_group_name_H-M "P 21/C"
_symmetry_group_IT_number 14
_symmetry_cell_setting 'monoclinic'
loop_
_space_group_symop_operation_xyz
x,y,z
-x,1/2+y,1/2-z
-x,-y,-z
x,1/2-y,1/2+z
loop_
_atom_site_type_symbol
_atom_site_label
_atom_site_fract_x
_atom_site_fract_y
_atom_site_fract_z
Si Si1 0.434428 0.431441 0.543867
Si Si2 0.875620 0.012599 0.053960
Si Si3 0.060296 0.830195 0.789343
Si Si4 0.560943 0.730343 0.178540
Si Si5 0.658288 0.078443 0.297700
Si Si6 0.076606 0.699319 0.052648
Si Si7 0.657540 0.326877 0.171773
O O1 0.500000 0.500000 0.500000
O O2 0.275353 0.420854 0.486898
O O3 0.478142 0.608245 0.609100
O O4 0.519884 0.224924 0.593145
O O5 0.982033 0.826501 0.071060
O O6 0.924488 0.138627 0.131129
O O7 0.877315 0.154779 0.991386
O O8 0.212710 0.797628 0.812495
O O9 0.993980 0.580568 0.751518
O O10 0.451309 0.598635 0.183127
O O11 0.664824 0.586433 0.172188
O O12 0.643183 0.856470 0.256110
O O13 0.798706 0.110362 0.371988
O O14 0.642314 0.258057 0.238824
O O15 0.000000 0.500000 0.000000
#
# Coordination Sequence:
#
# PCOD9252105 Si02
#       7
#     4   4   4   4   4   4   4
#     4  11  24  47  72 108 144 191 254 314 390 458
#     4  11  26  49  73 109 147 198 260 320 394 462
#     4  12  30  52  78 111 157 208 262 320 392 476
#     4  11  24  42  73 104 146 191 247 316 379 459
#     4  11  23  43  67 107 142 191 245 309 380 454
#     4  11  27  45  73 105 147 196 252 324 384 463
#     4  11  26  45  73 107 142 197 243 317 380 459
#
# _framework density 21.198936
#
# number of rings (size 3 to 8) (size 9 to 14) (size 15 to 20)
#    0.000    0.857    4.286    0.857   10.000    2.857 
#    0.000    0.000    0.000    0.000    0.000    0.000 
#    0.000    0.000    0.000    0.000    0.000    0.000 
#
# Total GULP energy -156116.677832 kJ/mol
# GULP energy per Si atom -5575.595637 kJ/mol
# Density = 2.115069 g / cm^3
# Si number density = 21.198936 Si / 1000 Ang^3
#
#
#
# Elastic Constant Matrix: (Units=GPa)
#
#
# Indices 1 2 3 4 5 6 
#
# 1 134.2340 48.7230 62.2607 0.0000 13.0418 0.0000
# 2 48.7230 90.4452 48.3325 0.0000 18.1207 0.0000
# 3 62.2607 48.3325 134.6018 0.0000 18.2328 0.0000
# 4 0.0000 0.0000 0.0000 -15.0736 0.0000 -6.8813
# 5 13.0418 18.1207 18.2328 0.0000 40.5760 0.0000
# 6 0.0000 0.0000 0.0000 -6.8813 0.0000 21.8294
#
#
#
# Elastic Compliance Matrix: (Units=1/GPa)
#
#
# Indices 1 2 3 4 5 6 
#
# 1 0.010426 -0.003741 -0.003462 0.000000 -0.000124 0.000000
# 2 -0.003741 0.015716 -0.003327 0.000000 -0.004321 0.000000
# 3 -0.003462 -0.003327 0.010513 0.000000 -0.002125 0.000000
# 4 0.000000 0.000000 0.000000 -0.057995 0.000000 -0.018282
# 5 -0.000124 -0.004321 -0.002125 0.000000 0.027570 0.000000
# 6 0.000000 0.000000 0.000000 -0.018282 0.000000 0.040047
#
#
# Mechanical properties :
#
#
# Convention : Reuss Voigt Hill
#
# Bulk Modulus (GPa) = 64.13059 75.32373 69.72716
# Shear Modulus (GPa) = 68.93221 22.79735 45.86478
#
# Velocity S-wave (km/s) = 5.70854 3.28289 4.65643
# Velocity P-wave (km/s) = 8.58879 7.06957 7.86594
#
# Compressibility (1/GPa) = 0.01559318
#
# Stress axis : x y z
#
# Youngs Moduli (GPa) = 95.91840 63.63134 95.11649
#
# Poissons Ratio (x) = 0.23806 0.32931
# Poissons Ratio (y) = 0.35885 0.31648
# Poissons Ratio (z) = 0.33208 0.21172
#
# Static dielectric constant tensor:
#      x y z
#    x 1.515930 0.000000 -0.219370 
#    y 0.000000 1.630660 0.000000 
#    z -0.219370 0.000000 1.524520 
# 
# From -- ./inp_files/66541.got.cif
#   From: 2010.05.17/outbox.cif.g08.bks.cpg/sg14_34_cif.got.tgz:66541.got - 2010.06.03 17:49:19.
