data_PCOD9252634
_publ_section_title
;
Structure prediction by ZEFSAII (Michael W. Deem and Ramdas Pophale) SiO2 
 PCOD9252634
Probable space group: P 21/C
;
_chemical_formula_sum "Si O2"
_cell_formula_units_Z 16
_cell_length_a 18.482318
_cell_length_b 5.833790
_cell_length_c 9.490536
_cell_angle_alpha 90.000000
_cell_angle_beta 36.989521
_cell_angle_gamma 90.000000
_cell_volume 615.680742
_symmetry_space_group_name_H-M "P 21/C"
_symmetry_group_IT_number 14
_symmetry_cell_setting 'monoclinic'
loop_
_space_group_symop_operation_xyz
x,y,z
-x,1/2+y,1/2-z
-x,-y,-z
x,1/2-y,1/2+z
loop_
_atom_site_type_symbol
_atom_site_label
_atom_site_fract_x
_atom_site_fract_y
_atom_site_fract_z
Si Si1 0.352681 0.951145 0.066618
Si Si2 0.002629 0.700761 0.882278
Si Si3 0.850300 0.422014 0.618895
Si Si4 0.418655 0.193718 0.701631
O O1 0.266153 0.732254 0.223437
O O2 0.356962 0.136486 0.185911
O O3 0.488725 0.850531 0.853708
O O4 0.332387 0.066950 0.946154
O O5 0.099941 0.867606 0.803629
O O6 0.054005 0.647961 0.650090
O O7 0.000000 0.500000 0.000000
O O8 0.869026 0.805524 0.079749
O O9 0.500000 0.000000 0.500000
#
# Coordination Sequence:
#
# PCOD9252634 Si02
#       4
#     4   4   4   4
#     4  11  26  48  78 112 156 208 260 328 394 460
#     4  11  24  51  76 109 153 194 264 324 383 481
#     4  11  26  47  77 112 150 202 258 326 398 459
#     4  11  24  48  75 114 158 200 266 322 382 480
#
# _framework density 25.987494999999999
#
# number of rings (size 3 to 8) (size 9 to 14) (size 15 to 20)
#    0.000    1.000    5.000    0.000    3.500    2.000 
#    9.000    0.000    0.000    0.000    0.000    0.000 
#    0.000    0.000    0.000    0.000    0.000    0.000 
#
# Total GULP energy -89526.981842 kJ/mol
# GULP energy per Si atom -5595.436365 kJ/mol
# Density = 2.592835 g / cm^3
# Si number density = 25.987495 Si / 1000 Ang^3
#
#
#
# Elastic Constant Matrix: (Units=GPa)
#
#
# Indices 1 2 3 4 5 6 
#
# 1 111.7547 55.0781 53.5094 0.0000 0.0317 0.0000
# 2 55.0781 114.1071 64.4023 0.0000 -6.6194 0.0000
# 3 53.5094 64.4023 133.8072 0.0000 13.8612 0.0000
# 4 0.0000 0.0000 0.0000 44.5022 0.0000 -1.5677
# 5 0.0317 -6.6194 13.8612 0.0000 43.7843 0.0000
# 6 0.0000 0.0000 0.0000 -1.5677 0.0000 74.3280
#
#
#
# Elastic Compliance Matrix: (Units=1/GPa)
#
#
# Indices 1 2 3 4 5 6 
#
# 1 0.012501 -0.004370 -0.002922 0.000000 0.000255 0.000000
# 2 -0.004370 0.014196 -0.005488 0.000000 0.003887 0.000000
# 3 -0.002922 -0.005488 0.011754 0.000000 -0.004549 0.000000
# 4 0.000000 0.000000 0.000000 0.022488 0.000000 0.000474
# 5 0.000255 0.003887 -0.004549 0.000000 0.024867 0.000000
# 6 0.000000 0.000000 0.000000 0.000474 0.000000 0.013464
#
#
# Mechanical properties :
#
#
# Convention : Reuss Voigt Hill
#
# Bulk Modulus (GPa) = 77.57009 78.40539 77.98774
# Shear Modulus (GPa) = 38.72185 44.96816 41.84500
#
# Velocity S-wave (km/s) = 3.86426 4.16429 4.01708
# Velocity P-wave (km/s) = 7.05860 7.30464 7.18267
#
# Compressibility (1/GPa) = 0.01289157
#
# Stress axis : x y z
#
# Youngs Moduli (GPa) = 79.99320 70.44420 85.07386
#
# Poissons Ratio (x) = 0.30783 0.24862
# Poissons Ratio (y) = 0.34956 0.46685
# Poissons Ratio (z) = 0.23377 0.38657
#
# Static dielectric constant tensor:
#      x y z
#    x 2.056620 0.000000 -0.075350 
#    y 0.000000 2.367320 0.000000 
#    z -0.075350 0.000000 1.959870 
# 
# From -- ./inp_files/18258.got.cif
#   From: 2010.05.17/outbox.cif.g08.bks.cpg/sg14_10_cif.got.tgz:18258.got - 2010.06.03 17:49:19.
