data_PCOD9252937
_publ_section_title
;
Structure prediction by ZEFSAII (Michael W. Deem and Ramdas Pophale) SiO2 
 PCOD9252937
Probable space group: P 21/C
;
_chemical_formula_sum "Si O2"
_cell_formula_units_Z 16
_cell_length_a 6.931848
_cell_length_b 13.479041
_cell_length_c 9.650061
_cell_angle_alpha 90.000000
_cell_angle_beta 134.748577
_cell_angle_gamma 90.000000
_cell_volume 640.354552
_symmetry_space_group_name_H-M "P 21/C"
_symmetry_group_IT_number 14
_symmetry_cell_setting 'monoclinic'
loop_
_space_group_symop_operation_xyz
x,y,z
-x,1/2+y,1/2-z
-x,-y,-z
x,1/2-y,1/2+z
loop_
_atom_site_type_symbol
_atom_site_label
_atom_site_fract_x
_atom_site_fract_y
_atom_site_fract_z
Si Si1 0.807380 0.920458 0.984256
Si Si2 0.074018 0.235260 0.298129
Si Si3 0.385520 0.856246 0.548826
Si Si4 0.982097 0.486637 0.826758
O O1 0.934156 0.812571 0.079498
O O2 0.537487 0.897162 0.761597
O O3 0.765423 0.959404 0.119448
O O4 0.000000 0.000000 0.000000
O O5 0.382037 0.208879 0.408891
O O6 0.968351 0.127830 0.285343
O O7 0.879482 0.214537 0.584810
O O8 0.254639 0.955005 0.413989
O O9 0.000000 0.500000 0.000000
#
# Coordination Sequence:
#
# PCOD9252937 Si02
#       4
#     4   4   4   4
#     4  11  26  48  81 118 164 215 274 348 413 499
#     4  11  27  47  80 115 163 218 274 344 425 492
#     4  11  27  51  79 118 162 215 279 343 416 502
#     4  11  27  48  79 125 162 214 276 351 417 501
#
# _framework density 24.986160000000002
#
# number of rings (size 3 to 8) (size 9 to 14) (size 15 to 20)
#    0.000    1.000    2.500    0.750   14.000    5.000 
#    0.000    0.000    0.000    0.000    0.000    0.000 
#    0.000    0.000    0.000    0.000    0.000    0.000 
#
# Total GULP energy -89251.752089 kJ/mol
# GULP energy per Si atom -5578.234506 kJ/mol
# Density = 2.492929 g / cm^3
# Si number density = 24.986160 Si / 1000 Ang^3
#
#
#
# Elastic Constant Matrix: (Units=GPa)
#
#
# Indices 1 2 3 4 5 6 
#
# 1 88.9226 27.0886 29.7328 0.0000 15.3939 0.0000
# 2 27.0886 193.4048 71.9596 0.0000 5.0742 0.0000
# 3 29.7328 71.9596 189.6620 0.0000 2.2991 0.0000
# 4 0.0000 0.0000 0.0000 77.9623 0.0000 4.8357
# 5 15.3939 5.0742 2.2991 0.0000 36.9711 0.0000
# 6 0.0000 0.0000 0.0000 4.8357 0.0000 44.7828
#
#
#
# Elastic Compliance Matrix: (Units=1/GPa)
#
#
# Indices 1 2 3 4 5 6 
#
# 1 0.012996 -0.001106 -0.001555 0.000000 -0.005163 0.000000
# 2 -0.001106 0.006132 -0.002150 0.000000 -0.000247 0.000000
# 3 -0.001555 -0.002150 0.006325 0.000000 0.000549 0.000000
# 4 0.000000 0.000000 0.000000 0.012913 0.000000 -0.001394
# 5 -0.005163 -0.000247 0.000549 0.000000 0.029198 0.000000
# 6 0.000000 0.000000 0.000000 -0.001394 0.000000 0.022481
#
#
# Mechanical properties :
#
#
# Convention : Reuss Voigt Hill
#
# Bulk Modulus (GPa) = 63.16748 81.06128 72.11438
# Shear Modulus (GPa) = 47.64393 54.82379 51.23386
#
# Velocity S-wave (km/s) = 4.37144 4.68927 4.53315
# Velocity P-wave (km/s) = 7.12848 7.86333 7.50491
#
# Compressibility (1/GPa) = 0.01583093
#
# Stress axis : x y z
#
# Youngs Moduli (GPa) = 76.94386 163.08137 158.09197
#
# Poissons Ratio (x) = 0.18041 0.24585
# Poissons Ratio (y) = 0.08512 0.33991
# Poissons Ratio (z) = 0.11966 0.35064
#
# Static dielectric constant tensor:
#      x y z
#    x 2.094310 0.000000 -0.015600 
#    y 0.000000 1.973340 0.000000 
#    z -0.015600 0.000000 2.005220 
# 
# From -- ./inp_files/5075.got.cif
#   From: 2010.05.17/outbox.cif.g08.bks.cpg/sg14_3_cif.got.tgz:5075.got - 2010.06.03 17:49:19.
