data_PCOD9252728
_publ_section_title
;
Structure prediction by ZEFSAII (Michael W. Deem and Ramdas Pophale) SiO2 
 PCOD9252728
Probable space group: P 21/C
;
_chemical_formula_sum "Si O2"
_cell_formula_units_Z 30
_cell_length_a 16.739580
_cell_length_b 4.845552
_cell_length_c 13.773823
_cell_angle_alpha 90.000000
_cell_angle_beta 98.009665
_cell_angle_gamma 90.000000
_cell_volume 1106.330249
_symmetry_space_group_name_H-M "P 21/C"
_symmetry_group_IT_number 14
_symmetry_cell_setting 'monoclinic'
loop_
_space_group_symop_operation_xyz
x,y,z
-x,1/2+y,1/2-z
-x,-y,-z
x,1/2-y,1/2+z
loop_
_atom_site_type_symbol
_atom_site_label
_atom_site_fract_x
_atom_site_fract_y
_atom_site_fract_z
Si Si1 0.425852 0.983887 0.863510
Si Si2 0.837833 0.444749 0.229101
Si Si3 0.899207 0.245168 0.475316
Si Si4 0.261221 0.599802 0.594648
Si Si5 0.039288 0.252775 0.627742
Si Si6 0.245841 0.085868 0.876635
Si Si7 0.500000 0.000000 0.500000
Si Si8 0.568249 0.363472 0.854793
O O1 0.334404 0.084784 0.843547
O O2 0.453556 0.921523 0.758571
O O3 0.489401 0.232126 0.901356
O O4 0.431482 0.719953 0.932366
O O5 0.780816 0.512670 0.314664
O O6 0.925274 0.580167 0.274480
O O7 0.809691 0.139908 0.190402
O O8 0.802627 0.636792 0.141449
O O9 0.806074 0.175441 0.448418
O O10 0.919952 0.561570 0.450759
O O11 0.944370 0.229697 0.585971
O O12 0.935184 0.057396 0.394691
O O13 0.262386 0.445995 0.493158
O O14 0.349821 0.700913 0.633626
O O15 0.570751 0.884857 0.429543
#
# Coordination Sequence:
#
# PCOD9252728 Si02
#       8
#     4   4   4   4   4   4   2   4
#     4  12  27  44  69  99 133 184 231 291 354 424
#     4  11  25  45  69 104 141 187 231 296 350 422
#     4   9  19  38  66 103 132 183 232 280 347 426
#     4  11  25  45  70 103 140 188 234 297 354 419
#     4   9  18  38  68  96 141 180 228 282 353 411
#     4  12  28  44  70 104 142 181 243 288 357 423
#     4  12  26  48  70  96 140 174 232 294 358 412
#     4  12  26  46  69  98 133 183 232 292 353 427
#
# _framework density 27.116679000000001
#
# number of rings (size 3 to 8) (size 9 to 14) (size 15 to 20)
#    0.000    1.067    4.000    2.000    3.733    3.200 
#    2.400    1.333    0.000    0.000    0.000    0.000 
#    0.000    0.000    0.000    0.000    0.000    0.000 
#
# Total GULP energy -167197.094160 kJ/mol
# GULP energy per Si atom -5573.236472 kJ/mol
# Density = 2.705496 g / cm^3
# Si number density = 27.116679 Si / 1000 Ang^3
#
#
#
# Elastic Constant Matrix: (Units=GPa)
#
#
# Indices 1 2 3 4 5 6 
#
# 1 96.2478 35.9990 21.5043 0.0000 24.1766 0.0000
# 2 35.9990 84.7235 27.5043 0.0000 13.4370 0.0000
# 3 21.5043 27.5043 177.5981 0.0000 5.1902 0.0000
# 4 0.0000 0.0000 0.0000 36.0845 0.0000 10.1147
# 5 24.1766 13.4370 5.1902 0.0000 43.8955 0.0000
# 6 0.0000 0.0000 0.0000 10.1147 0.0000 22.7082
#
#
#
# Elastic Compliance Matrix: (Units=1/GPa)
#
#
# Indices 1 2 3 4 5 6 
#
# 1 0.013840 -0.004661 -0.000776 0.000000 -0.006104 0.000000
# 2 -0.004661 0.014588 -0.001645 0.000000 -0.001704 0.000000
# 3 -0.000776 -0.001645 0.005973 0.000000 0.000225 0.000000
# 4 0.000000 0.000000 0.000000 0.031666 0.000000 -0.014105
# 5 -0.006104 -0.001704 0.000225 0.000000 0.026638 0.000000
# 6 0.000000 0.000000 0.000000 -0.014105 0.000000 0.050320
#
#
# Mechanical properties :
#
#
# Convention : Reuss Voigt Hill
#
# Bulk Modulus (GPa) = 49.41274 58.73162 54.07218
# Shear Modulus (GPa) = 30.50031 38.77511 34.63771
#
# Velocity S-wave (km/s) = 3.35741 3.78555 3.57789
# Velocity P-wave (km/s) = 5.76988 6.38851 6.08706
#
# Compressibility (1/GPa) = 0.02023770
#
# Stress axis : x y z
#
# Youngs Moduli (GPa) = 72.25642 68.55107 167.42550
#
# Poissons Ratio (x) = 0.31949 0.12985
# Poissons Ratio (y) = 0.33675 0.27542
# Poissons Ratio (z) = 0.05604 0.11277
#
# Static dielectric constant tensor:
#      x y z
#    x 2.252200 0.000000 -0.051740 
#    y 0.000000 2.165850 0.000000 
#    z -0.051740 0.000000 2.175760 
# 
# From -- ./inp_files/48024.got.cif
#   From: 2010.05.17/outbox.cif.g08.bks.cpg/sg14_25_cif.got.tgz:48024.got - 2010.06.03 17:49:19.
