data_PCOD9252071
_publ_section_title
;
Structure prediction by ZEFSAII (Michael W. Deem and Ramdas Pophale) SiO2 
 PCOD9252071
Probable space group: P 21/C
;
_chemical_formula_sum "Si O2"
_cell_formula_units_Z 28
_cell_length_a 10.287392
_cell_length_b 15.897717
_cell_length_c 8.836379
_cell_angle_alpha 90.000000
_cell_angle_beta 62.034330
_cell_angle_gamma 90.000000
_cell_volume 1276.402283
_symmetry_space_group_name_H-M "P 21/C"
_symmetry_group_IT_number 14
_symmetry_cell_setting 'monoclinic'
loop_
_space_group_symop_operation_xyz
x,y,z
-x,1/2+y,1/2-z
-x,-y,-z
x,1/2-y,1/2+z
loop_
_atom_site_type_symbol
_atom_site_label
_atom_site_fract_x
_atom_site_fract_y
_atom_site_fract_z
Si Si1 0.386796 0.315072 0.648492
Si Si2 0.074990 0.442201 0.587570
Si Si3 0.255083 0.500161 0.754785
Si Si4 0.347263 0.160535 0.831108
Si Si5 0.392243 0.565924 0.977745
Si Si6 0.290933 0.666144 0.558162
Si Si7 0.819605 0.176398 0.204039
O O1 0.332244 0.409015 0.709717
O O2 0.290030 0.240565 0.769623
O O3 0.390826 0.302800 0.468180
O O4 0.556261 0.305520 0.602170
O O5 0.107905 0.485039 0.733154
O O6 0.228599 0.411372 0.430475
O O7 0.000000 0.500000 0.500000
O O8 0.976384 0.359756 0.670868
O O9 0.276841 0.529312 0.916478
O O10 0.323768 0.576567 0.618570
O O11 0.490862 0.123496 0.674046
O O12 0.500000 0.500000 0.000000
O O13 0.301157 0.616421 0.151959
O O14 0.182821 0.664350 0.474754
O O15 0.223539 0.730485 0.717025
#
# Coordination Sequence:
#
# PCOD9252071 Si02
#       7
#     4   4   4   4   4   4   4
#     4  11  23  42  70 107 135 179 232 300 359 409
#     4  11  25  49  69 100 139 195 230 287 352 426
#     4  11  25  44  73 101 146 184 238 291 358 414
#     4  11  25  43  69 100 141 176 235 287 360 414
#     4  12  25  43  71 108 134 183 237 301 349 415
#     4  12  22  43  71 104 139 186 236 295 346 429
#     4  12  26  42  72 101 145 184 240 284 354 422
#
# _framework density 21.936658000000001
#
# number of rings (size 3 to 8) (size 9 to 14) (size 15 to 20)
#    0.000    0.571    4.286    3.857    6.000    2.857 
#    0.000    0.000    0.000    0.000    0.000    0.000 
#    0.000    0.000    0.000    0.000    0.000    0.000 
#
# Total GULP energy -156307.336377 kJ/mol
# GULP energy per Si atom -5582.404871 kJ/mol
# Density = 2.188673 g / cm^3
# Si number density = 21.936658 Si / 1000 Ang^3
#
#
#
# Elastic Constant Matrix: (Units=GPa)
#
#
# Indices 1 2 3 4 5 6 
#
# 1 80.2028 19.6175 -0.7139 0.0000 20.9806 0.0000
# 2 19.6175 94.1046 32.4531 0.0000 25.3359 0.0000
# 3 -0.7139 32.4531 43.5175 0.0000 22.0900 0.0000
# 4 0.0000 0.0000 0.0000 27.0665 0.0000 4.2123
# 5 20.9806 25.3359 22.0900 0.0000 37.9765 0.0000
# 6 0.0000 0.0000 0.0000 4.2123 0.0000 27.3316
#
#
#
# Elastic Compliance Matrix: (Units=1/GPa)
#
#
# Indices 1 2 3 4 5 6 
#
# 1 0.016498 -0.003223 0.008811 0.000000 -0.012089 0.000000
# 2 -0.003223 0.015562 -0.010347 0.000000 -0.002583 0.000000
# 3 0.008811 -0.010347 0.042295 0.000000 -0.022567 0.000000
# 4 0.000000 0.000000 0.000000 0.037854 0.000000 -0.005834
# 5 -0.012089 -0.002583 -0.022567 0.000000 0.047861 0.000000
# 6 0.000000 0.000000 0.000000 -0.005834 0.000000 0.037487
#
#
# Mechanical properties :
#
#
# Convention : Reuss Voigt Hill
#
# Bulk Modulus (GPa) = 15.42346 35.61536 25.51941
# Shear Modulus (GPa) = 21.86397 29.57281 25.71839
#
# Velocity S-wave (km/s) = 3.16046 3.67563 3.42774
# Velocity P-wave (km/s) = 4.51267 5.85530 5.22727
#
# Compressibility (1/GPa) = 0.06483629
#
# Stress axis : x y z
#
# Youngs Moduli (GPa) = 60.61496 64.25874 23.64337
#
# Poissons Ratio (x) = 0.20710 -0.20831
# Poissons Ratio (y) = 0.19535 0.24464
# Poissons Ratio (z) = -0.53406 0.66489
#
# Static dielectric constant tensor:
#      x y z
#    x 1.903050 0.000000 0.067120 
#    y 0.000000 1.024400 0.000000 
#    z 0.067120 0.000000 1.795180 
# 
# From -- ./inp_files/13233.got.cif
#   From: 2010.05.17/outbox.cif.g08.bks.cpg/sg14_7_cif.got.tgz:13233.got - 2010.06.03 17:49:19.
