data_PCOD9252834
_publ_section_title
;
Structure prediction by ZEFSAII (Michael W. Deem and Ramdas Pophale) SiO2 
 PCOD9252834
Probable space group: P 21/C
;
_chemical_formula_sum "Si O2"
_cell_formula_units_Z 30
_cell_length_a 8.882427
_cell_length_b 11.631794
_cell_length_c 14.051564
_cell_angle_alpha 90.000000
_cell_angle_beta 63.189317
_cell_angle_gamma 90.000000
_cell_volume 1295.722750
_symmetry_space_group_name_H-M "P 21/C"
_symmetry_group_IT_number 14
_symmetry_cell_setting 'monoclinic'
loop_
_space_group_symop_operation_xyz
x,y,z
-x,1/2+y,1/2-z
-x,-y,-z
x,1/2-y,1/2+z
loop_
_atom_site_type_symbol
_atom_site_label
_atom_site_fract_x
_atom_site_fract_y
_atom_site_fract_z
Si Si1 0.727527 0.191615 0.796928
Si Si2 0.808159 0.549157 0.057865
Si Si3 0.915530 0.631232 0.841330
Si Si4 0.000000 0.500000 0.500000
Si Si5 0.206781 0.552011 0.253057
Si Si6 0.700988 0.003278 0.943356
Si Si7 0.482541 0.619299 0.809791
Si Si8 0.730972 0.814311 0.773971
O O1 0.720026 0.327088 0.799932
O O2 0.750791 0.129850 0.890493
O O3 0.573609 0.138089 0.782910
O O4 0.893839 0.160445 0.688741
O O5 0.672695 0.444983 0.093774
O O6 0.770207 0.626728 0.161681
O O7 0.797923 0.630527 0.967289
O O8 0.000000 0.500000 0.000000
O O9 0.898656 0.504990 0.802183
O O10 0.863304 0.718518 0.772415
O O11 0.912512 0.445354 0.621361
O O12 0.809641 0.518082 0.505917
O O13 0.362473 0.467462 0.227354
O O14 0.741189 0.911406 0.850218
O O15 0.500000 0.000000 0.000000
O O16 0.553436 0.743449 0.823703
#
# Coordination Sequence:
#
# PCOD9252834 Si02
#       8
#     4   4   4   2   4   4   4   4
#     4  12  24  46  75 111 155 207 259 334 405 480
#     4  12  25  50  81 112 157 214 271 330 423 500
#     4  11  26  48  76 110 151 206 266 334 395 492
#     4  12  26  50  82 114 158 216 266 336 414 490
#     4  11  27  49  75 113 159 200 274 330 408 493
#     4  12  27  49  78 118 160 211 269 335 412 494
#     4  11  25  47  81 110 157 211 262 345 404 486
#     4  11  27  50  73 117 162 198 275 343 402 493
#
# _framework density 23.153100999999999
#
# number of rings (size 3 to 8) (size 9 to 14) (size 15 to 20)
#    0.000    0.533    4.000    2.400    3.733    9.600 
#    0.000    0.000    0.000    0.000    0.000    0.000 
#    0.000    0.000    0.000    0.000    0.000    0.000 
#
# Total GULP energy -167243.188161 kJ/mol
# GULP energy per Si atom -5574.772939 kJ/mol
# Density = 2.310040 g / cm^3
# Si number density = 23.153101 Si / 1000 Ang^3
#
#
#
# Elastic Constant Matrix: (Units=GPa)
#
#
# Indices 1 2 3 4 5 6 
#
# 1 132.3096 38.3327 26.8657 0.0000 -12.3329 0.0000
# 2 38.3327 124.3202 38.3886 0.0000 -0.3538 0.0000
# 3 26.8657 38.3886 88.9181 0.0000 -2.9264 0.0000
# 4 0.0000 0.0000 0.0000 11.6282 0.0000 -10.1338
# 5 -12.3329 -0.3538 -2.9264 0.0000 34.8336 0.0000
# 6 0.0000 0.0000 0.0000 -10.1338 0.0000 28.9768
#
#
#
# Elastic Compliance Matrix: (Units=1/GPa)
#
#
# Indices 1 2 3 4 5 6 
#
# 1 0.008800 -0.002208 -0.001608 0.000000 0.002958 0.000000
# 2 -0.002208 0.009837 -0.003612 0.000000 -0.000985 0.000000
# 3 -0.001608 -0.003612 0.013309 0.000000 0.000512 0.000000
# 4 0.000000 0.000000 0.000000 0.123699 0.000000 0.043260
# 5 0.002958 -0.000985 0.000512 0.000000 0.029788 0.000000
# 6 0.000000 0.000000 0.000000 0.043260 0.000000 0.049639
#
#
# Mechanical properties :
#
#
# Convention : Reuss Voigt Hill
#
# Bulk Modulus (GPa) = 58.51897 61.41355 59.96626
# Shear Modulus (GPa) = 19.55985 31.21844 25.38915
#
# Velocity S-wave (km/s) = 2.90971 3.67597 3.31505
# Velocity P-wave (km/s) = 6.05130 6.67829 6.37251
#
# Compressibility (1/GPa) = 0.01708847
#
# Stress axis : x y z
#
# Youngs Moduli (GPa) = 113.63478 101.65386 75.13975
#
# Poissons Ratio (x) = 0.22450 0.12083
# Poissons Ratio (y) = 0.25096 0.27142
# Poissons Ratio (z) = 0.18273 0.36720
#
# Static dielectric constant tensor:
#      x y z
#    x 1.913580 0.000000 0.002640 
#    y 0.000000 1.943470 0.000000 
#    z 0.002640 0.000000 1.877800 
# 
# From -- ./inp_files/40243.got.cif
#   From: 2010.05.17/outbox.cif.g08.bks.cpg/sg14_21_cif.got.tgz:40243.got - 2010.06.03 17:49:19.
