data_PCOD9252113
_publ_section_title
;
Structure prediction by ZEFSAII (Michael W. Deem and Ramdas Pophale) SiO2 
 PCOD9252113
Probable space group: P 21/C
;
_chemical_formula_sum "Si O2"
_cell_formula_units_Z 24
_cell_length_a 10.651868
_cell_length_b 11.264258
_cell_length_c 11.320444
_cell_angle_alpha 90.000000
_cell_angle_beta 52.881057
_cell_angle_gamma 90.000000
_cell_volume 1083.077640
_symmetry_space_group_name_H-M "P 21/C"
_symmetry_group_IT_number 14
_symmetry_cell_setting 'monoclinic'
loop_
_space_group_symop_operation_xyz
x,y,z
-x,1/2+y,1/2-z
-x,-y,-z
x,1/2-y,1/2+z
loop_
_atom_site_type_symbol
_atom_site_label
_atom_site_fract_x
_atom_site_fract_y
_atom_site_fract_z
Si Si1 0.984920 0.878391 0.651440
Si Si2 0.141437 0.433682 0.552400
Si Si3 0.509160 0.620643 0.573820
Si Si4 0.410284 0.117912 0.501541
Si Si5 0.729942 0.501292 0.134634
Si Si6 0.081937 0.374757 0.327148
O O1 0.967711 0.852289 0.801155
O O2 0.830371 0.941820 0.684639
O O3 0.979039 0.751236 0.594996
O O4 0.139767 0.948098 0.527624
O O5 0.315178 0.390886 0.477592
O O6 0.132170 0.440144 0.417916
O O7 0.069145 0.558071 0.640717
O O8 0.500000 0.500000 0.500000
O O9 0.500740 0.755758 0.529155
O O10 0.380909 0.599239 0.747982
O O11 0.374510 0.092865 0.382797
O O12 0.238396 0.130892 0.660014
O O13 0.500000 0.000000 0.500000
#
# Coordination Sequence:
#
# PCOD9252113 Si02
#       6
#     4   4   4   4   4   4
#     4  11  23  44  72  97 138 182 227 293 342 418
#     4  11  23  43  70 100 133 180 230 281 343 415
#     4  12  25  46  72 103 142 189 234 287 351 420
#     4  12  26  45  71 105 149 182 232 299 351 413
#     4  11  25  44  69 104 136 187 233 284 355 417
#     4  11  24  43  71 102 135 181 232 285 350 416
#
# _framework density 22.159078000000001
#
# number of rings (size 3 to 8) (size 9 to 14) (size 15 to 20)
#    0.000    0.667    5.000    2.000    0.000    6.667 
#    0.000    0.000    0.000    0.000    0.000    0.000 
#    0.000    0.000    0.000    0.000    0.000    0.000 
#
# Total GULP energy -133723.319072 kJ/mol
# GULP energy per Si atom -5571.804961 kJ/mol
# Density = 2.210864 g / cm^3
# Si number density = 22.159078 Si / 1000 Ang^3
#
#
#
# Elastic Constant Matrix: (Units=GPa)
#
#
# Indices 1 2 3 4 5 6 
#
# 1 30.0438 26.1272 11.5960 0.0000 1.0173 0.0000
# 2 26.1272 122.6744 17.9924 0.0000 -13.3735 0.0000
# 3 11.5960 17.9924 79.4700 0.0000 6.4694 0.0000
# 4 0.0000 0.0000 0.0000 29.9467 0.0000 -5.9541
# 5 1.0173 -13.3735 6.4694 0.0000 22.5699 0.0000
# 6 0.0000 0.0000 0.0000 -5.9541 0.0000 38.2101
#
#
#
# Elastic Compliance Matrix: (Units=1/GPa)
#
#
# Indices 1 2 3 4 5 6 
#
# 1 0.043021 -0.009328 -0.003643 0.000000 -0.006422 0.000000
# 2 -0.009328 0.011230 -0.001799 0.000000 0.007590 0.000000
# 3 -0.003643 -0.001799 0.013920 0.000000 -0.004892 0.000000
# 4 0.000000 0.000000 0.000000 0.034460 0.000000 0.005370
# 5 -0.006422 0.007590 -0.004892 0.000000 0.050496 0.000000
# 6 0.000000 0.000000 0.000000 0.005370 0.000000 0.027008
#
#
# Mechanical properties :
#
#
# Convention : Reuss Voigt Hill
#
# Bulk Modulus (GPa) = 25.88637 38.17993 32.03315
# Shear Modulus (GPa) = 22.46665 29.91019 26.18842
#
# Velocity S-wave (km/s) = 3.18760 3.67794 3.44152
# Velocity P-wave (km/s) = 5.02545 5.94169 5.50267
#
# Compressibility (1/GPa) = 0.03863037
#
# Stress axis : x y z
#
# Youngs Moduli (GPa) = 23.24472 89.04913 71.83660
#
# Poissons Ratio (x) = 0.83069 0.26167
# Poissons Ratio (y) = 0.21684 0.12925
# Poissons Ratio (z) = 0.08467 0.16022
#
# Static dielectric constant tensor:
#      x y z
#    x 1.896340 0.000000 0.109550 
#    y 0.000000 2.001610 0.000000 
#    z 0.109550 0.000000 1.888890 
# 
# From -- ./inp_files/28967.got.cif
#   From: 2010.05.17/outbox.cif.g08.bks.cpg/sg14_15_cif.got.tgz:28967.got - 2010.06.03 17:49:19.
