data_PCOD9252138
_publ_section_title
;
Structure prediction by ZEFSAII (Michael W. Deem and Ramdas Pophale) SiO2 
 PCOD9252138
Probable space group: P 21/C
;
_chemical_formula_sum "Si O2"
_cell_formula_units_Z 16
_cell_length_a 7.374648
_cell_length_b 8.698408
_cell_length_c 11.099542
_cell_angle_alpha 90.000000
_cell_angle_beta 115.515808
_cell_angle_gamma 90.000000
_cell_volume 642.565205
_symmetry_space_group_name_H-M "P 21/C"
_symmetry_group_IT_number 14
_symmetry_cell_setting 'monoclinic'
loop_
_space_group_symop_operation_xyz
x,y,z
-x,1/2+y,1/2-z
-x,-y,-z
x,1/2-y,1/2+z
loop_
_atom_site_type_symbol
_atom_site_label
_atom_site_fract_x
_atom_site_fract_y
_atom_site_fract_z
Si Si1 0.133786 0.860274 0.763419
Si Si2 0.590460 0.629627 0.748584
Si Si3 0.129677 0.947036 0.146884
Si Si4 0.493564 0.185263 0.515361
O O1 0.946000 0.942358 0.769576
O O2 0.257019 0.991748 0.730340
O O3 0.289608 0.769870 0.897819
O O4 0.932901 0.226711 0.843065
O O5 0.619126 0.708097 0.887803
O O6 0.588420 0.735120 0.628824
O O7 0.366241 0.940618 0.194002
O O8 0.000000 0.000000 0.000000
O O9 0.500000 0.000000 0.500000
#
# Coordination Sequence:
#
# PCOD9252138 Si02
#       4
#     4   4   4   4
#     4  11  26  46  74 109 148 200 246 317 380 447
#     4  11  25  49  76 112 153 199 253 312 383 451
#     4  11  25  49  75 108 149 194 256 309 378 455
#     4  11  23  43  75 109 145 196 250 305 378 450
#
# _framework density 24.900196999999999
#
# number of rings (size 3 to 8) (size 9 to 14) (size 15 to 20)
#    0.000    1.000    2.500    3.750    0.000    8.000 
#    0.000    1.250    0.000    0.000    0.000    0.000 
#    0.000    0.000    0.000    0.000    0.000    0.000 
#
# Total GULP energy -89660.453717 kJ/mol
# GULP energy per Si atom -5603.778357 kJ/mol
# Density = 2.484352 g / cm^3
# Si number density = 24.900197 Si / 1000 Ang^3
#
#
#
# Elastic Constant Matrix: (Units=GPa)
#
#
# Indices 1 2 3 4 5 6 
#
# 1 159.4222 75.3400 76.6509 0.0000 -1.2563 0.0000
# 2 75.3400 199.0209 92.8408 0.0000 -22.8182 0.0000
# 3 76.6509 92.8408 153.4767 0.0000 -42.4450 0.0000
# 4 0.0000 0.0000 0.0000 44.7447 0.0000 4.0439
# 5 -1.2563 -22.8182 -42.4450 0.0000 30.2840 0.0000
# 6 0.0000 0.0000 0.0000 4.0439 0.0000 59.3217
#
#
#
# Elastic Compliance Matrix: (Units=1/GPa)
#
#
# Indices 1 2 3 4 5 6 
#
# 1 0.010528 -0.001915 -0.007149 0.000000 -0.011025 0.000000
# 2 -0.001915 0.007370 -0.003247 0.000000 0.000923 0.000000
# 3 -0.007149 -0.003247 0.018438 0.000000 0.023100 0.000000
# 4 0.000000 0.000000 0.000000 0.022488 0.000000 -0.001533
# 5 -0.011025 0.000923 0.023100 0.000000 0.065635 0.000000
# 6 0.000000 0.000000 0.000000 -0.001533 0.000000 0.016962
#
#
# Mechanical properties :
#
#
# Convention : Reuss Voigt Hill
#
# Bulk Modulus (GPa) = 85.35542 111.28703 98.32122
# Shear Modulus (GPa) = 29.42128 44.67595 37.04862
#
# Velocity S-wave (km/s) = 3.44112 4.24040 3.86150
# Velocity P-wave (km/s) = 7.08109 8.29246 7.71060
#
# Compressibility (1/GPa) = 0.01171572
#
# Stress axis : x y z
#
# Youngs Moduli (GPa) = 94.98688 135.69116 54.23488
#
# Poissons Ratio (x) = 0.25978 0.38772
# Poissons Ratio (y) = 0.18186 0.17608
# Poissons Ratio (z) = 0.67905 0.44053
#
# Static dielectric constant tensor:
#      x y z
#    x 2.068740 0.000000 -0.095600 
#    y 0.000000 1.964160 0.000000 
#    z -0.095600 0.000000 2.042820 
# 
# From -- ./inp_files/22864.got.cif
#   From: 2010.05.17/outbox.cif.g08.bks.cpg/sg14_12_cif.got.tgz:22864.got - 2010.06.03 17:49:19.
