data_PCOD9252710
_publ_section_title
;
Structure prediction by ZEFSAII (Michael W. Deem and Ramdas Pophale) SiO2 
 PCOD9252710
Probable space group: P 21/C
;
_chemical_formula_sum "Si O2"
_cell_formula_units_Z 24
_cell_length_a 11.762910
_cell_length_b 7.114264
_cell_length_c 12.662514
_cell_angle_alpha 90.000000
_cell_angle_beta 97.608646
_cell_angle_gamma 90.000000
_cell_volume 1050.325822
_symmetry_space_group_name_H-M "P 21/C"
_symmetry_group_IT_number 14
_symmetry_cell_setting 'monoclinic'
loop_
_space_group_symop_operation_xyz
x,y,z
-x,1/2+y,1/2-z
-x,-y,-z
x,1/2-y,1/2+z
loop_
_atom_site_type_symbol
_atom_site_label
_atom_site_fract_x
_atom_site_fract_y
_atom_site_fract_z
Si Si1 0.000402 0.412084 0.117503
Si Si2 0.503663 0.391963 0.356537
Si Si3 0.659260 0.692506 0.487268
Si Si4 0.145470 0.714878 0.245084
Si Si5 0.117283 0.453241 0.574617
Si Si6 0.356066 0.536791 0.161163
O O1 0.041452 0.574873 0.201510
O O2 0.093281 0.245204 0.128096
O O3 0.000000 0.500000 0.000000
O O4 0.854425 0.117195 0.840342
O O5 0.560269 0.578829 0.411709
O O6 0.392678 0.310436 0.403065
O O7 0.462020 0.441010 0.234967
O O8 0.598722 0.232552 0.377518
O O9 0.777694 0.580611 0.491437
O O10 0.678377 0.894627 0.435775
O O11 0.115623 0.813903 0.352871
O O12 0.258894 0.594014 0.234704
O O13 0.000000 0.500000 0.500000
#
# Coordination Sequence:
#
# PCOD9252710 Si02
#       6
#     4   4   4   4   4   4
#     4  12  26  46  69 105 141 191 238 294 365 435
#     4  11  25  44  72 102 140 186 235 294 353 421
#     4  11  25  46  69 102 143 184 235 294 353 423
#     4  12  26  44  73 103 149 186 238 303 361 432
#     4  12  25  45  72 105 143 186 242 293 362 439
#     4  12  24  47  71 106 140 187 240 293 360 426
#
# _framework density 22.850054
#
# number of rings (size 3 to 8) (size 9 to 14) (size 15 to 20)
#    0.000    0.333    8.333    0.500    2.333    0.000 
#    6.000    0.000    0.000    0.000    0.000    0.000 
#    0.000    0.000    0.000    0.000    0.000    0.000 
#
# Total GULP energy -134153.836115 kJ/mol
# GULP energy per Si atom -5589.743171 kJ/mol
# Density = 2.279805 g / cm^3
# Si number density = 22.850054 Si / 1000 Ang^3
#
#
#
# Elastic Constant Matrix: (Units=GPa)
#
#
# Indices 1 2 3 4 5 6 
#
# 1 90.4118 17.8012 9.7696 0.0000 -31.8785 0.0000
# 2 17.8012 128.4506 25.9672 0.0000 -9.1661 0.0000
# 3 9.7696 25.9672 47.2399 0.0000 -14.7334 0.0000
# 4 0.0000 0.0000 0.0000 39.6839 0.0000 -3.5802
# 5 -31.8785 -9.1661 -14.7334 0.0000 39.6576 0.0000
# 6 0.0000 0.0000 0.0000 -3.5802 0.0000 38.8172
#
#
#
# Elastic Compliance Matrix: (Units=1/GPa)
#
#
# Indices 1 2 3 4 5 6 
#
# 1 0.015745 -0.001594 0.001643 0.000000 0.012898 0.000000
# 2 -0.001594 0.008922 -0.004899 0.000000 -0.001039 0.000000
# 3 0.001643 -0.004899 0.026671 0.000000 0.010097 0.000000
# 4 0.000000 0.000000 0.000000 0.025411 0.000000 0.002344
# 5 0.012898 -0.001039 0.010097 0.000000 0.039095 0.000000
# 6 0.000000 0.000000 0.000000 0.002344 0.000000 0.025978
#
#
# Mechanical properties :
#
#
# Convention : Reuss Voigt Hill
#
# Bulk Modulus (GPa) = 24.01673 41.46426 32.74049
# Shear Modulus (GPa) = 30.22984 37.80270 34.01627
#
# Velocity S-wave (km/s) = 3.64121 4.07182 3.86252
# Velocity P-wave (km/s) = 5.31142 6.34759 5.85249
#
# Compressibility (1/GPa) = 0.04163765
#
# Stress axis : x y z
#
# Youngs Moduli (GPa) = 63.51419 112.08063 37.49440
#
# Poissons Ratio (x) = 0.17861 -0.06159
# Poissons Ratio (y) = 0.10122 0.18368
# Poissons Ratio (z) = -0.10433 0.54906
#
# Static dielectric constant tensor:
#      x y z
#    x 1.881220 0.000000 -0.050020 
#    y 0.000000 1.844750 0.000000 
#    z -0.050020 0.000000 1.859220 
# 
# From -- ./inp_files/28108.got.cif
#   From: 2010.05.17/outbox.cif.g08.bks.cpg/sg14_15_cif.got.tgz:28108.got - 2010.06.03 17:49:19.
