data_PCOD9252472
_publ_section_title
;
Structure prediction by ZEFSAII (Michael W. Deem and Ramdas Pophale) SiO2 
 PCOD9252472
Probable space group: P 21/C
;
_chemical_formula_sum "Si O2"
_cell_formula_units_Z 28
_cell_length_a 16.045338
_cell_length_b 16.834513
_cell_length_c 9.682964
_cell_angle_alpha 90.000000
_cell_angle_beta 148.384774
_cell_angle_gamma 90.000000
_cell_volume 1371.086619
_symmetry_space_group_name_H-M "P 21/C"
_symmetry_group_IT_number 14
_symmetry_cell_setting 'monoclinic'
loop_
_space_group_symop_operation_xyz
x,y,z
-x,1/2+y,1/2-z
-x,-y,-z
x,1/2-y,1/2+z
loop_
_atom_site_type_symbol
_atom_site_label
_atom_site_fract_x
_atom_site_fract_y
_atom_site_fract_z
Si Si1 0.932392 0.418117 0.960525
Si Si2 0.580852 0.751611 0.222695
Si Si3 0.373959 0.696994 0.180243
Si Si4 0.838610 0.618644 0.172009
Si Si5 0.155224 0.149504 0.015303
Si Si6 0.672001 0.029359 0.291050
Si Si7 0.061569 0.702125 0.283569
O O1 0.761888 0.434589 0.785917
O O2 0.924988 0.356160 0.826394
O O3 0.000000 0.500000 0.000000
O O4 0.047339 0.387326 0.243815
O O5 0.443226 0.731245 0.136498
O O6 0.707799 0.811142 0.471132
O O7 0.673300 0.672301 0.303920
O O8 0.509250 0.793306 0.987116
O O9 0.336789 0.603659 0.116959
O O10 0.222800 0.747293 0.020172
O O11 0.849369 0.600620 0.349665
O O12 0.999877 0.653257 0.330127
O O13 0.774317 0.542987 0.997173
O O14 0.076273 0.234175 0.941937
O O15 0.500000 0.000000 0.000000
#
# Coordination Sequence:
#
# PCOD9252472 Si02
#       7
#     4   4   4   4   4   4   4
#     4  12  26  47  70 103 141 188 231 287 358 425
#     4  11  24  44  71 101 137 182 232 286 348 413
#     4  12  25  44  71 105 137 179 237 290 346 422
#     4  11  24  46  69 100 139 187 227 290 352 422
#     4  11  25  44  71 101 137 186 237 286 347 417
#     4  12  26  45  71 100 144 183 227 287 364 418
#     4  11  24  44  74 101 136 182 243 287 340 423
#
# _framework density 20.421758000000001
#
# number of rings (size 3 to 8) (size 9 to 14) (size 15 to 20)
#    0.000    0.571    5.714    2.571    6.000    0.571 
#    2.571    0.714    0.000    0.000    0.000    0.000 
#    0.000    0.000    0.000    0.000    0.000    0.000 
#
# Total GULP energy -156615.298563 kJ/mol
# GULP energy per Si atom -5593.403520 kJ/mol
# Density = 2.037528 g / cm^3
# Si number density = 20.421758 Si / 1000 Ang^3
#
#
#
# Elastic Constant Matrix: (Units=GPa)
#
#
# Indices 1 2 3 4 5 6 
#
# 1 93.3967 32.5551 10.2671 0.0000 10.4045 0.0000
# 2 32.5551 102.4737 14.9391 0.0000 2.8543 0.0000
# 3 10.2671 14.9391 47.6822 0.0000 6.5695 0.0000
# 4 0.0000 0.0000 0.0000 36.1273 0.0000 0.9407
# 5 10.4045 2.8543 6.5695 0.0000 34.7296 0.0000
# 6 0.0000 0.0000 0.0000 0.9407 0.0000 39.5739
#
#
#
# Elastic Compliance Matrix: (Units=1/GPa)
#
#
# Indices 1 2 3 4 5 6 
#
# 1 0.012481 -0.003718 -0.001078 0.000000 -0.003230 0.000000
# 2 -0.003718 0.011335 -0.002850 0.000000 0.000721 0.000000
# 3 -0.001078 -0.002850 0.022610 0.000000 -0.003720 0.000000
# 4 0.000000 0.000000 0.000000 0.027697 0.000000 -0.000658
# 5 -0.003230 0.000721 -0.003720 0.000000 0.030406 0.000000
# 6 0.000000 0.000000 0.000000 -0.000658 0.000000 0.025285
#
#
# Mechanical properties :
#
#
# Convention : Reuss Voigt Hill
#
# Bulk Modulus (GPa) = 32.11887 39.89725 36.00806
# Shear Modulus (GPa) = 32.15766 34.47226 33.31496
#
# Velocity S-wave (km/s) = 3.97252 4.11300 4.04337
# Velocity P-wave (km/s) = 6.06656 6.49113 6.28243
#
# Compressibility (1/GPa) = 0.03113435
#
# Stress axis : x y z
#
# Youngs Moduli (GPa) = 80.11981 88.22046 44.22881
#
# Poissons Ratio (x) = 0.32802 0.04766
# Poissons Ratio (y) = 0.29790 0.12606
# Poissons Ratio (z) = 0.08634 0.25144
#
# Static dielectric constant tensor:
#      x y z
#    x 1.755460 0.000000 -0.045810 
#    y 0.000000 1.725910 0.000000 
#    z -0.045810 0.000000 2.014460 
# 
# From -- ./inp_files/16435.got.cif
#   From: 2010.05.17/outbox.cif.g08.bks.cpg/sg14_9_cif.got.tgz:16435.got - 2010.06.03 17:49:19.
