data_PCOD9252335
_publ_section_title
;
Structure prediction by ZEFSAII (Michael W. Deem and Ramdas Pophale) SiO2 
 PCOD9252335
Probable space group: P 21/C
;
_chemical_formula_sum "Si O2"
_cell_formula_units_Z 28
_cell_length_a 16.966305
_cell_length_b 4.886239
_cell_length_c 14.001441
_cell_angle_alpha 90.000000
_cell_angle_beta 75.315610
_cell_angle_gamma 90.000000
_cell_volume 1122.825956
_symmetry_space_group_name_H-M "P 21/C"
_symmetry_group_IT_number 14
_symmetry_cell_setting 'monoclinic'
loop_
_space_group_symop_operation_xyz
x,y,z
-x,1/2+y,1/2-z
-x,-y,-z
x,1/2-y,1/2+z
loop_
_atom_site_type_symbol
_atom_site_label
_atom_site_fract_x
_atom_site_fract_y
_atom_site_fract_z
Si Si1 0.821873 0.551747 0.318910
Si Si2 0.401305 0.219082 0.987648
Si Si3 0.987220 0.424174 0.320405
Si Si4 0.676412 0.369515 0.660953
Si Si5 0.461408 0.006364 0.311666
Si Si6 0.654007 0.263186 0.887094
Si Si7 0.846577 0.058769 0.179447
O O1 0.737670 0.412198 0.373991
O O2 0.819080 0.853101 0.274320
O O3 0.895324 0.515379 0.371725
O O4 0.849191 0.362966 0.221056
O O5 0.475400 0.379871 0.912876
O O6 0.364482 0.049544 0.908739
O O7 0.349965 0.471287 0.045419
O O8 0.408373 0.981479 0.064241
O O9 0.061189 0.468090 0.371362
O O10 0.011335 0.619313 0.222482
O O11 0.652825 0.390199 0.780733
O O12 0.772578 0.426330 0.627898
O O13 0.634350 0.072104 0.661564
O O14 0.490328 0.233106 0.228623
#
# Coordination Sequence:
#
# PCOD9252335 Si02
#       7
#     4   4   4   4   4   4   4
#     4   9  17  31  54  89 130 167 209 269 311 361
#     4  12  25  44  67 101 132 168 214 269 328 382
#     4   8  14  27  47  82 126 162 209 263 308 363
#     4  11  25  43  73  94 134 172 217 271 322 377
#     4  12  25  47  71  92 129 173 207 267 336 388
#     4  11  24  40  68 102 130 170 226 259 316 394
#     4   9  18  30  57  91 119 167 223 256 313 380
#
# _framework density 24.937078
#
# number of rings (size 3 to 8) (size 9 to 14) (size 15 to 20)
#    0.000    1.714    2.857    1.714    6.000    0.000 
#    0.000    4.286    0.000    1.714    0.000    0.000 
#    0.000    0.000    0.000    0.000    0.000    0.000 
#
# Total GULP energy -156131.496824 kJ/mol
# GULP energy per Si atom -5576.124887 kJ/mol
# Density = 2.488032 g / cm^3
# Si number density = 24.937078 Si / 1000 Ang^3
#
#
#
# Elastic Constant Matrix: (Units=GPa)
#
#
# Indices 1 2 3 4 5 6 
#
# 1 100.6180 37.1147 30.0994 0.0000 9.5517 0.0000
# 2 37.1147 138.5521 18.4348 0.0000 -2.5289 0.0000
# 3 30.0994 18.4348 84.5601 0.0000 3.6811 0.0000
# 4 0.0000 0.0000 0.0000 41.7993 0.0000 -4.2312
# 5 9.5517 -2.5289 3.6811 0.0000 17.9604 0.0000
# 6 0.0000 0.0000 0.0000 -4.2312 0.0000 46.3619
#
#
#
# Elastic Compliance Matrix: (Units=1/GPa)
#
#
# Indices 1 2 3 4 5 6 
#
# 1 0.012756 -0.003057 -0.003592 0.000000 -0.006478 0.000000
# 2 -0.003057 0.008200 -0.000828 0.000000 0.002950 0.000000
# 3 -0.003592 -0.000828 0.013326 0.000000 -0.000938 0.000000
# 4 0.000000 0.000000 0.000000 0.024147 0.000000 0.002204
# 5 -0.006478 0.002950 -0.000938 0.000000 0.059731 0.000000
# 6 0.000000 0.000000 0.000000 0.002204 0.000000 0.021771
#
#
# Mechanical properties :
#
#
# Convention : Reuss Voigt Hill
#
# Bulk Modulus (GPa) = 51.73924 55.00312 53.37118
# Shear Modulus (GPa) = 30.99290 37.09643 34.04466
#
# Velocity S-wave (km/s) = 3.52922 3.86113 3.69890
# Velocity P-wave (km/s) = 6.11557 6.47938 6.30010
#
# Compressibility (1/GPa) = 0.01932769
#
# Stress axis : x y z
#
# Youngs Moduli (GPa) = 78.39578 121.94398 75.04255
#
# Poissons Ratio (x) = 0.37282 0.26955
# Poissons Ratio (y) = 0.23968 0.06213
# Poissons Ratio (z) = 0.28159 0.10096
#
# Static dielectric constant tensor:
#      x y z
#    x 2.201900 0.000000 -0.003010 
#    y 0.000000 1.929630 0.000000 
#    z -0.003010 0.000000 1.999830 
# 
# From -- ./inp_files/47816.got.cif
#   From: 2010.05.17/outbox.cif.g08.bks.cpg/sg14_24_cif.got.tgz:47816.got - 2010.06.03 17:49:19.
