data_PCOD9252358
_publ_section_title
;
Structure prediction by ZEFSAII (Michael W. Deem and Ramdas Pophale) SiO2 
 PCOD9252358
Probable space group: P 21/C
;
_chemical_formula_sum "Si O2"
_cell_formula_units_Z 30
_cell_length_a 18.712401
_cell_length_b 5.036514
_cell_length_c 14.447028
_cell_angle_alpha 90.000000
_cell_angle_beta 119.003779
_cell_angle_gamma 90.000000
_cell_volume 1190.807210
_symmetry_space_group_name_H-M "P 21/C"
_symmetry_group_IT_number 14
_symmetry_cell_setting 'monoclinic'
loop_
_space_group_symop_operation_xyz
x,y,z
-x,1/2+y,1/2-z
-x,-y,-z
x,1/2-y,1/2+z
loop_
_atom_site_type_symbol
_atom_site_label
_atom_site_fract_x
_atom_site_fract_y
_atom_site_fract_z
Si Si1 0.655440 0.660669 0.718873
Si Si2 0.652332 0.978218 0.557770
Si Si3 0.167285 0.673213 0.022911
Si Si4 0.947532 0.354259 0.700180
Si Si5 0.525117 0.212846 0.207927
Si Si6 0.732463 0.657898 0.445806
Si Si7 0.500000 0.500000 0.000000
Si Si8 0.205420 0.692082 0.259760
O O1 0.601324 0.821867 0.610357
O O2 0.520639 0.031902 0.771416
O O3 0.684445 0.843728 0.819843
O O4 0.734786 0.558930 0.714574
O O5 0.680096 0.793250 0.492710
O O6 0.580344 0.185744 0.501045
O O7 0.732720 0.094736 0.657181
O O8 0.084365 0.749623 0.919086
O O9 0.192990 0.368094 0.023456
O O10 0.172482 0.742994 0.134909
O O11 0.234624 0.864471 0.016359
O O12 0.870677 0.352609 0.721252
O O13 0.986242 0.644348 0.721515
O O14 0.386571 0.586193 0.258548
O O15 0.494283 0.308023 0.089866
#
# Coordination Sequence:
#
# PCOD9252358 Si02
#       8
#     4   4   4   4   4   4   2   4
#     4  11  25  46  76 106 150 200 263 311 387 453
#     4  12  24  46  71 106 150 200 255 319 372 452
#     4  11  24  46  75 109 143 191 249 295 373 462
#     4  12  28  47  76 113 152 191 242 313 387 462
#     4  12  28  50  73 108 160 204 260 334 391 450
#     4  11  24  41  76 106 142 195 251 304 370 445
#     4  12  28  46  72 114 150 206 266 322 390 454
#     4  11  25  47  75 104 148 197 249 308 373 455
#
# _framework density 25.192996999999998
#
# number of rings (size 3 to 8) (size 9 to 14) (size 15 to 20)
#    0.000    0.533    4.000    3.200    1.867    5.333 
#    0.000    0.000    0.000    0.000    0.000    0.000 
#    0.000    0.000    0.000    0.000    0.000    0.000 
#
# Total GULP energy -167703.303924 kJ/mol
# GULP energy per Si atom -5590.110131 kJ/mol
# Density = 2.513566 g / cm^3
# Si number density = 25.192997 Si / 1000 Ang^3
#
#
#
# Elastic Constant Matrix: (Units=GPa)
#
#
# Indices 1 2 3 4 5 6 
#
# 1 136.0414 20.3459 21.0719 0.0000 -6.5658 0.0000
# 2 20.3459 117.2527 24.8944 0.0000 -7.8332 0.0000
# 3 21.0719 24.8944 148.5154 0.0000 -11.7820 0.0000
# 4 0.0000 0.0000 0.0000 38.9034 0.0000 -2.5276
# 5 -6.5658 -7.8332 -11.7820 0.0000 30.3544 0.0000
# 6 0.0000 0.0000 0.0000 -2.5276 0.0000 39.4155
#
#
#
# Elastic Compliance Matrix: (Units=1/GPa)
#
#
# Indices 1 2 3 4 5 6 
#
# 1 0.007693 -0.001089 -0.000825 0.000000 0.001063 0.000000
# 2 -0.001089 0.009090 -0.001240 0.000000 0.001629 0.000000
# 3 -0.000825 -0.001240 0.007242 0.000000 0.002312 0.000000
# 4 0.000000 0.000000 0.000000 0.025812 0.000000 0.001655
# 5 0.001063 0.001629 0.002312 0.000000 0.034492 0.000000
# 6 0.000000 0.000000 0.000000 0.001655 0.000000 0.025477
#
#
# Mechanical properties :
#
#
# Convention : Reuss Voigt Hill
#
# Bulk Modulus (GPa) = 56.44245 59.38156 57.91200
# Shear Modulus (GPa) = 40.97783 44.10113 42.53948
#
# Velocity S-wave (km/s) = 4.03743 4.18847 4.11365
# Velocity P-wave (km/s) = 6.64734 6.85660 6.75278
#
# Compressibility (1/GPa) = 0.01771716
#
# Stress axis : x y z
#
# Youngs Moduli (GPa) = 129.99573 110.01608 138.09103
#
# Poissons Ratio (x) = 0.11978 0.11387
# Poissons Ratio (y) = 0.14153 0.17122
# Poissons Ratio (z) = 0.10720 0.13641
#
# Static dielectric constant tensor:
#      x y z
#    x 2.217010 0.000000 0.273430 
#    y 0.000000 2.144590 0.000000 
#    z 0.273430 0.000000 2.343100 
# 
# From -- ./inp_files/48026.got.cif
#   From: 2010.05.17/outbox.cif.g08.bks.cpg/sg14_25_cif.got.tgz:48026.got - 2010.06.03 17:49:19.
