data_PCOD9252229
_publ_section_title
;
Structure prediction by ZEFSAII (Michael W. Deem and Ramdas Pophale) SiO2 
 PCOD9252229
Probable space group: P 21/C
;
_chemical_formula_sum "Si O2"
_cell_formula_units_Z 28
_cell_length_a 8.832442
_cell_length_b 11.065525
_cell_length_c 14.035332
_cell_angle_alpha 90.000000
_cell_angle_beta 56.856296
_cell_angle_gamma 90.000000
_cell_volume 1148.570332
_symmetry_space_group_name_H-M "P 21/C"
_symmetry_group_IT_number 14
_symmetry_cell_setting 'monoclinic'
loop_
_space_group_symop_operation_xyz
x,y,z
-x,1/2+y,1/2-z
-x,-y,-z
x,1/2-y,1/2+z
loop_
_atom_site_type_symbol
_atom_site_label
_atom_site_fract_x
_atom_site_fract_y
_atom_site_fract_z
Si Si1 0.764156 0.559504 0.673381
Si Si2 0.200082 0.532772 0.078745
Si Si3 0.199072 0.553413 0.739625
Si Si4 0.164162 0.948251 0.036126
Si Si5 0.522361 0.391625 0.886866
Si Si6 0.629772 0.803189 0.747249
Si Si7 0.756677 0.288958 0.095553
O O1 0.731248 0.537263 0.572192
O O2 0.606911 0.493910 0.786553
O O3 0.773683 0.696658 0.705525
O O4 0.961168 0.503207 0.622805
O O5 0.300482 0.632028 0.110649
O O6 0.014200 0.478387 0.177892
O O7 0.357747 0.433970 0.010413
O O8 0.176449 0.595485 0.985429
O O9 0.245534 0.571858 0.612437
O O10 0.302294 0.432522 0.740971
O O11 0.232535 0.666782 0.798876
O O12 0.139856 0.826373 0.981672
O O13 0.427667 0.305893 0.843853
O O14 0.447726 0.753037 0.858109
#
# Coordination Sequence:
#
# PCOD9252229 Si02
#       7
#     4   4   4   4   4   4   4
#     4  11  23  50  68 109 148 193 246 308 380 439
#     4  11  24  46  73 105 143 195 250 303 367 447
#     4  12  27  50  76 112 149 199 260 306 378 454
#     4  11  27  46  76 106 151 196 249 314 372 444
#     4  11  23  45  72 104 148 190 245 304 371 443
#     4  12  25  46  74 105 154 192 244 314 370 453
#     4  12  26  45  73 109 148 193 251 312 371 450
#
# _framework density 24.378131
#
# number of rings (size 3 to 8) (size 9 to 14) (size 15 to 20)
#    0.000    0.571    5.714    1.286    4.000    1.714 
#    5.143    0.000    0.000    0.000    0.000    0.000 
#    0.000    0.000    0.000    0.000    0.000    0.000 
#
# Total GULP energy -156324.020165 kJ/mol
# GULP energy per Si atom -5583.000720 kJ/mol
# Density = 2.432265 g / cm^3
# Si number density = 24.378131 Si / 1000 Ang^3
#
#
#
# Elastic Constant Matrix: (Units=GPa)
#
#
# Indices 1 2 3 4 5 6 
#
# 1 78.5605 28.1087 46.8578 0.0000 7.1256 0.0000
# 2 28.1087 47.7855 42.5455 0.0000 2.5270 0.0000
# 3 46.8578 42.5455 136.3719 0.0000 13.4297 0.0000
# 4 0.0000 0.0000 0.0000 32.8984 0.0000 -3.4386
# 5 7.1256 2.5270 13.4297 0.0000 59.5879 0.0000
# 6 0.0000 0.0000 0.0000 -3.4386 0.0000 24.8950
#
#
#
# Elastic Compliance Matrix: (Units=1/GPa)
#
#
# Indices 1 2 3 4 5 6 
#
# 1 0.017539 -0.006902 -0.003780 0.000000 -0.000953 0.000000
# 2 -0.006902 0.031731 -0.007647 0.000000 0.001203 0.000000
# 3 -0.003780 -0.007647 0.011189 0.000000 -0.001745 0.000000
# 4 0.000000 0.000000 0.000000 0.030842 0.000000 0.004260
# 5 -0.000953 0.001203 -0.001745 0.000000 0.017238 0.000000
# 6 0.000000 0.000000 0.000000 0.004260 0.000000 0.040757
#
#
# Mechanical properties :
#
#
# Convention : Reuss Voigt Hill
#
# Bulk Modulus (GPa) = 42.00988 55.30464 48.65726
# Shear Modulus (GPa) = 25.78834 33.15665 29.47250
#
# Velocity S-wave (km/s) = 3.25599 3.69195 3.48080
# Velocity P-wave (km/s) = 5.60404 6.39605 6.01310
#
# Compressibility (1/GPa) = 0.02380393
#
# Stress axis : x y z
#
# Youngs Moduli (GPa) = 57.01538 31.51501 89.37334
#
# Poissons Ratio (x) = 0.21750 0.33779
# Poissons Ratio (y) = 0.39349 0.68340
# Poissons Ratio (z) = 0.21549 0.24098
#
# Static dielectric constant tensor:
#      x y z
#    x 1.986940 0.000000 0.031850 
#    y 0.000000 1.989810 0.000000 
#    z 0.031850 0.000000 1.976210 
# 
# From -- ./inp_files/40228.got.cif
#   From: 2010.05.17/outbox.cif.g08.bks.cpg/sg14_21_cif.got.tgz:40228.got - 2010.06.03 17:49:19.
