data_PCOD9252978
_publ_section_title
;
Structure prediction by ZEFSAII (Michael W. Deem and Ramdas Pophale) SiO2 
 PCOD9252978
Probable space group: P 21/C
;
_chemical_formula_sum "Si O2"
_cell_formula_units_Z 20
_cell_length_a 15.242055
_cell_length_b 5.092291
_cell_length_c 9.337394
_cell_angle_alpha 90.000000
_cell_angle_beta 68.671895
_cell_angle_gamma 90.000000
_cell_volume 675.104979
_symmetry_space_group_name_H-M "P 21/C"
_symmetry_group_IT_number 14
_symmetry_cell_setting 'monoclinic'
loop_
_space_group_symop_operation_xyz
x,y,z
-x,1/2+y,1/2-z
-x,-y,-z
x,1/2-y,1/2+z
loop_
_atom_site_type_symbol
_atom_site_label
_atom_site_fract_x
_atom_site_fract_y
_atom_site_fract_z
Si Si1 0.720249 0.391156 0.650443
Si Si2 0.915251 0.271045 0.934333
Si Si3 0.889272 0.775897 0.749909
Si Si4 0.443625 0.952711 0.236712
Si Si5 0.317812 0.238421 0.100979
O O1 0.829595 0.307621 0.589064
O O2 0.703884 0.618296 0.541677
O O3 0.675929 0.473215 0.829878
O O4 0.653933 0.153423 0.637973
O O5 0.888803 0.529998 0.859112
O O6 0.025368 0.264442 0.914816
O O7 0.914151 0.035007 0.821942
O O8 0.783672 0.816376 0.759901
O O9 0.490848 0.194277 0.294471
O O10 0.406271 0.080452 0.112056
#
# Coordination Sequence:
#
# PCOD9252978 Si02
#       5
#     4   4   4   4   4
#     4  11  27  47  82 110 153 196 250 306 374 444
#     4   9  20  40  70 110 153 195 240 295 363 441
#     4   9  20  40  70 110 153 195 240 295 363 441
#     4  12  28  52  73 112 147 194 252 318 380 440
#     4  11  27  49  80 112 151 196 248 308 374 444
#
# _framework density 29.625019000000002
#
# number of rings (size 3 to 8) (size 9 to 14) (size 15 to 20)
#    0.000    1.600    2.000    0.000   11.200    2.400 
#    0.000    1.000    0.000    0.000    0.000    0.000 
#    0.000    0.000    0.000    0.000    0.000    0.000 
#
# Total GULP energy -111954.494669 kJ/mol
# GULP energy per Si atom -5597.724733 kJ/mol
# Density = 2.955759 g / cm^3
# Si number density = 29.625019 Si / 1000 Ang^3
#
#
#
# Elastic Constant Matrix: (Units=GPa)
#
#
# Indices 1 2 3 4 5 6 
#
# 1 200.2741 20.6534 33.2277 0.0000 -12.2561 0.0000
# 2 20.6534 176.0283 59.6683 0.0000 -9.9254 0.0000
# 3 33.2277 59.6683 127.2976 0.0000 27.1076 0.0000
# 4 0.0000 0.0000 0.0000 38.7985 0.0000 -12.2269
# 5 -12.2561 -9.9254 27.1076 0.0000 47.5370 0.0000
# 6 0.0000 0.0000 0.0000 -12.2269 0.0000 13.1037
#
#
#
# Elastic Compliance Matrix: (Units=1/GPa)
#
#
# Indices 1 2 3 4 5 6 
#
# 1 0.005481 0.000218 -0.002098 0.000000 0.002655 0.000000
# 2 0.000218 0.007373 -0.004385 0.000000 0.004096 0.000000
# 3 -0.002098 -0.004385 0.012257 0.000000 -0.008446 0.000000
# 4 0.000000 0.000000 0.000000 0.036510 0.000000 0.034067
# 5 0.002655 0.004096 -0.008446 0.000000 0.027392 0.000000
# 6 0.000000 0.000000 0.000000 0.034067 0.000000 0.108101
#
#
# Mechanical properties :
#
#
# Convention : Reuss Voigt Hill
#
# Bulk Modulus (GPa) = 79.48785 81.18876 80.33830
# Shear Modulus (GPa) = 23.38207 45.89120 34.63664
#
# Velocity S-wave (km/s) = 2.81244 3.94009 3.42302
# Velocity P-wave (km/s) = 6.11850 6.94003 6.54217
#
# Compressibility (1/GPa) = 0.01258054
#
# Stress axis : x y z
#
# Youngs Moduli (GPa) = 182.43814 135.63665 81.58465
#
# Poissons Ratio (x) = -0.02955 0.17119
# Poissons Ratio (y) = -0.03974 0.35774
# Poissons Ratio (z) = 0.38281 0.59475
#
# Static dielectric constant tensor:
#      x y z
#    x 2.395910 0.000000 -0.022360 
#    y 0.000000 2.432130 0.000000 
#    z -0.022360 0.000000 2.335280 
# 
# From -- ./inp_files/31070.got.cif
#   From: 2010.05.17/outbox.cif.g08.bks.cpg/sg14_16_cif.got.tgz:31070.got - 2010.06.03 17:49:19.
