data_PCOD9252675
_publ_section_title
;
Structure prediction by ZEFSAII (Michael W. Deem and Ramdas Pophale) SiO2 
 PCOD9252675
Probable space group: P 21/C
;
_chemical_formula_sum "Si O2"
_cell_formula_units_Z 16
_cell_length_a 12.181190
_cell_length_b 7.093819
_cell_length_c 19.698516
_cell_angle_alpha 90.000000
_cell_angle_beta 19.884311
_cell_angle_gamma 90.000000
_cell_volume 578.946103
_symmetry_space_group_name_H-M "P 21/C"
_symmetry_group_IT_number 14
_symmetry_cell_setting 'monoclinic'
loop_
_space_group_symop_operation_xyz
x,y,z
-x,1/2+y,1/2-z
-x,-y,-z
x,1/2-y,1/2+z
loop_
_atom_site_type_symbol
_atom_site_label
_atom_site_fract_x
_atom_site_fract_y
_atom_site_fract_z
Si Si1 0.389929 0.698941 0.596322
Si Si2 0.745592 0.365688 0.183524
Si Si3 0.411668 0.563264 0.955259
Si Si4 0.167806 0.638303 0.492205
O O1 0.500000 0.500000 0.500000
O O2 0.161093 0.654971 0.792590
O O3 0.281969 0.821767 0.595503
O O4 0.625706 0.845622 0.500562
O O5 0.403788 0.471899 0.378304
O O6 0.761921 0.178942 0.128137
O O7 0.000000 0.500000 0.000000
O O8 0.797756 0.598956 0.724851
O O9 0.270396 0.672799 0.973052
#
# Coordination Sequence:
#
# PCOD9252675 Si02
#       4
#     4   4   4   4
#     4  11  24  51  75 115 152 204 260 325 382 465
#     4  12  26  46  76 110 157 199 257 323 389 464
#     4  11  27  49  79 112 154 204 258 324 393 463
#     4  12  25  50  73 115 153 207 258 322 396 464
#
# _framework density 27.636423000000001
#
# number of rings (size 3 to 8) (size 9 to 14) (size 15 to 20)
#    0.000    0.500    5.000    1.500    3.500    6.000 
#   13.500    0.000    0.000    0.000    0.000    0.000 
#    0.000    0.000    0.000    0.000    0.000    0.000 
#
# Total GULP energy -89715.528748 kJ/mol
# GULP energy per Si atom -5607.220547 kJ/mol
# Density = 2.757352 g / cm^3
# Si number density = 27.636423 Si / 1000 Ang^3
#
#
#
# Elastic Constant Matrix: (Units=GPa)
#
#
# Indices 1 2 3 4 5 6 
#
# 1 101.8785 39.5614 82.6497 0.0000 17.2083 0.0000
# 2 39.5614 203.4806 68.0429 0.0000 -2.3767 0.0000
# 3 82.6497 68.0429 171.9959 0.0000 3.4287 0.0000
# 4 0.0000 0.0000 0.0000 64.0078 0.0000 10.8030
# 5 17.2083 -2.3767 3.4287 0.0000 66.1016 0.0000
# 6 0.0000 0.0000 0.0000 10.8030 0.0000 65.7040
#
#
#
# Elastic Compliance Matrix: (Units=1/GPa)
#
#
# Indices 1 2 3 4 5 6 
#
# 1 0.017195 -0.000755 -0.007883 0.000000 -0.004095 0.000000
# 2 -0.000755 0.005704 -0.001904 0.000000 0.000500 0.000000
# 3 -0.007883 -0.001904 0.010326 0.000000 0.001448 0.000000
# 4 0.000000 0.000000 0.000000 0.016069 0.000000 -0.002642
# 5 -0.004095 0.000500 0.001448 0.000000 0.016137 0.000000
# 6 0.000000 0.000000 0.000000 -0.002642 0.000000 0.015654
#
#
# Mechanical properties :
#
#
# Convention : Reuss Voigt Hill
#
# Bulk Modulus (GPa) = 82.35428 95.31808 88.83618
# Shear Modulus (GPa) = 47.07429 58.30276 52.68853
#
# Velocity S-wave (km/s) = 4.13163 4.59806 4.37107
# Velocity P-wave (km/s) = 7.25427 7.92177 7.59536
#
# Compressibility (1/GPa) = 0.01214266
#
# Stress axis : x y z
#
# Youngs Moduli (GPa) = 58.15572 175.32603 96.84212
#
# Poissons Ratio (x) = 0.13239 0.76336
# Poissons Ratio (y) = 0.04391 0.18434
# Poissons Ratio (z) = 0.45841 0.33374
#
# Static dielectric constant tensor:
#      x y z
#    x 2.183470 0.000000 -0.048970 
#    y 0.000000 2.219230 0.000000 
#    z -0.048970 0.000000 2.164120 
# 
# From -- ./inp_files/68060.got.cif
#   From: 2010.05.17/outbox.cif.g08.bks.cpg/sg14_35_cif.got.tgz:68060.got - 2010.06.03 17:49:19.
