data_PCOD9252789
_publ_section_title
;
Structure prediction by ZEFSAII (Michael W. Deem and Ramdas Pophale) SiO2 
 PCOD9252789
Probable space group: P 21/C
;
_chemical_formula_sum "Si O2"
_cell_formula_units_Z 20
_cell_length_a 10.611333
_cell_length_b 17.657891
_cell_length_c 8.612138
_cell_angle_alpha 90.000000
_cell_angle_beta 27.723485
_cell_angle_gamma 90.000000
_cell_volume 750.695920
_symmetry_space_group_name_H-M "P 21/C"
_symmetry_group_IT_number 14
_symmetry_cell_setting 'monoclinic'
loop_
_space_group_symop_operation_xyz
x,y,z
-x,1/2+y,1/2-z
-x,-y,-z
x,1/2-y,1/2+z
loop_
_atom_site_type_symbol
_atom_site_label
_atom_site_fract_x
_atom_site_fract_y
_atom_site_fract_z
Si Si1 0.631132 0.651722 0.250997
Si Si2 0.401488 0.508158 0.379455
Si Si3 0.096602 0.881517 0.003470
Si Si4 0.382688 0.762030 0.268030
Si Si5 0.939721 0.091223 0.292532
O O1 0.454586 0.574469 0.447452
O O2 0.486835 0.712901 0.297324
O O3 0.629003 0.694708 0.415438
O O4 0.901405 0.630175 0.864441
O O5 0.310252 0.555916 0.327113
O O6 0.154966 0.449745 0.668657
O O7 0.676890 0.462083 0.061336
O O8 0.247413 0.802656 0.810479
O O9 0.946617 0.901809 0.007727
O O10 0.165730 0.827005 0.540991
#
# Coordination Sequence:
#
# PCOD9252789 Si02
#       5
#     4   4   4   4   4
#     4  11  26  48  72 108 148 193 248 299 365 433
#     4  11  26  47  74 110 145 191 244 301 360 438
#     4  11  25  46  74 107 146 197 243 299 356 443
#     4  11  27  45  72 110 146 197 241 304 363 437
#     4  12  26  47  77 107 147 192 242 299 370 426
#
# _framework density 26.641943000000001
#
# number of rings (size 3 to 8) (size 9 to 14) (size 15 to 20)
#    0.000    0.800    4.000    1.200   11.200    1.600 
#    0.000    0.000    0.000    0.000    0.000    0.000 
#    0.000    0.000    0.000    0.000    0.000    0.000 
#
# Total GULP energy -112134.426591 kJ/mol
# GULP energy per Si atom -5606.721330 kJ/mol
# Density = 2.658131 g / cm^3
# Si number density = 26.641943 Si / 1000 Ang^3
#
#
#
# Elastic Constant Matrix: (Units=GPa)
#
#
# Indices 1 2 3 4 5 6 
#
# 1 54.7529 43.5532 26.9457 0.0000 -15.5944 0.0000
# 2 43.5532 199.7511 42.3689 0.0000 -15.8549 0.0000
# 3 26.9457 42.3689 109.9824 0.0000 -19.7117 0.0000
# 4 0.0000 0.0000 0.0000 32.2194 0.0000 -17.5074
# 5 -15.5944 -15.8549 -19.7117 0.0000 39.2061 0.0000
# 6 0.0000 0.0000 0.0000 -17.5074 0.0000 27.3720
#
#
#
# Elastic Compliance Matrix: (Units=1/GPa)
#
#
# Indices 1 2 3 4 5 6 
#
# 1 0.025178 -0.004256 -0.003344 0.000000 0.006612 0.000000
# 2 -0.004256 0.006228 -0.001328 0.000000 0.000158 0.000000
# 3 -0.003344 -0.001328 0.011088 0.000000 0.003707 0.000000
# 4 0.000000 0.000000 0.000000 0.047571 0.000000 0.030427
# 5 0.006612 0.000158 0.003707 0.000000 0.030064 0.000000
# 6 0.000000 0.000000 0.000000 0.030427 0.000000 0.055995
#
#
# Mechanical properties :
#
#
# Convention : Reuss Voigt Hill
#
# Bulk Modulus (GPa) = 40.58760 65.58025 53.08392
# Shear Modulus (GPa) = 24.72886 36.53408 30.63147
#
# Velocity S-wave (km/s) = 3.04993 3.70712 3.39447
# Velocity P-wave (km/s) = 5.26026 6.55687 5.94402
#
# Compressibility (1/GPa) = 0.02463807
#
# Stress axis : x y z
#
# Youngs Moduli (GPa) = 39.71713 160.55393 90.18860
#
# Poissons Ratio (x) = 0.68325 0.30160
# Poissons Ratio (y) = 0.16902 0.11981
# Poissons Ratio (z) = 0.13282 0.21328
#
# Static dielectric constant tensor:
#      x y z
#    x 2.051870 0.000000 0.026790 
#    y 0.000000 2.040080 0.000000 
#    z 0.026790 0.000000 2.098320 
# 
# From -- ./inp_files/13859.got.cif
#   From: 2010.05.17/outbox.cif.g08.bks.cpg/sg14_7_cif.got.tgz:13859.got - 2010.06.03 17:49:19.
