data_PCOD9252510
_publ_section_title
;
Structure prediction by ZEFSAII (Michael W. Deem and Ramdas Pophale) SiO2 
 PCOD9252510
Probable space group: P 21/C
;
_chemical_formula_sum "Si O2"
_cell_formula_units_Z 28
_cell_length_a 8.893019
_cell_length_b 20.640964
_cell_length_c 8.579324
_cell_angle_alpha 90.000000
_cell_angle_beta 128.025460
_cell_angle_gamma 90.000000
_cell_volume 1240.547980
_symmetry_space_group_name_H-M "P 21/C"
_symmetry_group_IT_number 14
_symmetry_cell_setting 'monoclinic'
loop_
_space_group_symop_operation_xyz
x,y,z
-x,1/2+y,1/2-z
-x,-y,-z
x,1/2-y,1/2+z
loop_
_atom_site_type_symbol
_atom_site_label
_atom_site_fract_x
_atom_site_fract_y
_atom_site_fract_z
Si Si1 0.776699 0.228994 0.124158
Si Si2 0.831049 0.683852 0.968183
Si Si3 0.816027 0.911351 0.006435
Si Si4 0.635319 0.708638 0.517287
Si Si5 0.219279 0.650092 0.689522
Si Si6 0.561956 0.479961 0.210473
Si Si7 0.812899 0.957394 0.360929
O O1 0.580349 0.200154 0.066180
O O2 0.756402 0.306330 0.139174
O O3 0.965210 0.207885 0.339086
O O4 0.791972 0.201160 0.959934
O O5 0.778769 0.701617 0.756131
O O6 0.672926 0.721373 0.967729
O O7 0.826463 0.606778 0.975781
O O8 0.688703 0.846111 0.925705
O O9 0.732050 0.971450 0.860580
O O10 0.812554 0.934458 0.183014
O O11 0.022124 0.888637 0.082394
O O12 0.373174 0.594876 0.749776
O O13 0.385646 0.490202 0.216453
O O14 0.500000 0.500000 0.000000
O O15 0.000000 0.000000 0.500000
#
# Coordination Sequence:
#
# PCOD9252510 Si02
#       7
#     4   4   4   4   4   4   4
#     4  12  26  45  76 105 148 194 246 313 376 457
#     4  11  25  44  72 107 147 188 249 309 375 452
#     4  11  26  47  71 105 149 188 252 309 369 456
#     4  11  24  45  69 106 143 195 244 309 377 450
#     4  12  27  49  73 111 146 195 248 310 387 440
#     4  12  28  48  75 110 148 204 251 309 379 456
#     4  11  26  46  73 106 147 196 248 307 379 448
#
# _framework density 22.570671999999998
#
# number of rings (size 3 to 8) (size 9 to 14) (size 15 to 20)
#    0.000    0.571    1.429    6.000    8.000    2.286 
#    0.000    0.000    0.000    0.000    0.000    0.000 
#    0.000    0.000    0.000    0.000    0.000    0.000 
#
# Total GULP energy -156762.673458 kJ/mol
# GULP energy per Si atom -5598.666909 kJ/mol
# Density = 2.251930 g / cm^3
# Si number density = 22.570672 Si / 1000 Ang^3
#
#
#
# Elastic Constant Matrix: (Units=GPa)
#
#
# Indices 1 2 3 4 5 6 
#
# 1 115.1886 38.1135 28.0059 0.0000 8.4375 0.0000
# 2 38.1135 107.1795 34.1612 0.0000 -2.7437 0.0000
# 3 28.0059 34.1612 69.8069 0.0000 -5.2832 0.0000
# 4 0.0000 0.0000 0.0000 33.4638 0.0000 -4.1186
# 5 8.4375 -2.7437 -5.2832 0.0000 29.3057 0.0000
# 6 0.0000 0.0000 0.0000 -4.1186 0.0000 42.5649
#
#
#
# Elastic Compliance Matrix: (Units=1/GPa)
#
#
# Indices 1 2 3 4 5 6 
#
# 1 0.010697 -0.002893 -0.003173 0.000000 -0.003923 0.000000
# 2 -0.002893 0.011837 -0.004547 0.000000 0.001121 0.000000
# 3 -0.003173 -0.004547 0.018107 0.000000 0.003752 0.000000
# 4 0.000000 0.000000 0.000000 0.030243 0.000000 0.002926
# 5 -0.003923 0.001121 0.003752 0.000000 0.036034 0.000000
# 6 0.000000 0.000000 0.000000 0.002926 0.000000 0.023777
#
#
# Mechanical properties :
#
#
# Convention : Reuss Voigt Hill
#
# Bulk Modulus (GPa) = 51.50477 54.74844 53.12660
# Shear Modulus (GPa) = 31.56697 33.85984 32.71340
#
# Velocity S-wave (km/s) = 3.74382 3.87740 3.81120
# Velocity P-wave (km/s) = 6.44648 6.65994 6.55408
#
# Compressibility (1/GPa) = 0.01941568
#
# Stress axis : x y z
#
# Youngs Moduli (GPa) = 93.48003 84.48112 55.22653
#
# Poissons Ratio (x) = 0.24442 0.17522
# Poissons Ratio (y) = 0.27046 0.25111
# Poissons Ratio (z) = 0.29659 0.38414
#
# Static dielectric constant tensor:
#      x y z
#    x 1.835120 0.000000 -0.024040 
#    y 0.000000 1.927050 0.000000 
#    z -0.024040 0.000000 1.879610 
# 
# From -- ./inp_files/10444.got.cif
#   From: 2010.05.17/outbox.cif.g08.bks.cpg/sg14_6_cif.got.tgz:10444.got - 2010.06.03 17:49:19.
