data_PCOD9252060
_publ_section_title
;
Structure prediction by ZEFSAII (Michael W. Deem and Ramdas Pophale) SiO2 
 PCOD9252060
Probable space group: P 21/C
;
_chemical_formula_sum "Si O2"
_cell_formula_units_Z 20
_cell_length_a 12.802704
_cell_length_b 12.005950
_cell_length_c 17.662007
_cell_angle_alpha 90.000000
_cell_angle_beta 22.644986
_cell_angle_gamma 90.000000
_cell_volume 1045.253552
_symmetry_space_group_name_H-M "P 21/C"
_symmetry_group_IT_number 14
_symmetry_cell_setting 'monoclinic'
loop_
_space_group_symop_operation_xyz
x,y,z
-x,1/2+y,1/2-z
-x,-y,-z
x,1/2-y,1/2+z
loop_
_atom_site_type_symbol
_atom_site_label
_atom_site_fract_x
_atom_site_fract_y
_atom_site_fract_z
Si Si1 0.284986 0.409999 0.113011
Si Si2 0.280751 0.064244 0.317727
Si Si3 0.906119 0.685318 0.913207
Si Si4 0.778317 0.935029 0.958235
Si Si5 0.451142 0.338306 0.541836
O O1 0.263466 0.380225 0.038040
O O2 0.995436 0.467012 0.322395
O O3 0.500000 0.500000 0.000000
O O4 0.350932 0.289786 0.104548
O O5 0.227871 0.153728 0.417898
O O6 0.373603 0.116672 0.176078
O O7 0.000000 0.000000 0.500000
O O8 0.512048 0.974037 0.180698
O O9 0.887870 0.817282 0.913340
O O10 0.226065 0.656503 0.691179
O O11 0.697620 0.908671 0.924709
#
# Coordination Sequence:
#
# PCOD9252060 Si02
#       5
#     4   4   4   4   4
#     4  11  23  42  69  95 130 172 211 268 326 373
#     4  12  24  41  68  97 127 170 218 267 320 382
#     4  11  24  43  67  97 130 168 222 263 316 393
#     4  11  23  43  67  95 133 169 214 271 321 380
#     4  11  23  44  69  93 127 175 219 261 326 386
#
# _framework density 19.134115000000001
#
# number of rings (size 3 to 8) (size 9 to 14) (size 15 to 20)
#    0.000    0.800    6.000    1.800    0.000    3.200 
#    0.000    2.000    0.000    0.000    0.000    0.000 
#    0.000    0.000    0.000    0.000    0.000    0.000 
#
# Total GULP energy -111657.593310 kJ/mol
# GULP energy per Si atom -5582.879666 kJ/mol
# Density = 1.909056 g / cm^3
# Si number density = 19.134115 Si / 1000 Ang^3
#
#
#
# Elastic Constant Matrix: (Units=GPa)
#
#
# Indices 1 2 3 4 5 6 
#
# 1 61.5705 34.3730 33.6224 0.0000 6.9038 0.0000
# 2 34.3730 116.5319 44.0902 0.0000 -0.9532 0.0000
# 3 33.6224 44.0902 122.6665 0.0000 -0.7013 0.0000
# 4 0.0000 0.0000 0.0000 39.4282 0.0000 -13.0611
# 5 6.9038 -0.9532 -0.7013 0.0000 38.7189 0.0000
# 6 0.0000 0.0000 0.0000 -13.0611 0.0000 25.9160
#
#
#
# Elastic Compliance Matrix: (Units=1/GPa)
#
#
# Indices 1 2 3 4 5 6 
#
# 1 0.021710 -0.004834 -0.004236 0.000000 -0.004067 0.000000
# 2 -0.004834 0.011010 -0.002626 0.000000 0.001085 0.000000
# 3 -0.004236 -0.002626 0.010262 0.000000 0.000877 0.000000
# 4 0.000000 0.000000 0.000000 0.030445 0.000000 0.015344
# 5 -0.004067 0.001085 0.000877 0.000000 0.026595 0.000000
# 6 0.000000 0.000000 0.000000 0.015344 0.000000 0.046319
#
#
# Mechanical properties :
#
#
# Convention : Reuss Voigt Hill
#
# Bulk Modulus (GPa) = 51.04958 58.32668 54.68813
# Shear Modulus (GPa) = 28.36667 33.39150 30.87908
#
# Velocity S-wave (km/s) = 3.85453 4.18201 4.02160
# Velocity P-wave (km/s) = 6.82258 7.33949 7.08575
#
# Compressibility (1/GPa) = 0.01958880
#
# Stress axis : x y z
#
# Youngs Moduli (GPa) = 46.06261 90.82929 97.44490
#
# Poissons Ratio (x) = 0.43907 0.41280
# Poissons Ratio (y) = 0.22267 0.25589
# Poissons Ratio (z) = 0.19513 0.23852
#
# Static dielectric constant tensor:
#      x y z
#    x 1.689970 0.000000 -0.028840 
#    y 0.000000 1.682970 0.000000 
#    z -0.028840 0.000000 1.647480 
# 
# From -- ./inp_files/68425.got.cif
#   From: 2010.05.17/outbox.cif.g08.bks.cpg/sg14_35_cif.got.tgz:68425.got - 2010.06.03 17:49:19.
