data_PCOD9252044
_publ_section_title
;
Structure prediction by ZEFSAII (Michael W. Deem and Ramdas Pophale) SiO2 
 PCOD9252044
Probable space group: P 21/C
;
_chemical_formula_sum "Si O2"
_cell_formula_units_Z 28
_cell_length_a 27.984095
_cell_length_b 5.515379
_cell_length_c 9.348534
_cell_angle_alpha 90.000000
_cell_angle_beta 50.679639
_cell_angle_gamma 90.000000
_cell_volume 1116.233534
_symmetry_space_group_name_H-M "P 21/C"
_symmetry_group_IT_number 14
_symmetry_cell_setting 'monoclinic'
loop_
_space_group_symop_operation_xyz
x,y,z
-x,1/2+y,1/2-z
-x,-y,-z
x,1/2-y,1/2+z
loop_
_atom_site_type_symbol
_atom_site_label
_atom_site_fract_x
_atom_site_fract_y
_atom_site_fract_z
Si Si1 0.316414 0.944605 0.835356
Si Si2 0.271325 0.187921 0.176339
Si Si3 0.574527 0.062813 0.515533
Si Si4 0.846542 0.949948 0.168566
Si Si5 0.017584 0.412469 0.631114
Si Si6 0.804127 0.298568 0.001033
Si Si7 0.453932 0.179441 0.164300
O O1 0.299914 0.128436 0.737298
O O2 0.371515 0.781998 0.661775
O O3 0.323390 0.070767 0.976047
O O4 0.253181 0.802823 0.980752
O O5 0.217916 0.310555 0.180464
O O6 0.229572 0.999041 0.340723
O O7 0.576158 0.842879 0.399167
O O8 0.587255 0.971976 0.649352
O O9 0.503935 0.153546 0.653804
O O10 0.854581 0.108317 0.295536
O O11 0.910830 0.822761 0.016592
O O12 0.831361 0.103344 0.056613
O O13 0.986779 0.166784 0.763930
O O14 0.000000 0.500000 0.500000
O O15 0.500000 0.000000 0.000000
#
# Coordination Sequence:
#
# PCOD9252044 Si02
#       7
#     4   4   4   4   4   4   4
#     4  11  24  40  66  96 129 163 220 278 331 404
#     4  11  23  42  64  97 129 170 216 264 344 405
#     4  11  24  42  64  92 123 167 216 277 324 404
#     4  11  25  43  73  93 142 178 225 282 342 416
#     4  12  29  50  77 116 153 201 261 314 374 442
#     4  11  23  43  66 100 129 179 219 270 348 411
#     4  11  23  43  64  88 122 169 217 258 339 395
#
# _framework density 25.084358000000002
#
# number of rings (size 3 to 8) (size 9 to 14) (size 15 to 20)
#    0.000    0.857    4.286    2.143    4.000    2.286 
#    0.000    0.000    0.000    0.000    0.000    0.000 
#    0.000    0.000    0.000    0.000    0.000    0.000 
#
# Total GULP energy -156302.221392 kJ/mol
# GULP energy per Si atom -5582.222193 kJ/mol
# Density = 2.502727 g / cm^3
# Si number density = 25.084358 Si / 1000 Ang^3
#
#
#
# Elastic Constant Matrix: (Units=GPa)
#
#
# Indices 1 2 3 4 5 6 
#
# 1 54.0929 1.0937 19.4345 0.0000 2.7413 0.0000
# 2 1.0937 40.7825 5.4120 0.0000 15.8848 0.0000
# 3 19.4345 5.4120 121.8304 0.0000 3.9936 0.0000
# 4 0.0000 0.0000 0.0000 41.4550 0.0000 6.9876
# 5 2.7413 15.8848 3.9936 0.0000 42.0684 0.0000
# 6 0.0000 0.0000 0.0000 6.9876 0.0000 27.5413
#
#
#
# Elastic Compliance Matrix: (Units=1/GPa)
#
#
# Indices 1 2 3 4 5 6 
#
# 1 0.019655 0.000316 -0.003113 0.000000 -0.001105 0.000000
# 2 0.000316 0.028858 -0.000978 0.000000 -0.010824 0.000000
# 3 -0.003113 -0.000978 0.008757 0.000000 -0.000259 0.000000
# 4 0.000000 0.000000 0.000000 0.025200 0.000000 -0.006394
# 5 -0.001105 -0.010824 -0.000259 0.000000 0.027955 0.000000
# 6 0.000000 0.000000 0.000000 -0.006394 0.000000 0.037931
#
#
# Mechanical properties :
#
#
# Convention : Reuss Voigt Hill
#
# Bulk Modulus (GPa) = 20.11254 29.84290 24.97772
# Shear Modulus (GPa) = 28.98928 34.93065 31.95996
#
# Velocity S-wave (km/s) = 3.40321 3.73571 3.57333
# Velocity P-wave (km/s) = 4.84539 5.52541 5.19653
#
# Compressibility (1/GPa) = 0.04972023
#
# Stress axis : x y z
#
# Youngs Moduli (GPa) = 50.87815 34.65286 114.19855
#
# Poissons Ratio (x) = -0.01096 0.35552
# Poissons Ratio (y) = -0.01609 0.11164
# Poissons Ratio (z) = 0.15839 0.03388
#
# Static dielectric constant tensor:
#      x y z
#    x 2.286450 0.000000 -0.096000 
#    y 0.000000 2.216880 0.000000 
#    z -0.096000 0.000000 1.980340 
# 
# From -- ./inp_files/19851.got.cif
#   From: 2010.05.17/outbox.cif.g08.bks.cpg/sg14_10_cif.got.tgz:19851.got - 2010.06.03 17:49:19.
