data_PCOD9252304
_publ_section_title
;
Structure prediction by ZEFSAII (Michael W. Deem and Ramdas Pophale) SiO2 
 PCOD9252304
Probable space group: P 21/C
;
_chemical_formula_sum "Si O2"
_cell_formula_units_Z 20
_cell_length_a 6.920341
_cell_length_b 8.239376
_cell_length_c 18.494907
_cell_angle_alpha 90.000000
_cell_angle_beta 136.160213
_cell_angle_gamma 90.000000
_cell_volume 730.439374
_symmetry_space_group_name_H-M "P 21/C"
_symmetry_group_IT_number 14
_symmetry_cell_setting 'monoclinic'
loop_
_space_group_symop_operation_xyz
x,y,z
-x,1/2+y,1/2-z
-x,-y,-z
x,1/2-y,1/2+z
loop_
_atom_site_type_symbol
_atom_site_label
_atom_site_fract_x
_atom_site_fract_y
_atom_site_fract_z
Si Si1 0.405452 0.752329 0.077803
Si Si2 0.803428 0.844067 0.906269
Si Si3 0.337376 0.511059 0.191398
Si Si4 0.376930 0.730982 0.906994
Si Si5 0.073665 0.489306 0.262960
O O1 0.336567 0.623270 0.121139
O O2 0.690194 0.849918 0.167223
O O3 0.423672 0.682668 0.001727
O O4 0.131673 0.866649 0.003097
O O5 0.754986 0.670121 0.852399
O O6 0.636041 0.971163 0.811422
O O7 0.642688 0.803610 0.937835
O O8 0.129264 0.569459 0.199131
O O9 0.228357 0.590029 0.820697
O O10 0.151426 0.878258 0.843107
#
# Coordination Sequence:
#
# PCOD9252304 Si02
#       5
#     4   4   4   4   4
#     4  12  24  48  74 104 144 187 250 295 347 437
#     4  11  26  44  75 103 142 194 237 299 362 421
#     4  11  23  48  70 103 145 189 234 300 360 416
#     4  11  27  44  73 106 142 192 238 297 361 426
#     4  11  26  49  71 107 150 190 239 298 365 418
#
# _framework density 27.380783000000001
#
# number of rings (size 3 to 8) (size 9 to 14) (size 15 to 20)
#    0.000    0.800    4.000    1.200    5.600    7.200 
#    0.000    0.000    0.000    0.000    0.000    0.000 
#    0.000    0.000    0.000    0.000    0.000    0.000 
#
# Total GULP energy -112255.339312 kJ/mol
# GULP energy per Si atom -5612.766966 kJ/mol
# Density = 2.731846 g / cm^3
# Si number density = 27.380783 Si / 1000 Ang^3
#
#
#
# Elastic Constant Matrix: (Units=GPa)
#
#
# Indices 1 2 3 4 5 6 
#
# 1 121.4908 18.2810 72.8623 0.0000 5.5531 0.0000
# 2 18.2810 76.7236 38.3988 0.0000 -4.6316 0.0000
# 3 72.8623 38.3988 138.2860 0.0000 -8.3108 0.0000
# 4 0.0000 0.0000 0.0000 51.1593 0.0000 8.3971
# 5 5.5531 -4.6316 -8.3108 0.0000 63.7079 0.0000
# 6 0.0000 0.0000 0.0000 8.3971 0.0000 54.9805
#
#
#
# Elastic Compliance Matrix: (Units=1/GPa)
#
#
# Indices 1 2 3 4 5 6 
#
# 1 0.012270 0.000295 -0.006662 0.000000 -0.001917 0.000000
# 2 0.000295 0.015164 -0.004335 0.000000 0.000511 0.000000
# 3 -0.006662 -0.004335 0.012056 0.000000 0.001838 0.000000
# 4 0.000000 0.000000 0.000000 0.020049 0.000000 -0.003062
# 5 -0.001917 0.000511 0.001838 0.000000 0.016141 0.000000
# 6 0.000000 0.000000 0.000000 -0.003062 0.000000 0.018656
#
#
# Mechanical properties :
#
#
# Convention : Reuss Voigt Hill
#
# Bulk Modulus (GPa) = 55.29478 66.17606 60.73542
# Shear Modulus (GPa) = 41.06130 47.76676 44.41403
#
# Velocity S-wave (km/s) = 3.87672 4.18130 4.03188
# Velocity P-wave (km/s) = 6.34643 6.89436 6.62606
#
# Compressibility (1/GPa) = 0.01808489
#
# Stress axis : x y z
#
# Youngs Moduli (GPa) = 81.50119 65.94482 82.94695
#
# Poissons Ratio (x) = -0.01945 0.55259
# Poissons Ratio (y) = -0.02404 0.35961
# Poissons Ratio (z) = 0.54296 0.28590
#
# Static dielectric constant tensor:
#      x y z
#    x 2.138160 0.000000 -0.008290 
#    y 0.000000 2.177220 0.000000 
#    z -0.008290 0.000000 2.095130 
# 
# From -- ./inp_files/64919.got.cif
#   From: 2010.05.17/outbox.cif.g08.bks.cpg/sg14_33_cif.got.tgz:64919.got - 2010.06.03 17:49:19.
