data_PCOD9252130
_publ_section_title
;
Structure prediction by ZEFSAII (Michael W. Deem and Ramdas Pophale) SiO2 
 PCOD9252130
Probable space group: P 21/C
;
_chemical_formula_sum "Si O2"
_cell_formula_units_Z 22
_cell_length_a 11.040515
_cell_length_b 8.062984
_cell_length_c 14.222538
_cell_angle_alpha 90.000000
_cell_angle_beta 142.480770
_cell_angle_gamma 90.000000
_cell_volume 771.079672
_symmetry_space_group_name_H-M "P 21/C"
_symmetry_group_IT_number 14
_symmetry_cell_setting 'monoclinic'
loop_
_space_group_symop_operation_xyz
x,y,z
-x,1/2+y,1/2-z
-x,-y,-z
x,1/2-y,1/2+z
loop_
_atom_site_type_symbol
_atom_site_label
_atom_site_fract_x
_atom_site_fract_y
_atom_site_fract_z
Si Si1 0.800287 0.685134 0.979203
Si Si2 0.308723 0.726270 0.968361
Si Si3 0.518682 0.971432 0.755717
Si Si4 0.500000 0.000000 0.000000
Si Si5 0.804956 0.119291 0.802466
Si Si6 0.140972 0.277144 0.770977
O O1 0.631358 0.825401 0.875585
O O2 0.697753 0.544491 0.852319
O O3 0.830829 0.644442 0.107340
O O4 0.002054 0.766667 0.067721
O O5 0.316288 0.700005 0.859268
O O6 0.083250 0.708786 0.863276
O O7 0.455205 0.610206 0.114951
O O8 0.384378 0.914652 0.018085
O O9 0.681507 0.105102 0.821477
O O10 0.694449 0.866936 0.137868
O O11 0.855648 0.933713 0.797670
#
# Coordination Sequence:
#
# PCOD9252130 Si02
#       6
#     4   4   4   2   4   4
#     4  11  27  43  69 103 141 193 231 300 371 425
#     4  11  23  43  73 104 138 187 246 299 346 438
#     4  12  25  47  67 104 149 188 233 305 371 426
#     4  12  24  40  76 106 132 186 244 294 364 414
#     4  11  23  48  72  98 142 190 241 295 355 431
#     4  11  24  44  73 106 138 183 246 292 350 440
#
# _framework density 28.531421999999999
#
# number of rings (size 3 to 8) (size 9 to 14) (size 15 to 20)
#    0.000    0.727    3.636    4.364    7.636    0.000 
#    0.000    0.909    0.000    0.000    0.000    0.000 
#    0.000    0.000    0.000    0.000    0.000    0.000 
#
# Total GULP energy -122836.209222 kJ/mol
# GULP energy per Si atom -5583.464056 kJ/mol
# Density = 2.846648 g / cm^3
# Si number density = 28.531422 Si / 1000 Ang^3
#
#
#
# Elastic Constant Matrix: (Units=GPa)
#
#
# Indices 1 2 3 4 5 6 
#
# 1 129.5192 -16.2949 12.9751 0.0000 45.8403 0.0000
# 2 -16.2949 -102.7792 -42.9631 0.0000 91.6465 0.0000
# 3 12.9751 -42.9631 92.6421 0.0000 44.1647 0.0000
# 4 0.0000 0.0000 0.0000 19.5778 0.0000 19.2048
# 5 45.8403 91.6465 44.1647 0.0000 39.8199 0.0000
# 6 0.0000 0.0000 0.0000 19.2048 0.0000 45.2498
#
#
#
# Elastic Compliance Matrix: (Units=1/GPa)
#
#
# Indices 1 2 3 4 5 6 
#
# 1 0.008264 -0.002577 -0.001369 0.000000 -0.002063 0.000000
# 2 -0.002577 -0.000458 -0.003751 0.000000 0.008181 0.000000
# 3 -0.001369 -0.003751 0.009291 0.000000 -0.000095 0.000000
# 4 0.000000 0.000000 0.000000 0.087513 0.000000 -0.037142
# 5 -0.002063 0.008181 -0.000095 0.000000 0.008764 0.000000
# 6 0.000000 0.000000 0.000000 -0.037142 0.000000 0.037863
#
#
# Mechanical properties :
#
#
# Convention : Reuss Voigt Hill
#
# Bulk Modulus (GPa) = 587.68199 2.97957 295.33078
# Shear Modulus (GPa) = 29.90410 31.97383 30.93897
#
# Velocity S-wave (km/s) = 3.24097 3.35125 3.29657
# Velocity P-wave (km/s) = 14.84687 4.00263 10.87314
#
# Compressibility (1/GPa) = 0.00170160
#
# Stress axis : x y z
#
# Youngs Moduli (GPa) = 121.00824 -2184.78049 107.62568
#
# Poissons Ratio (x) = -5.63090 0.14736
# Poissons Ratio (y) = 0.31188 0.40376
# Poissons Ratio (z) = 0.16568 -8.19619
#
# Static dielectric constant tensor:
#      x y z
#    x 2.236100 0.000000 -0.166950 
#    y 0.000000 3.351950 0.000000 
#    z -0.166950 0.000000 2.452880 
# 
# From -- ./inp_files/59153.got.cif
#   From: 2010.05.17/outbox.cif.g08.bks.cpg/sg14_30_cif.got.tgz:59153.got - 2010.06.03 17:49:19.
