data_PCOD9252716
_publ_section_title
;
Structure prediction by ZEFSAII (Michael W. Deem and Ramdas Pophale) SiO2 
 PCOD9252716
Probable space group: P 21/C
;
_chemical_formula_sum "Si O2"
_cell_formula_units_Z 16
_cell_length_a 18.917636
_cell_length_b 5.104555
_cell_length_c 9.611210
_cell_angle_alpha 90.000000
_cell_angle_beta 38.005146
_cell_angle_gamma 90.000000
_cell_volume 571.471687
_symmetry_space_group_name_H-M "P 21/C"
_symmetry_group_IT_number 14
_symmetry_cell_setting 'monoclinic'
loop_
_space_group_symop_operation_xyz
x,y,z
-x,1/2+y,1/2-z
-x,-y,-z
x,1/2-y,1/2+z
loop_
_atom_site_type_symbol
_atom_site_label
_atom_site_fract_x
_atom_site_fract_y
_atom_site_fract_z
Si Si1 0.621913 0.077708 0.140953
Si Si2 0.368010 0.259910 0.621556
Si Si3 0.008268 0.286541 0.826698
Si Si4 0.805591 0.463414 0.804907
O O1 0.494257 0.169465 0.374060
O O2 0.635908 0.813297 0.210319
O O3 0.718128 0.288517 0.030321
O O4 0.637218 0.035096 0.951578
O O5 0.266363 0.099553 0.705990
O O6 0.008326 0.582880 0.775215
O O7 0.122664 0.318606 0.223161
O O8 0.900402 0.228215 0.091831
#
# Coordination Sequence:
#
# PCOD9252716 Si02
#       4
#     4   4   4   4
#     4  11  25  46  71 115 151 206 247 318 383 470
#     4  11  25  44  73 109 157 197 257 310 390 467
#     4  11  28  49  75 109 152 204 265 324 381 448
#     4  11  26  46  75 107 151 203 258 311 392 459
#
# _framework density 27.997890000000002
#
# number of rings (size 3 to 8) (size 9 to 14) (size 15 to 20)
#    0.000    1.000    2.500    1.500   10.500    5.000 
#    0.000    0.000    0.000    0.000    0.000    0.000 
#    0.000    0.000    0.000    0.000    0.000    0.000 
#
# Total GULP energy -89838.894993 kJ/mol
# GULP energy per Si atom -5614.930937 kJ/mol
# Density = 2.793417 g / cm^3
# Si number density = 27.997890 Si / 1000 Ang^3
#
#
#
# Elastic Constant Matrix: (Units=GPa)
#
#
# Indices 1 2 3 4 5 6 
#
# 1 141.9216 10.9135 77.1977 0.0000 -25.5833 0.0000
# 2 10.9135 64.3309 21.4781 0.0000 -9.6058 0.0000
# 3 77.1977 21.4781 98.8759 0.0000 -13.5931 0.0000
# 4 0.0000 0.0000 0.0000 47.1341 0.0000 7.6081
# 5 -25.5833 -9.6058 -13.5931 0.0000 55.0679 0.0000
# 6 0.0000 0.0000 0.0000 7.6081 0.0000 48.1519
#
#
#
# Elastic Compliance Matrix: (Units=1/GPa)
#
#
# Indices 1 2 3 4 5 6 
#
# 1 0.013085 0.001719 -0.010054 0.000000 0.003897 0.000000
# 2 0.001719 0.017223 -0.004721 0.000000 0.002638 0.000000
# 3 -0.010054 -0.004721 0.018874 0.000000 -0.000835 0.000000
# 4 0.000000 0.000000 0.000000 0.021771 0.000000 -0.003440
# 5 0.003897 0.002638 -0.000835 0.000000 0.020224 0.000000
# 6 0.000000 0.000000 0.000000 -0.003440 0.000000 0.021311
#
#
# Mechanical properties :
#
#
# Convention : Reuss Voigt Hill
#
# Bulk Modulus (GPa) = 43.34513 58.25635 50.80074
# Shear Modulus (GPa) = 34.17862 43.10671 38.64267
#
# Velocity S-wave (km/s) = 3.49772 3.92808 3.71913
# Velocity P-wave (km/s) = 5.64157 6.43628 6.05198
#
# Compressibility (1/GPa) = 0.02307064
#
# Stress axis : x y z
#
# Youngs Moduli (GPa) = 76.42144 58.06216 52.98308
#
# Poissons Ratio (x) = -0.09979 0.53269
# Poissons Ratio (y) = -0.13135 0.25011
# Poissons Ratio (z) = 0.76834 0.27408
#
# Static dielectric constant tensor:
#      x y z
#    x 2.138350 0.000000 0.042000 
#    y 0.000000 2.173460 0.000000 
#    z 0.042000 0.000000 2.128110 
# 
# From -- ./inp_files/14728.got.cif
#   From: 2010.05.17/outbox.cif.g08.bks.cpg/sg14_8_cif.got.tgz:14728.got - 2010.06.03 17:49:19.
