data_PCOD9252290
_publ_section_title
;
Structure prediction by ZEFSAII (Michael W. Deem and Ramdas Pophale) SiO2 
 PCOD9252290
Probable space group: P 21/C
;
_chemical_formula_sum "Si O2"
_cell_formula_units_Z 28
_cell_length_a 10.142745
_cell_length_b 11.052446
_cell_length_c 23.690606
_cell_angle_alpha 90.000000
_cell_angle_beta 29.105441
_cell_angle_gamma 90.000000
_cell_volume 1291.814137
_symmetry_space_group_name_H-M "P 21/C"
_symmetry_group_IT_number 14
_symmetry_cell_setting 'monoclinic'
loop_
_space_group_symop_operation_xyz
x,y,z
-x,1/2+y,1/2-z
-x,-y,-z
x,1/2-y,1/2+z
loop_
_atom_site_type_symbol
_atom_site_label
_atom_site_fract_x
_atom_site_fract_y
_atom_site_fract_z
Si Si1 0.517865 0.130541 0.631356
Si Si2 0.523116 0.616314 0.454648
Si Si3 0.784210 0.005125 0.427441
Si Si4 0.958538 0.246609 0.186273
Si Si5 0.769344 0.034564 0.171199
Si Si6 0.055003 0.752962 0.686908
Si Si7 0.298618 0.892491 0.925970
O O1 0.688720 0.049912 0.524383
O O2 0.233455 0.182188 0.710325
O O3 0.700904 0.246702 0.577410
O O4 0.416687 0.051933 0.721641
O O5 0.500000 0.500000 0.500000
O O6 0.779828 0.684052 0.383231
O O7 0.516964 0.579574 0.392142
O O8 0.256159 0.694017 0.566133
O O9 0.945121 0.108561 0.333225
O O10 0.500000 0.000000 0.500000
O O11 0.945073 0.878483 0.370076
O O12 0.800408 0.261101 0.305467
O O13 0.845119 0.153024 0.181604
O O14 0.633069 0.068049 0.162769
O O15 0.033560 0.960039 0.050176
#
# Coordination Sequence:
#
# PCOD9252290 Si02
#       7
#     4   4   4   4   4   4   4
#     4  12  22  46  67  95 133 180 219 270 343 399
#     4  12  22  40  68  98 127 174 224 275 334 403
#     4  12  22  40  62 102 137 166 218 284 332 394
#     4  12  25  41  67 103 132 172 224 278 333 399
#     4  11  26  47  69  97 139 178 222 280 334 403
#     4  12  22  38  68  96 134 173 216 277 340 391
#     4  11  23  47  70  94 136 181 223 272 337 406
#
# _framework density 21.674944
#
# number of rings (size 3 to 8) (size 9 to 14) (size 15 to 20)
#    0.000    0.286    8.571    0.857    2.000    0.000 
#   10.286    0.714    0.000    0.000    0.000    0.000 
#    0.000    0.000    0.000    0.000    0.000    0.000 
#
# Total GULP energy -156227.403894 kJ/mol
# GULP energy per Si atom -5579.550139 kJ/mol
# Density = 2.162561 g / cm^3
# Si number density = 21.674944 Si / 1000 Ang^3
#
#
#
# Elastic Constant Matrix: (Units=GPa)
#
#
# Indices 1 2 3 4 5 6 
#
# 1 104.6240 64.2935 48.2979 0.0000 47.7680 0.0000
# 2 64.2935 142.0902 34.7872 0.0000 32.1692 0.0000
# 3 48.2979 34.7872 85.8213 0.0000 32.0833 0.0000
# 4 0.0000 0.0000 0.0000 35.6874 0.0000 15.9122
# 5 47.7680 32.1692 32.0833 0.0000 45.0541 0.0000
# 6 0.0000 0.0000 0.0000 15.9122 0.0000 29.0441
#
#
#
# Elastic Compliance Matrix: (Units=1/GPa)
#
#
# Indices 1 2 3 4 5 6 
#
# 1 0.022587 -0.005313 -0.004120 0.000000 -0.017220 0.000000
# 2 -0.005313 0.009805 -0.000645 0.000000 -0.000909 0.000000
# 3 -0.004120 -0.000645 0.016935 0.000000 -0.007231 0.000000
# 4 0.000000 0.000000 0.000000 0.037079 0.000000 -0.020314
# 5 -0.017220 -0.000909 -0.007231 0.000000 0.046251 0.000000
# 6 0.000000 0.000000 0.000000 -0.020314 0.000000 0.045560
#
#
# Mechanical properties :
#
#
# Convention : Reuss Voigt Hill
#
# Bulk Modulus (GPa) = 34.27932 69.69918 51.98925
# Shear Modulus (GPa) = 24.02716 34.30092 29.16404
#
# Velocity S-wave (km/s) = 3.33306 3.98240 3.67211
# Velocity P-wave (km/s) = 5.53732 7.30564 6.48206
#
# Compressibility (1/GPa) = 0.02917211
#
# Stress axis : x y z
#
# Youngs Moduli (GPa) = 44.27290 101.98379 59.04760
#
# Poissons Ratio (x) = 0.54183 0.24330
# Poissons Ratio (y) = 0.23522 0.03807
# Poissons Ratio (z) = 0.18242 0.06575
#
# Static dielectric constant tensor:
#      x y z
#    x 1.819620 0.000000 0.066990 
#    y 0.000000 1.831600 0.000000 
#    z 0.066990 0.000000 1.882580 
# 
# From -- ./inp_files/65547.got.cif
#   From: 2010.05.17/outbox.cif.g08.bks.cpg/sg14_33_cif.got.tgz:65547.got - 2010.06.03 17:49:19.
