data_PCOD9252170
_publ_section_title
;
Structure prediction by ZEFSAII (Michael W. Deem and Ramdas Pophale) SiO2 
 PCOD9252170
Probable space group: P 21/C
;
_chemical_formula_sum "Si O2"
_cell_formula_units_Z 26
_cell_length_a 12.434747
_cell_length_b 12.669080
_cell_length_c 14.063102
_cell_angle_alpha 90.000000
_cell_angle_beta 151.182922
_cell_angle_gamma 90.000000
_cell_volume 1067.882767
_symmetry_space_group_name_H-M "P 21/C"
_symmetry_group_IT_number 14
_symmetry_cell_setting 'monoclinic'
loop_
_space_group_symop_operation_xyz
x,y,z
-x,1/2+y,1/2-z
-x,-y,-z
x,1/2-y,1/2+z
loop_
_atom_site_type_symbol
_atom_site_label
_atom_site_fract_x
_atom_site_fract_y
_atom_site_fract_z
Si Si1 0.990854 0.607017 0.854466
Si Si2 0.153988 0.759987 0.641128
Si Si3 0.000000 0.500000 0.500000
Si Si4 0.723315 0.646205 0.332623
Si Si5 0.337950 0.234806 0.004430
Si Si6 0.991226 0.569092 0.277476
Si Si7 0.708046 0.263552 0.537796
O O1 0.022638 0.494851 0.831675
O O2 0.163205 0.678949 0.927200
O O3 0.745272 0.648618 0.636699
O O4 0.047858 0.638936 0.006117
O O5 0.401185 0.743299 0.795435
O O6 0.179659 0.771280 0.772650
O O7 0.980856 0.662061 0.490394
O O8 0.723413 0.524989 0.306462
O O9 0.960426 0.502253 0.348780
O O10 0.715265 0.682375 0.434766
O O11 0.541073 0.720421 0.144151
O O12 0.191701 0.337867 0.870123
O O13 0.235068 0.625514 0.466876
#
# Coordination Sequence:
#
# PCOD9252170 Si02
#       7
#     4   4   2   4   4   4   4
#     4  11  23  44  70 107 143 186 253 308 363 460
#     4  12  23  45  74  96 149 202 232 307 388 440
#     4  12  24  44  82 110 140 198 258 316 368 442
#     4  12  24  47  74 108 149 193 255 311 379 448
#     4  11  24  47  71 105 152 190 244 319 377 450
#     4  11  24  47  76 109 149 194 252 313 382 451
#     4  11  24  46  71 106 153 196 244 312 378 448
#
# _framework density 24.347239999999999
#
# number of rings (size 3 to 8) (size 9 to 14) (size 15 to 20)
#    0.000    0.615    6.154    3.692    0.000    1.846 
#    2.769    4.615    0.000    0.000    0.000    0.000 
#    0.000    0.000    0.000    0.000    0.000    0.000 
#
# Total GULP energy -144934.330491 kJ/mol
# GULP energy per Si atom -5574.397327 kJ/mol
# Density = 2.429182 g / cm^3
# Si number density = 24.347240 Si / 1000 Ang^3
#
#
#
# Elastic Constant Matrix: (Units=GPa)
#
#
# Indices 1 2 3 4 5 6 
#
# 1 103.2028 19.9736 42.8849 0.0000 -9.7501 0.0000
# 2 19.9736 68.8474 16.5635 0.0000 5.7553 0.0000
# 3 42.8849 16.5635 116.7969 0.0000 1.0740 0.0000
# 4 0.0000 0.0000 0.0000 30.2430 0.0000 -4.7212
# 5 -9.7501 5.7553 1.0740 0.0000 53.6204 0.0000
# 6 0.0000 0.0000 0.0000 -4.7212 0.0000 47.5269
#
#
#
# Elastic Compliance Matrix: (Units=1/GPa)
#
#
# Indices 1 2 3 4 5 6 
#
# 1 0.012174 -0.002762 -0.004102 0.000000 0.002592 0.000000
# 2 -0.002762 0.015798 -0.001206 0.000000 -0.002174 0.000000
# 3 -0.004102 -0.001206 0.010247 0.000000 -0.000822 0.000000
# 4 0.000000 0.000000 0.000000 0.033586 0.000000 0.003336
# 5 0.002592 -0.002174 -0.000822 0.000000 0.019371 0.000000
# 6 0.000000 0.000000 0.000000 0.003336 0.000000 0.021372
#
#
# Mechanical properties :
#
#
# Convention : Reuss Voigt Hill
#
# Bulk Modulus (GPa) = 45.29350 49.74347 47.51848
# Shear Modulus (GPa) = 36.75203 40.23973 38.49588
#
# Velocity S-wave (km/s) = 3.88944 4.06980 3.98064
# Velocity P-wave (km/s) = 6.23007 6.52377 6.37861
#
# Compressibility (1/GPa) = 0.02207822
#
# Stress axis : x y z
#
# Youngs Moduli (GPa) = 82.14516 63.29923 97.59260
#
# Poissons Ratio (x) = 0.17480 0.40033
# Poissons Ratio (y) = 0.22685 0.11774
# Poissons Ratio (z) = 0.33696 0.07637
#
# Static dielectric constant tensor:
#      x y z
#    x 1.962890 0.000000 0.053010 
#    y 0.000000 -0.606450 0.000000 
#    z 0.053010 0.000000 2.108600 
# 
# From -- ./inp_files/45180.got.cif
#   From: 2010.05.17/outbox.cif.g08.bks.cpg/sg14_23_cif.got.tgz:45180.got - 2010.06.03 17:49:19.
