data_PCOD9252623
_publ_section_title
;
Structure prediction by ZEFSAII (Michael W. Deem and Ramdas Pophale) SiO2 
 PCOD9252623
Probable space group: P 21/C
;
_chemical_formula_sum "Si O2"
_cell_formula_units_Z 22
_cell_length_a 7.519563
_cell_length_b 8.987654
_cell_length_c 15.096013
_cell_angle_alpha 90.000000
_cell_angle_beta 54.394129
_cell_angle_gamma 90.000000
_cell_volume 829.494885
_symmetry_space_group_name_H-M "P 21/C"
_symmetry_group_IT_number 14
_symmetry_cell_setting 'monoclinic'
loop_
_space_group_symop_operation_xyz
x,y,z
-x,1/2+y,1/2-z
-x,-y,-z
x,1/2-y,1/2+z
loop_
_atom_site_type_symbol
_atom_site_label
_atom_site_fract_x
_atom_site_fract_y
_atom_site_fract_z
Si Si1 0.186194 0.769807 0.129994
Si Si2 0.866096 0.643075 0.566889
Si Si3 0.840570 0.575170 0.283444
Si Si4 0.522899 0.827156 0.309980
Si Si5 0.965430 0.123015 0.585536
Si Si6 0.500000 0.500000 0.000000
O O1 0.239762 0.942691 0.130737
O O2 0.383779 0.662252 0.051886
O O3 0.021367 0.777224 0.094491
O O4 0.033794 0.692238 0.250786
O O5 0.645330 0.618442 0.685126
O O6 0.000000 0.500000 0.500000
O O7 0.849744 0.755015 0.488377
O O8 0.642450 0.675709 0.305915
O O9 0.964723 0.475330 0.173144
O O10 0.271391 0.805463 0.358261
O O11 0.540516 0.947723 0.383044
O O12 0.000000 0.000000 0.500000
#
# Coordination Sequence:
#
# PCOD9252623 Si02
#       6
#     4   4   4   4   4   2
#     4  11  24  48  70 107 150 188 250 300 377 444
#     4  11  26  46  74 109 148 194 250 310 374 451
#     4  11  26  46  75 105 148 198 241 315 372 450
#     4  11  26  47  73 109 147 194 257 299 384 452
#     4  12  24  48  73 106 149 195 247 314 368 444
#     4  12  24  46  72 106 146 198 242 314 370 444
#
# _framework density 26.522164
#
# number of rings (size 3 to 8) (size 9 to 14) (size 15 to 20)
#    0.000    0.727    5.455    2.182    7.636    0.727 
#    3.273    0.000    0.000    0.000    0.000    0.000 
#    0.000    0.000    0.000    0.000    0.000    0.000 
#
# Total GULP energy -122696.521270 kJ/mol
# GULP energy per Si atom -5577.114603 kJ/mol
# Density = 2.646180 g / cm^3
# Si number density = 26.522164 Si / 1000 Ang^3
#
#
#
# Elastic Constant Matrix: (Units=GPa)
#
#
# Indices 1 2 3 4 5 6 
#
# 1 85.8022 29.8657 19.3651 0.0000 -23.7744 0.0000
# 2 29.8657 153.8821 29.7159 0.0000 -25.3722 0.0000
# 3 19.3651 29.7159 146.5495 0.0000 -13.7837 0.0000
# 4 0.0000 0.0000 0.0000 57.3469 0.0000 -1.7777
# 5 -23.7744 -25.3722 -13.7837 0.0000 34.6081 0.0000
# 6 0.0000 0.0000 0.0000 -1.7777 0.0000 38.1110
#
#
#
# Elastic Compliance Matrix: (Units=1/GPa)
#
#
# Indices 1 2 3 4 5 6 
#
# 1 0.014738 -0.001230 -0.000863 0.000000 0.008879 0.000000
# 2 -0.001230 0.007647 -0.000977 0.000000 0.004372 0.000000
# 3 -0.000863 -0.000977 0.007286 0.000000 0.001593 0.000000
# 4 0.000000 0.000000 0.000000 0.017463 0.000000 0.000815
# 5 0.008879 0.004372 0.001593 0.000000 0.038834 0.000000
# 6 0.000000 0.000000 0.000000 0.000815 0.000000 0.026277
#
#
# Mechanical properties :
#
#
# Convention : Reuss Voigt Hill
#
# Bulk Modulus (GPa) = 42.49713 60.45856 51.47785
# Shear Modulus (GPa) = 39.61120 46.49901 43.05510
#
# Velocity S-wave (km/s) = 3.86879 4.19168 4.03347
# Velocity P-wave (km/s) = 6.00123 6.80235 6.41431
#
# Compressibility (1/GPa) = 0.02353100
#
# Stress axis : x y z
#
# Youngs Moduli (GPa) = 67.85297 130.77598 137.25824
#
# Poissons Ratio (x) = 0.16081 0.11845
# Poissons Ratio (y) = 0.08344 0.13407
# Poissons Ratio (z) = 0.05856 0.12774
#
# Static dielectric constant tensor:
#      x y z
#    x 2.180430 0.000000 0.079190 
#    y 0.000000 2.039040 0.000000 
#    z 0.079190 0.000000 2.215100 
# 
# From -- ./inp_files/54767.got.cif
#   From: 2010.05.17/outbox.cif.g08.bks.cpg/sg14_28_cif.got.tgz:54767.got - 2010.06.03 17:49:19.
