data_PCOD9252053
_publ_section_title
;
Structure prediction by ZEFSAII (Michael W. Deem and Ramdas Pophale) SiO2 
 PCOD9252053
Probable space group: P 21/C
;
_chemical_formula_sum "Si O2"
_cell_formula_units_Z 32
_cell_length_a 8.324388
_cell_length_b 12.896675
_cell_length_c 26.464123
_cell_angle_alpha 90.000000
_cell_angle_beta 148.899641
_cell_angle_gamma 90.000000
_cell_volume 1467.541653
_symmetry_space_group_name_H-M "P 21/C"
_symmetry_group_IT_number 14
_symmetry_cell_setting 'monoclinic'
loop_
_space_group_symop_operation_xyz
x,y,z
-x,1/2+y,1/2-z
-x,-y,-z
x,1/2-y,1/2+z
loop_
_atom_site_type_symbol
_atom_site_label
_atom_site_fract_x
_atom_site_fract_y
_atom_site_fract_z
Si Si1 0.178289 0.796939 0.228468
Si Si2 0.733216 0.541043 0.646584
Si Si3 0.313167 0.207190 0.062236
Si Si4 0.498563 0.485927 0.231496
Si Si5 0.244101 0.795298 0.635602
Si Si6 0.024846 0.918827 0.941613
Si Si7 0.793776 0.634600 0.765944
Si Si8 0.217723 0.672184 0.390979
O O1 0.373064 0.732973 0.322156
O O2 0.169553 0.734619 0.173779
O O3 0.851933 0.849172 0.155803
O O4 0.383416 0.899706 0.274796
O O5 0.361429 0.533532 0.542883
O O6 0.815874 0.552180 0.727138
O O7 0.877508 0.440272 0.658351
O O8 0.435966 0.178007 0.039089
O O9 0.127699 0.129530 0.049547
O O10 0.058721 0.294565 0.981043
O O11 0.408805 0.594124 0.182580
O O12 0.218211 0.431153 0.186143
O O13 0.769941 0.507575 0.346375
O O14 0.479390 0.705024 0.680142
O O15 0.118382 0.837065 0.922730
O O16 0.056220 0.721197 0.831619
#
# Coordination Sequence:
#
# PCOD9252053 Si02
#       8
#     4   4   4   4   4   4   4   4
#     4  11  23  43  64  99 139 180 226 286 344 412
#     4  12  24  39  69 100 137 178 232 290 360 407
#     4  12  25  42  72  99 139 184 230 281 355 415
#     4  11  23  42  69  94 139 184 229 286 351 410
#     4  11  23  44  67 101 135 182 233 287 340 416
#     4  12  23  42  68 106 136 178 230 296 356 407
#     4  11  23  42  67  97 140 183 234 282 353 419
#     4  12  25  44  66 102 140 177 226 296 342 418
#
# _framework density 21.805173
#
# number of rings (size 3 to 8) (size 9 to 14) (size 15 to 20)
#    0.000    0.500    6.250    2.625    3.500    1.500 
#    0.000    0.625    0.000    0.000    0.000    0.000 
#    0.000    0.000    0.000    0.000    0.000    0.000 
#
# Total GULP energy -178539.609289 kJ/mol
# GULP energy per Si atom -5579.362790 kJ/mol
# Density = 2.175554 g / cm^3
# Si number density = 21.805173 Si / 1000 Ang^3
#
#
#
# Elastic Constant Matrix: (Units=GPa)
#
#
# Indices 1 2 3 4 5 6 
#
# 1 87.5520 -4.3695 14.2033 0.0000 19.9190 0.0000
# 2 -4.3695 58.3559 20.7431 0.0000 7.9155 0.0000
# 3 14.2033 20.7431 60.7613 0.0000 7.3479 0.0000
# 4 0.0000 0.0000 0.0000 15.7823 0.0000 10.3701
# 5 19.9190 7.9155 7.3479 0.0000 23.9973 0.0000
# 6 0.0000 0.0000 0.0000 10.3701 0.0000 36.4654
#
#
#
# Elastic Compliance Matrix: (Units=1/GPa)
#
#
# Indices 1 2 3 4 5 6 
#
# 1 0.015091 0.004067 -0.003364 0.000000 -0.012838 0.000000
# 2 0.004067 0.021092 -0.007167 0.000000 -0.008139 0.000000
# 3 -0.003364 -0.007167 0.019800 0.000000 -0.000907 0.000000
# 4 0.000000 0.000000 0.000000 0.077923 0.000000 -0.022160
# 5 -0.012838 -0.008139 -0.000907 0.000000 0.055290 0.000000
# 6 0.000000 0.000000 0.000000 -0.022160 0.000000 0.033725
#
#
# Mechanical properties :
#
#
# Convention : Reuss Voigt Hill
#
# Bulk Modulus (GPa) = 23.22522 29.75810 26.49166
# Shear Modulus (GPa) = 19.98393 26.98850 23.48621
#
# Velocity S-wave (km/s) = 3.03062 3.52193 3.28547
# Velocity P-wave (km/s) = 4.78754 5.49687 5.15442
#
# Compressibility (1/GPa) = 0.04305664
#
# Stress axis : x y z
#
# Youngs Moduli (GPa) = 66.26375 47.41070 50.50379
#
# Poissons Ratio (x) = -0.19282 0.16987
# Poissons Ratio (y) = -0.26949 0.36197
# Poissons Ratio (z) = 0.22288 0.33980
#
# Static dielectric constant tensor:
#      x y z
#    x 1.854960 0.000000 0.010320 
#    y 0.000000 1.791920 0.000000 
#    z 0.010320 0.000000 1.827420 
# 
# From -- ./inp_files/79658.got.cif
#   From: 2010.05.17/outbox.cif.g08.bks.cpg/sg14_40_cif.got.tgz:79658.got - 2010.06.03 17:49:19.
