data_PCOD9252852
_publ_section_title
;
Structure prediction by ZEFSAII (Michael W. Deem and Ramdas Pophale) SiO2 
 PCOD9252852
Probable space group: P 21/C
;
_chemical_formula_sum "Si O2"
_cell_formula_units_Z 26
_cell_length_a 11.574136
_cell_length_b 9.412417
_cell_length_c 9.724273
_cell_angle_alpha 90.000000
_cell_angle_beta 105.408283
_cell_angle_gamma 90.000000
_cell_volume 1021.291218
_symmetry_space_group_name_H-M "P 21/C"
_symmetry_group_IT_number 14
_symmetry_cell_setting 'monoclinic'
loop_
_space_group_symop_operation_xyz
x,y,z
-x,1/2+y,1/2-z
-x,-y,-z
x,1/2-y,1/2+z
loop_
_atom_site_type_symbol
_atom_site_label
_atom_site_fract_x
_atom_site_fract_y
_atom_site_fract_z
Si Si1 0.628925 0.593533 0.312442
Si Si2 0.324450 0.780512 0.246086
Si Si3 0.000000 0.500000 0.500000
Si Si4 0.087042 0.895106 0.286612
Si Si5 0.725822 0.996384 0.428332
Si Si6 0.127887 0.232805 0.141267
Si Si7 0.538705 0.709045 0.010409
O O1 0.622666 0.422411 0.312045
O O2 0.759966 0.627806 0.292491
O O3 0.604410 0.657192 0.456201
O O4 0.550559 0.683063 0.176817
O O5 0.183530 0.814523 0.221374
O O6 0.319530 0.625126 0.179273
O O7 0.403264 0.779356 0.410817
O O8 0.969551 0.517636 0.326714
O O9 0.932675 0.651799 0.507179
O O10 0.171750 0.949094 0.435927
O O11 0.982535 0.800127 0.312961
O O12 0.791725 0.872124 0.367266
O O13 0.612421 0.923892 0.468919
#
# Coordination Sequence:
#
# PCOD9252852 Si02
#       7
#     4   4   2   4   4   4   4
#     4  11  25  49  75 107 149 201 254 322 394 466
#     4  12  25  45  75 110 146 199 256 314 393 466
#     4  12  26  44  74 108 140 214 240 296 388 446
#     4  12  27  44  73 107 152 194 252 313 375 463
#     4  11  26  50  71 112 148 202 254 324 382 454
#     4  11  27  47  73 106 151 194 255 309 379 460
#     4  11  25  49  77 107 150 202 259 323 393 466
#
# _framework density 25.457967
#
# number of rings (size 3 to 8) (size 9 to 14) (size 15 to 20)
#    0.000    0.615    3.077    2.769   10.769    0.000 
#    5.538    3.846    0.000    0.000    0.000    0.000 
#    0.000    0.000    0.000    0.000    0.000    0.000 
#
# Total GULP energy -144781.847241 kJ/mol
# GULP energy per Si atom -5568.532586 kJ/mol
# Density = 2.540002 g / cm^3
# Si number density = 25.457967 Si / 1000 Ang^3
#
#
#
# Elastic Constant Matrix: (Units=GPa)
#
#
# Indices 1 2 3 4 5 6 
#
# 1 110.1655 36.8396 7.1526 0.0000 21.3318 0.0000
# 2 36.8396 140.0749 35.2734 0.0000 12.0563 0.0000
# 3 7.1526 35.2734 90.4832 0.0000 24.5873 0.0000
# 4 0.0000 0.0000 0.0000 36.0757 0.0000 -1.4269
# 5 21.3318 12.0563 24.5873 0.0000 15.1327 0.0000
# 6 0.0000 0.0000 0.0000 -1.4269 0.0000 33.5528
#
#
#
# Elastic Compliance Matrix: (Units=1/GPa)
#
#
# Indices 1 2 3 4 5 6 
#
# 1 0.017033 -0.003849 0.010466 0.000000 -0.037950 0.000000
# 2 -0.003849 0.008831 -0.004836 0.000000 0.006247 0.000000
# 3 0.010466 -0.004836 0.026987 0.000000 -0.054748 0.000000
# 4 0.000000 0.000000 0.000000 0.027766 0.000000 0.001181
# 5 -0.037950 0.006247 -0.054748 0.000000 0.203555 0.000000
# 6 0.000000 0.000000 0.000000 0.001181 0.000000 0.029854
#
#
# Mechanical properties :
#
#
# Convention : Reuss Voigt Hill
#
# Bulk Modulus (GPa) = 17.72626 55.47275 36.59950
# Shear Modulus (GPa) = 15.18519 34.38278 24.78398
#
# Velocity S-wave (km/s) = 2.44495 3.67900 3.12352
# Velocity P-wave (km/s) = 3.86632 6.31537 5.23605
#
# Compressibility (1/GPa) = 0.05641348
#
# Stress axis : x y z
#
# Youngs Moduli (GPa) = 58.70892 113.23197 37.05539
#
# Poissons Ratio (x) = 0.43582 -0.38783
# Poissons Ratio (y) = 0.22597 0.17920
# Poissons Ratio (z) = -0.61446 0.54760
#
# Static dielectric constant tensor:
#      x y z
#    x 1.637500 0.000000 -0.073160 
#    y 0.000000 2.165810 0.000000 
#    z -0.073160 0.000000 2.056110 
# 
# From -- ./inp_files/31679.got.cif
#   From: 2010.05.17/outbox.cif.g08.bks.cpg/sg14_16_cif.got.tgz:31679.got - 2010.06.03 17:49:19.
