data_PCOD9252270
_publ_section_title
;
Structure prediction by ZEFSAII (Michael W. Deem and Ramdas Pophale) SiO2 
 PCOD9252270
Probable space group: P 21/C
;
_chemical_formula_sum "Si O2"
_cell_formula_units_Z 24
_cell_length_a 10.497519
_cell_length_b 11.034212
_cell_length_c 11.739225
_cell_angle_alpha 90.000000
_cell_angle_beta 51.503041
_cell_angle_gamma 90.000000
_cell_volume 1064.216833
_symmetry_space_group_name_H-M "P 21/C"
_symmetry_group_IT_number 14
_symmetry_cell_setting 'monoclinic'
loop_
_space_group_symop_operation_xyz
x,y,z
-x,1/2+y,1/2-z
-x,-y,-z
x,1/2-y,1/2+z
loop_
_atom_site_type_symbol
_atom_site_label
_atom_site_fract_x
_atom_site_fract_y
_atom_site_fract_z
Si Si1 0.666516 0.958185 0.551713
Si Si2 0.825306 0.559515 0.734687
Si Si3 0.797600 0.364843 0.154732
Si Si4 0.859383 0.724338 0.505539
Si Si5 0.669014 0.117982 0.174245
Si Si6 0.174688 0.517367 0.625389
O O1 0.687919 0.963254 0.404746
O O2 0.731983 0.826849 0.546850
O O3 0.486180 0.960189 0.702854
O O4 0.779401 0.058531 0.549412
O O5 0.812692 0.668834 0.654120
O O6 0.822430 0.443362 0.653522
O O7 0.993723 0.570146 0.707904
O O8 0.665989 0.256433 0.216104
O O9 0.776615 0.457872 0.271564
O O10 0.968357 0.294640 0.076789
O O11 0.840908 0.618004 0.419741
O O12 0.706026 0.096167 0.021447
#
# Coordination Sequence:
#
# PCOD9252270 Si02
#       6
#     4   4   4   4   4   4
#     4  12  29  41  72 104 139 179 237 284 350 412
#     4  11  23  46  71  97 138 189 226 282 348 408
#     4  12  26  44  75 105 136 184 236 281 344 416
#     4  11  24  46  70 103 137 180 236 288 339 414
#     4  11  26  47  66 104 144 180 226 293 349 402
#     4  11  24  45  73  98 138 184 231 279 352 405
#
# _framework density 22.551796
#
# number of rings (size 3 to 8) (size 9 to 14) (size 15 to 20)
#    0.000    0.667    5.000    2.000    9.333    2.000 
#    0.000    0.000    0.000    0.000    0.000    0.000 
#    0.000    0.000    0.000    0.000    0.000    0.000 
#
# Total GULP energy -134072.086664 kJ/mol
# GULP energy per Si atom -5586.336944 kJ/mol
# Density = 2.250047 g / cm^3
# Si number density = 22.551796 Si / 1000 Ang^3
#
#
#
# Elastic Constant Matrix: (Units=GPa)
#
#
# Indices 1 2 3 4 5 6 
#
# 1 47.4910 34.1214 24.4086 0.0000 13.4312 0.0000
# 2 34.1214 97.8030 9.3728 0.0000 23.9284 0.0000
# 3 24.4086 9.3728 110.0359 0.0000 11.3984 0.0000
# 4 0.0000 0.0000 0.0000 27.0396 0.0000 -1.1141
# 5 13.4312 23.9284 11.3984 0.0000 32.7275 0.0000
# 6 0.0000 0.0000 0.0000 -1.1141 0.0000 20.9833
#
#
#
# Elastic Compliance Matrix: (Units=1/GPa)
#
#
# Indices 1 2 3 4 5 6 
#
# 1 0.032185 -0.009663 -0.005892 0.000000 -0.004091 0.000000
# 2 -0.009663 0.015355 0.001647 0.000000 -0.007835 0.000000
# 3 -0.005892 0.001647 0.010508 0.000000 -0.002446 0.000000
# 4 0.000000 0.000000 0.000000 0.037064 0.000000 0.001968
# 5 -0.004091 -0.007835 -0.002446 0.000000 0.038814 0.000000
# 6 0.000000 0.000000 0.000000 0.001968 0.000000 0.047761
#
#
# Mechanical properties :
#
#
# Convention : Reuss Voigt Hill
#
# Bulk Modulus (GPa) = 33.07848 43.45951 38.26899
# Shear Modulus (GPa) = 22.77063 28.64522 25.70793
#
# Velocity S-wave (km/s) = 3.18103 3.56785 3.37998
# Velocity P-wave (km/s) = 5.30957 6.02375 5.67790
#
# Compressibility (1/GPa) = 0.03023114
#
# Stress axis : x y z
#
# Youngs Moduli (GPa) = 31.07048 65.12638 95.16479
#
# Poissons Ratio (x) = 0.62931 0.56076
# Poissons Ratio (y) = 0.30023 -0.15675
# Poissons Ratio (z) = 0.18308 -0.10727
#
# Static dielectric constant tensor:
#      x y z
#    x 1.822580 0.000000 -0.013000 
#    y 0.000000 1.833700 0.000000 
#    z -0.013000 0.000000 1.878300 
# 
# From -- ./inp_files/28984.got.cif
#   From: 2010.05.17/outbox.cif.g08.bks.cpg/sg14_15_cif.got.tgz:28984.got - 2010.06.03 17:49:19.
