data_PCOD9252633
_publ_section_title
;
Structure prediction by ZEFSAII (Michael W. Deem and Ramdas Pophale) SiO2 
 PCOD9252633
Probable space group: P 21/C
;
_chemical_formula_sum "Si O2"
_cell_formula_units_Z 24
_cell_length_a 13.297218
_cell_length_b 14.461211
_cell_length_c 12.719465
_cell_angle_alpha 90.000000
_cell_angle_beta 21.778111
_cell_angle_gamma 90.000000
_cell_volume 907.451732
_symmetry_space_group_name_H-M "P 21/C"
_symmetry_group_IT_number 14
_symmetry_cell_setting 'monoclinic'
loop_
_space_group_symop_operation_xyz
x,y,z
-x,1/2+y,1/2-z
-x,-y,-z
x,1/2-y,1/2+z
loop_
_atom_site_type_symbol
_atom_site_label
_atom_site_fract_x
_atom_site_fract_y
_atom_site_fract_z
Si Si1 0.620859 0.318910 0.939338
Si Si2 0.149740 0.961521 0.246902
Si Si3 0.681266 0.841547 0.736614
Si Si4 0.053847 0.738004 0.050166
Si Si5 0.917972 0.086826 0.309225
Si Si6 0.809963 0.562484 0.762471
O O1 0.447744 0.252832 0.183432
O O2 0.841580 0.333946 0.965929
O O3 0.899936 0.350882 0.721888
O O4 0.441668 0.399109 0.061111
O O5 0.445726 0.918440 0.974031
O O6 0.935979 0.880907 0.425900
O O7 0.000000 0.000000 0.500000
O O8 0.148324 0.033208 0.150818
O O9 0.294208 0.748319 0.235460
O O10 0.815023 0.811902 0.717411
O O11 0.958551 0.844102 0.160329
O O12 0.743913 0.001714 0.428146
O O13 0.000000 0.500000 0.500000
#
# Coordination Sequence:
#
# PCOD9252633 Si02
#       6
#     4   4   4   4   4   4
#     4  11  25  51  77 111 162 208 265 335 396 492
#     4  12  25  46  74 116 160 202 261 335 399 481
#     4  11  24  48  75 108 165 200 258 343 390 466
#     4  11  25  49  77 114 155 209 269 329 402 484
#     4  12  27  46  82 114 151 219 261 328 420 477
#     4  11  26  50  79 113 166 207 271 334 400 489
#
# _framework density 26.447690000000001
#
# number of rings (size 3 to 8) (size 9 to 14) (size 15 to 20)
#    0.000    0.667    5.000    1.000    2.333    2.667 
#    6.000    0.000    0.000    0.000    0.000    0.000 
#    0.000    0.000    0.000    0.000    0.000    0.000 
#
# Total GULP energy -133741.440018 kJ/mol
# GULP energy per Si atom -5572.560001 kJ/mol
# Density = 2.638749 g / cm^3
# Si number density = 26.447690 Si / 1000 Ang^3
#
#
#
# Elastic Constant Matrix: (Units=GPa)
#
#
# Indices 1 2 3 4 5 6 
#
# 1 136.9309 74.1542 49.7347 0.0000 -4.7020 0.0000
# 2 74.1542 173.5652 45.5876 0.0000 -3.6503 0.0000
# 3 49.7347 45.5876 121.3005 0.0000 -31.3583 0.0000
# 4 0.0000 0.0000 0.0000 50.7008 0.0000 -2.8150
# 5 -4.7020 -3.6503 -31.3583 0.0000 25.2897 0.0000
# 6 0.0000 0.0000 0.0000 -2.8150 0.0000 74.1832
#
#
#
# Elastic Compliance Matrix: (Units=1/GPa)
#
#
# Indices 1 2 3 4 5 6 
#
# 1 0.010502 -0.003552 -0.003825 0.000000 -0.003303 0.000000
# 2 -0.003552 0.007755 -0.001972 0.000000 -0.001986 0.000000
# 3 -0.003825 -0.001972 0.015153 0.000000 0.017794 0.000000
# 4 0.000000 0.000000 0.000000 0.019765 0.000000 0.000750
# 5 -0.003303 -0.001986 0.017794 0.000000 0.060705 0.000000
# 6 0.000000 0.000000 0.000000 0.000750 0.000000 0.013509
#
#
# Mechanical properties :
#
#
# Convention : Reuss Voigt Hill
#
# Bulk Modulus (GPa) = 67.96407 85.63887 76.80147
# Shear Modulus (GPa) = 33.11457 47.52273 40.31865
#
# Velocity S-wave (km/s) = 3.54231 4.24353 3.90868
# Velocity P-wave (km/s) = 6.51797 7.51405 7.03366
#
# Compressibility (1/GPa) = 0.01471366
#
# Stress axis : x y z
#
# Youngs Moduli (GPa) = 95.21702 128.94749 65.99214
#
# Poissons Ratio (x) = 0.45800 0.25243
# Poissons Ratio (y) = 0.33819 0.13011
# Poissons Ratio (z) = 0.36422 0.25423
#
# Static dielectric constant tensor:
#      x y z
#    x 2.096810 0.000000 0.025680 
#    y 0.000000 2.348190 0.000000 
#    z 0.025680 0.000000 2.116950 
# 
# From -- ./inp_files/30364.got.cif
#   From: 2010.05.17/outbox.cif.g08.bks.cpg/sg14_16_cif.got.tgz:30364.got - 2010.06.03 17:49:19.
