data_PCOD9252218
_publ_section_title
;
Structure prediction by ZEFSAII (Michael W. Deem and Ramdas Pophale) SiO2 
 PCOD9252218
Probable space group: P 21/C
;
_chemical_formula_sum "Si O2"
_cell_formula_units_Z 28
_cell_length_a 29.303345
_cell_length_b 8.679032
_cell_length_c 29.672589
_cell_angle_alpha 90.000000
_cell_angle_beta 170.595641
_cell_angle_gamma 90.000000
_cell_volume 1233.101113
_symmetry_space_group_name_H-M "P 21/C"
_symmetry_group_IT_number 14
_symmetry_cell_setting 'monoclinic'
loop_
_space_group_symop_operation_xyz
x,y,z
-x,1/2+y,1/2-z
-x,-y,-z
x,1/2-y,1/2+z
loop_
_atom_site_type_symbol
_atom_site_label
_atom_site_fract_x
_atom_site_fract_y
_atom_site_fract_z
Si Si1 0.897803 0.836155 0.762263
Si Si2 0.134150 0.380158 0.866944
Si Si3 0.387517 0.930900 0.937321
Si Si4 0.397833 0.038380 0.125025
Si Si5 0.121989 0.258576 0.588855
Si Si6 0.756726 0.550674 0.217005
Si Si7 0.408888 0.881341 0.777830
O O1 0.977977 0.915950 0.793552
O O2 0.729021 0.923143 0.637176
O O3 0.671234 0.722050 0.522327
O O4 0.145044 0.731874 0.023736
O O5 0.860112 0.419629 0.629186
O O6 0.255169 0.207189 0.993463
O O7 0.388523 0.493321 0.127187
O O8 0.563189 0.775318 0.117929
O O9 0.487962 0.036668 0.076039
O O10 0.072445 0.877118 0.620126
O O11 0.500000 0.000000 0.000000
O O12 0.594224 0.021553 0.271287
O O13 0.134939 0.287882 0.655410
O O14 0.992592 0.419995 0.448503
O O15 0.500000 0.500000 0.000000
#
# Coordination Sequence:
#
# PCOD9252218 Si02
#       7
#     4   4   4   4   4   4   4
#     4  11  24  43  70  95 127 181 227 260 339 417
#     4  11  23  45  71 100 135 175 230 282 347 419
#     4  12  23  41  63  95 129 171 224 265 327 395
#     4  11  23  46  69 102 135 179 221 289 348 411
#     4  11  24  40  61  91 133 170 214 276 328 377
#     4  11  24  44  65  92 137 179 222 283 330 398
#     4  11  24  43  70  94 135 176 222 272 336 411
#
# _framework density 22.706979
#
# number of rings (size 3 to 8) (size 9 to 14) (size 15 to 20)
#    0.000    0.857    1.429    7.286    4.000    0.000 
#    7.714    0.000    0.000    0.000    0.000    0.000 
#    0.000    0.000    0.000    0.000    0.000    0.000 
#
# Total GULP energy -155908.263992 kJ/mol
# GULP energy per Si atom -5568.152285 kJ/mol
# Density = 2.265530 g / cm^3
# Si number density = 22.706979 Si / 1000 Ang^3
#
#
#
# Elastic Constant Matrix: (Units=GPa)
#
#
# Indices 1 2 3 4 5 6 
#
# 1 111.2197 31.8636 22.0872 0.0000 -12.7807 0.0000
# 2 31.8636 55.5677 18.0910 0.0000 -3.5487 0.0000
# 3 22.0872 18.0910 109.3186 0.0000 0.1188 0.0000
# 4 0.0000 0.0000 0.0000 50.3812 0.0000 -4.4518
# 5 -12.7807 -3.5487 0.1188 0.0000 29.8637 0.0000
# 6 0.0000 0.0000 0.0000 -4.4518 0.0000 39.3797
#
#
#
# Elastic Compliance Matrix: (Units=1/GPa)
#
#
# Indices 1 2 3 4 5 6 
#
# 1 0.011413 -0.005839 -0.001344 0.000000 0.004196 0.000000
# 2 -0.005839 0.022164 -0.002488 0.000000 0.000145 0.000000
# 3 -0.001344 -0.002488 0.009832 0.000000 -0.000910 0.000000
# 4 0.000000 0.000000 0.000000 0.020049 0.000000 0.002266
# 5 0.004196 0.000145 -0.000910 0.000000 0.035302 0.000000
# 6 0.000000 0.000000 0.000000 0.002266 0.000000 0.025650
#
#
# Mechanical properties :
#
#
# Convention : Reuss Voigt Hill
#
# Bulk Modulus (GPa) = 41.55273 46.68771 44.12022
# Shear Modulus (GPa) = 32.94362 37.52920 35.23641
#
# Velocity S-wave (km/s) = 3.81309 4.06983 3.94355
# Velocity P-wave (km/s) = 6.14211 6.53378 6.34097
#
# Compressibility (1/GPa) = 0.02406581
#
# Stress axis : x y z
#
# Youngs Moduli (GPa) = 87.61820 45.11911 101.70933
#
# Poissons Ratio (x) = 0.26345 0.13672
# Poissons Ratio (y) = 0.51160 0.25308
# Poissons Ratio (z) = 0.11778 0.11227
#
# Static dielectric constant tensor:
#      x y z
#    x 1.990140 0.000000 -0.043830 
#    y 0.000000 1.930940 0.000000 
#    z -0.043830 0.000000 1.870660 
# 
# From -- ./inp_files/80914.got.cif
#   From: 2010.05.17/outbox.cif.g08.bks.cpg/sg14_41_cif.got.tgz:80914.got - 2010.06.03 17:49:19.
