data_PCOD9252174
_publ_section_title
;
Structure prediction by ZEFSAII (Michael W. Deem and Ramdas Pophale) SiO2 
 PCOD9252174
Probable space group: P 21/C
;
_chemical_formula_sum "Si O2"
_cell_formula_units_Z 26
_cell_length_a 9.827400
_cell_length_b 16.545817
_cell_length_c 8.276500
_cell_angle_alpha 90.000000
_cell_angle_beta 46.020101
_cell_angle_gamma 90.000000
_cell_volume 968.399916
_symmetry_space_group_name_H-M "P 21/C"
_symmetry_group_IT_number 14
_symmetry_cell_setting 'monoclinic'
loop_
_space_group_symop_operation_xyz
x,y,z
-x,1/2+y,1/2-z
-x,-y,-z
x,1/2-y,1/2+z
loop_
_atom_site_type_symbol
_atom_site_label
_atom_site_fract_x
_atom_site_fract_y
_atom_site_fract_z
Si Si1 0.110218 0.830366 0.511003
Si Si2 0.500000 0.500000 0.000000
Si Si3 0.121390 0.424413 0.230945
Si Si4 0.580238 0.800484 0.607379
Si Si5 0.335390 0.146062 0.122876
Si Si6 0.297951 0.512961 0.818086
Si Si7 0.202941 0.653504 0.309533
O O1 0.232611 0.898781 0.320092
O O2 0.886546 0.835424 0.671145
O O3 0.180080 0.742789 0.401133
O O4 0.144806 0.845330 0.672275
O O5 0.429387 0.641418 0.136222
O O6 0.554660 0.485821 0.153702
O O7 0.219515 0.338243 0.108593
O O8 0.117855 0.474100 0.066809
O O9 0.929703 0.404137 0.477790
O O10 0.278642 0.469768 0.207699
O O11 0.591819 0.704379 0.577588
O O12 0.551880 0.818418 0.816949
O O13 0.348185 0.050480 0.136209
#
# Coordination Sequence:
#
# PCOD9252174 Si02
#       7
#     4   2   4   4   4   4   4
#     4  12  25  45  71 109 144 195 249 315 375 450
#     4   8  18  42  76 102 138 198 234 308 368 440
#     4   9  21  43  73  99 144 187 242 297 366 440
#     4  11  23  44  71 102 143 194 245 297 370 456
#     4  11  23  44  71 100 149 193 240 315 373 439
#     4   9  22  44  75 101 148 192 247 311 374 445
#     4  12  26  43  76 106 144 194 253 302 376 452
#
# _framework density 26.848412
#
# number of rings (size 3 to 8) (size 9 to 14) (size 15 to 20)
#    0.923    0.615    1.538    3.231    2.154    0.615 
#    0.000    0.769    0.000    0.000    0.000    0.000 
#    0.000    0.000    0.000    0.000    0.000    0.000 
#
# Total GULP energy -145174.480011 kJ/mol
# GULP energy per Si atom -5583.633847 kJ/mol
# Density = 2.678730 g / cm^3
# Si number density = 26.848412 Si / 1000 Ang^3
#
#
#
# Elastic Constant Matrix: (Units=GPa)
#
#
# Indices 1 2 3 4 5 6 
#
# 1 92.6753 17.8124 32.2965 0.0000 -6.0175 0.0000
# 2 17.8124 130.1342 56.1655 0.0000 -37.5390 0.0000
# 3 32.2965 56.1655 91.8127 0.0000 -5.3966 0.0000
# 4 0.0000 0.0000 0.0000 53.3907 0.0000 -8.7904
# 5 -6.0175 -37.5390 -5.3966 0.0000 38.1397 0.0000
# 6 0.0000 0.0000 0.0000 -8.7904 0.0000 34.6930
#
#
#
# Elastic Compliance Matrix: (Units=1/GPa)
#
#
# Indices 1 2 3 4 5 6 
#
# 1 0.012443 0.001090 -0.004906 0.000000 0.002342 0.000000
# 2 0.001090 0.015532 -0.009051 0.000000 0.014178 0.000000
# 3 -0.004906 -0.009051 0.017733 0.000000 -0.007174 0.000000
# 4 0.000000 0.000000 0.000000 0.019545 0.000000 0.004952
# 5 0.002342 0.014178 -0.007174 0.000000 0.039529 0.000000
# 6 0.000000 0.000000 0.000000 0.004952 0.000000 0.030079
#
#
# Mechanical properties :
#
#
# Convention : Reuss Voigt Hill
#
# Bulk Modulus (GPa) = 50.06965 58.57456 54.32210
# Shear Modulus (GPa) = 29.89496 39.13453 34.51475
#
# Velocity S-wave (km/s) = 3.34049 3.82201 3.58933
# Velocity P-wave (km/s) = 5.79379 6.42971 6.12001
#
# Compressibility (1/GPa) = 0.01997218
#
# Stress axis : x y z
#
# Youngs Moduli (GPa) = 80.36898 64.38478 56.39258
#
# Poissons Ratio (x) = -0.07016 0.27665
# Poissons Ratio (y) = -0.08758 0.51042
# Poissons Ratio (z) = 0.39428 0.58276
#
# Static dielectric constant tensor:
#      x y z
#    x 2.134740 0.000000 -0.045780 
#    y 0.000000 2.198850 0.000000 
#    z -0.045780 0.000000 2.072700 
# 
# From -- ./inp_files/12781.got.cif
#   From: 2010.05.17/outbox.cif.g08.bks.cpg/sg14_7_cif.got.tgz:12781.got - 2010.06.03 17:49:19.
