data_PCOD9252708
_publ_section_title
;
Structure prediction by ZEFSAII (Michael W. Deem and Ramdas Pophale) SiO2 
 PCOD9252708
Probable space group: P 21/C
;
_chemical_formula_sum "Si O2"
_cell_formula_units_Z 32
_cell_length_a 11.476296
_cell_length_b 14.342209
_cell_length_c 8.320446
_cell_angle_alpha 90.000000
_cell_angle_beta 70.053631
_cell_angle_gamma 90.000000
_cell_volume 1287.353906
_symmetry_space_group_name_H-M "P 21/C"
_symmetry_group_IT_number 14
_symmetry_cell_setting 'monoclinic'
loop_
_space_group_symop_operation_xyz
x,y,z
-x,1/2+y,1/2-z
-x,-y,-z
x,1/2-y,1/2+z
loop_
_atom_site_type_symbol
_atom_site_label
_atom_site_fract_x
_atom_site_fract_y
_atom_site_fract_z
Si Si1 0.008174 0.868839 0.705984
Si Si2 0.596762 0.287359 0.867360
Si Si3 0.014950 0.663415 0.580532
Si Si4 0.765232 0.616224 0.813607
Si Si5 0.327133 0.217535 0.343025
Si Si6 0.710233 0.124204 0.999886
Si Si7 0.717397 0.062866 0.505671
Si Si8 0.261611 0.048822 0.181717
O O1 0.886221 0.932597 0.747108
O O2 0.979137 0.769651 0.636781
O O3 0.139345 0.904072 0.575592
O O4 0.026620 0.851017 0.886020
O O5 0.458923 0.289090 0.866267
O O6 0.634774 0.185263 0.907380
O O7 0.679486 0.332237 0.687194
O O8 0.625192 0.353718 0.006436
O O9 0.145327 0.643144 0.601124
O O10 0.906312 0.597992 0.697112
O O11 0.706962 0.680823 0.703908
O O12 0.698471 0.520514 0.886688
O O13 0.765445 0.675722 0.979517
O O14 0.322833 0.148339 0.191106
O O15 0.694922 0.013220 0.988861
O O16 0.702536 0.015438 0.684059
#
# Coordination Sequence:
#
# PCOD9252708 Si02
#       8
#     4   4   4   4   4   4   4   4
#     4  12  25  44  70 108 144 180 228 287 351 426
#     4  12  26  46  73  99 141 183 243 278 346 408
#     4  12  24  42  75 100 140 179 224 285 355 411
#     4  11  25  44  71  98 141 180 229 289 354 407
#     4  11  26  47  68 104 135 191 234 290 336 414
#     4  12  25  45  71 104 137 187 224 297 344 419
#     4  11  25  44  69 103 139 185 224 289 345 418
#     4  11  27  43  71 100 145 178 233 283 355 410
#
# _framework density 24.857191
#
# number of rings (size 3 to 8) (size 9 to 14) (size 15 to 20)
#    0.000    0.500    3.750    3.375    5.250    4.500 
#    0.000    0.000    0.000    0.000    0.000    0.000 
#    0.000    0.000    0.000    0.000    0.000    0.000 
#
# Total GULP energy -179466.317381 kJ/mol
# GULP energy per Si atom -5608.322418 kJ/mol
# Density = 2.480062 g / cm^3
# Si number density = 24.857191 Si / 1000 Ang^3
#
#
#
# Elastic Constant Matrix: (Units=GPa)
#
#
# Indices 1 2 3 4 5 6 
#
# 1 113.2855 12.6360 -9.5304 0.0000 9.3600 0.0000
# 2 12.6360 93.1283 0.8325 0.0000 10.5206 0.0000
# 3 -9.5304 0.8325 52.8570 0.0000 4.1546 0.0000
# 4 0.0000 0.0000 0.0000 12.1400 0.0000 -4.0124
# 5 9.3600 10.5206 4.1546 0.0000 25.1142 0.0000
# 6 0.0000 0.0000 0.0000 -4.0124 0.0000 -6.2990
#
#
#
# Elastic Compliance Matrix: (Units=1/GPa)
#
#
# Indices 1 2 3 4 5 6 
#
# 1 0.009379 -0.000901 0.001976 0.000000 -0.003445 0.000000
# 2 -0.000901 0.011360 0.000006 0.000000 -0.004424 0.000000
# 3 0.001976 0.000006 0.019588 0.000000 -0.003980 0.000000
# 4 0.000000 0.000000 0.000000 0.068047 0.000000 -0.043345
# 5 -0.003445 -0.004424 -0.003980 0.000000 0.043614 0.000000
# 6 0.000000 0.000000 0.000000 -0.043345 0.000000 -0.131146
#
#
# Mechanical properties :
#
#
# Convention : Reuss Voigt Hill
#
# Bulk Modulus (GPa) = 23.53550 29.68300 26.60925
# Shear Modulus (GPa) = 152.24735 23.21320 87.73027
#
# Velocity S-wave (km/s) = 7.83465 3.05923 5.94730
# Velocity P-wave (km/s) = 9.55674 4.94428 7.60845
#
# Compressibility (1/GPa) = 0.04248901
#
# Stress axis : x y z
#
# Youngs Moduli (GPa) = 106.62554 88.02935 51.05178
#
# Poissons Ratio (x) = 0.07932 -0.10088
# Poissons Ratio (y) = 0.09607 -0.00032
# Poissons Ratio (z) = -0.21069 -0.00056
#
# Static dielectric constant tensor:
#      x y z
#    x 1.926020 0.000000 -0.006610 
#    y 0.000000 1.958630 0.000000 
#    z -0.006610 0.000000 2.000090 
# 
# From -- ./inp_files/13305.got.cif
#   From: 2010.05.17/outbox.cif.g08.bks.cpg/sg14_7_cif.got.tgz:13305.got - 2010.06.03 17:49:19.
