data_PCOD9252832
_publ_section_title
;
Structure prediction by ZEFSAII (Michael W. Deem and Ramdas Pophale) SiO2 
 PCOD9252832
Probable space group: P 21/C
;
_chemical_formula_sum "Si O2"
_cell_formula_units_Z 20
_cell_length_a 23.933445
_cell_length_b 4.945342
_cell_length_c 9.456057
_cell_angle_alpha 90.000000
_cell_angle_beta 38.023899
_cell_angle_gamma 90.000000
_cell_volume 689.422369
_symmetry_space_group_name_H-M "P 21/C"
_symmetry_group_IT_number 14
_symmetry_cell_setting 'monoclinic'
loop_
_space_group_symop_operation_xyz
x,y,z
-x,1/2+y,1/2-z
-x,-y,-z
x,1/2-y,1/2+z
loop_
_atom_site_type_symbol
_atom_site_label
_atom_site_fract_x
_atom_site_fract_y
_atom_site_fract_z
Si Si1 0.214515 0.729105 0.999601
Si Si2 0.397526 0.129371 0.785419
Si Si3 0.589629 0.248669 0.486693
Si Si4 0.786999 0.596285 0.745967
Si Si5 0.939001 0.557331 0.869760
O O1 0.208372 0.685935 0.178444
O O2 0.130357 0.561952 0.106416
O O3 0.315902 0.623233 0.758616
O O4 0.210043 0.010445 0.924094
O O5 0.485722 0.306590 0.648803
O O6 0.400811 0.041055 0.614711
O O7 0.305384 0.264712 0.021279
O O8 0.406690 0.852680 0.859645
O O9 0.873137 0.780971 0.607062
O O10 0.994537 0.298243 0.814314
#
# Coordination Sequence:
#
# PCOD9252832 Si02
#       5
#     4   4   4   4   4
#     4  12  28  52  85 116 171 215 283 341 428 501
#     4  11  26  48  80 121 175 220 281 340 420 509
#     4  11  25  47  77 122 166 223 272 338 412 510
#     4  12  29  53  83 122 167 223 276 355 422 511
#     4  12  28  55  83 125 163 221 288 365 433 506
#
# _framework density 29.009792999999998
#
# number of rings (size 3 to 8) (size 9 to 14) (size 15 to 20)
#    0.000    0.400    4.000    2.400    2.800    6.400 
#    0.000    0.000    0.000    0.000    0.000    0.000 
#    0.000    0.000    0.000    0.000    0.000    0.000 
#
# Total GULP energy -111876.415235 kJ/mol
# GULP energy per Si atom -5593.820762 kJ/mol
# Density = 2.894377 g / cm^3
# Si number density = 29.009793 Si / 1000 Ang^3
#
#
#
# Elastic Constant Matrix: (Units=GPa)
#
#
# Indices 1 2 3 4 5 6 
#
# 1 119.5146 55.8792 69.5516 0.0000 -26.3643 0.0000
# 2 55.8792 167.8285 64.4368 0.0000 -25.6740 0.0000
# 3 69.5516 64.4368 165.6127 0.0000 -61.0014 0.0000
# 4 0.0000 0.0000 0.0000 55.7209 0.0000 4.8360
# 5 -26.3643 -25.6740 -61.0014 0.0000 61.3069 0.0000
# 6 0.0000 0.0000 0.0000 4.8360 0.0000 31.4127
#
#
#
# Elastic Compliance Matrix: (Units=1/GPa)
#
#
# Indices 1 2 3 4 5 6 
#
# 1 0.011836 -0.002388 -0.004002 0.000000 0.000108 0.000000
# 2 -0.002388 0.007491 -0.001791 0.000000 0.000328 0.000000
# 3 -0.004002 -0.001791 0.011848 0.000000 0.009318 0.000000
# 4 0.000000 0.000000 0.000000 0.018190 0.000000 -0.002800
# 5 0.000108 0.000328 0.009318 0.000000 0.025767 0.000000
# 6 0.000000 0.000000 0.000000 -0.002800 0.000000 0.032265
#
#
# Mechanical properties :
#
#
# Convention : Reuss Voigt Hill
#
# Bulk Modulus (GPa) = 67.50471 92.52121 80.01296
# Shear Modulus (GPa) = 38.85094 47.22733 43.03913
#
# Velocity S-wave (km/s) = 3.66353 4.03920 3.85594
# Velocity P-wave (km/s) = 6.41992 7.32911 6.88953
#
# Compressibility (1/GPa) = 0.01481378
#
# Stress axis : x y z
#
# Youngs Moduli (GPa) = 84.48472 133.48649 84.40381
#
# Poissons Ratio (x) = 0.31876 0.33778
# Poissons Ratio (y) = 0.20174 0.15117
# Poissons Ratio (z) = 0.33811 0.23908
#
# Static dielectric constant tensor:
#      x y z
#    x 2.244150 0.000000 -0.010860 
#    y 0.000000 2.261340 0.000000 
#    z -0.010860 0.000000 2.215370 
# 
# From -- ./inp_files/36296.got.cif
#   From: 2010.05.17/outbox.cif.g08.bks.cpg/sg14_19_cif.got.tgz:36296.got - 2010.06.03 17:49:19.
