data_PCOD9252925
_publ_section_title
;
Structure prediction by ZEFSAII (Michael W. Deem and Ramdas Pophale) SiO2 
 PCOD9252925
Probable space group: P 21/C
;
_chemical_formula_sum "Si O2"
_cell_formula_units_Z 20
_cell_length_a 11.512737
_cell_length_b 5.004986
_cell_length_c 14.508787
_cell_angle_alpha 90.000000
_cell_angle_beta 75.998997
_cell_angle_gamma 90.000000
_cell_volume 811.175413
_symmetry_space_group_name_H-M "P 21/C"
_symmetry_group_IT_number 14
_symmetry_cell_setting 'monoclinic'
loop_
_space_group_symop_operation_xyz
x,y,z
-x,1/2+y,1/2-z
-x,-y,-z
x,1/2-y,1/2+z
loop_
_atom_site_type_symbol
_atom_site_label
_atom_site_fract_x
_atom_site_fract_y
_atom_site_fract_z
Si Si1 0.918144 0.750417 0.988873
Si Si2 0.350613 0.121641 0.418768
Si Si3 0.932205 0.650048 0.276189
Si Si4 0.679564 0.703352 0.282787
Si Si5 0.392179 0.718405 0.082163
O O1 0.904362 0.749864 0.882514
O O2 0.781272 0.745357 0.048788
O O3 0.000000 0.500000 0.000000
O O4 0.000000 0.000000 0.000000
O O5 0.376978 0.111274 0.303745
O O6 0.465080 0.270024 0.440708
O O7 0.349746 0.862219 0.487273
O O8 0.820672 0.730478 0.235839
O O9 0.956716 0.335570 0.273639
O O10 0.670737 0.467450 0.358954
O O11 0.630860 0.966380 0.343618
#
# Coordination Sequence:
#
# PCOD9252925 Si02
#       5
#     4   4   4   4   4
#     4  12  27  46  72 106 141 188 242 297 360 429
#     4  11  26  48  75 108 148 191 240 303 364 424
#     4  12  25  46  69 103 143 189 239 297 355 431
#     4  12  25  47  73 106 148 191 241 296 364 432
#     4  11  27  46  74 110 146 189 244 296 360 445
#
# _framework density 24.655578999999999
#
# number of rings (size 3 to 8) (size 9 to 14) (size 15 to 20)
#    0.000    0.400    2.000    6.000    2.800    8.000 
#    0.000    0.000    0.000    0.000    0.000    0.000 
#    0.000    0.000    0.000    0.000    0.000    0.000 
#
# Total GULP energy -111883.421690 kJ/mol
# GULP energy per Si atom -5594.171085 kJ/mol
# Density = 2.459946 g / cm^3
# Si number density = 24.655579 Si / 1000 Ang^3
#
#
#
# Elastic Constant Matrix: (Units=GPa)
#
#
# Indices 1 2 3 4 5 6 
#
# 1 164.7142 41.8117 13.0223 0.0000 10.2836 0.0000
# 2 41.8117 148.5902 34.4777 0.0000 4.4676 0.0000
# 3 13.0223 34.4777 130.9571 0.0000 30.8875 0.0000
# 4 0.0000 0.0000 0.0000 28.9643 0.0000 -6.5080
# 5 10.2836 4.4676 30.8875 0.0000 46.1340 0.0000
# 6 0.0000 0.0000 0.0000 -6.5080 0.0000 32.3817
#
#
#
# Elastic Compliance Matrix: (Units=1/GPa)
#
#
# Indices 1 2 3 4 5 6 
#
# 1 0.006617 -0.001857 0.000162 0.000000 -0.001404 0.000000
# 2 -0.001857 0.007707 -0.002097 0.000000 0.001072 0.000000
# 3 0.000162 -0.002097 0.009658 0.000000 -0.006299 0.000000
# 4 0.000000 0.000000 0.000000 0.036158 0.000000 0.007267
# 5 -0.001404 0.001072 -0.006299 0.000000 0.026102 0.000000
# 6 0.000000 0.000000 0.000000 0.007267 0.000000 0.032342
#
#
# Mechanical properties :
#
#
# Convention : Reuss Voigt Hill
#
# Bulk Modulus (GPa) = 60.98624 69.20943 65.09784
# Shear Modulus (GPa) = 37.98365 45.15933 41.57149
#
# Velocity S-wave (km/s) = 3.92927 4.28437 4.11066
# Velocity P-wave (km/s) = 6.73606 7.25299 6.99930
#
# Compressibility (1/GPa) = 0.01639714
#
# Stress axis : x y z
#
# Youngs Moduli (GPa) = 151.11541 129.75269 103.54331
#
# Poissons Ratio (x) = 0.24101 -0.01678
# Poissons Ratio (y) = 0.28069 0.21714
# Poissons Ratio (z) = -0.02449 0.27211
#
# Static dielectric constant tensor:
#      x y z
#    x 2.073130 0.000000 -0.042400 
#    y 0.000000 1.725700 0.000000 
#    z -0.042400 0.000000 2.010300 
# 
# From -- ./inp_files/42447.got.cif
#   From: 2010.05.17/outbox.cif.g08.bks.cpg/sg14_22_cif.got.tgz:42447.got - 2010.06.03 17:49:19.
