data_PCOD9252097
_publ_section_title
;
Structure prediction by ZEFSAII (Michael W. Deem and Ramdas Pophale) SiO2 
 PCOD9252097
Probable space group: P 21/C
;
_chemical_formula_sum "Si O2"
_cell_formula_units_Z 28
_cell_length_a 8.434977
_cell_length_b 11.576205
_cell_length_c 12.689962
_cell_angle_alpha 90.000000
_cell_angle_beta 61.095518
_cell_angle_gamma 90.000000
_cell_volume 1084.751429
_symmetry_space_group_name_H-M "P 21/C"
_symmetry_group_IT_number 14
_symmetry_cell_setting 'monoclinic'
loop_
_space_group_symop_operation_xyz
x,y,z
-x,1/2+y,1/2-z
-x,-y,-z
x,1/2-y,1/2+z
loop_
_atom_site_type_symbol
_atom_site_label
_atom_site_fract_x
_atom_site_fract_y
_atom_site_fract_z
Si Si1 0.814024 0.227460 0.316201
Si Si2 0.018306 0.419054 0.896179
Si Si3 0.388128 0.098919 0.229802
Si Si4 0.980427 0.190445 0.045519
Si Si5 0.744433 0.977674 0.079662
Si Si6 0.448421 0.121302 0.460749
Si Si7 0.202321 0.336342 0.224071
O O1 0.602687 0.223304 0.417384
O O2 0.873733 0.106661 0.352977
O O3 0.841477 0.221896 0.182455
O O4 0.987627 0.308432 0.287319
O O5 0.195486 0.461806 0.779017
O O6 0.027622 0.296233 0.955656
O O7 0.000000 0.500000 0.000000
O O8 0.544478 0.025441 0.126032
O O9 0.424219 0.102039 0.344080
O O10 0.336364 0.228894 0.212400
O O11 0.869808 0.088964 0.023666
O O12 0.167777 0.125830 0.016184
O O13 0.759599 0.930350 0.196353
O O14 0.265220 0.145318 0.583804
O O15 0.500000 0.000000 0.500000
#
# Coordination Sequence:
#
# PCOD9252097 Si02
#       7
#     4   4   4   4   4   4   4
#     4  11  24  43  69 103 136 182 230 289 351 416
#     4  11  25  45  67 102 140 174 230 295 342 398
#     4  11  23  43  64 101 133 178 224 282 344 407
#     4  11  23  44  69  98 137 181 228 275 356 419
#     4  11  23  43  71  93 139 186 221 277 354 421
#     4  12  23  42  73  99 131 185 235 279 343 421
#     4  11  25  43  67 101 143 171 238 291 342 415
#
# _framework density 25.812363999999999
#
# number of rings (size 3 to 8) (size 9 to 14) (size 15 to 20)
#    0.000    0.857    5.714    1.714    2.000    1.143 
#    0.000    2.857    0.000    0.000    0.000    0.000 
#    0.000    0.000    0.000    0.000    0.000    0.000 
#
# Total GULP energy -156181.874330 kJ/mol
# GULP energy per Si atom -5577.924083 kJ/mol
# Density = 2.575361 g / cm^3
# Si number density = 25.812364 Si / 1000 Ang^3
#
#
#
# Elastic Constant Matrix: (Units=GPa)
#
#
# Indices 1 2 3 4 5 6 
#
# 1 50.6963 10.0410 11.6899 0.0000 -22.2075 0.0000
# 2 10.0410 93.8620 13.6563 0.0000 -14.3098 0.0000
# 3 11.6899 13.6563 113.1909 0.0000 -30.3577 0.0000
# 4 0.0000 0.0000 0.0000 31.0026 0.0000 -4.0288
# 5 -22.2075 -14.3098 -30.3577 0.0000 54.6633 0.0000
# 6 0.0000 0.0000 0.0000 -4.0288 0.0000 40.8283
#
#
#
# Elastic Compliance Matrix: (Units=1/GPa)
#
#
# Indices 1 2 3 4 5 6 
#
# 1 0.024115 -0.001146 0.000229 0.000000 0.009624 0.000000
# 2 -0.001146 0.011193 -0.000671 0.000000 0.002092 0.000000
# 3 0.000229 -0.000671 0.010422 0.000000 0.005705 0.000000
# 4 0.000000 0.000000 0.000000 0.032674 0.000000 0.003224
# 5 0.009624 0.002092 0.005705 0.000000 0.025920 0.000000
# 6 0.000000 0.000000 0.000000 0.003224 0.000000 0.024811
#
#
# Mechanical properties :
#
#
# Convention : Reuss Voigt Hill
#
# Bulk Modulus (GPa) = 23.49914 36.50262 30.00088
# Shear Modulus (GPa) = 34.13050 40.12297 37.12674
#
# Velocity S-wave (km/s) = 3.64023 3.94688 3.79665
# Velocity P-wave (km/s) = 5.17609 5.91123 5.55583
#
# Compressibility (1/GPa) = 0.04255474
#
# Stress axis : x y z
#
# Youngs Moduli (GPa) = 41.46735 89.34093 95.94981
#
# Poissons Ratio (x) = 0.10237 -0.02196
# Poissons Ratio (y) = 0.04751 0.06439
# Poissons Ratio (z) = -0.00949 0.05995
#
# Static dielectric constant tensor:
#      x y z
#    x 2.096930 0.000000 -0.061670 
#    y 0.000000 2.112370 0.000000 
#    z -0.061670 0.000000 2.037010 
# 
# From -- ./inp_files/40230.got.cif
#   From: 2010.05.17/outbox.cif.g08.bks.cpg/sg14_21_cif.got.tgz:40230.got - 2010.06.03 17:49:19.
