data_PCOD9252140
_publ_section_title
;
Structure prediction by ZEFSAII (Michael W. Deem and Ramdas Pophale) SiO2 
 PCOD9252140
Probable space group: P 21/C
;
_chemical_formula_sum "Si O2"
_cell_formula_units_Z 24
_cell_length_a 14.203899
_cell_length_b 8.611775
_cell_length_c 9.012788
_cell_angle_alpha 90.000000
_cell_angle_beta 81.764421
_cell_angle_gamma 90.000000
_cell_volume 1091.082219
_symmetry_space_group_name_H-M "P 21/C"
_symmetry_group_IT_number 14
_symmetry_cell_setting 'monoclinic'
loop_
_space_group_symop_operation_xyz
x,y,z
-x,1/2+y,1/2-z
-x,-y,-z
x,1/2-y,1/2+z
loop_
_atom_site_type_symbol
_atom_site_label
_atom_site_fract_x
_atom_site_fract_y
_atom_site_fract_z
Si Si1 0.392159 0.866746 0.408437
Si Si2 0.029787 0.413157 0.845233
Si Si3 0.280205 0.139504 0.941508
Si Si4 0.080757 0.053285 0.871042
Si Si5 0.243836 0.046778 0.280347
Si Si6 0.570566 0.058215 0.264929
O O1 0.430779 0.699693 0.350317
O O2 0.384871 0.887236 0.587230
O O3 0.295940 0.900228 0.340016
O O4 0.467264 0.994001 0.331481
O O5 0.054541 0.231846 0.843144
O O6 0.132385 0.482837 0.775308
O O7 0.939686 0.445368 0.763038
O O8 0.000000 0.500000 0.000000
O O9 0.186584 0.047571 0.907797
O O10 0.258350 0.317078 0.900450
O O11 0.368819 0.076341 0.828289
O O12 0.288151 0.108742 0.115398
O O13 0.000000 0.000000 0.000000
#
# Coordination Sequence:
#
# PCOD9252140 Si02
#       6
#     4   4   4   4   4   4
#     4  11  25  44  68  98 133 167 218 265 328 390
#     4  11  25  40  67  95 131 179 221 278 333 396
#     4  11  24  42  68  93 132 174 217 270 327 391
#     4  11  23  44  63  95 133 173 225 273 334 396
#     4  11  24  43  66  96 129 174 219 268 329 391
#     4  11  25  44  68  99 130 172 212 270 325 390
#
# _framework density 21.996509
#
# number of rings (size 3 to 8) (size 9 to 14) (size 15 to 20)
#    0.000    1.000    1.667    4.000    9.333    8.000 
#    0.000    0.000    0.000    0.000    0.000    0.000 
#    0.000    0.000    0.000    0.000    0.000    0.000 
#
# Total GULP energy -134152.446450 kJ/mol
# GULP energy per Si atom -5589.685269 kJ/mol
# Density = 2.194644 g / cm^3
# Si number density = 21.996509 Si / 1000 Ang^3
#
#
#
# Elastic Constant Matrix: (Units=GPa)
#
#
# Indices 1 2 3 4 5 6 
#
# 1 53.2293 -3.8142 -7.9932 0.0000 -1.5479 0.0000
# 2 -3.8142 33.9177 -22.8380 0.0000 2.2609 0.0000
# 3 -7.9932 -22.8380 72.5808 0.0000 -5.4562 0.0000
# 4 0.0000 0.0000 0.0000 29.3021 0.0000 -3.1637
# 5 -1.5479 2.2609 -5.4562 0.0000 32.5096 0.0000
# 6 0.0000 0.0000 0.0000 -3.1637 0.0000 37.8066
#
#
#
# Elastic Compliance Matrix: (Units=1/GPa)
#
#
# Indices 1 2 3 4 5 6 
#
# 1 0.019715 0.004643 0.003725 0.000000 0.001241 0.000000
# 2 0.004643 0.038515 0.012605 0.000000 -0.000342 0.000000
# 3 0.003725 0.012605 0.018333 0.000000 0.002378 0.000000
# 4 0.000000 0.000000 0.000000 0.034438 0.000000 0.002882
# 5 0.001241 -0.000342 0.002378 0.000000 0.031242 0.000000
# 6 0.000000 0.000000 0.000000 0.002882 0.000000 0.026692
#
#
# Mechanical properties :
#
#
# Convention : Reuss Voigt Hill
#
# Bulk Modulus (GPa) = 8.43826 10.04857 9.24341
# Shear Modulus (GPa) = 30.03142 32.88188 31.45665
#
# Velocity S-wave (km/s) = 3.69898 3.87055 3.78574
# Velocity P-wave (km/s) = 4.69976 4.95510 4.82912
#
# Compressibility (1/GPa) = 0.11850784
#
# Stress axis : x y z
#
# Youngs Moduli (GPa) = 50.72332 25.96383 54.54689
#
# Poissons Ratio (x) = -0.12054 -0.20320
# Poissons Ratio (y) = -0.23549 -0.68754
# Poissons Ratio (z) = -0.18896 -0.32726
#
# Static dielectric constant tensor:
#      x y z
#    x 1.732220 0.000000 -0.058770 
#    y 0.000000 1.800880 0.000000 
#    z -0.058770 0.000000 1.695950 
# 
# From -- ./inp_files/15048.got.cif
#   From: 2010.05.17/outbox.cif.g08.bks.cpg/sg14_8_cif.got.tgz:15048.got - 2010.06.03 17:49:19.
