data_PCOD9252581
_publ_section_title
;
Structure prediction by ZEFSAII (Michael W. Deem and Ramdas Pophale) SiO2 
 PCOD9252581
Probable space group: P 21/C
;
_chemical_formula_sum "Si O2"
_cell_formula_units_Z 30
_cell_length_a 5.286835
_cell_length_b 20.092011
_cell_length_c 11.902981
_cell_angle_alpha 90.000000
_cell_angle_beta 61.623244
_cell_angle_gamma 90.000000
_cell_volume 1112.446987
_symmetry_space_group_name_H-M "P 21/C"
_symmetry_group_IT_number 14
_symmetry_cell_setting 'monoclinic'
loop_
_space_group_symop_operation_xyz
x,y,z
-x,1/2+y,1/2-z
-x,-y,-z
x,1/2-y,1/2+z
loop_
_atom_site_type_symbol
_atom_site_label
_atom_site_fract_x
_atom_site_fract_y
_atom_site_fract_z
Si Si1 0.284936 0.857799 0.989648
Si Si2 0.604689 0.000828 0.650953
Si Si3 0.974138 0.536664 0.286386
Si Si4 0.427316 0.112351 0.529641
Si Si5 0.132205 0.175375 0.260828
Si Si6 0.882845 0.318752 0.242851
Si Si7 0.000000 0.000000 0.000000
Si Si8 0.835256 0.214112 0.513410
O O1 0.312727 0.847819 0.117869
O O2 0.566227 0.844680 0.856170
O O3 0.101301 0.791814 0.998859
O O4 0.131644 0.925353 0.994137
O O5 0.816873 0.992929 0.710792
O O6 0.631625 0.938771 0.559632
O O7 0.271286 0.999294 0.763730
O O8 0.627856 0.066421 0.569777
O O9 0.053824 0.612060 0.239125
O O10 0.800959 0.530622 0.436534
O O11 0.136645 0.130469 0.657010
O O12 0.588017 0.183659 0.484888
O O13 0.023846 0.247418 0.244812
O O14 0.114947 0.179865 0.399839
O O15 0.729136 0.305236 0.158237
#
# Coordination Sequence:
#
# PCOD9252581 Si02
#       8
#     4   4   4   4   4   4   2   4
#     4  11  26  49  74 117 159 220 270 340 424 508
#     4  11  27  44  81 111 160 201 278 341 426 480
#     4  12  26  50  73 113 157 221 269 340 409 508
#     4  11  24  46  75 117 151 206 261 352 408 497
#     4  11  24  47  75 110 157 212 272 342 415 497
#     4  11  25  45  75 114 155 204 276 342 406 501
#     4  12  28  48  76 110 168 222 276 330 422 522
#     4  11  24  48  79 114 158 205 281 346 417 490
#
# _framework density 26.967580000000002
#
# number of rings (size 3 to 8) (size 9 to 14) (size 15 to 20)
#    0.000    0.800    2.667    3.200    3.733    4.267 
#    2.400    0.000    0.000    0.000    0.000    0.000 
#    0.000    0.000    0.000    0.000    0.000    0.000 
#
# Total GULP energy -167480.914334 kJ/mol
# GULP energy per Si atom -5582.697144 kJ/mol
# Density = 2.690620 g / cm^3
# Si number density = 26.967580 Si / 1000 Ang^3
#
#
#
# Elastic Constant Matrix: (Units=GPa)
#
#
# Indices 1 2 3 4 5 6 
#
# 1 78.1989 31.5491 30.3227 0.0000 13.9560 0.0000
# 2 31.5491 177.5359 6.9935 0.0000 9.2882 0.0000
# 3 30.3227 6.9935 95.0720 0.0000 15.0374 0.0000
# 4 0.0000 0.0000 0.0000 45.1130 0.0000 -1.1487
# 5 13.9560 9.2882 15.0374 0.0000 57.6374 0.0000
# 6 0.0000 0.0000 0.0000 -1.1487 0.0000 35.0480
#
#
#
# Elastic Compliance Matrix: (Units=1/GPa)
#
#
# Indices 1 2 3 4 5 6 
#
# 1 0.015984 -0.002542 -0.004552 0.000000 -0.002273 0.000000
# 2 -0.002542 0.006092 0.000439 0.000000 -0.000481 0.000000
# 3 -0.004552 0.000439 0.012281 0.000000 -0.002173 0.000000
# 4 0.000000 0.000000 0.000000 0.022185 0.000000 0.000727
# 5 -0.002273 -0.000481 -0.002173 0.000000 0.018545 0.000000
# 6 0.000000 0.000000 0.000000 0.000727 0.000000 0.028556
#
#
# Mechanical properties :
#
#
# Convention : Reuss Voigt Hill
#
# Bulk Modulus (GPa) = 47.51095 54.28193 50.89644
# Shear Modulus (GPa) = 40.33244 46.35579 43.34412
#
# Velocity S-wave (km/s) = 3.87148 4.15051 4.01342
# Velocity P-wave (km/s) = 6.13519 6.56820 6.35539
#
# Compressibility (1/GPa) = 0.02104778
#
# Stress axis : x y z
#
# Youngs Moduli (GPa) = 62.56191 164.14153 81.42384
#
# Poissons Ratio (x) = 0.41729 0.37060
# Poissons Ratio (y) = 0.15905 -0.03572
# Poissons Ratio (z) = 0.28475 -0.07201
#
# Static dielectric constant tensor:
#      x y z
#    x 2.000080 0.000000 0.257260 
#    y 0.000000 2.065660 0.000000 
#    z 0.257260 0.000000 1.779830 
# 
# From -- ./inp_files/21759.got.cif
#   From: 2010.05.17/outbox.cif.g08.bks.cpg/sg14_11_cif.got.tgz:21759.got - 2010.06.03 17:49:19.
