data_PCOD9252892
_publ_section_title
;
Structure prediction by ZEFSAII (Michael W. Deem and Ramdas Pophale) SiO2 
 PCOD9252892
Probable space group: P 21/C
;
_chemical_formula_sum "Si O2"
_cell_formula_units_Z 22
_cell_length_a 15.829341
_cell_length_b 4.810846
_cell_length_c 10.409294
_cell_angle_alpha 90.000000
_cell_angle_beta 78.967692
_cell_angle_gamma 90.000000
_cell_volume 778.044555
_symmetry_space_group_name_H-M "P 21/C"
_symmetry_group_IT_number 14
_symmetry_cell_setting 'monoclinic'
loop_
_space_group_symop_operation_xyz
x,y,z
-x,1/2+y,1/2-z
-x,-y,-z
x,1/2-y,1/2+z
loop_
_atom_site_type_symbol
_atom_site_label
_atom_site_fract_x
_atom_site_fract_y
_atom_site_fract_z
Si Si1 0.005832 0.188653 0.158342
Si Si2 0.728843 0.498048 0.271453
Si Si3 0.466168 0.032540 0.249215
Si Si4 0.137528 0.521338 0.950861
Si Si5 0.293718 0.004449 0.573025
Si Si6 0.500000 0.000000 0.500000
O O1 0.927100 0.247823 0.084356
O O2 0.988942 0.378988 0.289750
O O3 0.086875 0.317200 0.059929
O O4 0.637320 0.549642 0.228991
O O5 0.817244 0.610801 0.186710
O O6 0.731097 0.169686 0.292823
O O7 0.719670 0.668397 0.405808
O O8 0.502028 0.770119 0.143455
O O9 0.501117 0.794832 0.353688
O O10 0.225356 0.615097 0.993109
O O11 0.394144 0.969616 0.528051
#
# Coordination Sequence:
#
# PCOD9252892 Si02
#       6
#     4   4   4   4   4   2
#     4  11  26  49  75 104 136 172 221 276 340 411
#     4  12  25  44  64 100 136 177 227 279 330 397
#     4  12  24  43  64  93 134 182 229 278 328 390
#     4  11  26  46  74 103 136 178 219 278 342 397
#     4  12  27  42  68 100 138 179 231 275 328 399
#     4  12  24  44  66  96 136 188 226 274 338 380
#
# _framework density 28.276012000000001
#
# number of rings (size 3 to 8) (size 9 to 14) (size 15 to 20)
#    0.000    0.364    5.455    2.182    0.000   10.182 
#    0.000    0.000    0.000    0.000    0.000    0.000 
#    0.000    0.000    0.000    0.000    0.000    0.000 
#
# Total GULP energy -122942.397541 kJ/mol
# GULP energy per Si atom -5588.290797 kJ/mol
# Density = 2.821165 g / cm^3
# Si number density = 28.276012 Si / 1000 Ang^3
#
#
#
# Elastic Constant Matrix: (Units=GPa)
#
#
# Indices 1 2 3 4 5 6 
#
# 1 212.3984 28.5536 60.9547 0.0000 4.1634 0.0000
# 2 28.5536 181.5923 13.0113 0.0000 -2.3943 0.0000
# 3 60.9547 13.0113 119.2911 0.0000 -8.6140 0.0000
# 4 0.0000 0.0000 0.0000 42.4183 0.0000 2.9422
# 5 4.1634 -2.3943 -8.6140 0.0000 73.3111 0.0000
# 6 0.0000 0.0000 0.0000 2.9422 0.0000 17.7175
#
#
#
# Elastic Compliance Matrix: (Units=1/GPa)
#
#
# Indices 1 2 3 4 5 6 
#
# 1 0.005633 -0.000690 -0.002852 0.000000 -0.000678 0.000000
# 2 -0.000690 0.005636 -0.000248 0.000000 0.000194 0.000000
# 3 -0.002852 -0.000248 0.009963 0.000000 0.001324 0.000000
# 4 0.000000 0.000000 0.000000 0.023849 0.000000 -0.003961
# 5 -0.000678 0.000194 0.001324 0.000000 0.013841 0.000000
# 6 0.000000 0.000000 0.000000 -0.003961 0.000000 0.057099
#
#
# Mechanical properties :
#
#
# Convention : Reuss Voigt Hill
#
# Bulk Modulus (GPa) = 73.25447 79.81344 76.53395
# Shear Modulus (GPa) = 39.01656 54.07353 46.54504
#
# Velocity S-wave (km/s) = 3.71866 4.37778 4.06161
# Velocity P-wave (km/s) = 6.66341 7.33765 7.00864
#
# Compressibility (1/GPa) = 0.01365104
#
# Stress axis : x y z
#
# Youngs Moduli (GPa) = 177.53737 177.44008 100.37420
#
# Poissons Ratio (x) = 0.12248 0.28624
# Poissons Ratio (y) = 0.12255 0.02489
# Poissons Ratio (z) = 0.50629 0.04400
#
# Static dielectric constant tensor:
#      x y z
#    x 2.056080 0.000000 0.292220 
#    y 0.000000 5.341870 0.000000 
#    z 0.292220 0.000000 3.019330 
# 
# From -- ./inp_files/31073.got.cif
#   From: 2010.05.17/outbox.cif.g08.bks.cpg/sg14_16_cif.got.tgz:31073.got - 2010.06.03 17:49:19.
