data_PCOD9252175
_publ_section_title
;
Structure prediction by ZEFSAII (Michael W. Deem and Ramdas Pophale) SiO2 
 PCOD9252175
Probable space group: P 21/C
;
_chemical_formula_sum "Si O2"
_cell_formula_units_Z 20
_cell_length_a 8.275125
_cell_length_b 18.193073
_cell_length_c 8.848804
_cell_angle_alpha 90.000000
_cell_angle_beta 134.842527
_cell_angle_gamma 90.000000
_cell_volume 944.583930
_symmetry_space_group_name_H-M "P 21/C"
_symmetry_group_IT_number 14
_symmetry_cell_setting 'monoclinic'
loop_
_space_group_symop_operation_xyz
x,y,z
-x,1/2+y,1/2-z
-x,-y,-z
x,1/2-y,1/2+z
loop_
_atom_site_type_symbol
_atom_site_label
_atom_site_fract_x
_atom_site_fract_y
_atom_site_fract_z
Si Si1 0.374841 0.621249 0.065694
Si Si2 0.105205 0.004412 0.235594
Si Si3 0.759552 0.672241 0.130318
Si Si4 0.096302 0.188122 0.618607
Si Si5 0.655523 0.935317 0.037965
O O1 0.507840 0.676579 0.040457
O O2 0.549546 0.590961 0.308271
O O3 0.296977 0.554106 0.906768
O O4 0.153086 0.653940 0.006192
O O5 0.175036 0.087214 0.310985
O O6 0.895069 0.977277 0.195555
O O7 0.000000 0.000000 0.000000
O O8 0.907629 0.728920 0.324187
O O9 0.815156 0.690387 0.994182
O O10 0.285437 0.138513 0.830598
O O11 0.500000 0.000000 0.000000
#
# Coordination Sequence:
#
# PCOD9252175 Si02
#       5
#     4   4   4   4   4
#     4  11  25  47  70 101 139 180 232 286 347 408
#     4  11  24  42  72 103 133 179 241 282 335 423
#     4  12  25  47  71  98 143 185 226 287 357 404
#     4  11  28  45  67 107 139 179 235 285 344 427
#     4  11  23  44  71 101 137 180 232 285 347 408
#
# _framework density 21.173342999999999
#
# number of rings (size 3 to 8) (size 9 to 14) (size 15 to 20)
#    0.000    0.800    2.000    4.200    5.600    8.000 
#    0.000    0.000    0.000    0.000    0.000    0.000 
#    0.000    0.000    0.000    0.000    0.000    0.000 
#
# Total GULP energy -111580.416294 kJ/mol
# GULP energy per Si atom -5579.020815 kJ/mol
# Density = 2.112515 g / cm^3
# Si number density = 21.173343 Si / 1000 Ang^3
#
#
#
# Elastic Constant Matrix: (Units=GPa)
#
#
# Indices 1 2 3 4 5 6 
#
# 1 132.0677 34.3068 44.8129 0.0000 -7.2975 0.0000
# 2 34.3068 74.6968 10.8890 0.0000 1.7815 0.0000
# 3 44.8129 10.8890 82.2892 0.0000 -11.5493 0.0000
# 4 0.0000 0.0000 0.0000 37.9539 0.0000 -2.6254
# 5 -7.2975 1.7815 -11.5493 0.0000 39.0022 0.0000
# 6 0.0000 0.0000 0.0000 -2.6254 0.0000 28.5162
#
#
#
# Elastic Compliance Matrix: (Units=1/GPa)
#
#
# Indices 1 2 3 4 5 6 
#
# 1 0.010359 -0.004042 -0.005017 0.000000 0.000637 0.000000
# 2 -0.004042 0.015282 -0.000026 0.000000 -0.001462 0.000000
# 3 -0.005017 -0.000026 0.015396 0.000000 0.003622 0.000000
# 4 0.000000 0.000000 0.000000 0.026517 0.000000 0.002441
# 5 0.000637 -0.001462 0.003622 0.000000 0.026898 0.000000
# 6 0.000000 0.000000 0.000000 0.002441 0.000000 0.035293
#
#
# Mechanical properties :
#
#
# Convention : Reuss Voigt Hill
#
# Bulk Modulus (GPa) = 43.73035 52.11900 47.92468
# Shear Modulus (GPa) = 32.14635 34.36413 33.25524
#
# Velocity S-wave (km/s) = 3.90070 4.03301 3.96740
# Velocity P-wave (km/s) = 6.40200 6.80850 6.60837
#
# Compressibility (1/GPa) = 0.02286741
#
# Stress axis : x y z
#
# Youngs Moduli (GPa) = 96.53046 65.43450 64.95047
#
# Poissons Ratio (x) = 0.26447 0.32587
# Poissons Ratio (y) = 0.39015 0.00172
# Poissons Ratio (z) = 0.48432 0.00173
#
# Static dielectric constant tensor:
#      x y z
#    x 2.280650 0.000000 0.377460 
#    y 0.000000 1.794500 0.000000 
#    z 0.377460 0.000000 2.131230 
# 
# From -- ./inp_files/6053.got.cif
#   From: 2010.05.17/outbox.cif.g08.bks.cpg/sg14_4_cif.got.tgz:6053.got - 2010.06.03 17:49:19.
