data_PCOD9252875
_publ_section_title
;
Structure prediction by ZEFSAII (Michael W. Deem and Ramdas Pophale) SiO2 
 PCOD9252875
Probable space group: P 21/C
;
_chemical_formula_sum "Si O2"
_cell_formula_units_Z 24
_cell_length_a 5.137722
_cell_length_b 20.783433
_cell_length_c 8.745313
_cell_angle_alpha 90.000000
_cell_angle_beta 101.560530
_cell_angle_gamma 90.000000
_cell_volume 914.876249
_symmetry_space_group_name_H-M "P 21/C"
_symmetry_group_IT_number 14
_symmetry_cell_setting 'monoclinic'
loop_
_space_group_symop_operation_xyz
x,y,z
-x,1/2+y,1/2-z
-x,-y,-z
x,1/2-y,1/2+z
loop_
_atom_site_type_symbol
_atom_site_label
_atom_site_fract_x
_atom_site_fract_y
_atom_site_fract_z
Si Si1 0.230913 0.955506 0.095191
Si Si2 0.053288 0.362260 0.226158
Si Si3 0.908255 0.881740 0.603523
Si Si4 0.446695 0.963413 0.654914
Si Si5 0.478789 0.668530 0.499974
Si Si6 0.236940 0.741484 0.227200
O O1 0.311375 0.897391 0.992027
O O2 0.120925 0.921318 0.236077
O O3 0.488258 0.993222 0.188815
O O4 0.000000 0.000000 0.000000
O O5 0.243711 0.347101 0.390277
O O6 0.878661 0.298720 0.182344
O O7 0.195645 0.376425 0.083690
O O8 0.158369 0.930875 0.625648
O O9 0.018347 0.812659 0.667317
O O10 0.677947 0.909673 0.680983
O O11 0.500000 0.000000 0.500000
O O12 0.472292 0.703368 0.338307
O O13 0.340104 0.719942 0.594740
#
# Coordination Sequence:
#
# PCOD9252875 Si02
#       6
#     4   4   4   4   4   4
#     4  11  26  46  68 104 146 190 249 307 373 441
#     4  11  26  44  72 104 145 192 246 310 364 449
#     4  12  27  47  77 106 148 195 245 307 372 442
#     4  12  26  47  75 106 144 195 249 299 369 444
#     4  11  26  45  73 101 147 192 244 309 373 440
#     4  11  26  46  69 108 141 196 241 307 372 445
#
# _framework density 26.233056000000001
#
# number of rings (size 3 to 8) (size 9 to 14) (size 15 to 20)
#    0.000    0.667    3.333    2.500   11.667    0.667 
#    0.000    0.000    0.000    0.000    0.000    0.000 
#    0.000    0.000    0.000    0.000    0.000    0.000 
#
# Total GULP energy -134712.325760 kJ/mol
# GULP energy per Si atom -5613.013573 kJ/mol
# Density = 2.617335 g / cm^3
# Si number density = 26.233056 Si / 1000 Ang^3
#
#
#
# Elastic Constant Matrix: (Units=GPa)
#
#
# Indices 1 2 3 4 5 6 
#
# 1 83.3469 42.0028 6.8145 0.0000 16.9113 0.0000
# 2 42.0028 162.7049 61.0059 0.0000 4.9069 0.0000
# 3 6.8145 61.0059 87.3827 0.0000 22.0028 0.0000
# 4 0.0000 0.0000 0.0000 17.0481 0.0000 -0.3696
# 5 16.9113 4.9069 22.0028 0.0000 35.3636 0.0000
# 6 0.0000 0.0000 0.0000 -0.3696 0.0000 42.7210
#
#
#
# Elastic Compliance Matrix: (Units=1/GPa)
#
#
# Indices 1 2 3 4 5 6 
#
# 1 0.016804 -0.006143 0.005677 0.000000 -0.010715 0.000000
# 2 -0.006143 0.010833 -0.008829 0.000000 0.006928 0.000000
# 3 0.005677 -0.008829 0.020798 0.000000 -0.014430 0.000000
# 4 0.000000 0.000000 0.000000 0.058669 0.000000 0.000508
# 5 -0.010715 0.006928 -0.014430 0.000000 0.041419 0.000000
# 6 0.000000 0.000000 0.000000 0.000508 0.000000 0.023412
#
#
# Mechanical properties :
#
#
# Convention : Reuss Voigt Hill
#
# Bulk Modulus (GPa) = 33.50630 61.45343 47.47986
# Shear Modulus (GPa) = 24.94090 33.93396 29.43743
#
# Velocity S-wave (km/s) = 3.08676 3.60051 3.35349
# Velocity P-wave (km/s) = 5.05019 6.38449 5.75613
#
# Compressibility (1/GPa) = 0.02984513
#
# Stress axis : x y z
#
# Youngs Moduli (GPa) = 59.50963 92.30789 48.08095
#
# Poissons Ratio (x) = 0.56707 -0.27293
# Poissons Ratio (y) = 0.36558 0.42448
# Poissons Ratio (z) = -0.33781 0.81494
#
# Static dielectric constant tensor:
#      x y z
#    x 2.018410 0.000000 0.008230 
#    y 0.000000 2.049070 0.000000 
#    z 0.008230 0.000000 2.030300 
# 
# From -- ./inp_files/21294.got.cif
#   From: 2010.05.17/outbox.cif.g08.bks.cpg/sg14_11_cif.got.tgz:21294.got - 2010.06.03 17:49:19.
