data_PCOD9252650
_publ_section_title
;
Structure prediction by ZEFSAII (Michael W. Deem and Ramdas Pophale) SiO2 
 PCOD9252650
Probable space group: P 21/C
;
_chemical_formula_sum "Si O2"
_cell_formula_units_Z 28
_cell_length_a 4.747241
_cell_length_b 9.336109
_cell_length_c 24.871178
_cell_angle_alpha 90.000000
_cell_angle_beta 83.649143
_cell_angle_gamma 90.000000
_cell_volume 1095.544801
_symmetry_space_group_name_H-M "P 21/C"
_symmetry_group_IT_number 14
_symmetry_cell_setting 'monoclinic'
loop_
_space_group_symop_operation_xyz
x,y,z
-x,1/2+y,1/2-z
-x,-y,-z
x,1/2-y,1/2+z
loop_
_atom_site_type_symbol
_atom_site_label
_atom_site_fract_x
_atom_site_fract_y
_atom_site_fract_z
Si Si1 0.922881 0.350652 0.113919
Si Si2 0.500000 0.000000 0.000000
Si Si3 0.000000 0.500000 0.000000
Si Si4 0.530082 0.110589 0.794356
Si Si5 0.993805 0.764728 0.671254
Si Si6 0.358212 0.046722 0.678042
Si Si7 0.600497 0.437549 0.595567
Si Si8 0.012178 0.189490 0.951484
O O1 0.651545 0.444065 0.139479
O O2 0.785573 0.199410 0.102200
O O3 0.157380 0.331199 0.155646
O O4 0.047008 0.433380 0.060035
O O5 0.647460 0.914834 0.941917
O O6 0.733467 0.137017 0.986975
O O7 0.097872 0.343600 0.971972
O O8 0.854908 0.155096 0.791088
O O9 0.442389 0.058916 0.738132
O O10 0.337465 0.250684 0.810764
O O11 0.468629 0.005582 0.845587
O O12 0.048957 0.707385 0.610353
O O13 0.152699 0.912424 0.674085
O O14 0.739007 0.566369 0.552630
#
# Coordination Sequence:
#
# PCOD9252650 Si02
#       8
#     4   2   2   4   4   4   4   4
#     4  12  29  48  75 115 153 198 256 318 384 460
#     4  12  22  44  74 106 148 198 250 314 372 464
#     4  12  26  48  76 116 152 206 246 334 382 460
#     4  11  26  45  78 101 150 197 252 306 382 449
#     4  11  24  49  71 108 144 196 245 310 376 447
#     4  12  28  48  74 112 151 197 257 317 378 458
#     4  11  27  45  73 111 148 201 252 310 377 463
#     4  11  25  47  73 106 152 196 258 305 394 453
#
# _framework density 25.558062
#
# number of rings (size 3 to 8) (size 9 to 14) (size 15 to 20)
#    0.000    0.571    4.286    2.143    8.000    0.571 
#    0.000    0.000    0.000    0.000    0.000    0.000 
#    0.000    0.000    0.000    0.000    0.000    0.000 
#
# Total GULP energy -155961.875725 kJ/mol
# GULP energy per Si atom -5570.066990 kJ/mol
# Density = 2.549989 g / cm^3
# Si number density = 25.558062 Si / 1000 Ang^3
#
#
#
# Elastic Constant Matrix: (Units=GPa)
#
#
# Indices 1 2 3 4 5 6 
#
# 1 67.2857 18.7970 23.8978 0.0000 10.8622 0.0000
# 2 18.7970 90.6717 24.9027 0.0000 9.1313 0.0000
# 3 23.8978 24.9027 168.2610 0.0000 34.3814 0.0000
# 4 0.0000 0.0000 0.0000 33.4987 0.0000 9.3345
# 5 10.8622 9.1313 34.3814 0.0000 40.8017 0.0000
# 6 0.0000 0.0000 0.0000 9.3345 0.0000 26.5267
#
#
#
# Elastic Compliance Matrix: (Units=1/GPa)
#
#
# Indices 1 2 3 4 5 6 
#
# 1 0.016560 -0.002784 -0.001409 0.000000 -0.002598 0.000000
# 2 -0.002784 0.012029 -0.001191 0.000000 -0.000947 0.000000
# 3 -0.001409 -0.001191 0.007476 0.000000 -0.005658 0.000000
# 4 0.000000 0.000000 0.000000 0.033097 0.000000 -0.011647
# 5 -0.002598 -0.000947 -0.005658 0.000000 0.030180 0.000000
# 6 0.000000 0.000000 0.000000 -0.011647 0.000000 0.041796
#
#
# Mechanical properties :
#
#
# Convention : Reuss Voigt Hill
#
# Bulk Modulus (GPa) = 39.53410 51.26816 45.40113
# Shear Modulus (GPa) = 31.18413 37.40679 34.29546
#
# Velocity S-wave (km/s) = 3.49682 3.82985 3.66712
# Velocity P-wave (km/s) = 5.63965 6.29762 5.97770
#
# Compressibility (1/GPa) = 0.02529462
#
# Stress axis : x y z
#
# Youngs Moduli (GPa) = 60.38759 83.13546 133.76836
#
# Poissons Ratio (x) = 0.23148 0.18848
# Poissons Ratio (y) = 0.16814 0.15936
# Poissons Ratio (z) = 0.08508 0.09904
#
# Static dielectric constant tensor:
#      x y z
#    x 2.087920 0.000000 0.086610 
#    y 0.000000 2.076300 0.000000 
#    z 0.086610 0.000000 2.020210 
# 
# From -- ./inp_files/75670.got.cif
#   From: 2010.05.17/outbox.cif.g08.bks.cpg/sg14_38_cif.got.tgz:75670.got - 2010.06.03 17:49:19.
