data_PCOD9252493
_publ_section_title
;
Structure prediction by ZEFSAII (Michael W. Deem and Ramdas Pophale) SiO2 
 PCOD9252493
Probable space group: P 21/C
;
_chemical_formula_sum "Si O2"
_cell_formula_units_Z 20
_cell_length_a 5.132592
_cell_length_b 16.974236
_cell_length_c 10.207041
_cell_angle_alpha 90.000000
_cell_angle_beta 94.298830
_cell_angle_gamma 90.000000
_cell_volume 886.754294
_symmetry_space_group_name_H-M "P 21/C"
_symmetry_group_IT_number 14
_symmetry_cell_setting 'monoclinic'
loop_
_space_group_symop_operation_xyz
x,y,z
-x,1/2+y,1/2-z
-x,-y,-z
x,1/2-y,1/2+z
loop_
_atom_site_type_symbol
_atom_site_label
_atom_site_fract_x
_atom_site_fract_y
_atom_site_fract_z
Si Si1 0.000125 0.939050 0.883133
Si Si2 0.216292 0.009062 0.621685
Si Si3 0.417337 0.128311 0.311900
Si Si4 0.728926 0.218919 0.134881
Si Si5 0.220212 0.183795 0.557852
O O1 0.724070 0.903542 0.823827
O O2 0.177567 0.863556 0.923517
O O3 0.102696 0.983006 0.757437
O O4 0.000000 0.000000 0.000000
O O5 0.287534 0.100797 0.628791
O O6 0.447184 0.945686 0.612078
O O7 0.000000 0.000000 0.500000
O O8 0.635142 0.191529 0.276813
O O9 0.202892 0.163920 0.402147
O O10 0.468316 0.259320 0.072831
O O11 0.969352 0.277955 0.117451
#
# Coordination Sequence:
#
# PCOD9252493 Si02
#       5
#     4   4   4   4   4
#     4  11  26  50  74 109 160 205 257 310 385 473
#     4  11  24  44  78 113 146 204 263 316 381 463
#     4  11  25  49  75 109 160 194 264 319 376 466
#     4  11  27  46  69 111 153 195 251 319 382 445
#     4  12  25  45  78 111 147 197 257 325 386 443
#
# _framework density 22.554161000000001
#
# number of rings (size 3 to 8) (size 9 to 14) (size 15 to 20)
#    0.000    0.800    4.000    1.800    5.600    6.400 
#    0.000    0.000    0.000    0.000    0.000    0.000 
#    0.000    0.000    0.000    0.000    0.000    0.000 
#
# Total GULP energy -111779.072048 kJ/mol
# GULP energy per Si atom -5588.953602 kJ/mol
# Density = 2.250283 g / cm^3
# Si number density = 22.554161 Si / 1000 Ang^3
#
#
#
# Elastic Constant Matrix: (Units=GPa)
#
#
# Indices 1 2 3 4 5 6 
#
# 1 135.6552 48.6968 45.9903 0.0000 -2.8605 0.0000
# 2 48.6968 135.2244 69.9567 0.0000 -6.9295 0.0000
# 3 45.9903 69.9567 89.3749 0.0000 -5.9078 0.0000
# 4 0.0000 0.0000 0.0000 34.1330 0.0000 0.0467
# 5 -2.8605 -6.9295 -5.9078 0.0000 43.2962 0.0000
# 6 0.0000 0.0000 0.0000 0.0467 0.0000 46.7518
#
#
#
# Elastic Compliance Matrix: (Units=1/GPa)
#
#
# Indices 1 2 3 4 5 6 
#
# 1 0.009093 -0.001438 -0.003561 0.000000 -0.000115 0.000000
# 2 -0.001438 0.012674 -0.009135 0.000000 0.000687 0.000000
# 3 -0.003561 -0.009135 0.020242 0.000000 0.001065 0.000000
# 4 0.000000 0.000000 0.000000 0.029297 0.000000 -0.000029
# 5 -0.000115 0.000687 0.001065 0.000000 0.023344 0.000000
# 6 0.000000 0.000000 0.000000 -0.000029 0.000000 0.021390
#
#
# Mechanical properties :
#
#
# Convention : Reuss Voigt Hill
#
# Bulk Modulus (GPa) = 72.77691 76.61576 74.69633
# Shear Modulus (GPa) = 33.58235 37.87692 35.72964
#
# Velocity S-wave (km/s) = 3.86290 4.10246 3.98448
# Velocity P-wave (km/s) = 7.22728 7.51556 7.37283
#
# Compressibility (1/GPa) = 0.01374062
#
# Stress axis : x y z
#
# Youngs Moduli (GPa) = 109.97876 78.90094 49.40289
#
# Poissons Ratio (x) = 0.11348 0.17591
# Poissons Ratio (y) = 0.15818 0.45129
# Poissons Ratio (z) = 0.39161 0.72076
#
# Static dielectric constant tensor:
#      x y z
#    x 1.895930 0.000000 -0.019040 
#    y 0.000000 1.859110 0.000000 
#    z -0.019040 0.000000 1.863890 
# 
# From -- ./inp_files/5504.got.cif
#   From: 2010.05.17/outbox.cif.g08.bks.cpg/sg14_3_cif.got.tgz:5504.got - 2010.06.03 17:49:19.
