data_PCOD9252588
_publ_section_title
;
Structure prediction by ZEFSAII (Michael W. Deem and Ramdas Pophale) SiO2 
 PCOD9252588
Probable space group: P 21/C
;
_chemical_formula_sum "Si O2"
_cell_formula_units_Z 28
_cell_length_a 20.798967
_cell_length_b 11.667447
_cell_length_c 26.204459
_cell_angle_alpha 90.000000
_cell_angle_beta 11.256644
_cell_angle_gamma 90.000000
_cell_volume 1241.313931
_symmetry_space_group_name_H-M "P 21/C"
_symmetry_group_IT_number 14
_symmetry_cell_setting 'monoclinic'
loop_
_space_group_symop_operation_xyz
x,y,z
-x,1/2+y,1/2-z
-x,-y,-z
x,1/2-y,1/2+z
loop_
_atom_site_type_symbol
_atom_site_label
_atom_site_fract_x
_atom_site_fract_y
_atom_site_fract_z
Si Si1 0.966379 0.184456 0.750881
Si Si2 0.790410 0.088523 0.629324
Si Si3 0.377487 0.480407 0.000436
Si Si4 0.251828 0.404270 0.471617
Si Si5 0.737717 0.236196 0.254556
Si Si6 0.457964 0.325225 0.202455
Si Si7 0.545364 0.878352 0.936123
O O1 0.684222 0.128348 0.935072
O O2 0.200356 0.089589 0.592697
O O3 0.155834 0.278844 0.569028
O O4 0.784324 0.251250 0.938937
O O5 0.634107 0.182038 0.788654
O O6 0.508063 0.041111 0.812350
O O7 0.000000 0.000000 0.500000
O O8 0.075306 0.142280 0.372616
O O9 0.087208 0.524498 0.263590
O O10 0.632338 0.393625 0.827125
O O11 0.544568 0.588354 0.843424
O O12 0.421686 0.389116 0.284646
O O13 0.574939 0.281107 0.432240
O O14 0.128896 0.249441 0.954633
O O15 0.500000 0.000000 0.000000
#
# Coordination Sequence:
#
# PCOD9252588 Si02
#       7
#     4   4   4   4   4   4   4
#     4  11  24  47  67 104 143 177 232 299 341 416
#     4  12  25  44  71 104 140 180 232 287 357 414
#     4  11  27  43  71  99 141 179 240 286 343 421
#     4  11  26  45  70 102 136 189 232 286 355 418
#     4  12  25  46  68 102 142 184 224 292 347 414
#     4  11  26  46  70  98 142 186 234 284 353 417
#     4  12  26  41  74 104 136 181 234 286 351 420
#
# _framework density 22.556744999999999
#
# number of rings (size 3 to 8) (size 9 to 14) (size 15 to 20)
#    0.000    0.571    5.714    1.286    4.000    2.857 
#    0.000    0.000    0.000    0.000    0.000    0.000 
#    0.000    0.000    0.000    0.000    0.000    0.000 
#
# Total GULP energy -156752.959061 kJ/mol
# GULP energy per Si atom -5598.319966 kJ/mol
# Density = 2.250540 g / cm^3
# Si number density = 22.556745 Si / 1000 Ang^3
#
#
#
# Elastic Constant Matrix: (Units=GPa)
#
#
# Indices 1 2 3 4 5 6 
#
# 1 75.3687 -1.7676 20.7960 0.0000 15.8594 0.0000
# 2 -1.7676 42.8257 -4.1641 0.0000 7.8447 0.0000
# 3 20.7960 -4.1641 84.2857 0.0000 20.2182 0.0000
# 4 0.0000 0.0000 0.0000 41.6629 0.0000 -2.2879
# 5 15.8594 7.8447 20.2182 0.0000 38.3882 0.0000
# 6 0.0000 0.0000 0.0000 -2.2879 0.0000 29.5443
#
#
#
# Elastic Compliance Matrix: (Units=1/GPa)
#
#
# Indices 1 2 3 4 5 6 
#
# 1 0.015062 0.001348 -0.002393 0.000000 -0.005238 0.000000
# 2 0.001348 0.024942 0.002582 0.000000 -0.007014 0.000000
# 3 -0.002393 0.002582 0.014275 0.000000 -0.007057 0.000000
# 4 0.000000 0.000000 0.000000 0.024105 0.000000 0.001867
# 5 -0.005238 -0.007014 -0.007057 0.000000 0.033364 0.000000
# 6 0.000000 0.000000 0.000000 0.001867 0.000000 0.033992
#
#
# Mechanical properties :
#
#
# Convention : Reuss Voigt Hill
#
# Bulk Modulus (GPa) = 17.43560 25.80096 21.61828
# Shear Modulus (GPa) = 30.90543 34.42680 32.66611
#
# Velocity S-wave (km/s) = 3.70553 3.91094 3.80962
# Velocity P-wave (km/s) = 5.10435 5.64420 5.38105
#
# Compressibility (1/GPa) = 0.05735392
#
# Stress axis : x y z
#
# Youngs Moduli (GPa) = 66.39110 40.09308 70.05056
#
# Poissons Ratio (x) = -0.05406 0.16765
# Poissons Ratio (y) = -0.08952 -0.18087
# Poissons Ratio (z) = 0.15889 -0.10352
#
# Static dielectric constant tensor:
#      x y z
#    x 1.847110 0.000000 -0.013120 
#    y 0.000000 1.848600 0.000000 
#    z -0.013120 0.000000 1.846800 
# 
# From -- ./inp_files/80646.got.cif
#   From: 2010.05.17/outbox.cif.g08.bks.cpg/sg14_41_cif.got.tgz:80646.got - 2010.06.03 17:49:19.
