data_PCOD9252111
_publ_section_title
;
Structure prediction by ZEFSAII (Michael W. Deem and Ramdas Pophale) SiO2 
 PCOD9252111
Probable space group: P 21/C
;
_chemical_formula_sum "Si O2"
_cell_formula_units_Z 28
_cell_length_a 21.860676
_cell_length_b 8.237879
_cell_length_c 13.624584
_cell_angle_alpha 90.000000
_cell_angle_beta 32.405639
_cell_angle_gamma 90.000000
_cell_volume 1314.903917
_symmetry_space_group_name_H-M "P 21/C"
_symmetry_group_IT_number 14
_symmetry_cell_setting 'monoclinic'
loop_
_space_group_symop_operation_xyz
x,y,z
-x,1/2+y,1/2-z
-x,-y,-z
x,1/2-y,1/2+z
loop_
_atom_site_type_symbol
_atom_site_label
_atom_site_fract_x
_atom_site_fract_y
_atom_site_fract_z
Si Si1 0.995960 0.097573 0.225223
Si Si2 0.255737 0.312542 0.319907
Si Si3 0.362212 0.976300 0.499057
Si Si4 0.589918 0.714287 0.695459
Si Si5 0.853217 0.264659 0.758302
Si Si6 0.768418 0.913077 0.815432
Si Si7 0.965744 0.780686 0.147713
O O1 0.916799 0.227827 0.275998
O O2 0.988248 0.129586 0.350899
O O3 0.952456 0.926881 0.242158
O O4 0.129285 0.122233 0.017075
O O5 0.332027 0.295254 0.313371
O O6 0.244228 0.140299 0.279601
O O7 0.316486 0.431045 0.158274
O O8 0.464391 0.853457 0.385883
O O9 0.257968 0.875570 0.594488
O O10 0.405285 0.110070 0.362556
O O11 0.649648 0.599076 0.533417
O O12 0.944472 0.330222 0.556133
O O13 0.822545 0.085023 0.765429
O O14 0.850206 0.775242 0.752527
#
# Coordination Sequence:
#
# PCOD9252111 Si02
#       7
#     4   4   4   4   4   4   4
#     4  12  24  39  66 100 134 182 218 271 336 398
#     4  11  23  43  69  97 134 174 223 276 337 391
#     4  11  25  47  70  97 131 180 221 285 337 394
#     4  11  24  47  71  96 132 173 231 279 334 401
#     4  12  25  41  65  99 139 177 221 273 337 401
#     4  11  24  41  66 101 134 180 220 273 333 399
#     4  12  24  41  62  97 141 173 224 267 332 398
#
# _framework density 21.294331
#
# number of rings (size 3 to 8) (size 9 to 14) (size 15 to 20)
#    0.000    0.571    4.286    4.714    2.000    0.000 
#    0.000    9.286    0.000    0.000    0.000    0.000 
#    0.000    0.000    0.000    0.000    0.000    0.000 
#
# Total GULP energy -156711.742551 kJ/mol
# GULP energy per Si atom -5596.847948 kJ/mol
# Density = 2.124586 g / cm^3
# Si number density = 21.294331 Si / 1000 Ang^3
#
#
#
# Elastic Constant Matrix: (Units=GPa)
#
#
# Indices 1 2 3 4 5 6 
#
# 1 93.5373 14.6298 30.7122 0.0000 -11.3844 0.0000
# 2 14.6298 89.0888 29.3852 0.0000 -10.4272 0.0000
# 3 30.7122 29.3852 99.7680 0.0000 -21.3665 0.0000
# 4 0.0000 0.0000 0.0000 31.4922 0.0000 -11.3752
# 5 -11.3844 -10.4272 -21.3665 0.0000 28.1288 0.0000
# 6 0.0000 0.0000 0.0000 -11.3752 0.0000 29.9416
#
#
#
# Elastic Compliance Matrix: (Units=1/GPa)
#
#
# Indices 1 2 3 4 5 6 
#
# 1 0.012074 -0.000718 -0.003005 0.000000 0.002338 0.000000
# 2 -0.000718 0.012588 -0.003045 0.000000 0.002063 0.000000
# 3 -0.003005 -0.003045 0.013547 0.000000 0.007945 0.000000
# 4 0.000000 0.000000 0.000000 0.036804 0.000000 0.013982
# 5 0.002338 0.002063 0.007945 0.000000 0.043297 0.000000
# 6 0.000000 0.000000 0.000000 0.013982 0.000000 0.038711
#
#
# Mechanical properties :
#
#
# Convention : Reuss Voigt Hill
#
# Bulk Modulus (GPa) = 40.52821 47.98316 44.25569
# Shear Modulus (GPa) = 27.96714 31.75698 29.86206
#
# Velocity S-wave (km/s) = 3.62796 3.86597 3.74886
# Velocity P-wave (km/s) = 6.05171 6.51996 6.29019
#
# Compressibility (1/GPa) = 0.02467417
#
# Stress axis : x y z
#
# Youngs Moduli (GPa) = 82.81995 79.43790 73.81939
#
# Poissons Ratio (x) = 0.05704 0.22180
# Poissons Ratio (y) = 0.05947 0.22477
# Poissons Ratio (z) = 0.24885 0.24188
#
# Static dielectric constant tensor:
#      x y z
#    x 1.731270 0.000000 0.004230 
#    y 0.000000 1.822290 0.000000 
#    z 0.004230 0.000000 1.751560 
# 
# From -- ./inp_files/43191.got.cif
#   From: 2010.05.17/outbox.cif.g08.bks.cpg/sg14_22_cif.got.tgz:43191.got - 2010.06.03 17:49:19.
