data_PCOD9252917
_publ_section_title
;
Structure prediction by ZEFSAII (Michael W. Deem and Ramdas Pophale) SiO2 
 PCOD9252917
Probable space group: P 21/C
;
_chemical_formula_sum "Si O2"
_cell_formula_units_Z 16
_cell_length_a 14.703486
_cell_length_b 9.059504
_cell_length_c 13.417721
_cell_angle_alpha 90.000000
_cell_angle_beta 19.056972
_cell_angle_gamma 90.000000
_cell_volume 583.576160
_symmetry_space_group_name_H-M "P 21/C"
_symmetry_group_IT_number 14
_symmetry_cell_setting 'monoclinic'
loop_
_space_group_symop_operation_xyz
x,y,z
-x,1/2+y,1/2-z
-x,-y,-z
x,1/2-y,1/2+z
loop_
_atom_site_type_symbol
_atom_site_label
_atom_site_fract_x
_atom_site_fract_y
_atom_site_fract_z
Si Si1 0.290422 0.911801 0.787463
Si Si2 0.882353 0.324881 0.737735
Si Si3 0.454331 0.160947 0.849605
Si Si4 0.929829 0.995823 0.456110
O O1 0.151250 0.808752 0.847007
O O2 0.460471 0.817236 0.690717
O O3 0.500000 0.000000 0.500000
O O4 0.061817 0.026060 0.063499
O O5 0.017729 0.172002 0.633251
O O6 0.594825 0.343357 0.095594
O O7 0.620888 0.042319 0.745256
O O8 0.136417 0.113211 0.189022
O O9 0.000000 0.000000 0.500000
#
# Coordination Sequence:
#
# PCOD9252917 Si02
#       4
#     4   4   4   4
#     4  11  26  48  71 106 147 194 236 305 363 429
#     4  11  27  45  74 105 147 190 244 297 363 433
#     4  12  28  46  77 107 145 191 246 294 363 437
#     4  12  26  50  72 108 143 192 238 303 359 425
#
# _framework density 27.417155999999999
#
# number of rings (size 3 to 8) (size 9 to 14) (size 15 to 20)
#    0.000    0.500    2.500    3.750   14.000    0.000 
#    0.000    0.000    0.000    0.000    0.000    0.000 
#    0.000    0.000    0.000    0.000    0.000    0.000 
#
# Total GULP energy -89890.622547 kJ/mol
# GULP energy per Si atom -5618.163909 kJ/mol
# Density = 2.735475 g / cm^3
# Si number density = 27.417156 Si / 1000 Ang^3
#
#
#
# Elastic Constant Matrix: (Units=GPa)
#
#
# Indices 1 2 3 4 5 6 
#
# 1 101.0272 16.5332 22.7104 0.0000 28.0786 0.0000
# 2 16.5332 165.3189 42.9765 0.0000 11.8126 0.0000
# 3 22.7104 42.9765 134.1711 0.0000 24.6223 0.0000
# 4 0.0000 0.0000 0.0000 54.7589 0.0000 -2.4000
# 5 28.0786 11.8126 24.6223 0.0000 52.6445 0.0000
# 6 0.0000 0.0000 0.0000 -2.4000 0.0000 54.6636
#
#
#
# Elastic Compliance Matrix: (Units=1/GPa)
#
#
# Indices 1 2 3 4 5 6 
#
# 1 0.011772 -0.000569 -0.000746 0.000000 -0.005802 0.000000
# 2 -0.000569 0.006640 -0.001983 0.000000 -0.000259 0.000000
# 3 -0.000746 -0.001983 0.008817 0.000000 -0.003281 0.000000
# 4 0.000000 0.000000 0.000000 0.018297 0.000000 0.000803
# 5 -0.005802 -0.000259 -0.003281 0.000000 0.023683 0.000000
# 6 0.000000 0.000000 0.000000 0.000803 0.000000 0.018329
#
#
# Mechanical properties :
#
#
# Convention : Reuss Voigt Hill
#
# Bulk Modulus (GPa) = 48.46524 62.77305 55.61914
# Shear Modulus (GPa) = 49.50036 53.63321 51.56679
#
# Velocity S-wave (km/s) = 4.25367 4.42768 4.34155
# Velocity P-wave (km/s) = 6.46841 7.00603 6.74258
#
# Compressibility (1/GPa) = 0.02063335
#
# Stress axis : x y z
#
# Youngs Moduli (GPa) = 84.95012 150.60667 113.42170
#
# Poissons Ratio (x) = 0.08567 0.08456
# Poissons Ratio (y) = 0.04832 0.22491
# Poissons Ratio (z) = 0.06333 0.29865
#
# Static dielectric constant tensor:
#      x y z
#    x 2.203700 0.000000 -0.010680 
#    y 0.000000 2.135560 0.000000 
#    z -0.010680 0.000000 2.022990 
# 
# From -- ./inp_files/32285.got.cif
#   From: 2010.05.17/outbox.cif.g08.bks.cpg/sg14_17_cif.got.tgz:32285.got - 2010.06.03 17:49:19.
