data_PCOD9252597
_publ_section_title
;
Structure prediction by ZEFSAII (Michael W. Deem and Ramdas Pophale) SiO2 
 PCOD9252597
Probable space group: P 21/C
;
_chemical_formula_sum "Si O2"
_cell_formula_units_Z 32
_cell_length_a 14.182233
_cell_length_b 6.665504
_cell_length_c 17.713513
_cell_angle_alpha 90.000000
_cell_angle_beta 69.197268
_cell_angle_gamma 90.000000
_cell_volume 1565.326997
_symmetry_space_group_name_H-M "P 21/C"
_symmetry_group_IT_number 14
_symmetry_cell_setting 'monoclinic'
loop_
_space_group_symop_operation_xyz
x,y,z
-x,1/2+y,1/2-z
-x,-y,-z
x,1/2-y,1/2+z
loop_
_atom_site_type_symbol
_atom_site_label
_atom_site_fract_x
_atom_site_fract_y
_atom_site_fract_z
Si Si1 0.359175 0.984269 0.784268
Si Si2 0.131533 0.052357 0.403335
Si Si3 0.052665 0.807896 0.022030
Si Si4 0.243160 0.604752 0.573347
Si Si5 0.542870 0.657988 0.320557
Si Si6 0.705872 0.765832 0.050828
Si Si7 0.583731 0.101998 0.528085
Si Si8 0.729749 0.391469 0.264401
O O1 0.383875 0.158518 0.718986
O O2 0.322210 0.084719 0.872735
O O3 0.465876 0.880434 0.774040
O O4 0.283323 0.825055 0.770448
O O5 0.188180 0.166749 0.455547
O O6 0.033791 0.181361 0.410827
O O7 0.095608 0.838049 0.444658
O O8 0.210443 0.024290 0.313434
O O9 0.144829 0.859966 0.050398
O O10 0.000000 0.000000 0.000000
O O11 0.289253 0.396926 0.526827
O O12 0.323384 0.785053 0.538314
O O13 0.219283 0.600224 0.668570
O O14 0.472852 0.726728 0.408547
O O15 0.615991 0.471250 0.311109
O O16 0.629665 0.578606 0.065371
O O17 0.500000 0.000000 0.500000
#
# Coordination Sequence:
#
# PCOD9252597 Si02
#       8
#     4   4   4   4   4   4   4   4
#     4  12  23  39  65  95 135 188 238 283 334 413
#     4  11  24  47  72 103 131 175 243 290 343 430
#     4  11  24  48  79 100 128 183 238 293 359 425
#     4  12  26  46  69 104 144 182 230 295 366 420
#     4  12  23  39  63  96 135 186 239 276 329 409
#     4  12  23  44  73  97 137 189 239 284 345 428
#     4  12  26  41  64 100 145 187 229 286 352 421
#     4  12  27  43  65 103 144 179 229 295 354 410
#
# _framework density 20.443014000000002
#
# number of rings (size 3 to 8) (size 9 to 14) (size 15 to 20)
#    0.000    0.250    6.250    3.750    1.750    1.000 
#    2.250    0.000    0.000    0.000    0.000    0.000 
#    0.000    0.000    0.000    0.000    0.000    0.000 
#
# Total GULP energy -178949.170641 kJ/mol
# GULP energy per Si atom -5592.161583 kJ/mol
# Density = 2.039648 g / cm^3
# Si number density = 20.443014 Si / 1000 Ang^3
#
#
#
# Elastic Constant Matrix: (Units=GPa)
#
#
# Indices 1 2 3 4 5 6 
#
# 1 97.2576 32.3271 16.6081 0.0000 0.7168 0.0000
# 2 32.3271 87.5685 30.3461 0.0000 -1.6136 0.0000
# 3 16.6081 30.3461 62.2347 0.0000 4.9775 0.0000
# 4 0.0000 0.0000 0.0000 23.2272 0.0000 -8.4061
# 5 0.7168 -1.6136 4.9775 0.0000 21.0528 0.0000
# 6 0.0000 0.0000 0.0000 -8.4061 0.0000 40.5007
#
#
#
# Elastic Compliance Matrix: (Units=1/GPa)
#
#
# Indices 1 2 3 4 5 6 
#
# 1 0.011802 -0.003953 -0.001188 0.000000 -0.000424 0.000000
# 2 -0.003953 0.015217 -0.006594 0.000000 0.002860 0.000000
# 3 -0.001188 -0.006594 0.020016 0.000000 -0.005197 0.000000
# 4 0.000000 0.000000 0.000000 0.046550 0.000000 0.009662
# 5 -0.000424 0.002860 -0.005197 0.000000 0.048962 0.000000
# 6 0.000000 0.000000 0.000000 0.009662 0.000000 0.026696
#
#
# Mechanical properties :
#
#
# Convention : Reuss Voigt Hill
#
# Bulk Modulus (GPa) = 42.43526 45.06926 43.75226
# Shear Modulus (GPa) = 24.92941 28.14144 26.53543
#
# Velocity S-wave (km/s) = 3.49586 3.71425 3.60671
# Velocity P-wave (km/s) = 6.09078 6.36305 6.22840
#
# Compressibility (1/GPa) = 0.02356531
#
# Stress axis : x y z
#
# Youngs Moduli (GPa) = 84.73228 65.71806 49.96007
#
# Poissons Ratio (x) = 0.25978 0.05936
# Poissons Ratio (y) = 0.33494 0.32941
# Poissons Ratio (z) = 0.10067 0.43331
#
# Static dielectric constant tensor:
#      x y z
#    x 1.742050 0.000000 -0.009790 
#    y 0.000000 1.798320 0.000000 
#    z -0.009790 0.000000 1.729960 
# 
# From -- ./inp_files/58587.got.cif
#   From: 2010.05.17/outbox.cif.g08.bks.cpg/sg14_30_cif.got.tgz:58587.got - 2010.06.03 17:49:19.
