data_PCOD9252578
_publ_section_title
;
Structure prediction by ZEFSAII (Michael W. Deem and Ramdas Pophale) SiO2 
 PCOD9252578
Probable space group: P 21/C
;
_chemical_formula_sum "Si O2"
_cell_formula_units_Z 20
_cell_length_a 5.203722
_cell_length_b 8.983827
_cell_length_c 17.374183
_cell_angle_alpha 90.000000
_cell_angle_beta 75.607522
_cell_angle_gamma 90.000000
_cell_volume 786.740321
_symmetry_space_group_name_H-M "P 21/C"
_symmetry_group_IT_number 14
_symmetry_cell_setting 'monoclinic'
loop_
_space_group_symop_operation_xyz
x,y,z
-x,1/2+y,1/2-z
-x,-y,-z
x,1/2-y,1/2+z
loop_
_atom_site_type_symbol
_atom_site_label
_atom_site_fract_x
_atom_site_fract_y
_atom_site_fract_z
Si Si1 0.976071 0.019529 0.119985
Si Si2 0.069889 0.691416 0.056654
Si Si3 0.459713 0.749516 0.318337
Si Si4 0.857962 0.971301 0.716869
Si Si5 0.669662 0.774267 0.457736
O O1 0.004847 0.014444 0.210312
O O2 0.223535 0.105999 0.063479
O O3 0.726546 0.127521 0.125586
O O4 0.964369 0.855476 0.088216
O O5 0.024315 0.587588 0.133135
O O6 0.381058 0.703718 0.015479
O O7 0.887699 0.650663 0.996538
O O8 0.636549 0.656746 0.246677
O O9 0.638002 0.824468 0.371282
O O10 0.281830 0.873261 0.291992
#
# Coordination Sequence:
#
# PCOD9252578 Si02
#       5
#     4   4   4   4   4
#     4  11  24  46  75 106 145 191 245 293 356 430
#     4  12  26  46  75 108 144 191 239 295 361 423
#     4  11  25  49  70 108 144 193 241 298 359 430
#     4  11  27  44  75 105 148 192 243 297 361 428
#     4  11  26  46  74 109 145 189 239 298 355 431
#
# _framework density 25.421348999999999
#
# number of rings (size 3 to 8) (size 9 to 14) (size 15 to 20)
#    0.000    0.800    2.000    3.600   11.200    3.200 
#    0.000    0.000    0.000    0.000    0.000    0.000 
#    0.000    0.000    0.000    0.000    0.000    0.000 
#
# Total GULP energy -112218.601905 kJ/mol
# GULP energy per Si atom -5610.930095 kJ/mol
# Density = 2.536349 g / cm^3
# Si number density = 25.421349 Si / 1000 Ang^3
#
#
#
# Elastic Constant Matrix: (Units=GPa)
#
#
# Indices 1 2 3 4 5 6 
#
# 1 130.7444 62.8287 44.6957 0.0000 2.0429 0.0000
# 2 62.8287 105.2397 55.0556 0.0000 -5.0883 0.0000
# 3 44.6957 55.0556 93.1067 0.0000 -4.6676 0.0000
# 4 0.0000 0.0000 0.0000 30.0502 0.0000 7.8357
# 5 2.0429 -5.0883 -4.6676 0.0000 53.7690 0.0000
# 6 0.0000 0.0000 0.0000 7.8357 0.0000 36.7083
#
#
#
# Elastic Compliance Matrix: (Units=1/GPa)
#
#
# Indices 1 2 3 4 5 6 
#
# 1 0.011049 -0.005569 -0.002067 0.000000 -0.001126 0.000000
# 2 -0.005569 0.016585 -0.007075 0.000000 0.001167 0.000000
# 3 -0.002067 -0.007075 0.015956 0.000000 0.000794 0.000000
# 4 0.000000 0.000000 0.000000 0.035239 0.000000 -0.007522
# 5 -0.001126 0.001167 0.000794 0.000000 0.018820 0.000000
# 6 0.000000 0.000000 0.000000 -0.007522 0.000000 0.028847
#
#
# Mechanical properties :
#
#
# Convention : Reuss Voigt Hill
#
# Bulk Modulus (GPa) = 70.58677 72.69453 71.64065
# Shear Modulus (GPa) = 31.12519 35.20621 33.16570
#
# Velocity S-wave (km/s) = 3.50290 3.72547 3.61590
# Velocity P-wave (km/s) = 6.64736 6.86757 6.75836
#
# Compressibility (1/GPa) = 0.01416696
#
# Stress axis : x y z
#
# Youngs Moduli (GPa) = 90.50446 60.29709 62.67243
#
# Poissons Ratio (x) = 0.33582 0.12957
# Poissons Ratio (y) = 0.50405 0.44339
# Poissons Ratio (z) = 0.18710 0.42658
#
# Static dielectric constant tensor:
#      x y z
#    x 1.987340 0.000000 -0.013560 
#    y 0.000000 1.955750 0.000000 
#    z -0.013560 0.000000 1.972600 
# 
# From -- ./inp_files/52639.got.cif
#   From: 2010.05.17/outbox.cif.g08.bks.cpg/sg14_27_cif.got.tgz:52639.got - 2010.06.03 17:49:19.
