data_PCOD9252619
_publ_section_title
;
Structure prediction by ZEFSAII (Michael W. Deem and Ramdas Pophale) SiO2 
 PCOD9252619
Probable space group: P 21/C
;
_chemical_formula_sum "Si O2"
_cell_formula_units_Z 28
_cell_length_a 9.734981
_cell_length_b 8.420005
_cell_length_c 14.270465
_cell_angle_alpha 90.000000
_cell_angle_beta 66.136997
_cell_angle_gamma 90.000000
_cell_volume 1069.735953
_symmetry_space_group_name_H-M "P 21/C"
_symmetry_group_IT_number 14
_symmetry_cell_setting 'monoclinic'
loop_
_space_group_symop_operation_xyz
x,y,z
-x,1/2+y,1/2-z
-x,-y,-z
x,1/2-y,1/2+z
loop_
_atom_site_type_symbol
_atom_site_label
_atom_site_fract_x
_atom_site_fract_y
_atom_site_fract_z
Si Si1 0.147092 0.548936 0.258611
Si Si2 0.594797 0.034628 0.643359
Si Si3 0.755379 0.622452 0.934251
Si Si4 0.281923 0.490911 0.581451
Si Si5 0.905534 0.332390 0.089133
Si Si6 0.970711 0.261281 0.357377
Si Si7 0.550085 0.090581 0.135849
O O1 0.265703 0.500107 0.145935
O O2 0.152257 0.678451 0.338089
O O3 0.021364 0.626126 0.223165
O O4 0.109502 0.380896 0.316663
O O5 0.766036 0.047551 0.638477
O O6 0.550556 0.216876 0.630676
O O7 0.631554 0.924336 0.544661
O O8 0.479673 0.961887 0.749790
O O9 0.746518 0.804353 0.908238
O O10 0.929526 0.615982 0.921717
O O11 0.161954 0.622742 0.642149
O O12 0.310214 0.531106 0.463931
O O13 0.421203 0.501630 0.612930
O O14 0.930020 0.292989 0.972663
#
# Coordination Sequence:
#
# PCOD9252619 Si02
#       7
#     4   4   4   4   4   4   4
#     4  12  24  41  68 105 145 182 224 285 364 431
#     4  12  26  46  71 104 137 186 239 290 349 422
#     4  12  26  44  72 105 143 181 233 293 366 423
#     4  11  24  48  69 100 139 189 233 295 345 419
#     4  12  25  43  74 105 148 180 232 298 363 423
#     4  12  23  44  68 103 147 183 232 282 359 422
#     4  11  26  46  73  97 141 188 241 288 344 413
#
# _framework density 26.174685
#
# number of rings (size 3 to 8) (size 9 to 14) (size 15 to 20)
#    0.000    0.286    5.714    2.571    0.000    4.000 
#    0.000    0.000    0.000    0.000    0.000    0.000 
#    0.000    0.000    0.000    0.000    0.000    0.000 
#
# Total GULP energy -156605.285627 kJ/mol
# GULP energy per Si atom -5593.045915 kJ/mol
# Density = 2.611511 g / cm^3
# Si number density = 26.174685 Si / 1000 Ang^3
#
#
#
# Elastic Constant Matrix: (Units=GPa)
#
#
# Indices 1 2 3 4 5 6 
#
# 1 61.0428 -16.1173 3.2990 0.0000 11.2278 0.0000
# 2 -16.1173 104.8494 43.8210 0.0000 3.5187 0.0000
# 3 3.2990 43.8210 151.6952 0.0000 -0.0007 0.0000
# 4 0.0000 0.0000 0.0000 57.2525 0.0000 -5.2048
# 5 11.2278 3.5187 -0.0007 0.0000 35.9356 0.0000
# 6 0.0000 0.0000 0.0000 -5.2048 0.0000 30.3483
#
#
#
# Elastic Compliance Matrix: (Units=1/GPa)
#
#
# Indices 1 2 3 4 5 6 
#
# 1 0.018564 0.003672 -0.001465 0.000000 -0.006160 0.000000
# 2 0.003672 0.011614 -0.003435 0.000000 -0.002285 0.000000
# 3 -0.001465 -0.003435 0.007616 0.000000 0.000794 0.000000
# 4 0.000000 0.000000 0.000000 0.017743 0.000000 0.003043
# 5 -0.006160 -0.002285 0.000794 0.000000 0.029976 0.000000
# 6 0.000000 0.000000 0.000000 0.003043 0.000000 0.033473
#
#
# Mechanical properties :
#
#
# Convention : Reuss Voigt Hill
#
# Bulk Modulus (GPa) = 28.29653 42.17698 35.23676
# Shear Modulus (GPa) = 37.53183 43.81292 40.67237
#
# Velocity S-wave (km/s) = 3.79079 4.09573 3.94621
# Velocity P-wave (km/s) = 5.47670 6.20607 5.85276
#
# Compressibility (1/GPa) = 0.03534002
#
# Stress axis : x y z
#
# Youngs Moduli (GPa) = 53.86850 86.10081 131.29744
#
# Poissons Ratio (x) = -0.31620 0.19230
# Poissons Ratio (y) = -0.19783 0.45100
# Poissons Ratio (z) = 0.07890 0.29575
#
# Static dielectric constant tensor:
#      x y z
#    x 2.183340 0.000000 -0.009280 
#    y 0.000000 2.014080 0.000000 
#    z -0.009280 0.000000 2.031760 
# 
# From -- ./inp_files/43284.got.cif
#   From: 2010.05.17/outbox.cif.g08.bks.cpg/sg14_22_cif.got.tgz:43284.got - 2010.06.03 17:49:19.
