data_PCOD9252299
_publ_section_title
;
Structure prediction by ZEFSAII (Michael W. Deem and Ramdas Pophale) SiO2 
 PCOD9252299
Probable space group: P 21/C
;
_chemical_formula_sum "Si O2"
_cell_formula_units_Z 28
_cell_length_a 8.731798
_cell_length_b 13.456780
_cell_length_c 10.115483
_cell_angle_alpha 90.000000
_cell_angle_beta 119.516383
_cell_angle_gamma 90.000000
_cell_volume 1034.327214
_symmetry_space_group_name_H-M "P 21/C"
_symmetry_group_IT_number 14
_symmetry_cell_setting 'monoclinic'
loop_
_space_group_symop_operation_xyz
x,y,z
-x,1/2+y,1/2-z
-x,-y,-z
x,1/2-y,1/2+z
loop_
_atom_site_type_symbol
_atom_site_label
_atom_site_fract_x
_atom_site_fract_y
_atom_site_fract_z
Si Si1 0.989950 0.131041 0.015542
Si Si2 0.363012 0.087931 0.312092
Si Si3 0.009946 0.364522 0.978001
Si Si4 0.607732 0.574013 0.784767
Si Si5 0.558688 0.224903 0.599434
Si Si6 0.856047 0.415061 0.183205
Si Si7 0.266736 0.925214 0.860177
O O1 0.977014 0.248283 0.986294
O O2 0.824598 0.092798 0.035158
O O3 0.187408 0.118374 0.157535
O O4 0.973306 0.080557 0.864302
O O5 0.437064 0.177556 0.432420
O O6 0.511196 0.026312 0.295633
O O7 0.288969 0.999523 0.370627
O O8 0.943093 0.417952 0.080389
O O9 0.214618 0.389117 0.069086
O O10 0.896138 0.397210 0.805242
O O11 0.487061 0.668688 0.780715
O O12 0.664487 0.533289 0.662452
O O13 0.753417 0.187719 0.648478
O O14 0.581154 0.342572 0.601767
#
# Coordination Sequence:
#
# PCOD9252299 Si02
#       7
#     4   4   4   4   4   4   4
#     4  12  25  46  77 112 156 204 265 326 393 471
#     4  11  25  46  76 112 155 205 250 327 404 469
#     4  12  23  47  76 112 147 207 268 316 387 488
#     4  11  26  43  76 111 151 200 263 321 395 464
#     4  11  23  47  75 112 156 204 264 324 401 466
#     4  11  23  48  77 108 154 204 259 317 392 473
#     4  12  25  47  80 113 152 209 275 324 386 479
#
# _framework density 27.070737000000001
#
# number of rings (size 3 to 8) (size 9 to 14) (size 15 to 20)
#    0.000    0.571    2.857    6.000    2.000    0.000 
#    2.571    3.571    0.000    0.000    0.000    0.000 
#    0.000    0.000    0.000    0.000    0.000    0.000 
#
# Total GULP energy -156745.074154 kJ/mol
# GULP energy per Si atom -5598.038363 kJ/mol
# Density = 2.700912 g / cm^3
# Si number density = 27.070737 Si / 1000 Ang^3
#
#
#
# Elastic Constant Matrix: (Units=GPa)
#
#
# Indices 1 2 3 4 5 6 
#
# 1 64.3439 -41.6749 2.5056 0.0000 13.1986 0.0000
# 2 -41.6749 67.1927 -17.3667 0.0000 32.6938 0.0000
# 3 2.5056 -17.3667 129.1997 0.0000 21.9776 0.0000
# 4 0.0000 0.0000 0.0000 40.7326 0.0000 20.6323
# 5 13.1986 32.6938 21.9776 0.0000 26.9630 0.0000
# 6 0.0000 0.0000 0.0000 20.6323 0.0000 45.2332
#
#
#
# Elastic Compliance Matrix: (Units=1/GPa)
#
#
# Indices 1 2 3 4 5 6 
#
# 1 -0.003237 -0.019450 -0.007933 0.000000 0.031635 0.000000
# 2 -0.019450 -0.018279 -0.008672 0.000000 0.038753 0.000000
# 3 -0.007933 -0.008672 0.004968 0.000000 0.010349 0.000000
# 4 0.000000 0.000000 0.000000 0.031927 0.000000 -0.014563
# 5 0.031635 0.038753 0.010349 0.000000 -0.033823 0.000000
# 6 0.000000 0.000000 0.000000 -0.014563 0.000000 0.028750
#
#
# Mechanical properties :
#
#
# Convention : Reuss Voigt Hill
#
# Bulk Modulus (GPa) = -11.27927 16.40715 2.56394
# Shear Modulus (GPa) = 94.58158 43.73723 69.15941
#
# Velocity S-wave (km/s) = 5.91731 4.02389 5.05995
# Velocity P-wave (km/s) = 6.52000 5.25956 5.92340
#
# Compressibility (1/GPa) = -0.08865819
#
# Stress axis : x y z
#
# Youngs Moduli (GPa) = -308.96149 -54.70891 201.29992
#
# Poissons Ratio (x) = -1.06411 1.59692
# Poissons Ratio (y) = -6.00944 1.74565
# Poissons Ratio (z) = -2.45100 -0.47443
#
# Static dielectric constant tensor:
#      x y z
#    x 2.161990 0.000000 0.006070 
#    y 0.000000 2.180470 0.000000 
#    z 0.006070 0.000000 2.149430 
# 
# From -- ./inp_files/25379.got.cif
#   From: 2010.05.17/outbox.cif.g08.bks.cpg/sg14_13_cif.got.tgz:25379.got - 2010.06.03 17:49:19.
