data_PCOD9252640
_publ_section_title
;
Structure prediction by ZEFSAII (Michael W. Deem and Ramdas Pophale) SiO2 
 PCOD9252640
Probable space group: P 21/C
;
_chemical_formula_sum "Si O2"
_cell_formula_units_Z 28
_cell_length_a 11.957249
_cell_length_b 7.275798
_cell_length_c 21.937546
_cell_angle_alpha 90.000000
_cell_angle_beta 145.296833
_cell_angle_gamma 90.000000
_cell_volume 1086.576179
_symmetry_space_group_name_H-M "P 21/C"
_symmetry_group_IT_number 14
_symmetry_cell_setting 'monoclinic'
loop_
_space_group_symop_operation_xyz
x,y,z
-x,1/2+y,1/2-z
-x,-y,-z
x,1/2-y,1/2+z
loop_
_atom_site_type_symbol
_atom_site_label
_atom_site_fract_x
_atom_site_fract_y
_atom_site_fract_z
Si Si1 0.657766 0.443523 0.019780
Si Si2 0.438618 0.661240 0.216436
Si Si3 0.783718 0.661169 0.825763
Si Si4 0.270102 0.509917 0.450755
Si Si5 0.442059 0.768285 0.358975
Si Si6 0.126732 0.889566 0.009256
Si Si7 0.890689 0.458194 0.754325
O O1 0.669481 0.224689 0.020126
O O2 0.875500 0.524828 0.130623
O O3 0.500000 0.500000 0.000000
O O4 0.556496 0.541040 0.917132
O O5 0.298824 0.486587 0.163196
O O6 0.649415 0.660879 0.278086
O O7 0.465781 0.711710 0.299807
O O8 0.327446 0.821398 0.129142
O O9 0.785408 0.589441 0.757278
O O10 0.006906 0.707611 0.939062
O O11 0.446787 0.371349 0.544311
O O12 0.142803 0.492983 0.455045
O O13 0.163706 0.483166 0.338689
O O14 0.214817 0.737975 0.277657
O O15 0.000000 0.000000 0.000000
#
# Coordination Sequence:
#
# PCOD9252640 Si02
#       7
#     4   4   4   4   4   4   4
#     4  12  28  49  79 120 156 210 270 332 406 475
#     4  11  26  47  74 110 152 206 261 329 397 470
#     4  11  24  48  77 112 156 205 265 328 399 482
#     4  12  27  51  79 117 160 211 269 333 401 485
#     4  11  27  49  76 112 163 205 270 329 401 485
#     4  12  26  49  77 114 155 212 265 328 401 481
#     4  11  26  50  77 116 155 213 262 334 399 486
#
# _framework density 25.769013999999999
#
# number of rings (size 3 to 8) (size 9 to 14) (size 15 to 20)
#    0.000    0.571    2.857    4.286    4.000    5.714 
#    7.714    0.000    0.000    0.000    0.000    0.000 
#    0.000    0.000    0.000    0.000    0.000    0.000 
#
# Total GULP energy -156804.309208 kJ/mol
# GULP energy per Si atom -5600.153900 kJ/mol
# Density = 2.571036 g / cm^3
# Si number density = 25.769014 Si / 1000 Ang^3
#
#
#
# Elastic Constant Matrix: (Units=GPa)
#
#
# Indices 1 2 3 4 5 6 
#
# 1 170.3534 16.5960 57.1471 0.0000 -1.8872 0.0000
# 2 16.5960 78.1632 32.1913 0.0000 -1.3393 0.0000
# 3 57.1471 32.1913 140.6409 0.0000 -8.9363 0.0000
# 4 0.0000 0.0000 0.0000 42.9961 0.0000 0.2957
# 5 -1.8872 -1.3393 -8.9363 0.0000 43.7464 0.0000
# 6 0.0000 0.0000 0.0000 0.2957 0.0000 46.0149
#
#
#
# Elastic Compliance Matrix: (Units=1/GPa)
#
#
# Indices 1 2 3 4 5 6 
#
# 1 0.006808 -0.000335 -0.002707 0.000000 -0.000269 0.000000
# 2 -0.000335 0.014144 -0.003115 0.000000 -0.000218 0.000000
# 3 -0.002707 -0.003115 0.009027 0.000000 0.001632 0.000000
# 4 0.000000 0.000000 0.000000 0.023259 0.000000 -0.000149
# 5 -0.000269 -0.000218 0.001632 0.000000 0.023174 0.000000
# 6 0.000000 0.000000 0.000000 -0.000149 0.000000 0.021733
#
#
# Mechanical properties :
#
#
# Convention : Reuss Voigt Hill
#
# Bulk Modulus (GPa) = 56.60998 66.78069 61.69533
# Shear Modulus (GPa) = 42.97492 45.43303 44.20397
#
# Velocity S-wave (km/s) = 4.08818 4.20347 4.14622
# Velocity P-wave (km/s) = 6.65584 7.03777 6.84947
#
# Compressibility (1/GPa) = 0.01766473
#
# Stress axis : x y z
#
# Youngs Moduli (GPa) = 146.89038 70.70075 110.78163
#
# Poissons Ratio (x) = 0.02371 0.29984
# Poissons Ratio (y) = 0.04926 0.34509
# Poissons Ratio (z) = 0.39757 0.22023
#
# Static dielectric constant tensor:
#      x y z
#    x 2.021230 0.000000 -0.031290 
#    y 0.000000 2.135550 0.000000 
#    z -0.031290 0.000000 2.048730 
# 
# From -- ./inp_files/67094.got.cif
#   From: 2010.05.17/outbox.cif.g08.bks.cpg/sg14_34_cif.got.tgz:67094.got - 2010.06.03 17:49:19.
