data_PCOD9252537
_publ_section_title
;
Structure prediction by ZEFSAII (Michael W. Deem and Ramdas Pophale) SiO2 
 PCOD9252537
Probable space group: P 21/C
;
_chemical_formula_sum "Si O2"
_cell_formula_units_Z 24
_cell_length_a 11.675932
_cell_length_b 11.316852
_cell_length_c 22.742217
_cell_angle_alpha 90.000000
_cell_angle_beta 156.826352
_cell_angle_gamma 90.000000
_cell_volume 1182.540008
_symmetry_space_group_name_H-M "P 21/C"
_symmetry_group_IT_number 14
_symmetry_cell_setting 'monoclinic'
loop_
_space_group_symop_operation_xyz
x,y,z
-x,1/2+y,1/2-z
-x,-y,-z
x,1/2-y,1/2+z
loop_
_atom_site_type_symbol
_atom_site_label
_atom_site_fract_x
_atom_site_fract_y
_atom_site_fract_z
Si Si1 0.142451 0.238940 0.437379
Si Si2 0.885220 0.013149 0.378892
Si Si3 0.724985 0.376369 0.158378
Si Si4 0.870630 0.622979 0.286351
Si Si5 0.242494 0.657193 0.960209
Si Si6 0.203643 0.017343 0.040208
O O1 0.432970 0.172762 0.551937
O O2 0.191159 0.354289 0.501830
O O3 0.962521 0.142729 0.389812
O O4 0.969850 0.285847 0.298623
O O5 0.539403 0.994232 0.213654
O O6 0.000000 0.000000 0.500000
O O7 0.042018 0.922070 0.407999
O O8 0.823711 0.503599 0.228257
O O9 0.689217 0.392874 0.072046
O O10 0.072841 0.726550 0.359620
O O11 0.055759 0.578650 0.428583
O O12 0.544429 0.674177 0.137786
O O13 0.000000 0.000000 0.000000
#
# Coordination Sequence:
#
# PCOD9252537 Si02
#       6
#     4   4   4   4   4   4
#     4  11  24  46  73 104 143 186 239 301 363 441
#     4  12  27  45  72 106 144 195 241 296 371 430
#     4  11  24  45  74 104 144 189 239 299 371 433
#     4  11  25  44  67 106 140 188 241 295 361 430
#     4  12  25  44  73 103 149 187 241 305 361 435
#     4  11  26  46  72 101 144 190 243 299 360 433
#
# _framework density 20.295294999999999
#
# number of rings (size 3 to 8) (size 9 to 14) (size 15 to 20)
#    0.000    0.667    3.333    3.500    7.000    0.000 
#    0.000    4.167    0.000    0.000    0.000    0.000 
#    0.000    0.000    0.000    0.000    0.000    0.000 
#
# Total GULP energy -133897.464681 kJ/mol
# GULP energy per Si atom -5579.061028 kJ/mol
# Density = 2.024910 g / cm^3
# Si number density = 20.295295 Si / 1000 Ang^3
#
#
#
# Elastic Constant Matrix: (Units=GPa)
#
#
# Indices 1 2 3 4 5 6 
#
# 1 132.9347 32.6104 63.7374 0.0000 -5.9161 0.0000
# 2 32.6104 72.7436 47.1111 0.0000 7.3109 0.0000
# 3 63.7374 47.1111 192.6625 0.0000 0.6856 0.0000
# 4 0.0000 0.0000 0.0000 39.2496 0.0000 11.1501
# 5 -5.9161 7.3109 0.6856 0.0000 27.9803 0.0000
# 6 0.0000 0.0000 0.0000 11.1501 0.0000 20.0796
#
#
#
# Elastic Compliance Matrix: (Units=1/GPa)
#
#
# Indices 1 2 3 4 5 6 
#
# 1 0.009553 -0.002990 -0.002439 0.000000 0.002861 0.000000
# 2 -0.002990 0.017771 -0.003338 0.000000 -0.005194 0.000000
# 3 -0.002439 -0.003338 0.006813 0.000000 0.000189 0.000000
# 4 0.000000 0.000000 0.000000 0.030250 0.000000 -0.016798
# 5 0.002861 -0.005194 0.000189 0.000000 0.037697 0.000000
# 6 0.000000 0.000000 0.000000 -0.016798 0.000000 0.059129
#
#
# Mechanical properties :
#
#
# Convention : Reuss Voigt Hill
#
# Bulk Modulus (GPa) = 60.23292 76.13985 68.18639
# Shear Modulus (GPa) = 27.13240 34.45404 30.79322
#
# Velocity S-wave (km/s) = 3.66031 4.12471 3.89943
# Velocity P-wave (km/s) = 6.89974 7.76413 7.34467
#
# Compressibility (1/GPa) = 0.01660222
#
# Stress axis : x y z
#
# Youngs Moduli (GPa) = 104.68007 56.27126 146.78021
#
# Poissons Ratio (x) = 0.16826 0.35804
# Poissons Ratio (y) = 0.31302 0.48992
# Poissons Ratio (z) = 0.25535 0.18782
#
# Static dielectric constant tensor:
#      x y z
#    x 1.896240 0.000000 -0.037400 
#    y 0.000000 1.676120 0.000000 
#    z -0.037400 0.000000 1.742620 
# 
# From -- ./inp_files/12389.got.cif
#   From: 2010.05.17/outbox.cif.g08.bks.cpg/sg14_7_cif.got.tgz:12389.got - 2010.06.03 17:49:19.
