data_PCOD9252006
_publ_section_title
;
Structure prediction by ZEFSAII (Michael W. Deem and Ramdas Pophale) SiO2 
 PCOD9252006
Probable space group: P 21/C
;
_chemical_formula_sum "Si O2"
_cell_formula_units_Z 24
_cell_length_a 21.545746
_cell_length_b 5.241827
_cell_length_c 9.093824
_cell_angle_alpha 90.000000
_cell_angle_beta 101.640720
_cell_angle_gamma 90.000000
_cell_volume 1005.923828
_symmetry_space_group_name_H-M "P 21/C"
_symmetry_group_IT_number 14
_symmetry_cell_setting 'monoclinic'
loop_
_space_group_symop_operation_xyz
x,y,z
-x,1/2+y,1/2-z
-x,-y,-z
x,1/2-y,1/2+z
loop_
_atom_site_type_symbol
_atom_site_label
_atom_site_fract_x
_atom_site_fract_y
_atom_site_fract_z
Si Si1 0.021385 0.411971 0.674036
Si Si2 0.288355 0.220318 0.789830
Si Si3 0.219201 0.695229 0.057251
Si Si4 0.660454 0.059666 0.942304
Si Si5 0.520039 0.401765 0.346520
Si Si6 0.836859 0.950754 0.717930
O O1 0.095938 0.336809 0.710623
O O2 0.012626 0.662703 0.773687
O O3 0.000000 0.500000 0.500000
O O4 0.317821 0.436299 0.700285
O O5 0.224263 0.280675 0.849464
O O6 0.258846 0.012193 0.666710
O O7 0.343129 0.141903 0.927884
O O8 0.276450 0.789409 0.980301
O O9 0.188746 0.892506 0.155798
O O10 0.160643 0.613898 0.928553
O O11 0.593428 0.188688 0.891333
O O12 0.515522 0.654544 0.239237
O O13 0.500000 0.500000 0.500000
#
# Coordination Sequence:
#
# PCOD9252006 Si02
#       6
#     4   4   4   4   4   4
#     4  12  29  49  75 108 149 203 246 302 362 442
#     4  11  23  41  66 103 130 179 222 303 352 411
#     4  11  23  41  66 102 131 179 222 302 354 410
#     4  11  25  42  71  99 141 175 240 286 363 422
#     4  12  29  50  76 108 149 202 245 299 360 443
#     4  11  25  41  72  97 142 176 243 286 363 424
#
# _framework density 23.858665999999999
#
# number of rings (size 3 to 8) (size 9 to 14) (size 15 to 20)
#    0.000    0.667    3.333    3.000    9.333    0.000 
#    0.000    0.000    0.000    0.000    0.000    0.000 
#    0.000    0.000    0.000    0.000    0.000    0.000 
#
# Total GULP energy -133966.399117 kJ/mol
# GULP energy per Si atom -5581.933297 kJ/mol
# Density = 2.380436 g / cm^3
# Si number density = 23.858666 Si / 1000 Ang^3
#
#
#
# Elastic Constant Matrix: (Units=GPa)
#
#
# Indices 1 2 3 4 5 6 
#
# 1 66.6927 8.1520 15.0158 0.0000 12.2515 0.0000
# 2 8.1520 52.2225 4.4057 0.0000 -3.9110 0.0000
# 3 15.0158 4.4057 103.6750 0.0000 2.0638 0.0000
# 4 0.0000 0.0000 0.0000 39.5945 0.0000 -3.2353
# 5 12.2515 -3.9110 2.0638 0.0000 34.5204 0.0000
# 6 0.0000 0.0000 0.0000 -3.2353 0.0000 26.7111
#
#
#
# Elastic Compliance Matrix: (Units=1/GPa)
#
#
# Indices 1 2 3 4 5 6 
#
# 1 0.016996 -0.002933 -0.002213 0.000000 -0.006232 0.000000
# 2 -0.002933 0.019897 -0.000487 0.000000 0.003324 0.000000
# 3 -0.002213 -0.000487 0.009984 0.000000 0.000133 0.000000
# 4 0.000000 0.000000 0.000000 0.025509 0.000000 0.003090
# 5 -0.006232 0.003324 0.000133 0.000000 0.031549 0.000000
# 6 0.000000 0.000000 0.000000 0.003090 0.000000 0.037812
#
#
# Mechanical properties :
#
#
# Convention : Reuss Voigt Hill
#
# Bulk Modulus (GPa) = 28.08139 30.85971 29.47055
# Shear Modulus (GPa) = 30.32481 33.16631 31.74556
#
# Velocity S-wave (km/s) = 3.56900 3.73247 3.65165
# Velocity P-wave (km/s) = 5.36462 5.61583 5.49166
#
# Compressibility (1/GPa) = 0.03561078
#
# Stress axis : x y z
#
# Youngs Moduli (GPa) = 58.83846 50.25956 100.15954
#
# Poissons Ratio (x) = 0.14742 0.22164
# Poissons Ratio (y) = 0.17258 0.04877
# Poissons Ratio (z) = 0.13020 0.02447
#
# Static dielectric constant tensor:
#      x y z
#    x 2.001930 0.000000 0.017560 
#    y 0.000000 2.457280 0.000000 
#    z 0.017560 0.000000 2.046310 
# 
# From -- ./inp_files/19249.got.cif
#   From: 2010.05.17/outbox.cif.g08.bks.cpg/sg14_10_cif.got.tgz:19249.got - 2010.06.03 17:49:19.
