data_PCOD9252259
_publ_section_title
;
Structure prediction by ZEFSAII (Michael W. Deem and Ramdas Pophale) SiO2 
 PCOD9252259
Probable space group: P 21/C
;
_chemical_formula_sum "Si O2"
_cell_formula_units_Z 28
_cell_length_a 14.497371
_cell_length_b 5.820583
_cell_length_c 18.547584
_cell_angle_alpha 90.000000
_cell_angle_beta 129.089029
_cell_angle_gamma 90.000000
_cell_volume 1214.781996
_symmetry_space_group_name_H-M "P 21/C"
_symmetry_group_IT_number 14
_symmetry_cell_setting 'monoclinic'
loop_
_space_group_symop_operation_xyz
x,y,z
-x,1/2+y,1/2-z
-x,-y,-z
x,1/2-y,1/2+z
loop_
_atom_site_type_symbol
_atom_site_label
_atom_site_fract_x
_atom_site_fract_y
_atom_site_fract_z
Si Si1 0.449578 0.828278 0.247989
Si Si2 0.458858 0.695065 0.534396
Si Si3 0.894290 0.735929 0.625128
Si Si4 0.629628 0.062846 0.645429
Si Si5 0.978804 0.375765 0.064867
Si Si6 0.878779 0.580334 0.270583
Si Si7 0.744333 0.435372 0.452529
O O1 0.472936 0.564916 0.230329
O O2 0.323305 0.923173 0.156368
O O3 0.444401 0.797783 0.331731
O O4 0.500000 0.500000 0.500000
O O5 0.576178 0.806919 0.626941
O O6 0.360854 0.639402 0.545255
O O7 0.394314 0.871849 0.448463
O O8 0.846285 0.783463 0.681286
O O9 0.796972 0.660385 0.517872
O O10 0.996610 0.545048 0.683139
O O11 0.957214 0.954226 0.620913
O O12 0.768321 0.084558 0.728587
O O13 0.092634 0.227526 0.144626
O O14 0.859438 0.225215 0.002323
O O15 0.000000 0.500000 0.000000
#
# Coordination Sequence:
#
# PCOD9252259 Si02
#       7
#     4   4   4   4   4   4   4
#     4  12  28  50  74 111 153 199 248 303 377 456
#     4  11  23  46  70 104 138 189 245 309 374 445
#     4  11  24  44  70 100 140 186 246 303 375 441
#     4  11  26  41  72 104 143 185 248 299 371 445
#     4  11  27  45  70 102 145 192 245 307 378 446
#     4  11  24  44  70 104 135 191 242 301 364 445
#     4  11  26  45  71 101 148 191 242 312 379 446
#
# _framework density 23.049403000000002
#
# number of rings (size 3 to 8) (size 9 to 14) (size 15 to 20)
#    0.000    0.857    2.857    2.571    8.000    4.571 
#    0.000    0.000    0.000    0.000    0.000    0.000 
#    0.000    0.000    0.000    0.000    0.000    0.000 
#
# Total GULP energy -156252.259202 kJ/mol
# GULP energy per Si atom -5580.437829 kJ/mol
# Density = 2.299694 g / cm^3
# Si number density = 23.049403 Si / 1000 Ang^3
#
#
#
# Elastic Constant Matrix: (Units=GPa)
#
#
# Indices 1 2 3 4 5 6 
#
# 1 68.6477 -11.4997 -5.8905 0.0000 -3.5064 0.0000
# 2 -11.4997 27.0505 -6.3274 0.0000 11.0093 0.0000
# 3 -5.8905 -6.3274 79.9507 0.0000 6.1179 0.0000
# 4 0.0000 0.0000 0.0000 16.3079 0.0000 -45.2162
# 5 -3.5064 11.0093 6.1179 0.0000 34.3730 0.0000
# 6 0.0000 0.0000 0.0000 -45.2162 0.0000 -56.6702
#
#
#
# Elastic Compliance Matrix: (Units=1/GPa)
#
#
# Indices 1 2 3 4 5 6 
#
# 1 0.015958 0.007699 0.001875 0.000000 -0.001172 0.000000
# 2 0.007699 0.047858 0.005543 0.000000 -0.015530 0.000000
# 3 0.001875 0.005543 0.013388 0.000000 -0.003967 0.000000
# 4 0.000000 0.000000 0.000000 0.019089 0.000000 -0.015231
# 5 -0.001172 -0.015530 -0.003967 0.000000 0.034653 0.000000
# 6 0.000000 0.000000 0.000000 -0.015231 0.000000 -0.005493
#
#
# Mechanical properties :
#
#
# Convention : Reuss Voigt Hill
#
# Bulk Modulus (GPa) = 9.30763 14.24597 11.77680
# Shear Modulus (GPa) = 38.15879 12.09322 25.12601
#
# Velocity S-wave (km/s) = 4.07322 2.29304 3.30524
# Velocity P-wave (km/s) = 5.11551 3.63384 4.43696
#
# Compressibility (1/GPa) = 0.10743875
#
# Stress axis : x y z
#
# Youngs Moduli (GPa) = 62.66473 20.89514 74.69325
#
# Poissons Ratio (x) = -0.16088 -0.14003
# Poissons Ratio (y) = -0.48248 -0.41404
# Poissons Ratio (z) = -0.11748 -0.11582
#
# Static dielectric constant tensor:
#      x y z
#    x 2.061110 0.000000 0.144910 
#    y 0.000000 1.955120 0.000000 
#    z 0.144910 0.000000 1.958720 
# 
# From -- ./inp_files/67891.got.cif
#   From: 2010.05.17/outbox.cif.g08.bks.cpg/sg14_34_cif.got.tgz:67891.got - 2010.06.03 17:49:19.
