data_PCOD9252660
_publ_section_title
;
Structure prediction by ZEFSAII (Michael W. Deem and Ramdas Pophale) SiO2 
 PCOD9252660
Probable space group: P 21/C
;
_chemical_formula_sum "Si O2"
_cell_formula_units_Z 16
_cell_length_a 6.850284
_cell_length_b 8.473907
_cell_length_c 13.032476
_cell_angle_alpha 90.000000
_cell_angle_beta 111.963180
_cell_angle_gamma 90.000000
_cell_volume 701.613150
_symmetry_space_group_name_H-M "P 21/C"
_symmetry_group_IT_number 14
_symmetry_cell_setting 'monoclinic'
loop_
_space_group_symop_operation_xyz
x,y,z
-x,1/2+y,1/2-z
-x,-y,-z
x,1/2-y,1/2+z
loop_
_atom_site_type_symbol
_atom_site_label
_atom_site_fract_x
_atom_site_fract_y
_atom_site_fract_z
Si Si1 0.019277 0.754172 0.489176
Si Si2 0.694028 0.652549 0.756125
Si Si3 0.559383 0.062750 0.398357
Si Si4 0.254591 0.465197 0.439201
O O1 0.193961 0.884171 0.551959
O O2 0.153146 0.601249 0.486352
O O3 0.887283 0.790295 0.361770
O O4 0.848459 0.697856 0.539843
O O5 0.577525 0.790006 0.669538
O O6 0.538084 0.571813 0.807435
O O7 0.779047 0.529298 0.688997
O O8 0.500000 0.000000 0.500000
O O9 0.500000 0.500000 0.500000
#
# Coordination Sequence:
#
# PCOD9252660 Si02
#       4
#     4   4   4   4
#     4  11  27  46  75 110 152 195 253 312 386 450
#     4  12  27  45  80 103 152 201 247 312 394 441
#     4  12  29  49  76 116 155 198 266 316 379 473
#     4  11  24  49  74 110 150 193 251 315 375 468
#
# _framework density 22.804589
#
# number of rings (size 3 to 8) (size 9 to 14) (size 15 to 20)
#    0.000    0.500    2.500    3.750   14.000    0.000 
#    0.000    0.000    0.000    0.000    0.000    0.000 
#    0.000    0.000    0.000    0.000    0.000    0.000 
#
# Total GULP energy -89428.366626 kJ/mol
# GULP energy per Si atom -5589.272914 kJ/mol
# Density = 2.275268 g / cm^3
# Si number density = 22.804589 Si / 1000 Ang^3
#
#
#
# Elastic Constant Matrix: (Units=GPa)
#
#
# Indices 1 2 3 4 5 6 
#
# 1 138.9583 50.3742 56.5928 0.0000 -10.3890 0.0000
# 2 50.3742 77.7683 39.6568 0.0000 -4.3938 0.0000
# 3 56.5928 39.6568 132.2768 0.0000 -20.3480 0.0000
# 4 0.0000 0.0000 0.0000 53.9434 0.0000 -0.6479
# 5 -10.3890 -4.3938 -20.3480 0.0000 48.5821 0.0000
# 6 0.0000 0.0000 0.0000 -0.6479 0.0000 31.3413
#
#
#
# Elastic Compliance Matrix: (Units=1/GPa)
#
#
# Indices 1 2 3 4 5 6 
#
# 1 0.010239 -0.005207 -0.002731 0.000000 0.000575 0.000000
# 2 -0.005207 0.017842 -0.003254 0.000000 -0.000863 0.000000
# 3 -0.002731 -0.003254 0.010228 0.000000 0.003405 0.000000
# 4 0.000000 0.000000 0.000000 0.018543 0.000000 0.000383
# 5 0.000575 -0.000863 0.003405 0.000000 0.022055 0.000000
# 6 0.000000 0.000000 0.000000 0.000383 0.000000 0.031915
#
#
# Mechanical properties :
#
#
# Convention : Reuss Voigt Hill
#
# Bulk Modulus (GPa) = 62.79636 71.36121 67.07879
# Shear Modulus (GPa) = 36.09720 40.26537 38.18128
#
# Velocity S-wave (km/s) = 3.98287 4.20655 4.09624
# Velocity P-wave (km/s) = 6.98194 7.41308 7.20074
#
# Compressibility (1/GPa) = 0.01592449
#
# Stress axis : x y z
#
# Youngs Moduli (GPa) = 97.66173 56.04658 97.77256
#
# Poissons Ratio (x) = 0.29185 0.26704
# Poissons Ratio (y) = 0.50856 0.31815
# Poissons Ratio (z) = 0.26674 0.18237
#
# Static dielectric constant tensor:
#      x y z
#    x 1.904180 0.000000 -0.016180 
#    y 0.000000 1.881580 0.000000 
#    z -0.016180 0.000000 1.832060 
# 
# From -- ./inp_files/23161.got.cif
#   From: 2010.05.17/outbox.cif.g08.bks.cpg/sg14_12_cif.got.tgz:23161.got - 2010.06.03 17:49:19.
