data_PCOD9252083
_publ_section_title
;
Structure prediction by ZEFSAII (Michael W. Deem and Ramdas Pophale) SiO2 
 PCOD9252083
Probable space group: P 21/C
;
_chemical_formula_sum "Si O2"
_cell_formula_units_Z 28
_cell_length_a 5.550058
_cell_length_b 19.162236
_cell_length_c 12.485857
_cell_angle_alpha 90.000000
_cell_angle_beta 116.880122
_cell_angle_gamma 90.000000
_cell_volume 1184.417282
_symmetry_space_group_name_H-M "P 21/C"
_symmetry_group_IT_number 14
_symmetry_cell_setting 'monoclinic'
loop_
_space_group_symop_operation_xyz
x,y,z
-x,1/2+y,1/2-z
-x,-y,-z
x,1/2-y,1/2+z
loop_
_atom_site_type_symbol
_atom_site_label
_atom_site_fract_x
_atom_site_fract_y
_atom_site_fract_z
Si Si1 0.299538 0.990923 0.284314
Si Si2 0.783795 0.234900 0.086885
Si Si3 0.179801 0.071586 0.536813
Si Si4 0.006644 0.620250 0.219600
Si Si5 0.173900 0.178036 0.981165
Si Si6 0.450296 0.460192 0.600214
Si Si7 0.026435 0.133916 0.716165
O O1 0.524878 0.961160 0.407784
O O2 0.048270 0.943782 0.263017
O O3 0.237838 0.072112 0.287536
O O4 0.368045 0.984646 0.173791
O O5 0.957683 0.192001 0.210819
O O6 0.801294 0.316201 0.118658
O O7 0.939215 0.214104 0.006743
O O8 0.472224 0.212970 0.039100
O O9 0.054775 0.119370 0.418636
O O10 0.206525 0.118584 0.648889
O O11 0.000000 0.000000 0.500000
O O12 0.280369 0.578305 0.303114
O O13 0.109297 0.170054 0.842808
O O14 0.226895 0.100015 0.038227
O O15 0.500000 0.500000 0.500000
#
# Coordination Sequence:
#
# PCOD9252083 Si02
#       7
#     4   4   4   4   4   4   4
#     4  12  23  43  73 107 146 195 254 314 384 447
#     4  11  29  51  76 107 151 206 255 312 386 453
#     4  12  25  45  68 111 150 189 251 311 385 454
#     4  11  24  45  67 105 144 198 244 309 375 454
#     4  11  27  52  74 108 150 197 256 311 380 456
#     4  11  23  42  72 107 145 192 248 315 376 452
#     4  12  30  46  76 111 148 200 254 320 378 463
#
# _framework density 23.640319000000002
#
# number of rings (size 3 to 8) (size 9 to 14) (size 15 to 20)
#    0.000    0.571    4.286    2.143   10.000    1.143 
#    2.571    0.000    0.000    0.000    0.000    0.000 
#    0.000    0.000    0.000    0.000    0.000    0.000 
#
# Total GULP energy -156348.932190 kJ/mol
# GULP energy per Si atom -5583.890435 kJ/mol
# Density = 2.358651 g / cm^3
# Si number density = 23.640319 Si / 1000 Ang^3
#
#
#
# Elastic Constant Matrix: (Units=GPa)
#
#
# Indices 1 2 3 4 5 6 
#
# 1 56.0424 0.9547 27.1793 0.0000 -15.4932 0.0000
# 2 0.9547 49.0551 3.1494 0.0000 -14.2749 0.0000
# 3 27.1793 3.1494 143.3785 0.0000 -34.4688 0.0000
# 4 0.0000 0.0000 0.0000 6.3958 0.0000 1.3851
# 5 -15.4932 -14.2749 -34.4688 0.0000 37.5378 0.0000
# 6 0.0000 0.0000 0.0000 1.3851 0.0000 27.4248
#
#
#
# Elastic Compliance Matrix: (Units=1/GPa)
#
#
# Indices 1 2 3 4 5 6 
#
# 1 0.020916 0.001851 -0.002260 0.000000 0.007262 0.000000
# 2 0.001851 0.023562 0.001885 0.000000 0.011455 0.000000
# 3 -0.002260 0.001885 0.009380 0.000000 0.008398 0.000000
# 4 0.000000 0.000000 0.000000 0.158083 0.000000 -0.007984
# 5 0.007262 0.011455 0.008398 0.000000 0.041704 0.000000
# 6 0.000000 0.000000 0.000000 -0.007984 0.000000 0.036867
#
#
# Mechanical properties :
#
#
# Convention : Reuss Voigt Hill
#
# Bulk Modulus (GPa) = 17.60220 34.56032 26.08126
# Shear Modulus (GPa) = 16.31350 28.75116 22.53233
#
# Velocity S-wave (km/s) = 2.62977 3.49118 3.09063
# Velocity P-wave (km/s) = 4.08447 5.55896 4.87775
#
# Compressibility (1/GPa) = 0.05681109
#
# Stress axis : x y z
#
# Youngs Moduli (GPa) = 47.81134 42.44191 106.60570
#
# Poissons Ratio (x) = -0.07856 0.24091
# Poissons Ratio (y) = -0.08850 -0.20100
# Poissons Ratio (z) = 0.10804 -0.08002
#
# Static dielectric constant tensor:
#      x y z
#    x 1.941470 0.000000 -0.010900 
#    y 0.000000 1.894700 0.000000 
#    z -0.010900 0.000000 1.957120 
# 
# From -- ./inp_files/21831.got.cif
#   From: 2010.05.17/outbox.cif.g08.bks.cpg/sg14_11_cif.got.tgz:21831.got - 2010.06.03 17:49:19.
