data_PCOD9252340
_publ_section_title
;
Structure prediction by ZEFSAII (Michael W. Deem and Ramdas Pophale) SiO2 
 PCOD9252340
Probable space group: P 21/C
;
_chemical_formula_sum "Si O2"
_cell_formula_units_Z 28
_cell_length_a 15.109142
_cell_length_b 7.173080
_cell_length_c 19.748656
_cell_angle_alpha 90.000000
_cell_angle_beta 29.182274
_cell_angle_gamma 90.000000
_cell_volume 1043.608079
_symmetry_space_group_name_H-M "P 21/C"
_symmetry_group_IT_number 14
_symmetry_cell_setting 'monoclinic'
loop_
_space_group_symop_operation_xyz
x,y,z
-x,1/2+y,1/2-z
-x,-y,-z
x,1/2-y,1/2+z
loop_
_atom_site_type_symbol
_atom_site_label
_atom_site_fract_x
_atom_site_fract_y
_atom_site_fract_z
Si Si1 0.557455 0.805820 0.042580
Si Si2 0.100971 0.336497 0.017512
Si Si3 0.503852 0.295848 0.275461
Si Si4 0.888187 0.245376 0.034863
Si Si5 0.549424 0.132397 0.589235
Si Si6 0.215310 0.742208 0.678787
Si Si7 0.793807 0.823525 0.275229
O O1 0.519999 0.911080 0.138219
O O2 0.563852 0.586033 0.059133
O O3 0.381192 0.833198 0.113854
O O4 0.735465 0.813735 0.875984
O O5 0.297790 0.267227 0.904110
O O6 0.992764 0.209994 0.035194
O O7 0.134056 0.531701 0.958011
O O8 0.971449 0.345202 0.169810
O O9 0.553778 0.357718 0.166525
O O10 0.684152 0.170765 0.171058
O O11 0.013797 0.201364 0.887900
O O12 0.712570 0.252012 0.446094
O O13 0.363369 0.197975 0.676928
O O14 0.208089 0.962850 0.700099
#
# Coordination Sequence:
#
# PCOD9252340 Si02
#       7
#     4   4   4   4   4   4   4
#     4   9  19  37  62  92 120 159 213 261 303 370
#     4  11  24  41  60  93 133 164 202 263 323 370
#     4  12  22  38  62  88 124 170 206 252 308 378
#     4  11  24  41  60  93 133 164 202 263 323 370
#     4   9  19  37  62  92 120 159 213 261 303 370
#     4   9  19  40  66  88 120 165 211 257 311 371
#     4   9  19  40  66  88 120 165 211 257 311 371
#
# _framework density 26.829993999999999
#
# number of rings (size 3 to 8) (size 9 to 14) (size 15 to 20)
#    0.000    2.000    2.857    2.571    0.000    4.000 
#    0.000    5.714    0.000    0.000    0.000    0.000 
#    0.000    0.000    0.000    0.000    0.000    0.000 
#
# Total GULP energy -156629.178403 kJ/mol
# GULP energy per Si atom -5593.899229 kJ/mol
# Density = 2.676893 g / cm^3
# Si number density = 26.829994 Si / 1000 Ang^3
#
#
#
# Elastic Constant Matrix: (Units=GPa)
#
#
# Indices 1 2 3 4 5 6 
#
# 1 123.4416 25.9064 88.3527 0.0000 4.0077 0.0000
# 2 25.9064 39.2411 26.3154 0.0000 10.8069 0.0000
# 3 88.3527 26.3154 262.9651 0.0000 8.6043 0.0000
# 4 0.0000 0.0000 0.0000 40.6776 0.0000 6.0519
# 5 4.0077 10.8069 8.6043 0.0000 56.1867 0.0000
# 6 0.0000 0.0000 0.0000 6.0519 0.0000 14.5053
#
#
#
# Elastic Compliance Matrix: (Units=1/GPa)
#
#
# Indices 1 2 3 4 5 6 
#
# 1 0.011687 -0.005658 -0.003386 0.000000 0.000773 0.000000
# 2 -0.005658 0.031443 -0.001066 0.000000 -0.005481 0.000000
# 3 -0.003386 -0.001066 0.005058 0.000000 -0.000328 0.000000
# 4 0.000000 0.000000 0.000000 0.026210 0.000000 -0.010936
# 5 0.000773 -0.005481 -0.000328 0.000000 0.018847 0.000000
# 6 0.000000 0.000000 0.000000 -0.010936 0.000000 0.073503
#
#
# Mechanical properties :
#
#
# Convention : Reuss Voigt Hill
#
# Bulk Modulus (GPa) = 35.75512 78.53298 57.14405
# Shear Modulus (GPa) = 25.47252 41.27881 33.37567
#
# Velocity S-wave (km/s) = 3.08458 3.92667 3.53082
# Velocity P-wave (km/s) = 5.10311 7.06346 6.16174
#
# Compressibility (1/GPa) = 0.02796803
#
# Stress axis : x y z
#
# Youngs Moduli (GPa) = 85.56863 31.80345 197.71650
#
# Poissons Ratio (x) = 0.17994 0.66939
# Poissons Ratio (y) = 0.48413 0.21083
# Poissons Ratio (z) = 0.28970 0.03391
#
# Static dielectric constant tensor:
#      x y z
#    x 2.067620 0.000000 0.051850 
#    y 0.000000 2.311130 0.000000 
#    z 0.051850 0.000000 2.101780 
# 
# From -- ./inp_files/59273.got.cif
#   From: 2010.05.17/outbox.cif.g08.bks.cpg/sg14_30_cif.got.tgz:59273.got - 2010.06.03 17:49:19.
