data_PCOD9252171
_publ_section_title
;
Structure prediction by ZEFSAII (Michael W. Deem and Ramdas Pophale) SiO2 
 PCOD9252171
Probable space group: P 21/C
;
_chemical_formula_sum "Si O2"
_cell_formula_units_Z 24
_cell_length_a 14.033435
_cell_length_b 7.997028
_cell_length_c 8.683309
_cell_angle_alpha 90.000000
_cell_angle_beta 75.754579
_cell_angle_gamma 90.000000
_cell_volume 944.526025
_symmetry_space_group_name_H-M "P 21/C"
_symmetry_group_IT_number 14
_symmetry_cell_setting 'monoclinic'
loop_
_space_group_symop_operation_xyz
x,y,z
-x,1/2+y,1/2-z
-x,-y,-z
x,1/2-y,1/2+z
loop_
_atom_site_type_symbol
_atom_site_label
_atom_site_fract_x
_atom_site_fract_y
_atom_site_fract_z
Si Si1 0.086555 0.580004 0.861842
Si Si2 0.354827 0.556786 0.380366
Si Si3 0.192619 0.395697 0.263625
Si Si4 0.287795 0.461974 0.748873
Si Si5 0.930256 0.683117 0.399740
Si Si6 0.468938 0.910253 0.352612
O O1 0.200353 0.572433 0.859920
O O2 0.086868 0.465366 0.710996
O O3 0.043238 0.761820 0.847694
O O4 0.000000 0.500000 0.000000
O O5 0.267806 0.543040 0.284064
O O6 0.307621 0.515163 0.564372
O O7 0.436891 0.422683 0.295786
O O8 0.417136 0.728145 0.376835
O O9 0.257234 0.229786 0.262793
O O10 0.137152 0.342297 0.128103
O O11 0.105147 0.377484 0.421840
O O12 0.384357 0.481314 0.808742
O O13 0.500000 0.000000 0.500000
#
# Coordination Sequence:
#
# PCOD9252171 Si02
#       6
#     4   4   4   4   4   4
#     4  11  23  44  70 107 150 195 255 311 383 456
#     4  12  26  50  75 111 153 197 256 320 389 463
#     4  11  23  45  75 106 149 206 253 316 383 456
#     4  11  25  48  72 103 155 197 251 325 388 458
#     4  11  23  44  72 109 151 207 248 316 384 445
#     4  12  29  48  78 115 145 199 255 321 391 465
#
# _framework density 25.409572000000001
#
# number of rings (size 3 to 8) (size 9 to 14) (size 15 to 20)
#    0.000    0.667    6.667    2.500    2.333    6.000 
#    0.000    0.000    0.000    0.000    0.000    0.000 
#    0.000    0.000    0.000    0.000    0.000    0.000 
#
# Total GULP energy -134224.890150 kJ/mol
# GULP energy per Si atom -5592.703756 kJ/mol
# Density = 2.535174 g / cm^3
# Si number density = 25.409572 Si / 1000 Ang^3
#
#
#
# Elastic Constant Matrix: (Units=GPa)
#
#
# Indices 1 2 3 4 5 6 
#
# 1 183.9677 33.1941 24.6325 0.0000 -10.6547 0.0000
# 2 33.1941 114.9644 31.1003 0.0000 -7.9185 0.0000
# 3 24.6325 31.1003 87.5665 0.0000 -26.8186 0.0000
# 4 0.0000 0.0000 0.0000 13.8540 0.0000 6.9942
# 5 -10.6547 -7.9185 -26.8186 0.0000 42.0683 0.0000
# 6 0.0000 0.0000 0.0000 6.9942 0.0000 59.6928
#
#
#
# Elastic Compliance Matrix: (Units=1/GPa)
#
#
# Indices 1 2 3 4 5 6 
#
# 1 0.005850 -0.001386 -0.000969 0.000000 0.000603 0.000000
# 2 -0.001386 0.009958 -0.003331 0.000000 -0.000600 0.000000
# 3 -0.000969 -0.003331 0.015667 0.000000 0.009116 0.000000
# 4 0.000000 0.000000 0.000000 0.076720 0.000000 -0.008989
# 5 0.000603 -0.000600 0.009116 0.000000 0.029622 0.000000
# 6 0.000000 0.000000 0.000000 -0.008989 0.000000 0.017806
#
#
# Mechanical properties :
#
#
# Convention : Reuss Voigt Hill
#
# Bulk Modulus (GPa) = 49.73779 62.70582 56.22180
# Shear Modulus (GPa) = 28.78609 42.96113 35.87361
#
# Velocity S-wave (km/s) = 3.36949 4.11633 3.76149
# Velocity P-wave (km/s) = 5.89532 6.87923 6.40619
#
# Compressibility (1/GPa) = 0.02010544
#
# Stress axis : x y z
#
# Youngs Moduli (GPa) = 170.92836 100.42060 63.82788
#
# Poissons Ratio (x) = 0.13914 0.06184
# Poissons Ratio (y) = 0.23683 0.21259
# Poissons Ratio (z) = 0.16560 0.33447
#
# Static dielectric constant tensor:
#      x y z
#    x 2.094180 0.000000 0.014530 
#    y 0.000000 2.106580 0.000000 
#    z 0.014530 0.000000 1.985370 
# 
# From -- ./inp_files/15209.got.cif
#   From: 2010.05.17/outbox.cif.g08.bks.cpg/sg14_8_cif.got.tgz:15209.got - 2010.06.03 17:49:19.
