data_PCOD9252641
_publ_section_title
;
Structure prediction by ZEFSAII (Michael W. Deem and Ramdas Pophale) SiO2 
 PCOD9252641
Probable space group: P 21/C
;
_chemical_formula_sum "Si O2"
_cell_formula_units_Z 24
_cell_length_a 5.257660
_cell_length_b 14.373376
_cell_length_c 13.705713
_cell_angle_alpha 90.000000
_cell_angle_beta 70.067830
_cell_angle_gamma 90.000000
_cell_volume 973.700790
_symmetry_space_group_name_H-M "P 21/C"
_symmetry_group_IT_number 14
_symmetry_cell_setting 'monoclinic'
loop_
_space_group_symop_operation_xyz
x,y,z
-x,1/2+y,1/2-z
-x,-y,-z
x,1/2-y,1/2+z
loop_
_atom_site_type_symbol
_atom_site_label
_atom_site_fract_x
_atom_site_fract_y
_atom_site_fract_z
Si Si1 0.620195 0.208189 0.208373
Si Si2 0.948800 0.110798 0.630337
Si Si3 0.723594 0.647258 0.643766
Si Si4 0.428383 0.887211 0.505167
Si Si5 0.338636 0.818865 0.024247
Si Si6 0.769660 0.481859 0.784561
O O1 0.824636 0.295647 0.190761
O O2 0.358653 0.253072 0.296574
O O3 0.570509 0.188174 0.100210
O O4 0.756133 0.114341 0.229585
O O5 0.262710 0.130222 0.565923
O O6 0.956061 0.023081 0.702888
O O7 0.785564 0.093940 0.552923
O O8 0.036829 0.642907 0.573575
O O9 0.545816 0.632641 0.570284
O O10 0.670991 0.566385 0.729747
O O11 0.327803 0.788231 0.559887
O O12 0.406729 0.958951 0.596374
#
# Coordination Sequence:
#
# PCOD9252641 Si02
#       6
#     4   4   4   4   4   4
#     4  11  27  51  79 112 153 209 248 312 386 445
#     4  11  25  49  73 114 152 189 267 316 360 454
#     4  12  27  50  73 114 154 191 263 313 363 468
#     4  11  24  48  78 109 148 201 250 324 378 422
#     4  11  25  50  75 106 158 199 245 316 374 451
#     4  12  26  46  80 114 150 205 249 310 390 444
#
# _framework density 24.648226999999999
#
# number of rings (size 3 to 8) (size 9 to 14) (size 15 to 20)
#    0.000    0.667    1.667    6.000    0.000    5.333 
#    0.000    0.000    0.000    0.000    0.000    0.000 
#    0.000    0.000    0.000    0.000    0.000    0.000 
#
# Total GULP energy -134359.994186 kJ/mol
# GULP energy per Si atom -5598.333091 kJ/mol
# Density = 2.459213 g / cm^3
# Si number density = 24.648227 Si / 1000 Ang^3
#
#
#
# Elastic Constant Matrix: (Units=GPa)
#
#
# Indices 1 2 3 4 5 6 
#
# 1 144.0129 16.5278 35.4344 0.0000 25.6157 0.0000
# 2 16.5278 117.6970 17.7875 0.0000 32.5506 0.0000
# 3 35.4344 17.7875 105.0864 0.0000 30.1483 0.0000
# 4 0.0000 0.0000 0.0000 56.7491 0.0000 14.5065
# 5 25.6157 32.5506 30.1483 0.0000 38.3885 0.0000
# 6 0.0000 0.0000 0.0000 14.5065 0.0000 32.7571
#
#
#
# Elastic Compliance Matrix: (Units=1/GPa)
#
#
# Indices 1 2 3 4 5 6 
#
# 1 0.008072 0.000337 -0.001487 0.000000 -0.004505 0.000000
# 2 0.000337 0.011206 0.001007 0.000000 -0.010517 0.000000
# 3 -0.001487 0.001007 0.012659 0.000000 -0.009804 0.000000
# 4 0.000000 0.000000 0.000000 0.019871 0.000000 -0.008800
# 5 -0.004505 -0.010517 -0.009804 0.000000 0.045672 0.000000
# 6 0.000000 0.000000 0.000000 -0.008800 0.000000 0.034425
#
#
# Mechanical properties :
#
#
# Convention : Reuss Voigt Hill
#
# Bulk Modulus (GPa) = 31.59396 56.25508 43.92452
# Shear Modulus (GPa) = 35.02847 45.38206 40.20526
#
# Velocity S-wave (km/s) = 3.77388 4.29556 4.04315
# Velocity P-wave (km/s) = 5.64228 6.89023 6.29724
#
# Compressibility (1/GPa) = 0.03165162
#
# Stress axis : x y z
#
# Youngs Moduli (GPa) = 123.88266 89.24161 78.99235
#
# Poissons Ratio (x) = -0.03007 0.11743
# Poissons Ratio (y) = -0.04174 -0.07954
# Poissons Ratio (z) = 0.18416 -0.08986
#
# Static dielectric constant tensor:
#      x y z
#    x 1.932130 0.000000 -0.026360 
#    y 0.000000 2.054310 0.000000 
#    z -0.026360 0.000000 2.023000 
# 
# From -- ./inp_files/52990.got.cif
#   From: 2010.05.17/outbox.cif.g08.bks.cpg/sg14_27_cif.got.tgz:52990.got - 2010.06.03 17:49:19.
