data_PCOD9252774
_publ_section_title
;
Structure prediction by ZEFSAII (Michael W. Deem and Ramdas Pophale) SiO2 
 PCOD9252774
Probable space group: P 21/C
;
_chemical_formula_sum "Si O2"
_cell_formula_units_Z 20
_cell_length_a 5.734325
_cell_length_b 17.360450
_cell_length_c 9.990787
_cell_angle_alpha 90.000000
_cell_angle_beta 52.822336
_cell_angle_gamma 90.000000
_cell_volume 792.453032
_symmetry_space_group_name_H-M "P 21/C"
_symmetry_group_IT_number 14
_symmetry_cell_setting 'monoclinic'
loop_
_space_group_symop_operation_xyz
x,y,z
-x,1/2+y,1/2-z
-x,-y,-z
x,1/2-y,1/2+z
loop_
_atom_site_type_symbol
_atom_site_label
_atom_site_fract_x
_atom_site_fract_y
_atom_site_fract_z
Si Si1 0.926493 0.782496 0.712681
Si Si2 0.876940 0.325891 0.120674
Si Si3 0.247264 0.126122 0.870070
Si Si4 0.731575 0.564567 0.369461
Si Si5 0.192856 0.040410 0.617566
O O1 0.810342 0.711673 0.663955
O O2 0.683914 0.848941 0.825490
O O3 0.166947 0.813287 0.522688
O O4 0.054757 0.745971 0.804751
O O5 0.594779 0.369718 0.276430
O O6 0.146534 0.384556 0.044096
O O7 0.165870 0.071253 0.777711
O O8 0.102047 0.092344 0.053040
O O9 0.500000 0.500000 0.500000
O O10 0.937496 0.521827 0.192241
O O11 0.500000 0.000000 0.500000
#
# Coordination Sequence:
#
# PCOD9252774 Si02
#       5
#     4   4   4   4   4
#     4  11  26  45  71 106 146 196 244 301 365 449
#     4  11  25  46  70 105 146 193 246 298 370 443
#     4  11  25  46  72 103 146 194 245 297 370 442
#     4  12  25  47  75 109 148 194 247 311 367 437
#     4  11  26  45  72 106 143 190 244 306 368 432
#
# _framework density 25.238091000000001
#
# number of rings (size 3 to 8) (size 9 to 14) (size 15 to 20)
#    0.000    0.800    4.000    1.800    5.600    3.200 
#    0.000    0.000    0.000    0.000    0.000    0.000 
#    0.000    0.000    0.000    0.000    0.000    0.000 
#
# Total GULP energy -111649.647743 kJ/mol
# GULP energy per Si atom -5582.482387 kJ/mol
# Density = 2.518065 g / cm^3
# Si number density = 25.238091 Si / 1000 Ang^3
#
#
#
# Elastic Constant Matrix: (Units=GPa)
#
#
# Indices 1 2 3 4 5 6 
#
# 1 41.9870 19.9036 3.2782 0.0000 17.1178 0.0000
# 2 19.9036 156.5053 27.0833 0.0000 9.3866 0.0000
# 3 3.2782 27.0833 71.3241 0.0000 24.3092 0.0000
# 4 0.0000 0.0000 0.0000 39.4649 0.0000 2.4650
# 5 17.1178 9.3866 24.3092 0.0000 54.4676 0.0000
# 6 0.0000 0.0000 0.0000 2.4650 0.0000 27.5050
#
#
#
# Elastic Compliance Matrix: (Units=1/GPa)
#
#
# Indices 1 2 3 4 5 6 
#
# 1 0.029476 -0.003751 0.003546 0.000000 -0.010200 0.000000
# 2 -0.003751 0.007316 -0.003040 0.000000 0.001275 0.000000
# 3 0.003546 -0.003040 0.017942 0.000000 -0.008598 0.000000
# 4 0.000000 0.000000 0.000000 0.025482 0.000000 -0.002284
# 5 -0.010200 0.001275 -0.008598 0.000000 0.025183 0.000000
# 6 0.000000 0.000000 0.000000 -0.002284 0.000000 0.036562
#
#
# Mechanical properties :
#
#
# Convention : Reuss Voigt Hill
#
# Bulk Modulus (GPa) = 20.72753 41.14963 30.93858
# Shear Modulus (GPa) = 30.38910 38.92425 34.65667
#
# Velocity S-wave (km/s) = 3.47377 3.93145 3.70968
# Velocity P-wave (km/s) = 4.93154 6.07852 5.53482
#
# Compressibility (1/GPa) = 0.04824501
#
# Stress axis : x y z
#
# Youngs Moduli (GPa) = 33.92554 136.68321 55.73370
#
# Poissons Ratio (x) = 0.51263 -0.19762
# Poissons Ratio (y) = 0.12724 0.16944
# Poissons Ratio (z) = -0.12029 0.41554
#
# Static dielectric constant tensor:
#      x y z
#    x 1.991720 0.000000 -0.081830 
#    y 0.000000 2.283180 0.000000 
#    z -0.081830 0.000000 2.095250 
# 
# From -- ./inp_files/21138.got.cif
#   From: 2010.05.17/outbox.cif.g08.bks.cpg/sg14_11_cif.got.tgz:21138.got - 2010.06.03 17:49:19.
