data_PCOD9252560
_publ_section_title
;
Structure prediction by ZEFSAII (Michael W. Deem and Ramdas Pophale) SiO2 
 PCOD9252560
Probable space group: P 21/C
;
_chemical_formula_sum "Si O2"
_cell_formula_units_Z 24
_cell_length_a 14.535951
_cell_length_b 5.312314
_cell_length_c 14.914572
_cell_angle_alpha 90.000000
_cell_angle_beta 59.394349
_cell_angle_gamma 90.000000
_cell_volume 991.255606
_symmetry_space_group_name_H-M "P 21/C"
_symmetry_group_IT_number 14
_symmetry_cell_setting 'monoclinic'
loop_
_space_group_symop_operation_xyz
x,y,z
-x,1/2+y,1/2-z
-x,-y,-z
x,1/2-y,1/2+z
loop_
_atom_site_type_symbol
_atom_site_label
_atom_site_fract_x
_atom_site_fract_y
_atom_site_fract_z
Si Si1 0.251335 0.060414 0.301947
Si Si2 0.652253 0.246171 0.595756
Si Si3 0.954142 0.477913 0.794614
Si Si4 0.033207 0.253324 0.433831
Si Si5 0.267602 0.709318 0.135491
Si Si6 0.423340 0.056149 0.695936
O O1 0.161232 0.266940 0.359682
O O2 0.367851 0.171283 0.223479
O O3 0.260764 0.903121 0.388593
O O4 0.219170 0.904323 0.230704
O O5 0.696328 0.327296 0.477276
O O6 0.549789 0.071492 0.624690
O O7 0.608288 0.443963 0.690943
O O8 0.827524 0.485094 0.838466
O O9 0.993144 0.762918 0.798302
O O10 0.977903 0.292155 0.866646
O O11 0.000000 0.500000 0.500000
O O12 0.000000 0.000000 0.500000
O O13 0.365696 0.591201 0.143476
#
# Coordination Sequence:
#
# PCOD9252560 Si02
#       6
#     4   4   4   4   4   4
#     4  11  25  46  70 105 144 187 245 307 365 449
#     4  11  24  46  71 104 141 189 244 303 384 442
#     4  12  25  47  71 105 150 189 241 308 368 438
#     4  12  27  46  75 107 147 197 247 305 375 445
#     4  11  26  43  72 104 140 194 245 304 375 446
#     4  11  24  46  70 101 144 184 244 312 368 454
#
# _framework density 24.211717
#
# number of rings (size 3 to 8) (size 9 to 14) (size 15 to 20)
#    0.000    0.667    3.333    3.500    7.000    2.000 
#    0.000    0.000    0.000    0.000    0.000    0.000 
#    0.000    0.000    0.000    0.000    0.000    0.000 
#
# Total GULP energy -134094.569160 kJ/mol
# GULP energy per Si atom -5587.273715 kJ/mol
# Density = 2.415661 g / cm^3
# Si number density = 24.211717 Si / 1000 Ang^3
#
#
#
# Elastic Constant Matrix: (Units=GPa)
#
#
# Indices 1 2 3 4 5 6 
#
# 1 95.9550 2.5646 36.3811 0.0000 -5.3254 0.0000
# 2 2.5646 70.9911 -0.3890 0.0000 2.4345 0.0000
# 3 36.3811 -0.3890 72.0083 0.0000 12.9970 0.0000
# 4 0.0000 0.0000 0.0000 32.1870 0.0000 -3.8246
# 5 -5.3254 2.4345 12.9970 0.0000 33.4977 0.0000
# 6 0.0000 0.0000 0.0000 -3.8246 0.0000 32.7267
#
#
#
# Elastic Compliance Matrix: (Units=1/GPa)
#
#
# Indices 1 2 3 4 5 6 
#
# 1 0.013729 -0.000721 -0.007897 0.000000 0.005299 0.000000
# 2 -0.000721 0.014165 0.000696 0.000000 -0.001414 0.000000
# 3 -0.007897 0.000696 0.019481 0.000000 -0.008864 0.000000
# 4 0.000000 0.000000 0.000000 0.031506 0.000000 0.003682
# 5 0.005299 -0.001414 -0.008864 0.000000 0.034237 0.000000
# 6 0.000000 0.000000 0.000000 0.003682 0.000000 0.030986
#
#
# Mechanical properties :
#
#
# Convention : Reuss Voigt Hill
#
# Bulk Modulus (GPa) = 31.71480 35.11868 33.41674
# Shear Modulus (GPa) = 29.33287 33.04212 31.18749
#
# Velocity S-wave (km/s) = 3.48446 3.69821 3.59293
# Velocity P-wave (km/s) = 5.41442 5.72469 5.57172
#
# Compressibility (1/GPa) = 0.03153102
#
# Stress axis : x y z
#
# Youngs Moduli (GPa) = 72.83918 70.59844 51.33302
#
# Poissons Ratio (x) = 0.05090 0.40536
# Poissons Ratio (y) = 0.05251 -0.03573
# Poissons Ratio (z) = 0.57518 -0.04914
#
# Static dielectric constant tensor:
#      x y z
#    x 1.952790 0.000000 0.179940 
#    y 0.000000 0.871640 0.000000 
#    z 0.179940 0.000000 2.501780 
# 
# From -- ./inp_files/45803.got.cif
#   From: 2010.05.17/outbox.cif.g08.bks.cpg/sg14_23_cif.got.tgz:45803.got - 2010.06.03 17:49:19.
