data_PCOD9252908
_publ_section_title
;
Structure prediction by ZEFSAII (Michael W. Deem and Ramdas Pophale) SiO2 
 PCOD9252908
Probable space group: P 21/C
;
_chemical_formula_sum "Si O2"
_cell_formula_units_Z 30
_cell_length_a 15.807461
_cell_length_b 10.635205
_cell_length_c 9.454092
_cell_angle_alpha 90.000000
_cell_angle_beta 121.747688
_cell_angle_gamma 90.000000
_cell_volume 1351.566769
_symmetry_space_group_name_H-M "P 21/C"
_symmetry_group_IT_number 14
_symmetry_cell_setting 'monoclinic'
loop_
_space_group_symop_operation_xyz
x,y,z
-x,1/2+y,1/2-z
-x,-y,-z
x,1/2-y,1/2+z
loop_
_atom_site_type_symbol
_atom_site_label
_atom_site_fract_x
_atom_site_fract_y
_atom_site_fract_z
Si Si1 0.404732 0.766666 0.532455
Si Si2 0.788967 0.203041 0.448438
Si Si3 0.893125 0.134554 0.817532
Si Si4 0.500000 0.500000 0.000000
Si Si5 0.224138 0.316689 0.451995
Si Si6 0.891367 0.657507 0.363668
Si Si7 0.307415 0.519404 0.326403
Si Si8 0.407675 0.148233 0.679006
O O1 0.316603 0.789909 0.565419
O O2 0.421797 0.879251 0.438767
O O3 0.375999 0.635299 0.433599
O O4 0.511167 0.749965 0.701355
O O5 0.868028 0.193648 0.644067
O O6 0.814579 0.315107 0.364272
O O7 0.781331 0.078801 0.345133
O O8 0.887753 0.984109 0.800653
O O9 0.000437 0.173290 0.971713
O O10 0.454837 0.447922 0.110497
O O11 0.136854 0.258769 0.279140
O O12 0.188429 0.331174 0.580503
O O13 0.262531 0.446442 0.419948
O O14 0.314987 0.218761 0.526815
O O15 0.367945 0.423607 0.282089
#
# Coordination Sequence:
#
# PCOD9252908 Si02
#       8
#     4   4   4   2   4   4   4   4
#     4  12  27  44  71 103 149 191 248 297 365 435
#     4  12  24  48  72 108 142 192 242 303 368 444
#     4  11  26  47  75 107 146 186 251 304 379 445
#     4  12  28  42  68 104 140 200 238 302 352 436
#     4  12  26  49  75 106 149 194 249 307 379 443
#     4  11  26  48  74 108 142 194 240 315 373 448
#     4  12  25  46  72 105 146 194 246 305 367 443
#     4  12  27  45  68 105 147 197 244 300 359 443
#
# _framework density 22.196462
#
# number of rings (size 3 to 8) (size 9 to 14) (size 15 to 20)
#    0.000    0.267    4.000    4.400    1.867    0.000 
#    0.000    1.333    0.000    0.000    0.000    0.000 
#    0.000    0.000    0.000    0.000    0.000    0.000 
#
# Total GULP energy -167518.354701 kJ/mol
# GULP energy per Si atom -5583.945157 kJ/mol
# Density = 2.214594 g / cm^3
# Si number density = 22.196462 Si / 1000 Ang^3
#
#
#
# Elastic Constant Matrix: (Units=GPa)
#
#
# Indices 1 2 3 4 5 6 
#
# 1 48.2137 11.5848 -2.2119 0.0000 -1.1014 0.0000
# 2 11.5848 53.4267 -0.6255 0.0000 1.7390 0.0000
# 3 -2.2119 -0.6255 50.0175 0.0000 -1.2582 0.0000
# 4 0.0000 0.0000 0.0000 22.5573 0.0000 5.9697
# 5 -1.1014 1.7390 -1.2582 0.0000 23.2789 0.0000
# 6 0.0000 0.0000 0.0000 5.9697 0.0000 25.7956
#
#
#
# Elastic Compliance Matrix: (Units=1/GPa)
#
#
# Indices 1 2 3 4 5 6 
#
# 1 0.021971 -0.004800 0.000948 0.000000 0.001449 0.000000
# 2 -0.004800 0.019814 -0.000007 0.000000 -0.001708 0.000000
# 3 0.000948 -0.000007 0.020063 0.000000 0.001130 0.000000
# 4 0.000000 0.000000 0.000000 0.047224 0.000000 -0.010929
# 5 0.001449 -0.001708 0.001130 0.000000 0.043214 0.000000
# 6 0.000000 0.000000 0.000000 -0.010929 0.000000 0.041295
#
#
# Mechanical properties :
#
#
# Convention : Reuss Voigt Hill
#
# Bulk Modulus (GPa) = 18.47448 18.79472 18.63460
# Shear Modulus (GPa) = 22.79529 23.85375 23.32452
#
# Velocity S-wave (km/s) = 3.20813 3.28176 3.24515
# Velocity P-wave (km/s) = 4.69723 4.77973 4.73866
#
# Compressibility (1/GPa) = 0.05412872
#
# Stress axis : x y z
#
# Youngs Moduli (GPa) = 45.51462 50.47043 49.84237
#
# Poissons Ratio (x) = 0.24227 -0.04725
# Poissons Ratio (y) = 0.21848 0.00037
# Poissons Ratio (z) = -0.04315 0.00038
#
# Static dielectric constant tensor:
#      x y z
#    x 1.771990 0.000000 0.022520 
#    y 0.000000 1.818200 0.000000 
#    z 0.022520 0.000000 1.834370 
# 
# From -- ./inp_files/15923.got.cif
#   From: 2010.05.17/outbox.cif.g08.bks.cpg/sg14_8_cif.got.tgz:15923.got - 2010.06.03 17:49:19.
