data_PCOD9252829
_publ_section_title
;
Structure prediction by ZEFSAII (Michael W. Deem and Ramdas Pophale) SiO2 
 PCOD9252829
Probable space group: P 21/C
;
_chemical_formula_sum "Si O2"
_cell_formula_units_Z 20
_cell_length_a 17.638561
_cell_length_b 4.965250
_cell_length_c 10.665570
_cell_angle_alpha 90.000000
_cell_angle_beta 48.854480
_cell_angle_gamma 90.000000
_cell_volume 703.407345
_symmetry_space_group_name_H-M "P 21/C"
_symmetry_group_IT_number 14
_symmetry_cell_setting 'monoclinic'
loop_
_space_group_symop_operation_xyz
x,y,z
-x,1/2+y,1/2-z
-x,-y,-z
x,1/2-y,1/2+z
loop_
_atom_site_type_symbol
_atom_site_label
_atom_site_fract_x
_atom_site_fract_y
_atom_site_fract_z
Si Si1 0.832926 0.511695 0.923361
Si Si2 0.417215 0.231721 0.466749
Si Si3 0.057472 0.750879 0.877659
Si Si4 0.625096 0.233080 0.155288
Si Si5 0.213898 0.143915 0.274739
O O1 0.926854 0.322646 0.785919
O O2 0.815537 0.684232 0.816170
O O3 0.737057 0.326376 0.063286
O O4 0.839164 0.707015 0.035425
O O5 0.536641 0.267390 0.354498
O O6 0.404381 0.933250 0.426583
O O7 0.332791 0.296558 0.660726
O O8 0.172782 0.656701 0.788182
O O9 0.000000 0.500000 0.000000
O O10 0.000000 0.000000 0.000000
O O11 0.616269 0.935617 0.108467
#
# Coordination Sequence:
#
# PCOD9252829 Si02
#       5
#     4   4   4   4   4
#     4  11  25  47  76 110 150 192 243 304 369 438
#     4   9  18  37  65 101 143 188 236 290 357 432
#     4  12  26  50  72 102 138 190 244 300 358 424
#     4   9  18  37  65 101 143 188 236 290 357 432
#     4  11  25  47  76 110 150 192 243 304 369 438
#
# _framework density 28.433026000000002
#
# number of rings (size 3 to 8) (size 9 to 14) (size 15 to 20)
#    0.000    1.600    4.000    0.000    0.000    4.000 
#    0.000    0.000    0.000   13.200    0.000    0.000 
#    0.000    0.000    0.000    0.000    0.000    0.000 
#
# Total GULP energy -111854.925629 kJ/mol
# GULP energy per Si atom -5592.746281 kJ/mol
# Density = 2.836831 g / cm^3
# Si number density = 28.433026 Si / 1000 Ang^3
#
#
#
# Elastic Constant Matrix: (Units=GPa)
#
#
# Indices 1 2 3 4 5 6 
#
# 1 77.2465 36.0769 45.5432 0.0000 8.9265 0.0000
# 2 36.0769 134.3375 60.6169 0.0000 9.1171 0.0000
# 3 45.5432 60.6169 256.1566 0.0000 -11.7980 0.0000
# 4 0.0000 0.0000 0.0000 52.8697 0.0000 -5.9527
# 5 8.9265 9.1171 -11.7980 0.0000 53.8301 0.0000
# 6 0.0000 0.0000 0.0000 -5.9527 0.0000 43.3613
#
#
#
# Elastic Compliance Matrix: (Units=1/GPa)
#
#
# Indices 1 2 3 4 5 6 
#
# 1 0.016019 -0.003118 -0.002231 0.000000 -0.002617 0.000000
# 2 -0.003118 0.009130 -0.001670 0.000000 -0.001395 0.000000
# 3 -0.002231 -0.001670 0.004774 0.000000 0.001699 0.000000
# 4 0.000000 0.000000 0.000000 0.019211 0.000000 0.002637
# 5 -0.002617 -0.001395 0.001699 0.000000 0.019620 0.000000
# 6 0.000000 0.000000 0.000000 0.002637 0.000000 0.023424
#
#
# Mechanical properties :
#
#
# Convention : Reuss Voigt Hill
#
# Bulk Modulus (GPa) = 62.95266 83.57940 73.26603
# Shear Modulus (GPa) = 44.83840 51.71248 48.27544
#
# Velocity S-wave (km/s) = 3.97543 4.26930 4.12499
# Velocity P-wave (km/s) = 6.57730 7.33223 6.96500
#
# Compressibility (1/GPa) = 0.01588495
#
# Stress axis : x y z
#
# Youngs Moduli (GPa) = 62.42401 109.53312 209.46592
#
# Poissons Ratio (x) = 0.34150 0.46730
# Poissons Ratio (y) = 0.19463 0.34989
# Poissons Ratio (z) = 0.13926 0.18296
#
# Static dielectric constant tensor:
#      x y z
#    x 2.388470 0.000000 -0.070120 
#    y 0.000000 2.224760 0.000000 
#    z -0.070120 0.000000 2.242760 
# 
# From -- ./inp_files/35448.got.cif
#   From: 2010.05.17/outbox.cif.g08.bks.cpg/sg14_18_cif.got.tgz:35448.got - 2010.06.03 17:49:19.
