data_PCOD9252314
_publ_section_title
;
Structure prediction by ZEFSAII (Michael W. Deem and Ramdas Pophale) SiO2 
 PCOD9252314
Probable space group: P 21/C
;
_chemical_formula_sum "Si O2"
_cell_formula_units_Z 32
_cell_length_a 11.425598
_cell_length_b 12.482495
_cell_length_c 17.495095
_cell_angle_alpha 90.000000
_cell_angle_beta 147.998735
_cell_angle_gamma 90.000000
_cell_volume 1322.274729
_symmetry_space_group_name_H-M "P 21/C"
_symmetry_group_IT_number 14
_symmetry_cell_setting 'monoclinic'
loop_
_space_group_symop_operation_xyz
x,y,z
-x,1/2+y,1/2-z
-x,-y,-z
x,1/2-y,1/2+z
loop_
_atom_site_type_symbol
_atom_site_label
_atom_site_fract_x
_atom_site_fract_y
_atom_site_fract_z
Si Si1 0.691931 0.257592 0.135345
Si Si2 0.973836 0.144078 0.655747
Si Si3 0.114492 0.801125 0.098557
Si Si4 0.603414 0.084980 0.867314
Si Si5 0.833964 0.455992 0.655050
Si Si6 0.783235 0.064882 0.404921
Si Si7 0.336021 0.095255 0.387126
Si Si8 0.721676 0.718184 0.287190
O O1 0.805012 0.312984 0.270699
O O2 0.723246 0.130346 0.150371
O O3 0.828354 0.295622 0.136831
O O4 0.444492 0.299769 0.986510
O O5 0.098034 0.223496 0.667368
O O6 0.813671 0.075505 0.512631
O O7 0.151555 0.069244 0.795252
O O8 0.218084 0.887440 0.098534
O O9 0.203927 0.683084 0.124114
O O10 0.851545 0.802821 0.937672
O O11 0.473716 0.197298 0.810227
O O12 0.428209 0.999761 0.739335
O O13 0.710961 0.047776 0.006069
O O14 0.090272 0.426171 0.780446
O O15 0.000000 0.000000 0.500000
O O16 0.336194 0.116455 0.296230
O O17 0.500000 0.000000 0.500000
#
# Coordination Sequence:
#
# PCOD9252314 Si02
#       8
#     4   4   4   4   4   4   4   4
#     4  12  26  44  72 108 144 192 241 302 367 440
#     4  11  24  46  74 104 143 188 240 306 369 434
#     4  11  26  46  70 107 146 190 247 301 370 444
#     4  12  25  47  73 106 144 194 244 310 361 439
#     4  12  25  45  74 106 146 186 249 301 370 443
#     4  11  23  48  76 105 140 194 248 297 371 441
#     4  12  25  45  72 105 146 193 235 297 379 433
#     4  11  24  49  73  99 145 190 243 304 367 431
#
# _framework density 24.200718999999999
#
# number of rings (size 3 to 8) (size 9 to 14) (size 15 to 20)
#    0.000    0.500    7.500    1.500    1.750    1.500 
#    2.250    1.250    0.000    0.000    0.000    0.000 
#    0.000    0.000    0.000    0.000    0.000    0.000 
#
# Total GULP energy -179451.064794 kJ/mol
# GULP energy per Si atom -5607.845775 kJ/mol
# Density = 2.414564 g / cm^3
# Si number density = 24.200719 Si / 1000 Ang^3
#
#
#
# Elastic Constant Matrix: (Units=GPa)
#
#
# Indices 1 2 3 4 5 6 
#
# 1 65.5898 -3.2659 32.8038 0.0000 -11.2563 0.0000
# 2 -3.2659 68.5081 26.0287 0.0000 10.1621 0.0000
# 3 32.8038 26.0287 165.8280 0.0000 -13.0115 0.0000
# 4 0.0000 0.0000 0.0000 47.9838 0.0000 10.1099
# 5 -11.2563 10.1621 -13.0115 0.0000 43.2663 0.0000
# 6 0.0000 0.0000 0.0000 10.1099 0.0000 15.3880
#
#
#
# Elastic Compliance Matrix: (Units=1/GPa)
#
#
# Indices 1 2 3 4 5 6 
#
# 1 0.017623 0.001709 -0.003509 0.000000 0.003128 0.000000
# 2 0.001709 0.016587 -0.003290 0.000000 -0.004441 0.000000
# 3 -0.003509 -0.003290 0.007405 0.000000 0.002087 0.000000
# 4 0.000000 0.000000 0.000000 0.024189 0.000000 -0.015892
# 5 0.003128 -0.004441 0.002087 0.000000 0.025597 0.000000
# 6 0.000000 0.000000 0.000000 -0.015892 0.000000 0.075427
#
#
# Mechanical properties :
#
#
# Convention : Reuss Voigt Hill
#
# Bulk Modulus (GPa) = 31.81142 45.67326 38.74234
# Shear Modulus (GPa) = 26.66872 37.61821 32.14347
#
# Velocity S-wave (km/s) = 3.32321 3.94690 3.64841
# Velocity P-wave (km/s) = 5.28189 6.29955 5.81303
#
# Compressibility (1/GPa) = 0.03143526
#
# Stress axis : x y z
#
# Youngs Moduli (GPa) = 56.74324 60.28811 135.05037
#
# Poissons Ratio (x) = -0.10305 0.47390
# Poissons Ratio (y) = -0.09699 0.44433
# Poissons Ratio (z) = 0.19912 0.19835
#
# Static dielectric constant tensor:
#      x y z
#    x 1.895720 0.000000 0.010140 
#    y 0.000000 1.968970 0.000000 
#    z 0.010140 0.000000 1.933440 
# 
# From -- ./inp_files/58023.got.cif
#   From: 2010.05.17/outbox.cif.g08.bks.cpg/sg14_30_cif.got.tgz:58023.got - 2010.06.03 17:49:19.
