data_PCOD9252572
_publ_section_title
;
Structure prediction by ZEFSAII (Michael W. Deem and Ramdas Pophale) SiO2 
 PCOD9252572
Probable space group: P 21/C
;
_chemical_formula_sum "Si O2"
_cell_formula_units_Z 20
_cell_length_a 9.098975
_cell_length_b 7.754031
_cell_length_c 12.762407
_cell_angle_alpha 90.000000
_cell_angle_beta 88.606886
_cell_angle_gamma 90.000000
_cell_volume 900.169320
_symmetry_space_group_name_H-M "P 21/C"
_symmetry_group_IT_number 14
_symmetry_cell_setting 'monoclinic'
loop_
_space_group_symop_operation_xyz
x,y,z
-x,1/2+y,1/2-z
-x,-y,-z
x,1/2-y,1/2+z
loop_
_atom_site_type_symbol
_atom_site_label
_atom_site_fract_x
_atom_site_fract_y
_atom_site_fract_z
Si Si1 0.137001 0.687035 0.599309
Si Si2 0.680907 0.152527 0.717089
Si Si3 0.180641 0.323463 0.483074
Si Si4 0.324530 0.991432 0.497497
Si Si5 0.559142 0.996409 0.118906
O O1 0.170992 0.691992 0.721726
O O2 0.162205 0.493741 0.554665
O O3 0.253445 0.823319 0.550362
O O4 0.974572 0.731026 0.562869
O O5 0.712492 0.019243 0.624520
O O6 0.563364 0.080207 0.802243
O O7 0.610670 0.319359 0.662138
O O8 0.296070 0.379148 0.391740
O O9 0.253132 0.164753 0.543601
O O10 0.500000 0.000000 0.500000
O O11 0.500000 0.000000 0.000000
#
# Coordination Sequence:
#
# PCOD9252572 Si02
#       5
#     4   4   4   4   4
#     4  11  25  47  68 104 142 190 234 292 367 429
#     4  12  24  42  71 102 140 186 243 288 363 429
#     4  11  24  46  71  95 150 184 227 304 356 425
#     4  12  25  46  71 105 139 185 241 297 353 427
#     4  12  23  44  69 104 144 186 245 303 354 427
#
# _framework density 22.218043000000002
#
# number of rings (size 3 to 8) (size 9 to 14) (size 15 to 20)
#    0.000    0.400    4.000    5.400    0.000    1.600 
#    3.600    0.000    0.000    0.000    0.000    0.000 
#    0.000    0.000    0.000    0.000    0.000    0.000 
#
# Total GULP energy -111921.428792 kJ/mol
# GULP energy per Si atom -5596.071440 kJ/mol
# Density = 2.216747 g / cm^3
# Si number density = 22.218043 Si / 1000 Ang^3
#
#
#
# Elastic Constant Matrix: (Units=GPa)
#
#
# Indices 1 2 3 4 5 6 
#
# 1 119.4748 41.3263 0.7082 0.0000 33.7230 0.0000
# 2 41.3263 138.6969 17.5914 0.0000 14.5471 0.0000
# 3 0.7082 17.5914 69.9392 0.0000 14.2136 0.0000
# 4 0.0000 0.0000 0.0000 24.4785 0.0000 -5.1643
# 5 33.7230 14.5471 14.2136 0.0000 26.7519 0.0000
# 6 0.0000 0.0000 0.0000 -5.1643 0.0000 40.1863
#
#
#
# Elastic Compliance Matrix: (Units=1/GPa)
#
#
# Indices 1 2 3 4 5 6 
#
# 1 0.014903 -0.002965 0.004579 0.000000 -0.019607 0.000000
# 2 -0.002965 0.008328 -0.002134 0.000000 0.000343 0.000000
# 3 0.004579 -0.002134 0.017630 0.000000 -0.013979 0.000000
# 4 0.000000 0.000000 0.000000 0.041991 0.000000 0.005396
# 5 -0.019607 0.000343 -0.013979 0.000000 0.069338 0.000000
# 6 0.000000 0.000000 0.000000 0.005396 0.000000 0.025578
#
#
# Mechanical properties :
#
#
# Convention : Reuss Voigt Hill
#
# Bulk Modulus (GPa) = 25.11239 49.70696 37.40968
# Shear Modulus (GPa) = 26.03096 36.18233 31.10664
#
# Velocity S-wave (km/s) = 3.42660 4.03986 3.74580
# Velocity P-wave (km/s) = 5.19448 6.64692 5.96507
#
# Compressibility (1/GPa) = 0.03982098
#
# Stress axis : x y z
#
# Youngs Moduli (GPa) = 67.10239 120.07514 56.72300
#
# Poissons Ratio (x) = 0.35600 -0.25976
# Poissons Ratio (y) = 0.19894 0.12107
# Poissons Ratio (z) = -0.30730 0.25628
#
# Static dielectric constant tensor:
#      x y z
#    x 1.831190 0.000000 0.017220 
#    y 0.000000 1.935420 0.000000 
#    z 0.017220 0.000000 1.801090 
# 
# From -- ./inp_files/23085.got.cif
#   From: 2010.05.17/outbox.cif.g08.bks.cpg/sg14_12_cif.got.tgz:23085.got - 2010.06.03 17:49:19.
