data_PCOD9252165
_publ_section_title
;
Structure prediction by ZEFSAII (Michael W. Deem and Ramdas Pophale) SiO2 
 PCOD9252165
Probable space group: P 21/C
;
_chemical_formula_sum "Si O2"
_cell_formula_units_Z 32
_cell_length_a 14.578352
_cell_length_b 7.435121
_cell_length_c 13.099182
_cell_angle_alpha 90.000000
_cell_angle_beta 65.154515
_cell_angle_gamma 90.000000
_cell_volume 1288.429265
_symmetry_space_group_name_H-M "P 21/C"
_symmetry_group_IT_number 14
_symmetry_cell_setting 'monoclinic'
loop_
_space_group_symop_operation_xyz
x,y,z
-x,1/2+y,1/2-z
-x,-y,-z
x,1/2-y,1/2+z
loop_
_atom_site_type_symbol
_atom_site_label
_atom_site_fract_x
_atom_site_fract_y
_atom_site_fract_z
Si Si1 0.001039 0.540940 0.117752
Si Si2 0.784694 0.851413 0.752749
Si Si3 0.669547 0.134727 0.419158
Si Si4 0.057880 0.956176 0.076868
Si Si5 0.706086 0.988912 0.992972
Si Si6 0.638261 0.494752 0.154979
Si Si7 0.591234 0.086863 0.235561
Si Si8 0.874925 0.496321 0.776371
O O1 0.885463 0.525162 0.209507
O O2 0.038703 0.746830 0.110396
O O3 0.089826 0.428288 0.130525
O O4 0.000000 0.500000 0.000000
O O5 0.721042 0.908897 0.685195
O O6 0.828273 0.650616 0.727955
O O7 0.719688 0.863683 0.887172
O O8 0.650184 0.336159 0.468592
O O9 0.610958 0.061463 0.347558
O O10 0.659608 0.010811 0.523909
O O11 0.786249 0.143098 0.330244
O O12 0.177322 0.984437 0.025364
O O13 0.983753 0.066364 0.186849
O O14 0.000000 0.000000 0.000000
O O15 0.644205 0.957393 0.126648
O O16 0.634047 0.285928 0.192548
O O17 0.527938 0.575615 0.226118
#
# Coordination Sequence:
#
# PCOD9252165 Si02
#       8
#     4   4   4   4   4   4   4   4
#     4  11  24  40  65  98 142 185 227 281 349 412
#     4  11  25  44  68 103 141 181 238 292 348 423
#     4  11  23  47  72  97 139 186 232 292 357 425
#     4  11  24  40  65 100 138 182 229 278 341 422
#     4  11  23  44  69  99 138 183 233 288 351 423
#     4  11  26  48  70 103 138 180 241 294 359 424
#     4  11  26  45  73  99 134 188 234 297 365 413
#     4  11  24  42  67 102 138 182 227 282 347 414
#
# _framework density 24.836445000000001
#
# number of rings (size 3 to 8) (size 9 to 14) (size 15 to 20)
#    0.000    1.000    3.750    1.875    5.250    2.500 
#    0.000    0.000    0.000    0.000    0.000    0.000 
#    0.000    0.000    0.000    0.000    0.000    0.000 
#
# Total GULP energy -178874.576805 kJ/mol
# GULP energy per Si atom -5589.830525 kJ/mol
# Density = 2.477992 g / cm^3
# Si number density = 24.836445 Si / 1000 Ang^3
#
#
#
# Elastic Constant Matrix: (Units=GPa)
#
#
# Indices 1 2 3 4 5 6 
#
# 1 126.5881 -4.7843 44.4203 0.0000 7.6436 0.0000
# 2 -4.7843 47.8695 16.3931 0.0000 -4.6811 0.0000
# 3 44.4203 16.3931 128.8320 0.0000 12.9466 0.0000
# 4 0.0000 0.0000 0.0000 26.8158 0.0000 2.6415
# 5 7.6436 -4.6811 12.9466 0.0000 42.6525 0.0000
# 6 0.0000 0.0000 0.0000 2.6415 0.0000 34.5422
#
#
#
# Elastic Compliance Matrix: (Units=1/GPa)
#
#
# Indices 1 2 3 4 5 6 
#
# 1 0.009190 0.002040 -0.003388 0.000000 -0.000394 0.000000
# 2 0.002040 0.022767 -0.003935 0.000000 0.003327 0.000000
# 3 -0.003388 -0.003935 0.009710 0.000000 -0.002772 0.000000
# 4 0.000000 0.000000 0.000000 0.037574 0.000000 -0.002873
# 5 -0.000394 0.003327 -0.002772 0.000000 0.024722 0.000000
# 6 0.000000 0.000000 0.000000 -0.002873 0.000000 0.029170
#
#
# Mechanical properties :
#
#
# Convention : Reuss Voigt Hill
#
# Bulk Modulus (GPa) = 32.15424 46.14977 39.15201
# Shear Modulus (GPa) = 32.45369 37.28612 34.86991
#
# Velocity S-wave (km/s) = 3.61875 3.87882 3.75104
# Velocity P-wave (km/s) = 5.51679 6.21950 5.87865
#
# Compressibility (1/GPa) = 0.03110010
#
# Stress axis : x y z
#
# Youngs Moduli (GPa) = 108.81871 43.92333 102.99078
#
# Poissons Ratio (x) = -0.08962 0.34898
# Poissons Ratio (y) = -0.22202 0.40525
# Poissons Ratio (z) = 0.36873 0.17283
#
# Static dielectric constant tensor:
#      x y z
#    x 1.975930 0.000000 0.130260 
#    y 0.000000 2.003990 0.000000 
#    z 0.130260 0.000000 2.274440 
# 
# From -- ./inp_files/31778.got.cif
#   From: 2010.05.17/outbox.cif.g08.bks.cpg/sg14_16_cif.got.tgz:31778.got - 2010.06.03 17:49:19.
