data_PCOD9252155
_publ_section_title
;
Structure prediction by ZEFSAII (Michael W. Deem and Ramdas Pophale) SiO2 
 PCOD9252155
Probable space group: P 21/C
;
_chemical_formula_sum "Si O2"
_cell_formula_units_Z 26
_cell_length_a 21.245344
_cell_length_b 9.535096
_cell_length_c 15.918453
_cell_angle_alpha 90.000000
_cell_angle_beta 158.103656
_cell_angle_gamma 90.000000
_cell_volume 1202.583833
_symmetry_space_group_name_H-M "P 21/C"
_symmetry_group_IT_number 14
_symmetry_cell_setting 'monoclinic'
loop_
_space_group_symop_operation_xyz
x,y,z
-x,1/2+y,1/2-z
-x,-y,-z
x,1/2-y,1/2+z
loop_
_atom_site_type_symbol
_atom_site_label
_atom_site_fract_x
_atom_site_fract_y
_atom_site_fract_z
Si Si1 0.024773 0.067585 0.121217
Si Si2 0.816470 0.824697 0.940518
Si Si3 0.500000 0.500000 0.000000
Si Si4 0.014321 0.083740 0.431037
Si Si5 0.064898 0.687838 0.887630
Si Si6 0.311993 0.730380 0.546136
Si Si7 0.605662 0.988432 0.445894
O O1 0.929668 0.210287 0.024949
O O2 0.224239 0.083853 0.377058
O O3 0.000000 0.000000 0.000000
O O4 0.947374 0.951857 0.086792
O O5 0.632204 0.889777 0.711724
O O6 0.843973 0.704270 0.904551
O O7 0.896167 0.769849 0.126521
O O8 0.382229 0.496990 0.938425
O O9 0.000000 0.000000 0.500000
O O10 0.049204 0.968429 0.402450
O O11 0.840601 0.164821 0.196650
O O12 0.224595 0.719455 0.025406
O O13 0.394146 0.860967 0.599368
O O14 0.445662 0.608695 0.729117
#
# Coordination Sequence:
#
# PCOD9252155 Si02
#       7
#     4   4   2   4   4   4   4
#     4  12  23  44  74 101 139 195 244 293 359 439
#     4  11  23  44  68 107 133 191 238 292 362 426
#     4  12  26  40  74 102 146 184 240 298 352 432
#     4  11  24  43  72 103 138 184 239 296 361 426
#     4  11  24  44  74 102 142 186 243 292 362 430
#     4  11  28  44  70 108 142 190 239 299 366 430
#     4  12  27  46  69 106 147 188 241 298 360 434
#
# _framework density 21.620114000000001
#
# number of rings (size 3 to 8) (size 9 to 14) (size 15 to 20)
#    0.000    0.615    4.615    4.615    4.308    0.000 
#    0.000    0.000    0.000    4.615    0.000    0.000 
#    0.000    0.000    0.000    0.000    0.000    0.000 
#
# Total GULP energy -144845.502392 kJ/mol
# GULP energy per Si atom -5570.980861 kJ/mol
# Density = 2.157091 g / cm^3
# Si number density = 21.620114 Si / 1000 Ang^3
#
#
#
# Elastic Constant Matrix: (Units=GPa)
#
#
# Indices 1 2 3 4 5 6 
#
# 1 102.6200 53.1432 26.7455 0.0000 10.1875 0.0000
# 2 53.1432 128.4772 33.9869 0.0000 13.4763 0.0000
# 3 26.7455 33.9869 71.2678 0.0000 13.1281 0.0000
# 4 0.0000 0.0000 0.0000 44.4053 0.0000 9.3484
# 5 10.1875 13.4763 13.1281 0.0000 22.6246 0.0000
# 6 0.0000 0.0000 0.0000 9.3484 0.0000 52.5515
#
#
#
# Elastic Compliance Matrix: (Units=1/GPa)
#
#
# Indices 1 2 3 4 5 6 
#
# 1 0.012871 -0.004519 -0.002355 0.000000 -0.001737 0.000000
# 2 -0.004519 0.010703 -0.002921 0.000000 -0.002646 0.000000
# 3 -0.002355 -0.002921 0.017683 0.000000 -0.007460 0.000000
# 4 0.000000 0.000000 0.000000 0.023396 0.000000 -0.004162
# 5 -0.001737 -0.002646 -0.007460 0.000000 0.050887 0.000000
# 6 0.000000 0.000000 0.000000 -0.004162 0.000000 0.019769
#
#
# Mechanical properties :
#
#
# Convention : Reuss Voigt Hill
#
# Bulk Modulus (GPa) = 46.15391 58.90179 52.52785
# Shear Modulus (GPa) = 30.84126 36.48225 33.66175
#
# Velocity S-wave (km/s) = 3.78101 4.11228 3.95012
# Velocity P-wave (km/s) = 6.36046 7.06052 6.71961
#
# Compressibility (1/GPa) = 0.02166664
#
# Stress axis : x y z
#
# Youngs Moduli (GPa) = 77.69356 93.43382 56.55249
#
# Poissons Ratio (x) = 0.42220 0.13320
# Poissons Ratio (y) = 0.35107 0.16519
# Poissons Ratio (z) = 0.18300 0.27291
#
# Static dielectric constant tensor:
#      x y z
#    x 1.847670 0.000000 -0.082130 
#    y 0.000000 1.825770 0.000000 
#    z -0.082130 0.000000 1.801220 
# 
# From -- ./inp_files/61852.got.cif
#   From: 2010.05.17/outbox.cif.g08.bks.cpg/sg14_31_cif.got.tgz:61852.got - 2010.06.03 17:49:19.
