data_PCOD9252847
_publ_section_title
;
Structure prediction by ZEFSAII (Michael W. Deem and Ramdas Pophale) SiO2 
 PCOD9252847
Probable space group: P 21/C
;
_chemical_formula_sum "Si O2"
_cell_formula_units_Z 20
_cell_length_a 7.072742
_cell_length_b 14.945767
_cell_length_c 8.918134
_cell_angle_alpha 90.000000
_cell_angle_beta 126.952832
_cell_angle_gamma 90.000000
_cell_volume 753.351781
_symmetry_space_group_name_H-M "P 21/C"
_symmetry_group_IT_number 14
_symmetry_cell_setting 'monoclinic'
loop_
_space_group_symop_operation_xyz
x,y,z
-x,1/2+y,1/2-z
-x,-y,-z
x,1/2-y,1/2+z
loop_
_atom_site_type_symbol
_atom_site_label
_atom_site_fract_x
_atom_site_fract_y
_atom_site_fract_z
Si Si1 0.529750 0.642429 0.659866
Si Si2 0.234044 0.696480 0.089608
Si Si3 0.698056 0.005155 0.465124
Si Si4 0.089899 0.258169 0.802646
Si Si5 0.034390 0.944480 0.862714
O O1 0.659482 0.576068 0.834080
O O2 0.421147 0.725245 0.702249
O O3 0.696365 0.690064 0.617396
O O4 0.305026 0.588755 0.486529
O O5 0.323769 0.596434 0.137404
O O6 0.002853 0.713874 0.079675
O O7 0.500000 0.000000 0.500000
O O8 0.860179 0.289766 0.123378
O O9 0.057609 0.001034 0.324830
O O10 0.115645 0.351488 0.722502
O O11 0.000000 0.000000 0.000000
#
# Coordination Sequence:
#
# PCOD9252847 Si02
#       5
#     4   4   4   4   4
#     4  11  26  51  83 120 166 222 278 352 427 507
#     4  11  27  51  81 122 169 216 288 348 417 518
#     4  12  24  50  90 122 172 225 279 354 438 500
#     4  11  26  48  77 113 166 220 277 343 425 493
#     4  11  25  48  79 123 161 211 287 349 410 515
#
# _framework density 26.548020999999999
#
# number of rings (size 3 to 8) (size 9 to 14) (size 15 to 20)
#    0.000    0.800    2.000    3.600    2.800    8.000 
#    0.000    9.000    0.000    0.000    0.000    0.000 
#    0.000    0.000    0.000    0.000    0.000    0.000 
#
# Total GULP energy -112170.779100 kJ/mol
# GULP energy per Si atom -5608.538955 kJ/mol
# Density = 2.648760 g / cm^3
# Si number density = 26.548021 Si / 1000 Ang^3
#
#
#
# Elastic Constant Matrix: (Units=GPa)
#
#
# Indices 1 2 3 4 5 6 
#
# 1 166.6074 75.7252 45.8641 0.0000 16.3694 0.0000
# 2 75.7252 198.3786 52.4932 0.0000 -2.9274 0.0000
# 3 45.8641 52.4932 113.5786 0.0000 -16.0872 0.0000
# 4 0.0000 0.0000 0.0000 53.2990 0.0000 10.4800
# 5 16.3694 -2.9274 -16.0872 0.0000 31.7136 0.0000
# 6 0.0000 0.0000 0.0000 10.4800 0.0000 49.9383
#
#
#
# Elastic Compliance Matrix: (Units=1/GPa)
#
#
# Indices 1 2 3 4 5 6 
#
# 1 0.008672 -0.002552 -0.003221 0.000000 -0.006346 0.000000
# 2 -0.002552 0.006517 -0.001842 0.000000 0.000984 0.000000
# 3 -0.003221 -0.001842 0.012033 0.000000 0.007597 0.000000
# 4 0.000000 0.000000 0.000000 0.019570 0.000000 -0.004107
# 5 -0.006346 0.000984 0.007597 0.000000 0.038752 0.000000
# 6 0.000000 0.000000 0.000000 -0.004107 0.000000 0.020887
#
#
# Mechanical properties :
#
#
# Convention : Reuss Voigt Hill
#
# Bulk Modulus (GPa) = 83.39386 91.85884 87.62635
# Shear Modulus (GPa) = 39.79075 47.28898 43.53986
#
# Velocity S-wave (km/s) = 3.87566 4.22508 4.05414
# Velocity P-wave (km/s) = 7.17693 7.64708 7.41573
#
# Compressibility (1/GPa) = 0.01199129
#
# Stress axis : x y z
#
# Youngs Moduli (GPa) = 115.31177 153.44884 83.10681
#
# Poissons Ratio (x) = 0.39153 0.26772
# Poissons Ratio (y) = 0.29422 0.15310
# Poissons Ratio (z) = 0.37147 0.28268
#
# Static dielectric constant tensor:
#      x y z
#    x 2.075450 0.000000 0.024770 
#    y 0.000000 2.095880 0.000000 
#    z 0.024770 0.000000 2.105190 
# 
# From -- ./inp_files/33784.got.cif
#   From: 2010.05.17/outbox.cif.g08.bks.cpg/sg14_17_cif.got.tgz:33784.got - 2010.06.03 17:49:19.
