data_PCOD9252840
_publ_section_title
;
Structure prediction by ZEFSAII (Michael W. Deem and Ramdas Pophale) SiO2 
 PCOD9252840
Probable space group: P 21/C
;
_chemical_formula_sum "Si O2"
_cell_formula_units_Z 32
_cell_length_a 14.755510
_cell_length_b 8.885664
_cell_length_c 16.967097
_cell_angle_alpha 90.000000
_cell_angle_beta 147.153036
_cell_angle_gamma 90.000000
_cell_volume 1206.615639
_symmetry_space_group_name_H-M "P 21/C"
_symmetry_group_IT_number 14
_symmetry_cell_setting 'monoclinic'
loop_
_space_group_symop_operation_xyz
x,y,z
-x,1/2+y,1/2-z
-x,-y,-z
x,1/2-y,1/2+z
loop_
_atom_site_type_symbol
_atom_site_label
_atom_site_fract_x
_atom_site_fract_y
_atom_site_fract_z
Si Si1 0.036807 0.583125 0.216773
Si Si2 0.624498 0.452585 0.706591
Si Si3 0.459573 0.224475 0.690888
Si Si4 0.315568 0.467259 0.952480
Si Si5 0.962482 0.152993 0.541205
Si Si6 0.112817 0.192396 0.000236
Si Si7 0.507119 0.752978 0.031385
Si Si8 0.789488 0.391489 0.505738
O O1 0.007131 0.747120 0.157212
O O2 0.058229 0.480023 0.155396
O O3 0.186270 0.561881 0.386644
O O4 0.868062 0.542948 0.143129
O O5 0.488923 0.385201 0.670252
O O6 0.595998 0.340035 0.611953
O O7 0.796930 0.418884 0.879495
O O8 0.439360 0.098519 0.609465
O O9 0.288597 0.227353 0.612554
O O10 0.615819 0.182311 0.856708
O O11 0.382625 0.631687 0.979590
O O12 0.348197 0.351644 0.903518
O O13 0.045664 0.254253 0.534779
O O14 0.414270 0.117565 0.856049
O O15 0.917538 0.257595 0.581754
O O16 0.154376 0.019982 0.014449
#
# Coordination Sequence:
#
# PCOD9252840 Si02
#       8
#     4   4   4   4   4   4   4   4
#     4  11  25  48  73 109 153 196 253 315 387 455
#     4   9  20  40  72 109 154 191 250 312 381 457
#     4   9  22  44  72 107 145 200 255 306 382 461
#     4   9  20  40  72 105 151 196 250 306 375 454
#     4  11  25  48  75 113 154 199 254 321 390 460
#     4  11  25  49  76 109 152 198 256 320 385 458
#     4   9  18  40  69 111 149 198 250 310 372 448
#     4  11  25  49  80 107 148 205 257 309 389 469
#
# _framework density 26.520458000000001
#
# number of rings (size 3 to 8) (size 9 to 14) (size 15 to 20)
#    0.000    2.000    0.000    1.500    1.750    6.000 
#   18.000    3.125    0.000    1.500    0.000    0.000 
#    0.000    0.000    0.000    0.000    0.000    0.000 
#
# Total GULP energy -179513.483695 kJ/mol
# GULP energy per Si atom -5609.796365 kJ/mol
# Density = 2.646010 g / cm^3
# Si number density = 26.520458 Si / 1000 Ang^3
#
#
#
# Elastic Constant Matrix: (Units=GPa)
#
#
# Indices 1 2 3 4 5 6 
#
# 1 116.3551 37.1173 40.7004 0.0000 -8.7629 0.0000
# 2 37.1173 143.2067 28.6846 0.0000 -11.0372 0.0000
# 3 40.7004 28.6846 147.6951 0.0000 -22.7950 0.0000
# 4 0.0000 0.0000 0.0000 30.4705 0.0000 -3.6869
# 5 -8.7629 -11.0372 -22.7950 0.0000 37.7969 0.0000
# 6 0.0000 0.0000 0.0000 -3.6869 0.0000 49.3450
#
#
#
# Elastic Compliance Matrix: (Units=1/GPa)
#
#
# Indices 1 2 3 4 5 6 
#
# 1 0.010111 -0.002131 -0.002323 0.000000 0.000321 0.000000
# 2 -0.002131 0.007782 -0.000717 0.000000 0.001346 0.000000
# 3 -0.002323 -0.000717 0.008198 0.000000 0.004196 0.000000
# 4 0.000000 0.000000 0.000000 0.033118 0.000000 0.002474
# 5 0.000321 0.001346 0.004196 0.000000 0.029455 0.000000
# 6 0.000000 0.000000 0.000000 0.002474 0.000000 0.020450
#
#
# Mechanical properties :
#
#
# Convention : Reuss Voigt Hill
#
# Bulk Modulus (GPa) = 63.48871 68.91794 66.20333
# Shear Modulus (GPa) = 40.09466 43.57278 41.83372
#
# Velocity S-wave (km/s) = 3.89246 4.05778 3.97597
# Velocity P-wave (km/s) = 6.64779 6.92800 6.78934
#
# Compressibility (1/GPa) = 0.01575083
#
# Stress axis : x y z
#
# Youngs Moduli (GPa) = 98.90473 128.49463 121.98671
#
# Poissons Ratio (x) = 0.27376 0.28336
# Poissons Ratio (y) = 0.21072 0.08741
# Poissons Ratio (z) = 0.22975 0.09207
#
# Static dielectric constant tensor:
#      x y z
#    x 2.110580 0.000000 0.052300 
#    y 0.000000 2.071580 0.000000 
#    z 0.052300 0.000000 2.055040 
# 
# From -- ./inp_files/59509.got.cif
#   From: 2010.05.17/outbox.cif.g08.bks.cpg/sg14_30_cif.got.tgz:59509.got - 2010.06.03 17:49:19.
