data_PCOD9252034
_publ_section_title
;
Structure prediction by ZEFSAII (Michael W. Deem and Ramdas Pophale) SiO2 
 PCOD9252034
Probable space group: P 21/C
;
_chemical_formula_sum "Si O2"
_cell_formula_units_Z 28
_cell_length_a 5.128492
_cell_length_b 17.455176
_cell_length_c 13.232259
_cell_angle_alpha 90.000000
_cell_angle_beta 66.491649
_cell_angle_gamma 90.000000
_cell_volume 1086.220925
_symmetry_space_group_name_H-M "P 21/C"
_symmetry_group_IT_number 14
_symmetry_cell_setting 'monoclinic'
loop_
_space_group_symop_operation_xyz
x,y,z
-x,1/2+y,1/2-z
-x,-y,-z
x,1/2-y,1/2+z
loop_
_atom_site_type_symbol
_atom_site_label
_atom_site_fract_x
_atom_site_fract_y
_atom_site_fract_z
Si Si1 0.970164 0.378769 0.941640
Si Si2 0.166580 0.103568 0.192215
Si Si3 0.163436 0.038481 0.802898
Si Si4 0.489192 0.219443 0.407200
Si Si5 0.695072 0.136748 0.993375
Si Si6 0.198388 0.584452 0.826541
Si Si7 0.829134 0.266610 0.666017
O O1 0.705461 0.333148 0.936231
O O2 0.134169 0.411234 0.817330
O O3 0.184192 0.318874 0.961967
O O4 0.850656 0.433115 0.047870
O O5 0.095895 0.192955 0.180463
O O6 0.926079 0.050418 0.177261
O O7 0.455372 0.086719 0.087235
O O8 0.954026 0.088496 0.906537
O O9 0.059344 0.061290 0.706329
O O10 0.496564 0.055261 0.761142
O O11 0.544521 0.306545 0.434644
O O12 0.569229 0.209601 0.278102
O O13 0.804865 0.194135 0.062262
O O14 0.197008 0.676412 0.825493
#
# Coordination Sequence:
#
# PCOD9252034 Si02
#       7
#     4   4   4   4   4   4   4
#     4  11  24  45  75 104 146 188 254 308 363 437
#     4  11  28  49  74 111 151 205 248 304 379 451
#     4  12  31  47  74 110 161 196 248 305 379 452
#     4  11  23  41  73 113 139 182 245 314 367 427
#     4  12  25  45  79 107 154 192 249 310 378 442
#     4  12  27  47  73 111 146 199 252 315 368 432
#     4  11  25  44  78 107 149 191 253 307 375 442
#
# _framework density 25.777443000000002
#
# number of rings (size 3 to 8) (size 9 to 14) (size 15 to 20)
#    0.000    0.571    4.286    2.143    8.000    1.714 
#    0.000    0.000    0.000    0.000    0.000    0.000 
#    0.000    0.000    0.000    0.000    0.000    0.000 
#
# Total GULP energy -156787.020930 kJ/mol
# GULP energy per Si atom -5599.536462 kJ/mol
# Density = 2.571877 g / cm^3
# Si number density = 25.777443 Si / 1000 Ang^3
#
#
#
# Elastic Constant Matrix: (Units=GPa)
#
#
# Indices 1 2 3 4 5 6 
#
# 1 98.4930 24.3552 16.0332 0.0000 -5.6867 0.0000
# 2 24.3552 101.5562 27.2570 0.0000 -8.3504 0.0000
# 3 16.0332 27.2570 163.6808 0.0000 -10.6480 0.0000
# 4 0.0000 0.0000 0.0000 31.0658 0.0000 3.5665
# 5 -5.6867 -8.3504 -10.6480 0.0000 45.3069 0.0000
# 6 0.0000 0.0000 0.0000 3.5665 0.0000 36.5525
#
#
#
# Elastic Compliance Matrix: (Units=1/GPa)
#
#
# Indices 1 2 3 4 5 6 
#
# 1 0.010888 -0.002381 -0.000619 0.000000 0.000782 0.000000
# 2 -0.002381 0.010932 -0.001499 0.000000 0.001364 0.000000
# 3 -0.000619 -0.001499 0.006496 0.000000 0.001173 0.000000
# 4 0.000000 0.000000 0.000000 0.032554 0.000000 -0.003176
# 5 0.000782 0.001364 0.001173 0.000000 0.022697 0.000000
# 6 0.000000 0.000000 0.000000 -0.003176 0.000000 0.027668
#
#
# Mechanical properties :
#
#
# Convention : Reuss Voigt Hill
#
# Bulk Modulus (GPa) = 51.76248 55.44675 53.60462
# Shear Modulus (GPa) = 39.47234 42.32400 40.89817
#
# Velocity S-wave (km/s) = 3.91740 4.05643 3.98752
# Velocity P-wave (km/s) = 6.37067 6.59515 6.48388
#
# Compressibility (1/GPa) = 0.01931901
#
# Stress axis : x y z
#
# Youngs Moduli (GPa) = 91.84733 91.47447 153.94230
#
# Poissons Ratio (x) = 0.21776 0.09532
# Poissons Ratio (y) = 0.21865 0.23069
# Poissons Ratio (z) = 0.05687 0.13708
#
# Static dielectric constant tensor:
#      x y z
#    x 1.985140 0.000000 0.008450 
#    y 0.000000 2.066550 0.000000 
#    z 0.008450 0.000000 2.063330 
# 
# From -- ./inp_files/37799.got.cif
#   From: 2010.05.17/outbox.cif.g08.bks.cpg/sg14_19_cif.got.tgz:37799.got - 2010.06.03 17:49:19.
