data_PCOD9252122
_publ_section_title
;
Structure prediction by ZEFSAII (Michael W. Deem and Ramdas Pophale) SiO2 
 PCOD9252122
Probable space group: P 21/C
;
_chemical_formula_sum "Si O2"
_cell_formula_units_Z 24
_cell_length_a 10.101596
_cell_length_b 12.123645
_cell_length_c 10.953219
_cell_angle_alpha 90.000000
_cell_angle_beta 129.303599
_cell_angle_gamma 90.000000
_cell_volume 1037.991842
_symmetry_space_group_name_H-M "P 21/C"
_symmetry_group_IT_number 14
_symmetry_cell_setting 'monoclinic'
loop_
_space_group_symop_operation_xyz
x,y,z
-x,1/2+y,1/2-z
-x,-y,-z
x,1/2-y,1/2+z
loop_
_atom_site_type_symbol
_atom_site_label
_atom_site_fract_x
_atom_site_fract_y
_atom_site_fract_z
Si Si1 0.923182 0.166619 0.342909
Si Si2 0.519328 0.876502 0.234986
Si Si3 0.300633 0.457139 0.370198
Si Si4 0.769205 0.251245 0.009608
Si Si5 0.476883 0.077955 0.370345
Si Si6 0.263536 0.202102 0.070723
O O1 0.845743 0.201401 0.429349
O O2 0.119285 0.203892 0.475923
O O3 0.838444 0.046966 0.259350
O O4 0.879487 0.235071 0.194270
O O5 0.659185 0.867458 0.210832
O O6 0.324046 0.863165 0.079516
O O7 0.562544 0.773977 0.348836
O O8 0.539100 0.996529 0.300395
O O9 0.500000 0.500000 0.500000
O O10 0.241708 0.389917 0.453945
O O11 0.611701 0.325457 0.960630
O O12 0.300291 0.131980 0.217349
O O13 0.500000 0.000000 0.500000
#
# Coordination Sequence:
#
# PCOD9252122 Si02
#       6
#     4   4   4   4   4   4
#     4  12  26  46  72 108 157 195 245 321 395 446
#     4  11  23  43  74  99 139 189 261 296 370 457
#     4  12  22  49  79 102 143 207 257 306 377 474
#     4  11  24  43  70 104 142 198 245 307 378 458
#     4  11  23  43  71 106 137 189 251 309 363 455
#     4  11  28  42  74 112 147 190 251 318 378 448
#
# _framework density 23.121568
#
# number of rings (size 3 to 8) (size 9 to 14) (size 15 to 20)
#    0.000    0.667    5.000    2.000    7.000    2.000 
#    0.000    5.833    0.000    0.000    0.000    0.000 
#    0.000    0.000    0.000    0.000    0.000    0.000 
#
# Total GULP energy -133658.988266 kJ/mol
# GULP energy per Si atom -5569.124511 kJ/mol
# Density = 2.306894 g / cm^3
# Si number density = 23.121568 Si / 1000 Ang^3
#
#
#
# Elastic Constant Matrix: (Units=GPa)
#
#
# Indices 1 2 3 4 5 6 
#
# 1 43.7869 1.9510 28.4833 0.0000 -5.3502 0.0000
# 2 1.9510 83.7301 21.0129 0.0000 -0.1018 0.0000
# 3 28.4833 21.0129 147.8129 0.0000 -3.5496 0.0000
# 4 0.0000 0.0000 0.0000 45.6086 0.0000 -2.3277
# 5 -5.3502 -0.1018 -3.5496 0.0000 31.3694 0.0000
# 6 0.0000 0.0000 0.0000 -2.3277 0.0000 21.4593
#
#
#
# Elastic Compliance Matrix: (Units=1/GPa)
#
#
# Indices 1 2 3 4 5 6 
#
# 1 0.026631 0.000672 -0.005132 0.000000 0.003963 0.000000
# 2 0.000672 0.012403 -0.001894 0.000000 -0.000059 0.000000
# 3 -0.005132 -0.001894 0.008024 0.000000 0.000027 0.000000
# 4 0.000000 0.000000 0.000000 0.022048 0.000000 0.002392
# 5 0.003963 -0.000059 0.000027 0.000000 0.032557 0.000000
# 6 0.000000 0.000000 0.000000 0.002392 0.000000 0.046859
#
#
# Mechanical properties :
#
#
# Convention : Reuss Voigt Hill
#
# Bulk Modulus (GPa) = 29.11241 42.02492 35.56866
# Shear Modulus (GPa) = 28.95542 34.61298 31.78420
#
# Velocity S-wave (km/s) = 3.54264 3.87331 3.71166
# Velocity P-wave (km/s) = 5.41776 6.18210 5.81251
#
# Compressibility (1/GPa) = 0.03434962
#
# Stress axis : x y z
#
# Youngs Moduli (GPa) = 37.55077 80.62727 124.62373
#
# Poissons Ratio (x) = -0.05420 0.63958
# Poissons Ratio (y) = -0.02524 0.23605
# Poissons Ratio (z) = 0.19271 0.15272
#
# Static dielectric constant tensor:
#      x y z
#    x 1.900260 0.000000 -0.068420 
#    y 0.000000 1.936040 0.000000 
#    z -0.068420 0.000000 2.083640 
# 
# From -- ./inp_files/28483.got.cif
#   From: 2010.05.17/outbox.cif.g08.bks.cpg/sg14_15_cif.got.tgz:28483.got - 2010.06.03 17:49:19.
