data_PCOD9252965
_publ_section_title
;
Structure prediction by ZEFSAII (Michael W. Deem and Ramdas Pophale) SiO2 
 PCOD9252965
Probable space group: P 21/C
;
_chemical_formula_sum "Si O2"
_cell_formula_units_Z 16
_cell_length_a 14.078644
_cell_length_b 5.176528
_cell_length_c 8.632884
_cell_angle_alpha 90.000000
_cell_angle_beta 57.563193
_cell_angle_gamma 90.000000
_cell_volume 530.993585
_symmetry_space_group_name_H-M "P 21/C"
_symmetry_group_IT_number 14
_symmetry_cell_setting 'monoclinic'
loop_
_space_group_symop_operation_xyz
x,y,z
-x,1/2+y,1/2-z
-x,-y,-z
x,1/2-y,1/2+z
loop_
_atom_site_type_symbol
_atom_site_label
_atom_site_fract_x
_atom_site_fract_y
_atom_site_fract_z
Si Si1 0.012168 0.778513 0.134365
Si Si2 0.500000 0.000000 0.000000
Si Si3 0.500000 0.500000 0.000000
Si Si4 0.662919 0.881301 0.093867
Si Si5 0.193557 0.484770 0.823459
O O1 0.006507 0.540762 0.259479
O O2 0.907209 0.719922 0.114127
O O3 0.128810 0.733666 0.942258
O O4 0.431393 0.219041 0.952834
O O5 0.536281 0.236809 0.072706
O O6 0.382618 0.538513 0.220553
O O7 0.717876 0.629662 0.130586
O O8 0.750062 0.002840 0.894664
#
# Coordination Sequence:
#
# PCOD9252965 Si02
#       5
#     4   2   2   4   4
#     4  11  26  55  85 130 171 225 292 361 428 543
#     4  12  28  52  80 116 166 218 286 350 414 510
#     4  12  28  52  78 118 166 218 288 346 414 506
#     4  12  26  54  82 126 168 230 282 360 427 513
#     4  11  26  52  86 128 170 230 287 355 448 510
#
# _framework density 30.132186999999998
#
# number of rings (size 3 to 8) (size 9 to 14) (size 15 to 20)
#    0.000    0.500    5.000    1.500    0.000    6.000 
#    9.000    0.000    0.000    0.000    0.000    0.000 
#    0.000    0.000    0.000    0.000    0.000    0.000 
#
# Total GULP energy -89122.569170 kJ/mol
# GULP energy per Si atom -5570.160573 kJ/mol
# Density = 3.006360 g / cm^3
# Si number density = 30.132187 Si / 1000 Ang^3
#
#
#
# Elastic Constant Matrix: (Units=GPa)
#
#
# Indices 1 2 3 4 5 6 
#
# 1 188.3669 21.0733 43.3792 0.0000 26.5529 0.0000
# 2 21.0733 210.5165 54.3581 0.0000 15.4075 0.0000
# 3 43.3792 54.3581 297.2548 0.0000 2.8993 0.0000
# 4 0.0000 0.0000 0.0000 43.5931 0.0000 23.5474
# 5 26.5529 15.4075 2.8993 0.0000 68.5032 0.0000
# 6 0.0000 0.0000 0.0000 23.5474 0.0000 34.2443
#
#
#
# Elastic Compliance Matrix: (Units=1/GPa)
#
#
# Indices 1 2 3 4 5 6 
#
# 1 0.005821 -0.000220 -0.000788 0.000000 -0.002174 0.000000
# 2 -0.000220 0.005076 -0.000886 0.000000 -0.001019 0.000000
# 3 -0.000788 -0.000886 0.003638 0.000000 0.000351 0.000000
# 4 0.000000 0.000000 0.000000 0.036495 0.000000 -0.025095
# 5 -0.002174 -0.001019 0.000351 0.000000 0.015655 0.000000
# 6 0.000000 0.000000 0.000000 -0.025095 0.000000 0.046458
#
#
# Mechanical properties :
#
#
# Convention : Reuss Voigt Hill
#
# Bulk Modulus (GPa) = 93.05771 103.75105 98.40438
# Shear Modulus (GPa) = 41.48936 67.75661 54.62298
#
# Velocity S-wave (km/s) = 3.71470 4.74713 4.26229
# Velocity P-wave (km/s) = 7.02488 8.03453 7.54661
#
# Compressibility (1/GPa) = 0.01074602
#
# Stress axis : x y z
#
# Youngs Moduli (GPa) = 171.78309 197.02011 274.89611
#
# Poissons Ratio (x) = 0.04338 0.21663
# Poissons Ratio (y) = 0.03782 0.24359
# Poissons Ratio (z) = 0.13537 0.17458
#
# Static dielectric constant tensor:
#      x y z
#    x 2.872550 0.000000 -0.276010 
#    y 0.000000 2.772730 0.000000 
#    z -0.276010 0.000000 2.849150 
# 
# From -- ./inp_files/14732.got.cif
#   From: 2010.05.17/outbox.cif.g08.bks.cpg/sg14_8_cif.got.tgz:14732.got - 2010.06.03 17:49:19.
