data_PCOD9252722
_publ_section_title
;
Structure prediction by ZEFSAII (Michael W. Deem and Ramdas Pophale) SiO2 
 PCOD9252722
Probable space group: P 21/C
;
_chemical_formula_sum "Si O2"
_cell_formula_units_Z 28
_cell_length_a 8.842819
_cell_length_b 30.169960
_cell_length_c 7.569493
_cell_angle_alpha 90.000000
_cell_angle_beta 141.672932
_cell_angle_gamma 90.000000
_cell_volume 1252.358903
_symmetry_space_group_name_H-M "P 21/C"
_symmetry_group_IT_number 14
_symmetry_cell_setting 'monoclinic'
loop_
_space_group_symop_operation_xyz
x,y,z
-x,1/2+y,1/2-z
-x,-y,-z
x,1/2-y,1/2+z
loop_
_atom_site_type_symbol
_atom_site_label
_atom_site_fract_x
_atom_site_fract_y
_atom_site_fract_z
Si Si1 0.223071 0.815707 0.378111
Si Si2 0.053079 0.021090 0.739444
Si Si3 0.187228 0.114990 0.924475
Si Si4 0.421212 0.375771 0.998464
Si Si5 0.365171 0.176170 0.792456
Si Si6 0.846183 0.226186 0.324868
Si Si7 0.297584 0.536018 0.767825
O O1 0.448294 0.835044 0.479683
O O2 0.104319 0.778753 0.143139
O O3 0.259626 0.784877 0.579733
O O4 0.063221 0.857033 0.299304
O O5 0.203586 0.066528 0.852177
O O6 0.838108 0.039898 0.668070
O O7 0.000000 0.000000 0.500000
O O8 0.159667 0.984492 0.972168
O O9 0.361702 0.147583 0.971396
O O10 0.238945 0.107728 0.179730
O O11 0.330484 0.358268 0.100583
O O12 0.601842 0.416485 0.193098
O O13 0.116028 0.204900 0.557509
O O14 0.621217 0.203105 0.009065
O O15 0.500000 0.500000 0.000000
#
# Coordination Sequence:
#
# PCOD9252722 Si02
#       7
#     4   4   4   4   4   4   4
#     4  11  25  45  72  99 151 182 241 301 363 428
#     4  11  26  45  73 103 145 189 241 303 368 436
#     4  11  25  46  67 107 142 189 237 307 357 438
#     4  12  25  44  74  99 144 190 236 306 363 430
#     4  11  28  45  74 108 145 190 250 292 369 436
#     4  11  26  47  69 110 143 191 243 298 363 442
#     4  11  25  45  67 105 140 183 242 295 365 436
#
# _framework density 22.357807999999999
#
# number of rings (size 3 to 8) (size 9 to 14) (size 15 to 20)
#    0.000    0.857    4.286    0.857    8.000    5.143 
#    0.000    0.000    0.000    0.000    0.000    0.000 
#    0.000    0.000    0.000    0.000    0.000    0.000 
#
# Total GULP energy -156070.175584 kJ/mol
# GULP energy per Si atom -5573.934842 kJ/mol
# Density = 2.230692 g / cm^3
# Si number density = 22.357808 Si / 1000 Ang^3
#
#
#
# Elastic Constant Matrix: (Units=GPa)
#
#
# Indices 1 2 3 4 5 6 
#
# 1 67.0661 13.1151 10.7537 0.0000 -23.6083 0.0000
# 2 13.1151 94.1734 14.7206 0.0000 -6.5614 0.0000
# 3 10.7537 14.7206 46.9481 0.0000 -12.2231 0.0000
# 4 0.0000 0.0000 0.0000 29.6943 0.0000 -7.3209
# 5 -23.6083 -6.5614 -12.2231 0.0000 26.4505 0.0000
# 6 0.0000 0.0000 0.0000 -7.3209 0.0000 10.7612
#
#
#
# Elastic Compliance Matrix: (Units=1/GPa)
#
#
# Indices 1 2 3 4 5 6 
#
# 1 0.022028 -0.001803 0.000593 0.000000 0.019488 0.000000
# 2 -0.001803 0.011354 -0.003220 0.000000 -0.000281 0.000000
# 3 0.000593 -0.003220 0.025127 0.000000 0.011342 0.000000
# 4 0.000000 0.000000 0.000000 0.040463 0.000000 0.027527
# 5 0.019488 -0.000281 0.011342 0.000000 0.060372 0.000000
# 6 0.000000 0.000000 0.000000 0.027527 0.000000 0.111653
#
#
# Mechanical properties :
#
#
# Convention : Reuss Voigt Hill
#
# Bulk Modulus (GPa) = 20.14107 31.70740 25.92423
# Shear Modulus (GPa) = 16.86876 24.68775 20.77825
#
# Velocity S-wave (km/s) = 2.74978 3.32657 3.05183
# Velocity P-wave (km/s) = 4.37147 5.38213 4.90292
#
# Compressibility (1/GPa) = 0.04964980
#
# Stress axis : x y z
#
# Youngs Moduli (GPa) = 45.39637 88.07814 39.79809
#
# Poissons Ratio (x) = 0.15878 -0.02361
# Poissons Ratio (y) = 0.08184 0.12815
# Poissons Ratio (z) = -0.02694 0.28362
#
# Static dielectric constant tensor:
#      x y z
#    x 1.787890 0.000000 -0.003370 
#    y 0.000000 1.847310 0.000000 
#    z -0.003370 0.000000 1.977850 
# 
# From -- ./inp_files/11191.got.cif
#   From: 2010.05.17/outbox.cif.g08.bks.cpg/sg14_6_cif.got.tgz:11191.got - 2010.06.03 17:49:19.
