data_PCOD9252436
_publ_section_title
;
Structure prediction by ZEFSAII (Michael W. Deem and Ramdas Pophale) SiO2 
 PCOD9252436
Probable space group: P 21/C
;
_chemical_formula_sum "Si O2"
_cell_formula_units_Z 32
_cell_length_a 9.009757
_cell_length_b 11.345139
_cell_length_c 14.899348
_cell_angle_alpha 90.000000
_cell_angle_beta 79.890524
_cell_angle_gamma 90.000000
_cell_volume 1499.320523
_symmetry_space_group_name_H-M "P 21/C"
_symmetry_group_IT_number 14
_symmetry_cell_setting 'monoclinic'
loop_
_space_group_symop_operation_xyz
x,y,z
-x,1/2+y,1/2-z
-x,-y,-z
x,1/2-y,1/2+z
loop_
_atom_site_type_symbol
_atom_site_label
_atom_site_fract_x
_atom_site_fract_y
_atom_site_fract_z
Si Si1 0.885761 0.542971 0.877757
Si Si2 0.551348 0.257964 0.168931
Si Si3 0.888144 0.829017 0.863909
Si Si4 0.213813 0.572009 0.299487
Si Si5 0.408499 0.380835 0.520719
Si Si6 0.328051 0.168678 0.849193
Si Si7 0.641113 0.016767 0.552183
Si Si8 0.818702 0.610814 0.168581
O O1 0.890676 0.685553 0.867930
O O2 0.814751 0.485233 0.795368
O O3 0.047465 0.478607 0.870573
O O4 0.782327 0.510085 0.973042
O O5 0.668414 0.178562 0.211204
O O6 0.467554 0.181629 0.103012
O O7 0.428747 0.310184 0.250292
O O8 0.632861 0.356940 0.100489
O O9 0.771911 0.883079 0.947263
O O10 0.827305 0.875682 0.774240
O O11 0.056425 0.878002 0.852879
O O12 0.278248 0.466522 0.352613
O O13 0.500000 0.500000 0.500000
O O14 0.427313 0.308632 0.426931
O O15 0.182027 0.253715 0.864116
O O16 0.500000 0.000000 0.500000
O O17 0.665682 0.934565 0.637593
#
# Coordination Sequence:
#
# PCOD9252436 Si02
#       8
#     4   4   4   4   4   4   4   4
#     4  11  24  48  73 104 142 188 249 294 356 436
#     4  12  27  46  71 107 147 184 245 297 357 436
#     4  11  24  48  71 104 149 185 244 298 354 437
#     4  11  25  46  72 105 142 193 234 298 363 422
#     4  12  26  47  71 104 145 192 240 293 366 428
#     4  12  25  46  74 103 149 189 234 299 363 428
#     4  12  26  43  72 106 141 190 244 296 354 427
#     4  11  24  43  74 100 142 192 229 300 364 410
#
# _framework density 21.343001000000001
#
# number of rings (size 3 to 8) (size 9 to 14) (size 15 to 20)
#    0.000    0.500    3.750    4.125    7.000    1.500 
#    2.250    0.000    0.000    0.000    0.000    0.000 
#    0.000    0.000    0.000    0.000    0.000    0.000 
#
# Total GULP energy -178739.097031 kJ/mol
# GULP energy per Si atom -5585.596782 kJ/mol
# Density = 2.129442 g / cm^3
# Si number density = 21.343001 Si / 1000 Ang^3
#
#
#
# Elastic Constant Matrix: (Units=GPa)
#
#
# Indices 1 2 3 4 5 6 
#
# 1 93.7152 70.8399 53.1635 0.0000 7.4571 0.0000
# 2 70.8399 129.8367 54.1593 0.0000 -25.4639 0.0000
# 3 53.1635 54.1593 114.3219 0.0000 -5.9061 0.0000
# 4 0.0000 0.0000 0.0000 28.7317 0.0000 1.7152
# 5 7.4571 -25.4639 -5.9061 0.0000 32.2385 0.0000
# 6 0.0000 0.0000 0.0000 1.7152 0.0000 47.4232
#
#
#
# Elastic Compliance Matrix: (Units=1/GPa)
#
#
# Indices 1 2 3 4 5 6 
#
# 1 0.029439 -0.017677 -0.006450 0.000000 -0.021953 0.000000
# 2 -0.017677 0.021967 -0.001089 0.000000 0.021240 0.000000
# 3 -0.006450 -0.001089 0.012412 0.000000 0.002906 0.000000
# 4 0.000000 0.000000 0.000000 0.034880 0.000000 -0.001262
# 5 -0.021953 0.021240 0.002906 0.000000 0.053406 0.000000
# 6 0.000000 0.000000 0.000000 -0.001262 0.000000 0.021132
#
#
# Mechanical properties :
#
#
# Convention : Reuss Voigt Hill
#
# Bulk Modulus (GPa) = 74.70216 77.13324 75.91770
# Shear Modulus (GPa) = 21.91743 32.32609 27.12176
#
# Velocity S-wave (km/s) = 3.20803 3.89601 3.56863
# Velocity P-wave (km/s) = 6.98560 7.51377 7.25450
#
# Compressibility (1/GPa) = 0.01338649
#
# Stress axis : x y z
#
# Youngs Moduli (GPa) = 33.96905 45.52379 80.56427
#
# Poissons Ratio (x) = 0.80473 0.51961
# Poissons Ratio (y) = 0.60047 0.08772
# Poissons Ratio (z) = 0.21909 0.04956
#
# Static dielectric constant tensor:
#      x y z
#    x 1.794890 0.000000 0.021370 
#    y 0.000000 1.802940 0.000000 
#    z 0.021370 0.000000 1.783690 
# 
# From -- ./inp_files/40288.got.cif
#   From: 2010.05.17/outbox.cif.g08.bks.cpg/sg14_21_cif.got.tgz:40288.got - 2010.06.03 17:49:19.
