data_PCOD9252554
_publ_section_title
;
Structure prediction by ZEFSAII (Michael W. Deem and Ramdas Pophale) SiO2 
 PCOD9252554
Probable space group: P 21/C
;
_chemical_formula_sum "Si O2"
_cell_formula_units_Z 22
_cell_length_a 6.661222
_cell_length_b 24.687215
_cell_length_c 5.644501
_cell_angle_alpha 90.000000
_cell_angle_beta 109.088953
_cell_angle_gamma 90.000000
_cell_volume 877.180316
_symmetry_space_group_name_H-M "P 21/C"
_symmetry_group_IT_number 14
_symmetry_cell_setting 'monoclinic'
loop_
_space_group_symop_operation_xyz
x,y,z
-x,1/2+y,1/2-z
-x,-y,-z
x,1/2-y,1/2+z
loop_
_atom_site_type_symbol
_atom_site_label
_atom_site_fract_x
_atom_site_fract_y
_atom_site_fract_z
Si Si1 0.000000 0.500000 0.500000
Si Si2 0.472536 0.361738 0.251202
Si Si3 0.765256 0.071597 0.534422
Si Si4 0.358688 0.450444 0.593739
Si Si5 0.804372 0.281375 0.490820
Si Si6 0.071038 0.123566 0.273040
O O1 0.917162 0.470824 0.216772
O O2 0.744066 0.493354 0.515175
O O3 0.671378 0.385894 0.186062
O O4 0.398832 0.404803 0.418149
O O5 0.568277 0.307939 0.403317
O O6 0.279140 0.356634 0.993159
O O7 0.548703 0.046788 0.347456
O O8 0.893175 0.105277 0.387961
O O9 0.137876 0.430257 0.647431
O O10 0.827825 0.252091 0.245613
O O11 0.981224 0.328426 0.580640
#
# Coordination Sequence:
#
# PCOD9252554 Si02
#       6
#     2   4   4   4   4   4
#     4  12  24  42  70 106 144 192 254 294 352 438
#     4  11  25  48  74 100 147 193 233 300 380 429
#     4  11  24  46  69 104 143 195 240 299 358 434
#     4  11  25  44  71 102 142 193 239 300 359 438
#     4  12  28  47  76 112 144 186 250 311 368 458
#     4  11  25  48  75  97 146 194 236 296 385 429
#
# _framework density 25.080362000000001
#
# number of rings (size 3 to 8) (size 9 to 14) (size 15 to 20)
#    0.000    0.727    3.636    2.727    5.091    2.909 
#    0.000    0.000    0.000    0.000    0.000    0.000 
#    0.000    0.000    0.000    0.000    0.000    0.000 
#
# Total GULP energy -122999.199043 kJ/mol
# GULP energy per Si atom -5590.872684 kJ/mol
# Density = 2.502328 g / cm^3
# Si number density = 25.080362 Si / 1000 Ang^3
#
#
#
# Elastic Constant Matrix: (Units=GPa)
#
#
# Indices 1 2 3 4 5 6 
#
# 1 76.1778 34.0530 62.5117 0.0000 20.5140 0.0000
# 2 34.0530 95.8941 70.0878 0.0000 16.5047 0.0000
# 3 62.5117 70.0878 173.8664 0.0000 39.6312 0.0000
# 4 0.0000 0.0000 0.0000 64.9199 0.0000 5.1040
# 5 20.5140 16.5047 39.6312 0.0000 81.3526 0.0000
# 6 0.0000 0.0000 0.0000 5.1040 0.0000 32.0563
#
#
#
# Elastic Compliance Matrix: (Units=1/GPa)
#
#
# Indices 1 2 3 4 5 6 
#
# 1 0.019226 -0.002504 -0.005528 0.000000 -0.001647 0.000000
# 2 -0.002504 0.015111 -0.005215 0.000000 0.000106 0.000000
# 3 -0.005528 -0.005215 0.010442 0.000000 -0.002635 0.000000
# 4 0.000000 0.000000 0.000000 0.015599 0.000000 -0.002484
# 5 -0.001647 0.000106 -0.002635 0.000000 0.013970 0.000000
# 6 0.000000 0.000000 0.000000 -0.002484 0.000000 0.031591
#
#
# Mechanical properties :
#
#
# Convention : Reuss Voigt Hill
#
# Bulk Modulus (GPa) = 54.68931 75.47148 65.08039
# Shear Modulus (GPa) = 36.09409 47.61814 41.85611
#
# Velocity S-wave (km/s) = 3.79771 4.36205 4.08962
# Velocity P-wave (km/s) = 6.40961 7.45165 6.95019
#
# Compressibility (1/GPa) = 0.01828511
#
# Stress axis : x y z
#
# Youngs Moduli (GPa) = 52.01267 66.17754 95.76701
#
# Poissons Ratio (x) = 0.16569 0.52938
# Poissons Ratio (y) = 0.13022 0.49947
# Poissons Ratio (z) = 0.28751 0.34515
#
# Static dielectric constant tensor:
#      x y z
#    x 2.189560 0.000000 -0.031920 
#    y 0.000000 2.529860 0.000000 
#    z -0.031920 0.000000 2.048160 
# 
# From -- ./inp_files/737.got.cif
#   From: 2010.05.17/outbox.cif.g08.bks.cpg/sg14_1_cif.got.tgz:737.got - 2010.06.03 17:49:19.
