data_PCOD9252435
_publ_section_title
;
Structure prediction by ZEFSAII (Michael W. Deem and Ramdas Pophale) SiO2 
 PCOD9252435
Probable space group: P 21/C
;
_chemical_formula_sum "Si O2"
_cell_formula_units_Z 28
_cell_length_a 10.772194
_cell_length_b 8.251828
_cell_length_c 13.893056
_cell_angle_alpha 90.000000
_cell_angle_beta 55.654294
_cell_angle_gamma 90.000000
_cell_volume 1019.641054
_symmetry_space_group_name_H-M "P 21/C"
_symmetry_group_IT_number 14
_symmetry_cell_setting 'monoclinic'
loop_
_space_group_symop_operation_xyz
x,y,z
-x,1/2+y,1/2-z
-x,-y,-z
x,1/2-y,1/2+z
loop_
_atom_site_type_symbol
_atom_site_label
_atom_site_fract_x
_atom_site_fract_y
_atom_site_fract_z
Si Si1 0.664734 0.226512 0.590443
Si Si2 0.141523 0.235497 0.378839
Si Si3 0.987011 0.421324 0.773157
Si Si4 0.418380 0.015119 0.206717
Si Si5 0.798870 0.726259 0.921677
Si Si6 0.795020 0.104076 0.190186
Si Si7 0.561638 0.288730 0.926743
O O1 0.593377 0.096188 0.693651
O O2 0.575187 0.395503 0.628764
O O3 0.807716 0.281122 0.591812
O O4 0.645515 0.170080 0.489831
O O5 0.155392 0.208607 0.486794
O O6 0.146564 0.427654 0.361152
O O7 0.016945 0.150409 0.365610
O O8 0.294210 0.153722 0.270818
O O9 0.894037 0.587000 0.825072
O O10 0.886426 0.323394 0.739847
O O11 0.144600 0.398443 0.646754
O O12 0.598485 0.108012 0.873948
O O13 0.619577 0.703779 0.987004
O O14 0.629442 0.102938 0.310793
#
# Coordination Sequence:
#
# PCOD9252435 Si02
#       7
#     4   4   4   4   4   4   4
#     4  11  24  43  73 117 163 203 254 327 400 467
#     4  12  27  54  82 117 163 212 266 337 407 479
#     4  12  29  53  78 115 163 211 280 323 385 498
#     4  11  25  45  78 119 158 199 270 328 399 488
#     4  12  29  53  83 113 162 220 266 332 404 472
#     4  11  27  51  83 120 161 205 273 331 403 494
#     4  11  27  51  83 121 161 210 262 339 410 477
#
# _framework density 27.460645
#
# number of rings (size 3 to 8) (size 9 to 14) (size 15 to 20)
#    0.000    0.571    1.429    5.143    8.000    3.429 
#    0.000    0.000    0.000    0.000    0.000    0.000 
#    0.000    0.000    0.000    0.000    0.000    0.000 
#
# Total GULP energy -156802.773799 kJ/mol
# GULP energy per Si atom -5600.099064 kJ/mol
# Density = 2.739814 g / cm^3
# Si number density = 27.460645 Si / 1000 Ang^3
#
#
#
# Elastic Constant Matrix: (Units=GPa)
#
#
# Indices 1 2 3 4 5 6 
#
# 1 138.4380 20.7384 56.0686 0.0000 30.0790 0.0000
# 2 20.7384 56.2523 6.0875 0.0000 -8.4630 0.0000
# 3 56.0686 6.0875 144.6962 0.0000 29.1457 0.0000
# 4 0.0000 0.0000 0.0000 47.8761 0.0000 -1.0686
# 5 30.0790 -8.4630 29.1457 0.0000 58.2776 0.0000
# 6 0.0000 0.0000 0.0000 -1.0686 0.0000 39.0717
#
#
#
# Elastic Compliance Matrix: (Units=1/GPa)
#
#
# Indices 1 2 3 4 5 6 
#
# 1 0.009885 -0.003985 -0.002800 0.000000 -0.004280 0.000000
# 2 -0.003985 0.020055 -0.000334 0.000000 0.005136 0.000000
# 3 -0.002800 -0.000334 0.008595 0.000000 -0.002901 0.000000
# 4 0.000000 0.000000 0.000000 0.020900 0.000000 0.000572
# 5 -0.004280 0.005136 -0.002901 0.000000 0.021565 0.000000
# 6 0.000000 0.000000 0.000000 0.000572 0.000000 0.025610
#
#
# Mechanical properties :
#
#
# Convention : Reuss Voigt Hill
#
# Bulk Modulus (GPa) = 41.16051 56.13061 48.64556
# Shear Modulus (GPa) = 38.77575 46.14454 42.46015
#
# Velocity S-wave (km/s) = 3.76180 4.10370 3.93646
# Velocity P-wave (km/s) = 5.82148 6.55275 6.19791
#
# Compressibility (1/GPa) = 0.02429513
#
# Stress axis : x y z
#
# Youngs Moduli (GPa) = 101.16846 49.86268 116.35114
#
# Poissons Ratio (x) = 0.19870 0.32583
# Poissons Ratio (y) = 0.40315 0.03888
# Poissons Ratio (z) = 0.28332 0.01666
#
# Static dielectric constant tensor:
#      x y z
#    x 2.295590 0.000000 -0.041310 
#    y 0.000000 2.105050 0.000000 
#    z -0.041310 0.000000 2.143120 
# 
# From -- ./inp_files/43075.got.cif
#   From: 2010.05.17/outbox.cif.g08.bks.cpg/sg14_22_cif.got.tgz:43075.got - 2010.06.03 17:49:19.
