data_PCOD9252558
_publ_section_title
;
Structure prediction by ZEFSAII (Michael W. Deem and Ramdas Pophale) SiO2 
 PCOD9252558
Probable space group: P 21/C
;
_chemical_formula_sum "Si O2"
_cell_formula_units_Z 20
_cell_length_a 13.626404
_cell_length_b 12.821894
_cell_length_c 11.348404
_cell_angle_alpha 90.000000
_cell_angle_beta 150.561266
_cell_angle_gamma 90.000000
_cell_volume 974.507591
_symmetry_space_group_name_H-M "P 21/C"
_symmetry_group_IT_number 14
_symmetry_cell_setting 'monoclinic'
loop_
_space_group_symop_operation_xyz
x,y,z
-x,1/2+y,1/2-z
-x,-y,-z
x,1/2-y,1/2+z
loop_
_atom_site_type_symbol
_atom_site_label
_atom_site_fract_x
_atom_site_fract_y
_atom_site_fract_z
Si Si1 0.641032 0.557147 0.053854
Si Si2 0.527621 0.329835 0.348880
Si Si3 0.854521 0.097268 0.364515
Si Si4 0.854072 0.732141 0.430442
Si Si5 0.197599 0.632144 0.921390
O O1 0.765370 0.643725 0.253553
O O2 0.773120 0.468532 0.129645
O O3 0.500000 0.500000 0.000000
O O4 0.517422 0.613314 0.820868
O O5 0.672064 0.398649 0.582099
O O6 0.323090 0.302317 0.202222
O O7 0.641304 0.220660 0.443444
O O8 0.778594 0.101820 0.418249
O O9 0.988868 0.198557 0.477335
O O10 0.000000 0.000000 0.500000
O O11 0.979854 0.679915 0.667628
#
# Coordination Sequence:
#
# PCOD9252558 Si02
#       5
#     4   4   4   4   4
#     4  12  25  43  72 101 137 184 232 287 348 415
#     4  11  25  45  69  99 139 181 233 285 348 417
#     4  11  26  43  69 101 138 182 230 287 352 415
#     4  11  24  46  70 100 139 181 230 290 348 418
#     4  11  25  44  69 101 137 180 230 286 348 414
#
# _framework density 20.523184000000001
#
# number of rings (size 3 to 8) (size 9 to 14) (size 15 to 20)
#    0.000    0.800    2.000    4.200    5.600    6.400 
#    0.000    0.000    0.000    0.000    0.000    0.000 
#    0.000    0.000    0.000    0.000    0.000    0.000 
#
# Total GULP energy -111966.390656 kJ/mol
# GULP energy per Si atom -5598.319533 kJ/mol
# Density = 2.047647 g / cm^3
# Si number density = 20.523184 Si / 1000 Ang^3
#
#
#
# Elastic Constant Matrix: (Units=GPa)
#
#
# Indices 1 2 3 4 5 6 
#
# 1 85.0261 4.2500 19.3282 0.0000 -6.1302 0.0000
# 2 4.2500 68.0232 20.1742 0.0000 -3.1213 0.0000
# 3 19.3282 20.1742 104.8651 0.0000 -2.1868 0.0000
# 4 0.0000 0.0000 0.0000 35.1196 0.0000 -6.5414
# 5 -6.1302 -3.1213 -2.1868 0.0000 31.1853 0.0000
# 6 0.0000 0.0000 0.0000 -6.5414 0.0000 43.4507
#
#
#
# Elastic Compliance Matrix: (Units=1/GPa)
#
#
# Indices 1 2 3 4 5 6 
#
# 1 0.012436 -0.000007 -0.002243 0.000000 0.002287 0.000000
# 2 -0.000007 0.015648 -0.002981 0.000000 0.001356 0.000000
# 3 -0.002243 -0.002981 0.010523 0.000000 -0.000001 0.000000
# 4 0.000000 0.000000 0.000000 0.029296 0.000000 0.004410
# 5 0.002287 0.001356 -0.000001 0.000000 0.032651 0.000000
# 6 0.000000 0.000000 0.000000 0.004410 0.000000 0.023679
#
#
# Mechanical properties :
#
#
# Convention : Reuss Voigt Hill
#
# Bulk Modulus (GPa) = 35.53009 38.37991 36.95500
# Shear Modulus (GPa) = 34.70398 36.22857 35.46628
#
# Velocity S-wave (km/s) = 4.11660 4.20605 4.16156
# Velocity P-wave (km/s) = 6.32020 6.50608 6.41381
#
# Compressibility (1/GPa) = 0.02814516
#
# Stress axis : x y z
#
# Youngs Moduli (GPa) = 80.41026 63.90782 95.03050
#
# Poissons Ratio (x) = 0.00043 0.21317
# Poissons Ratio (y) = 0.00055 0.28327
# Poissons Ratio (z) = 0.18038 0.19050
#
# Static dielectric constant tensor:
#      x y z
#    x 1.708540 0.000000 0.006680 
#    y 0.000000 1.774140 0.000000 
#    z 0.006680 0.000000 1.710020 
# 
# From -- ./inp_files/20631.got.cif
#   From: 2010.05.17/outbox.cif.g08.bks.cpg/sg14_11_cif.got.tgz:20631.got - 2010.06.03 17:49:19.
