data_PCOD9252488
_publ_section_title
;
Structure prediction by ZEFSAII (Michael W. Deem and Ramdas Pophale) SiO2 
 PCOD9252488
Probable space group: P 21/C
;
_chemical_formula_sum "Si O2"
_cell_formula_units_Z 28
_cell_length_a 8.920735
_cell_length_b 16.583768
_cell_length_c 8.660587
_cell_angle_alpha 90.000000
_cell_angle_beta 73.494412
_cell_angle_gamma 90.000000
_cell_volume 1228.444658
_symmetry_space_group_name_H-M "P 21/C"
_symmetry_group_IT_number 14
_symmetry_cell_setting 'monoclinic'
loop_
_space_group_symop_operation_xyz
x,y,z
-x,1/2+y,1/2-z
-x,-y,-z
x,1/2-y,1/2+z
loop_
_atom_site_type_symbol
_atom_site_label
_atom_site_fract_x
_atom_site_fract_y
_atom_site_fract_z
Si Si1 0.171606 0.507388 0.019475
Si Si2 0.434233 0.712243 0.150746
Si Si3 0.416210 0.868903 0.319996
Si Si4 0.873453 0.826251 0.856510
Si Si5 0.779799 0.672109 0.056464
Si Si6 0.179711 0.591073 0.347552
Si Si7 0.643237 0.957554 0.045514
O O1 0.164060 0.541323 0.193434
O O2 0.278031 0.567864 0.889066
O O3 0.242759 0.418110 0.995144
O O4 0.000000 0.500000 0.000000
O O5 0.383167 0.804050 0.194921
O O6 0.611287 0.704807 0.159115
O O7 0.319890 0.653909 0.278682
O O8 0.435134 0.681504 0.973468
O O9 0.567837 0.919467 0.222664
O O10 0.898019 0.829080 0.666077
O O11 0.018798 0.860710 0.910567
O O12 0.839803 0.735091 0.913955
O O13 0.726703 0.884605 0.932655
O O14 0.228632 0.526357 0.460222
O O15 0.500000 0.000000 0.000000
#
# Coordination Sequence:
#
# PCOD9252488 Si02
#       7
#     4   4   4   4   4   4   4
#     4  11  24  46  72 101 147 188 238 296 366 432
#     4  11  24  44  74 102 142 182 243 295 350 436
#     4  11  25  45  73 109 138 192 245 292 363 427
#     4  12  27  45  70 108 144 187 239 297 368 428
#     4  12  25  47  71 104 144 193 239 294 361 435
#     4  11  26  45  70 109 139 186 240 299 367 424
#     4  12  26  47  73 105 144 191 243 301 362 437
#
# _framework density 22.793050000000001
#
# number of rings (size 3 to 8) (size 9 to 14) (size 15 to 20)
#    0.000    0.571    2.857    4.714    6.000    2.286 
#    0.000    0.000    0.000    0.000    0.000    0.000 
#    0.000    0.000    0.000    0.000    0.000    0.000 
#
# Total GULP energy -156821.086666 kJ/mol
# GULP energy per Si atom -5600.753095 kJ/mol
# Density = 2.274117 g / cm^3
# Si number density = 22.793050 Si / 1000 Ang^3
#
#
#
# Elastic Constant Matrix: (Units=GPa)
#
#
# Indices 1 2 3 4 5 6 
#
# 1 31.6664 29.9703 4.6149 0.0000 12.0854 0.0000
# 2 29.9703 161.3563 33.0964 0.0000 0.0523 0.0000
# 3 4.6149 33.0964 41.9926 0.0000 1.7351 0.0000
# 4 0.0000 0.0000 0.0000 33.0803 0.0000 -10.0209
# 5 12.0854 0.0523 1.7351 0.0000 25.2816 0.0000
# 6 0.0000 0.0000 0.0000 -10.0209 0.0000 34.3034
#
#
#
# Elastic Compliance Matrix: (Units=1/GPa)
#
#
# Indices 1 2 3 4 5 6 
#
# 1 0.049570 -0.009882 0.003329 0.000000 -0.023904 0.000000
# 2 -0.009882 0.009366 -0.006509 0.000000 0.005151 0.000000
# 3 0.003329 -0.006509 0.028725 0.000000 -0.003549 0.000000
# 4 0.000000 0.000000 0.000000 0.033164 0.000000 0.009688
# 5 -0.023904 0.005151 -0.003549 0.000000 0.051214 0.000000
# 6 0.000000 0.000000 0.000000 0.009688 0.000000 0.031982
#
#
# Mechanical properties :
#
#
# Convention : Reuss Voigt Hill
#
# Bulk Modulus (GPa) = 16.25072 41.15319 28.70195
# Shear Modulus (GPa) = 19.94754 29.68862 24.81808
#
# Velocity S-wave (km/s) = 2.96152 3.61297 3.30334
# Velocity P-wave (km/s) = 4.34042 5.95811 5.21241
#
# Compressibility (1/GPa) = 0.06153574
#
# Stress axis : x y z
#
# Youngs Moduli (GPa) = 20.17364 106.76513 34.81343
#
# Poissons Ratio (x) = 1.05506 -0.11588
# Poissons Ratio (y) = 0.19936 0.22660
# Poissons Ratio (z) = -0.06715 0.69492
#
# Static dielectric constant tensor:
#      x y z
#    x 1.853840 0.000000 0.022860 
#    y 0.000000 1.842930 0.000000 
#    z 0.022860 0.000000 1.840770 
# 
# From -- ./inp_files/9389.got.cif
#   From: 2010.05.17/outbox.cif.g08.bks.cpg/sg14_5_cif.got.tgz:9389.got - 2010.06.03 17:49:19.
