data_PCOD9252559
_publ_section_title
;
Structure prediction by ZEFSAII (Michael W. Deem and Ramdas Pophale) SiO2 
 PCOD9252559
Probable space group: P 21/C
;
_chemical_formula_sum "Si O2"
_cell_formula_units_Z 32
_cell_length_a 17.999032
_cell_length_b 11.355461
_cell_length_c 14.366303
_cell_angle_alpha 90.000000
_cell_angle_beta 27.270033
_cell_angle_gamma 90.000000
_cell_volume 1345.363210
_symmetry_space_group_name_H-M "P 21/C"
_symmetry_group_IT_number 14
_symmetry_cell_setting 'monoclinic'
loop_
_space_group_symop_operation_xyz
x,y,z
-x,1/2+y,1/2-z
-x,-y,-z
x,1/2-y,1/2+z
loop_
_atom_site_type_symbol
_atom_site_label
_atom_site_fract_x
_atom_site_fract_y
_atom_site_fract_z
Si Si1 0.931459 0.627459 0.554124
Si Si2 0.375790 0.790908 0.825384
Si Si3 0.841096 0.759510 0.969715
Si Si4 0.081866 0.784420 0.539003
Si Si5 0.401156 0.469446 0.017405
Si Si6 0.462891 0.125590 0.991625
Si Si7 0.133838 0.458542 0.925753
Si Si8 0.454253 0.723797 0.926178
O O1 0.917430 0.652901 0.460949
O O2 0.748003 0.615103 0.795707
O O3 0.000000 0.500000 0.500000
O O4 0.035388 0.724358 0.493351
O O5 0.482323 0.902013 0.680760
O O6 0.472496 0.673665 0.679208
O O7 0.359848 0.796133 0.953625
O O8 0.208839 0.793126 0.955908
O O9 0.921695 0.784772 0.781230
O O10 0.885179 0.631138 0.965553
O O11 0.646052 0.776707 0.185157
O O12 0.164808 0.912468 0.435673
O O13 0.500000 0.500000 0.000000
O O14 0.364844 0.598944 0.021599
O O15 0.538009 0.220505 0.980356
O O16 0.268756 0.112725 0.215697
O O17 0.500000 0.000000 0.000000
O O18 0.000000 0.500000 0.000000
#
# Coordination Sequence:
#
# PCOD9252559 Si02
#       8
#     4   4   4   4   4   4   4   4
#     4  12  27  46  73 104 145 186 235 296 357 419
#     4  12  27  44  71 105 139 188 237 288 352 419
#     4  11  26  46  69 106 141 184 236 293 350 421
#     4  12  28  44  70 109 144 185 238 286 358 424
#     4  12  23  48  74  99 143 187 239 291 350 423
#     4  11  24  46  70 100 141 179 238 292 342 418
#     4  11  24  46  72  98 140 186 231 289 355 413
#     4  11  27  44  73 104 138 188 239 290 355 413
#
# _framework density 23.785397
#
# number of rings (size 3 to 8) (size 9 to 14) (size 15 to 20)
#    0.000    0.500    5.000    2.250    7.000    1.000 
#    0.000    0.000    0.000    0.000    0.000    0.000 
#    0.000    0.000    0.000    0.000    0.000    0.000 
#
# Total GULP energy -178843.268504 kJ/mol
# GULP energy per Si atom -5588.852141 kJ/mol
# Density = 2.373126 g / cm^3
# Si number density = 23.785397 Si / 1000 Ang^3
#
#
#
# Elastic Constant Matrix: (Units=GPa)
#
#
# Indices 1 2 3 4 5 6 
#
# 1 90.4101 -2.0403 -3.9535 0.0000 -6.0956 0.0000
# 2 -2.0403 120.6861 -5.5606 0.0000 -4.9907 0.0000
# 3 -3.9535 -5.5606 50.6177 0.0000 0.4626 0.0000
# 4 0.0000 0.0000 0.0000 32.9487 0.0000 -2.5406
# 5 -6.0956 -4.9907 0.4626 0.0000 28.1954 0.0000
# 6 0.0000 0.0000 0.0000 -2.5406 0.0000 33.6196
#
#
#
# Elastic Compliance Matrix: (Units=1/GPa)
#
#
# Indices 1 2 3 4 5 6 
#
# 1 0.011275 0.000334 0.000895 0.000000 0.002482 0.000000
# 2 0.000334 0.008399 0.000935 0.000000 0.001544 0.000000
# 3 0.000895 0.000935 0.019928 0.000000 0.000032 0.000000
# 4 0.000000 0.000000 0.000000 0.030528 0.000000 0.002307
# 5 0.002482 0.001544 0.000032 0.000000 0.036276 0.000000
# 6 0.000000 0.000000 0.000000 0.002307 0.000000 0.029919
#
#
# Mechanical properties :
#
#
# Convention : Reuss Voigt Hill
#
# Bulk Modulus (GPa) = 22.76401 26.51167 24.63784
# Shear Modulus (GPa) = 34.09712 37.17062 35.63387
#
# Velocity S-wave (km/s) = 3.79031 3.95745 3.87478
# Velocity P-wave (km/s) = 5.36159 5.66147 5.51357
#
# Compressibility (1/GPa) = 0.04392899
#
# Stress axis : x y z
#
# Youngs Moduli (GPa) = 88.69400 119.06878 50.18019
#
# Poissons Ratio (x) = -0.03982 -0.04490
# Poissons Ratio (y) = -0.02967 -0.04690
# Poissons Ratio (z) = -0.07935 -0.11129
#
# Static dielectric constant tensor:
#      x y z
#    x 2.028720 0.000000 -0.084330 
#    y 0.000000 1.903520 0.000000 
#    z -0.084330 0.000000 2.018160 
# 
# From -- ./inp_files/48890.got.cif
#   From: 2010.05.17/outbox.cif.g08.bks.cpg/sg14_25_cif.got.tgz:48890.got - 2010.06.03 17:49:19.
