data_PCOD9252376
_publ_section_title
;
Structure prediction by ZEFSAII (Michael W. Deem and Ramdas Pophale) SiO2 
 PCOD9252376
Probable space group: P 21/C
;
_chemical_formula_sum "Si O2"
_cell_formula_units_Z 20
_cell_length_a 4.720284
_cell_length_b 7.921475
_cell_length_c 23.148998
_cell_angle_alpha 90.000000
_cell_angle_beta 59.638367
_cell_angle_gamma 90.000000
_cell_volume 746.866293
_symmetry_space_group_name_H-M "P 21/C"
_symmetry_group_IT_number 14
_symmetry_cell_setting 'monoclinic'
loop_
_space_group_symop_operation_xyz
x,y,z
-x,1/2+y,1/2-z
-x,-y,-z
x,1/2-y,1/2+z
loop_
_atom_site_type_symbol
_atom_site_label
_atom_site_fract_x
_atom_site_fract_y
_atom_site_fract_z
Si Si1 0.698664 0.468300 0.620992
Si Si2 0.779165 0.431875 0.841939
Si Si3 0.424541 0.302394 0.057985
Si Si4 0.021550 0.425809 0.296336
Si Si5 0.128958 0.217907 0.465177
O O1 0.570024 0.326311 0.590666
O O2 0.894827 0.447061 0.660044
O O3 0.909193 0.604993 0.564069
O O4 0.360024 0.549776 0.679065
O O5 0.833467 0.576110 0.883868
O O6 0.775436 0.522345 0.780453
O O7 0.422934 0.368016 0.899414
O O8 0.026472 0.271965 0.814126
O O9 0.259507 0.240349 0.016122
O O10 0.779044 0.376653 0.000245
#
# Coordination Sequence:
#
# PCOD9252376 Si02
#       5
#     4   4   4   4   4
#     4  11  24  45  70 101 137 181 231 288 353 421
#     4  11  26  46  69 101 139 183 237 290 351 417
#     4  12  24  42  71 101 137 179 226 289 355 421
#     4  11  26  45  69  99 137 184 235 291 346 418
#     4  11  24  42  68 102 138 179 229 288 350 423
#
# _framework density 26.778552000000001
#
# number of rings (size 3 to 8) (size 9 to 14) (size 15 to 20)
#    0.000    0.800    0.000    7.200    0.000   12.800 
#    0.000    0.000    0.000    0.000    0.000    0.000 
#    0.000    0.000    0.000    0.000    0.000    0.000 
#
# Total GULP energy -111961.133421 kJ/mol
# GULP energy per Si atom -5598.056671 kJ/mol
# Density = 2.671760 g / cm^3
# Si number density = 26.778552 Si / 1000 Ang^3
#
#
#
# Elastic Constant Matrix: (Units=GPa)
#
#
# Indices 1 2 3 4 5 6 
#
# 1 121.0268 14.5591 42.7238 0.0000 16.0682 0.0000
# 2 14.5591 107.7701 75.0479 0.0000 2.7648 0.0000
# 3 42.7238 75.0479 213.1724 0.0000 27.3155 0.0000
# 4 0.0000 0.0000 0.0000 45.8911 0.0000 -3.2682
# 5 16.0682 2.7648 27.3155 0.0000 36.5672 0.0000
# 6 0.0000 0.0000 0.0000 -3.2682 0.0000 31.2009
#
#
#
# Elastic Compliance Matrix: (Units=1/GPa)
#
#
# Indices 1 2 3 4 5 6 
#
# 1 0.009171 -0.000197 -0.001387 0.000000 -0.002979 0.000000
# 2 -0.000197 0.012515 -0.004707 0.000000 0.002656 0.000000
# 3 -0.001387 -0.004707 0.007191 0.000000 -0.004406 0.000000
# 4 0.000000 0.000000 0.000000 0.021954 0.000000 0.002300
# 5 -0.002979 0.002656 -0.004406 0.000000 0.031746 0.000000
# 6 0.000000 0.000000 0.000000 0.002300 0.000000 0.032291
#
#
# Mechanical properties :
#
#
# Convention : Reuss Voigt Hill
#
# Bulk Modulus (GPa) = 61.36505 78.51455 69.93980
# Shear Modulus (GPa) = 37.62706 43.37440 40.50073
#
# Velocity S-wave (km/s) = 3.75256 4.02897 3.89322
# Velocity P-wave (km/s) = 6.46073 7.14332 6.81059
#
# Compressibility (1/GPa) = 0.01629592
#
# Stress axis : x y z
#
# Youngs Moduli (GPa) = 109.03347 79.90275 139.06776
#
# Poissons Ratio (x) = 0.01571 0.19292
# Poissons Ratio (y) = 0.02143 0.65459
# Poissons Ratio (z) = 0.15125 0.37610
#
# Static dielectric constant tensor:
#      x y z
#    x 2.041530 0.000000 -0.052350 
#    y 0.000000 2.303190 0.000000 
#    z -0.052350 0.000000 2.052240 
# 
# From -- ./inp_files/62993.got.cif
#   From: 2010.05.17/outbox.cif.g08.bks.cpg/sg14_32_cif.got.tgz:62993.got - 2010.06.03 17:49:19.
