data_PCOD9252997
_publ_section_title
;
Structure prediction by ZEFSAII (Michael W. Deem and Ramdas Pophale) SiO2 
 PCOD9252997
Probable space group: P 21/C
;
_chemical_formula_sum "Si O2"
_cell_formula_units_Z 16
_cell_length_a 14.907547
_cell_length_b 4.834710
_cell_length_c 26.330541
_cell_angle_alpha 90.000000
_cell_angle_beta 16.605401
_cell_angle_gamma 90.000000
_cell_volume 542.333284
_symmetry_space_group_name_H-M "P 21/C"
_symmetry_group_IT_number 14
_symmetry_cell_setting 'monoclinic'
loop_
_space_group_symop_operation_xyz
x,y,z
-x,1/2+y,1/2-z
-x,-y,-z
x,1/2-y,1/2+z
loop_
_atom_site_type_symbol
_atom_site_label
_atom_site_fract_x
_atom_site_fract_y
_atom_site_fract_z
Si Si1 0.763872 0.712339 0.430949
Si Si2 0.267293 0.036101 0.765218
Si Si3 0.589358 0.449633 0.669786
Si Si4 0.724573 0.839016 0.836398
O O1 0.624292 0.404491 0.495815
O O2 0.723526 0.794754 0.392351
O O3 0.534733 0.827573 0.599955
O O4 0.086257 0.873422 0.266609
O O5 0.420499 0.276498 0.716640
O O6 0.135521 0.152324 0.783126
O O7 0.940937 0.948389 0.967660
O O8 0.403455 0.718866 0.789381
#
# Coordination Sequence:
#
# PCOD9252997 Si02
#       4
#     4   4   4   4
#     4  11  28  47  74 116 158 206 260 323 397 489
#     4  12  27  49  80 110 157 212 261 335 409 475
#     4  12  30  53  81 118 157 210 278 344 398 470
#     4  11  28  46  77 113 160 207 265 320 402 490
#
# _framework density 29.502154999999998
#
# number of rings (size 3 to 8) (size 9 to 14) (size 15 to 20)
#    0.000    0.500    2.500    2.250   21.000    0.000 
#    0.000    0.000    0.000    0.000    0.000    0.000 
#    0.000    0.000    0.000    0.000    0.000    0.000 
#
# Total GULP energy -89552.320106 kJ/mol
# GULP energy per Si atom -5597.020007 kJ/mol
# Density = 2.943501 g / cm^3
# Si number density = 29.502155 Si / 1000 Ang^3
#
#
#
# Elastic Constant Matrix: (Units=GPa)
#
#
# Indices 1 2 3 4 5 6 
#
# 1 92.2215 14.8765 34.7249 0.0000 4.8006 0.0000
# 2 14.8765 127.2969 30.7888 0.0000 3.3843 0.0000
# 3 34.7249 30.7888 194.1988 0.0003 17.3562 -0.0002
# 4 0.0000 0.0000 0.0003 22.2917 -0.0002 7.7366
# 5 4.8006 3.3843 17.3562 -0.0002 55.8834 0.0001
# 6 0.0000 0.0000 -0.0002 7.7366 0.0001 74.4727
#
#
#
# Elastic Compliance Matrix: (Units=1/GPa)
#
#
# Indices 1 2 3 4 5 6 
#
# 1 0.011731 -0.000896 -0.001924 0.000000 -0.000356 0.000000
# 2 -0.000896 0.008238 -0.001140 0.000000 -0.000068 0.000000
# 3 -0.001924 -0.001140 0.005814 0.000000 -0.001572 0.000000
# 4 0.000000 0.000000 0.000000 0.046538 0.000000 -0.004835
# 5 -0.000356 -0.000068 -0.001572 0.000000 0.018417 0.000000
# 6 0.000000 0.000000 0.000000 -0.004835 0.000000 0.013930
#
#
# Mechanical properties :
#
#
# Convention : Reuss Voigt Hill
#
# Bulk Modulus (GPa) = 55.97852 63.83307 59.90580
# Shear Modulus (GPa) = 42.17913 52.75136 47.46524
#
# Velocity S-wave (km/s) = 3.78523 4.23312 4.01543
# Velocity P-wave (km/s) = 6.17411 6.75101 6.46899
#
# Compressibility (1/GPa) = 0.01786399
#
# Stress axis : x y z
#
# Youngs Moduli (GPa) = 85.24492 121.39087 171.98390
#
# Poissons Ratio (x) = 0.10879 0.33085
# Poissons Ratio (y) = 0.07639 0.19602
# Poissons Ratio (z) = 0.16399 0.13835
#
# Static dielectric constant tensor:
#      x y z
#    x 2.533580 0.000000 -0.130190 
#    y 0.000000 2.406780 0.000000 
#    z -0.130190 0.000000 2.454650 
# 
# From -- ./inp_files/14781.got.cif
#   From: 2010.05.17/outbox.cif.g08.bks.cpg/sg14_8_cif.got.tgz:14781.got - 2010.06.03 17:49:19.
