data_PCOD9252075
_publ_section_title
;
Structure prediction by ZEFSAII (Michael W. Deem and Ramdas Pophale) SiO2 
 PCOD9252075
Probable space group: P 21/C
;
_chemical_formula_sum "Si O2"
_cell_formula_units_Z 20
_cell_length_a 5.509995
_cell_length_b 9.389745
_cell_length_c 16.877618
_cell_angle_alpha 90.000000
_cell_angle_beta 125.149884
_cell_angle_gamma 90.000000
_cell_volume 713.974912
_symmetry_space_group_name_H-M "P 21/C"
_symmetry_group_IT_number 14
_symmetry_cell_setting 'monoclinic'
loop_
_space_group_symop_operation_xyz
x,y,z
-x,1/2+y,1/2-z
-x,-y,-z
x,1/2-y,1/2+z
loop_
_atom_site_type_symbol
_atom_site_label
_atom_site_fract_x
_atom_site_fract_y
_atom_site_fract_z
Si Si1 0.474622 0.084719 0.911877
Si Si2 0.472404 0.106026 0.231888
Si Si3 0.793894 0.347313 0.241489
Si Si4 0.659126 0.290401 0.055230
Si Si5 0.079215 0.079173 0.435065
O O1 0.572972 0.988490 0.856199
O O2 0.140976 0.140373 0.832536
O O3 0.698104 0.214624 0.977992
O O4 0.500000 0.000000 0.000000
O O5 0.296139 0.014573 0.263792
O O6 0.806598 0.114419 0.328803
O O7 0.475256 0.275935 0.215156
O O8 0.808980 0.245774 0.165080
O O9 0.751303 0.453815 0.078356
O O10 0.304565 0.295139 0.996762
O O11 0.000000 0.000000 0.500000
#
# Coordination Sequence:
#
# PCOD9252075 Si02
#       5
#     4   4   4   4   4
#     4  12  27  47  72 106 148 190 240 308 368 433
#     4  12  27  45  75 106 149 193 247 303 367 440
#     4  12  27  47  71 110 145 195 248 300 371 441
#     4  11  24  43  71 100 144 187 244 297 364 432
#     4  11  23  42  71 104 136 188 242 298 357 433
#
# _framework density 28.012188999999999
#
# number of rings (size 3 to 8) (size 9 to 14) (size 15 to 20)
#    0.000    0.400    8.000    0.000    2.800    4.000 
#    0.000    0.000    0.000    0.000    0.000    0.000 
#    0.000    0.000    0.000    0.000    0.000    0.000 
#
# Total GULP energy -111346.848038 kJ/mol
# GULP energy per Si atom -5567.342402 kJ/mol
# Density = 2.794843 g / cm^3
# Si number density = 28.012189 Si / 1000 Ang^3
#
#
#
# Elastic Constant Matrix: (Units=GPa)
#
#
# Indices 1 2 3 4 5 6 
#
# 1 50.7972 6.7671 27.7018 0.0000 -8.4728 0.0000
# 2 6.7671 89.9089 24.4997 0.0000 -3.5156 0.0000
# 3 27.7018 24.4997 173.8060 0.0000 -17.1702 0.0000
# 4 0.0000 0.0000 0.0000 49.0797 0.0000 1.7733
# 5 -8.4728 -3.5156 -17.1702 0.0000 28.4993 0.0000
# 6 0.0000 0.0000 0.0000 1.7733 0.0000 38.6802
#
#
#
# Elastic Compliance Matrix: (Units=1/GPa)
#
#
# Indices 1 2 3 4 5 6 
#
# 1 0.022185 -0.000675 -0.002975 0.000000 0.004720 0.000000
# 2 -0.000675 0.011593 -0.001494 0.000000 0.000329 0.000000
# 3 -0.002975 -0.001494 0.006733 0.000000 0.002988 0.000000
# 4 0.000000 0.000000 0.000000 0.020409 0.000000 -0.000936
# 5 0.004720 0.000329 0.002988 0.000000 0.038333 0.000000
# 6 0.000000 0.000000 0.000000 -0.000936 0.000000 0.025896
#
#
# Mechanical properties :
#
#
# Convention : Reuss Voigt Hill
#
# Bulk Modulus (GPa) = 33.08478 48.04992 40.56735
# Shear Modulus (GPa) = 34.36156 40.28810 37.32483
#
# Velocity S-wave (km/s) = 3.50618 3.79652 3.65423
# Velocity P-wave (km/s) = 5.31296 6.03395 5.68490
#
# Compressibility (1/GPa) = 0.03022538
#
# Stress axis : x y z
#
# Youngs Moduli (GPa) = 45.07450 86.25776 148.51247
#
# Poissons Ratio (x) = 0.05820 0.44176
# Poissons Ratio (y) = 0.03041 0.22189
# Poissons Ratio (z) = 0.13408 0.12888
#
# Static dielectric constant tensor:
#      x y z
#    x 2.362400 0.000000 -0.285410 
#    y 0.000000 4.015070 0.000000 
#    z -0.285410 0.000000 2.758000 
# 
# From -- ./inp_files/36950.got.cif
#   From: 2010.05.17/outbox.cif.g08.bks.cpg/sg14_19_cif.got.tgz:36950.got - 2010.06.03 17:49:19.
