data_PCOD9252497
_publ_section_title
;
Structure prediction by ZEFSAII (Michael W. Deem and Ramdas Pophale) SiO2 
 PCOD9252497
Probable space group: P 21/C
;
_chemical_formula_sum "Si O2"
_cell_formula_units_Z 24
_cell_length_a 14.009237
_cell_length_b 9.390434
_cell_length_c 9.176357
_cell_angle_alpha 90.000000
_cell_angle_beta 101.454257
_cell_angle_gamma 90.000000
_cell_volume 1183.132960
_symmetry_space_group_name_H-M "P 21/C"
_symmetry_group_IT_number 14
_symmetry_cell_setting 'monoclinic'
loop_
_space_group_symop_operation_xyz
x,y,z
-x,1/2+y,1/2-z
-x,-y,-z
x,1/2-y,1/2+z
loop_
_atom_site_type_symbol
_atom_site_label
_atom_site_fract_x
_atom_site_fract_y
_atom_site_fract_z
Si Si1 0.415355 0.414150 0.055844
Si Si2 0.985760 0.356277 0.082961
Si Si3 0.757953 0.145100 0.448985
Si Si4 0.066544 0.396667 0.428982
Si Si5 0.752218 0.083053 0.112287
Si Si6 0.428703 0.111848 0.898420
O O1 0.314784 0.512015 0.031683
O O2 0.448425 0.379991 0.231565
O O3 0.500000 0.500000 0.000000
O O4 0.413685 0.264484 0.969577
O O5 0.022188 0.363676 0.258235
O O6 0.868054 0.339444 0.047147
O O7 0.000000 0.500000 0.000000
O O8 0.056707 0.246075 0.020540
O O9 0.774739 0.145210 0.280005
O O10 0.712299 0.291365 0.496541
O O11 0.162052 0.491019 0.433180
O O12 0.000000 0.500000 0.500000
O O13 0.672964 0.966116 0.119850
O O14 0.500000 0.000000 0.000000
#
# Coordination Sequence:
#
# PCOD9252497 Si02
#       6
#     4   4   4   4   4   4
#     4  11  25  46  71 101 137 175 223 278 338 403
#     4  12  24  43  67  95 139 176 226 278 332 398
#     4  11  24  45  66  99 135 180 224 277 340 398
#     4  12  25  44  65  99 133 181 228 278 337 396
#     4  11  25  43  67  98 135 178 230 277 338 400
#     4  11  25  45  70 102 135 175 224 278 338 404
#
# _framework density 20.285125000000001
#
# number of rings (size 3 to 8) (size 9 to 14) (size 15 to 20)
#    0.000    0.667    3.333    4.000    2.333    5.333 
#    0.000    0.000    0.000    0.000    0.000    0.000 
#    0.000    0.000    0.000    0.000    0.000    0.000 
#
# Total GULP energy -133809.729636 kJ/mol
# GULP energy per Si atom -5575.405401 kJ/mol
# Density = 2.023896 g / cm^3
# Si number density = 20.285125 Si / 1000 Ang^3
#
#
#
# Elastic Constant Matrix: (Units=GPa)
#
#
# Indices 1 2 3 4 5 6 
#
# 1 59.8179 12.9787 35.6164 0.0000 -21.7890 0.0000
# 2 12.9787 147.8216 68.7199 0.0000 -16.8503 0.0000
# 3 35.6164 68.7199 149.9064 0.0000 -24.7820 0.0000
# 4 0.0000 0.0000 0.0000 44.5256 0.0000 -11.6163
# 5 -21.7890 -16.8503 -24.7820 0.0000 32.8966 0.0000
# 6 0.0000 0.0000 0.0000 -11.6163 0.0000 32.4593
#
#
#
# Elastic Compliance Matrix: (Units=1/GPa)
#
#
# Indices 1 2 3 4 5 6 
#
# 1 0.023684 0.001311 -0.004025 0.000000 0.013326 0.000000
# 2 0.001311 0.008748 -0.003926 0.000000 0.002391 0.000000
# 3 -0.004025 -0.003926 0.009885 0.000000 0.002770 0.000000
# 4 0.000000 0.000000 0.000000 0.024772 0.000000 0.008865
# 5 0.013326 0.002391 0.002770 0.000000 0.042536 0.000000
# 6 0.000000 0.000000 0.000000 0.008865 0.000000 0.033980
#
#
# Mechanical properties :
#
#
# Convention : Reuss Voigt Hill
#
# Bulk Modulus (GPa) = 34.44071 65.79733 50.11902
# Shear Modulus (GPa) = 30.01860 37.99169 34.00515
#
# Velocity S-wave (km/s) = 3.85103 4.33238 4.09878
# Velocity P-wave (km/s) = 6.06540 7.58503 6.86738
#
# Compressibility (1/GPa) = 0.02903540
#
# Stress axis : x y z
#
# Youngs Moduli (GPa) = 42.22330 114.31673 101.16549
#
# Poissons Ratio (x) = -0.14984 0.40717
# Poissons Ratio (y) = -0.05534 0.39720
# Poissons Ratio (z) = 0.16994 0.44883
#
# Static dielectric constant tensor:
#      x y z
#    x 1.815560 0.000000 -0.007280 
#    y 0.000000 1.719810 0.000000 
#    z -0.007280 0.000000 1.774110 
# 
# From -- ./inp_files/15136.got.cif
#   From: 2010.05.17/outbox.cif.g08.bks.cpg/sg14_8_cif.got.tgz:15136.got - 2010.06.03 17:49:19.
