data_PCOD9252217
_publ_section_title
;
Structure prediction by ZEFSAII (Michael W. Deem and Ramdas Pophale) SiO2 
 PCOD9252217
Probable space group: P 21/C
;
_chemical_formula_sum "Si O2"
_cell_formula_units_Z 28
_cell_length_a 9.521934
_cell_length_b 18.784250
_cell_length_c 12.788941
_cell_angle_alpha 90.000000
_cell_angle_beta 145.402155
_cell_angle_gamma 90.000000
_cell_volume 1298.849338
_symmetry_space_group_name_H-M "P 21/C"
_symmetry_group_IT_number 14
_symmetry_cell_setting 'monoclinic'
loop_
_space_group_symop_operation_xyz
x,y,z
-x,1/2+y,1/2-z
-x,-y,-z
x,1/2-y,1/2+z
loop_
_atom_site_type_symbol
_atom_site_label
_atom_site_fract_x
_atom_site_fract_y
_atom_site_fract_z
Si Si1 0.222739 0.690191 0.670275
Si Si2 0.005393 0.331531 0.898739
Si Si3 0.428922 0.922011 0.916141
Si Si4 0.740509 0.974575 0.709658
Si Si5 0.824527 0.572966 0.484965
Si Si6 0.446974 0.187563 0.826115
Si Si7 0.321483 0.318043 0.899473
O O1 0.176348 0.772117 0.668361
O O2 0.325549 0.689192 0.615602
O O3 0.985052 0.640363 0.543596
O O4 0.431809 0.666597 0.881330
O O5 0.855521 0.403718 0.785462
O O6 0.121661 0.296942 0.864896
O O7 0.220317 0.338406 0.115460
O O8 0.600574 0.905853 0.921536
O O9 0.496112 0.867482 0.048471
O O10 0.500000 0.000000 0.000000
O O11 0.774300 0.892605 0.702007
O O12 0.500000 0.000000 0.500000
O O13 0.720763 0.973195 0.823895
O O14 0.978897 0.023001 0.833796
O O15 0.378459 0.261385 0.843360
#
# Coordination Sequence:
#
# PCOD9252217 Si02
#       7
#     4   4   4   4   4   4   4
#     4  11  24  44  71 102 136 176 237 283 341 420
#     4  11  26  44  69 101 136 179 236 280 343 425
#     4  12  28  47  70 101 144 184 229 287 357 417
#     4  11  24  42  71 102 135 181 228 283 348 414
#     4  11  26  43  70 103 141 180 232 286 347 417
#     4  11  27  44  71 102 136 183 227 294 346 408
#     4  11  23  45  70  99 137 179 228 285 349 406
#
# _framework density 21.557542999999999
#
# number of rings (size 3 to 8) (size 9 to 14) (size 15 to 20)
#    0.000    0.857    2.857    2.571   12.000    2.857 
#    0.000    0.000    0.000    0.000    0.000    0.000 
#    0.000    0.000    0.000    0.000    0.000    0.000 
#
# Total GULP energy -156578.609377 kJ/mol
# GULP energy per Si atom -5592.093192 kJ/mol
# Density = 2.150848 g / cm^3
# Si number density = 21.557543 Si / 1000 Ang^3
#
#
#
# Elastic Constant Matrix: (Units=GPa)
#
#
# Indices 1 2 3 4 5 6 
#
# 1 136.7480 25.3396 35.2424 0.0000 1.8619 0.0000
# 2 25.3396 84.8063 11.8014 0.0000 -3.3106 0.0000
# 3 35.2424 11.8014 106.5879 0.0000 -12.6342 0.0000
# 4 0.0000 0.0000 0.0000 19.9076 0.0000 5.0805
# 5 1.8619 -3.3106 -12.6342 0.0000 19.5521 0.0000
# 6 0.0000 0.0000 0.0000 5.0805 0.0000 31.2218
#
#
#
# Elastic Compliance Matrix: (Units=1/GPa)
#
#
# Indices 1 2 3 4 5 6 
#
# 1 0.008531 -0.002261 -0.002937 0.000000 -0.003093 0.000000
# 2 -0.002261 0.012604 -0.000400 0.000000 0.002091 0.000000
# 3 -0.002937 -0.000400 0.011287 0.000000 0.007505 0.000000
# 4 0.000000 0.000000 0.000000 0.052408 0.000000 -0.008528
# 5 -0.003093 0.002091 0.007505 0.000000 0.056644 0.000000
# 6 0.000000 0.000000 0.000000 -0.008528 0.000000 0.033417
#
#
# Mechanical properties :
#
#
# Convention : Reuss Voigt Hill
#
# Bulk Modulus (GPa) = 47.11187 52.54543 49.82865
# Shear Modulus (GPa) = 25.88499 31.18690 28.53594
#
# Velocity S-wave (km/s) = 3.46893 3.80765 3.64223
# Velocity P-wave (km/s) = 6.16004 6.61501 6.39157
#
# Compressibility (1/GPa) = 0.02122607
#
# Stress axis : x y z
#
# Youngs Moduli (GPa) = 117.22391 79.33708 88.59810
#
# Poissons Ratio (x) = 0.17938 0.26020
# Poissons Ratio (y) = 0.26504 0.03545
# Poissons Ratio (z) = 0.34427 0.03175
#
# Static dielectric constant tensor:
#      x y z
#    x 1.797500 0.000000 0.010370 
#    y 0.000000 1.747990 0.000000 
#    z 0.010370 0.000000 1.853120 
# 
# From -- ./inp_files/26838.got.cif
#   From: 2010.05.17/outbox.cif.g08.bks.cpg/sg14_14_cif.got.tgz:26838.got - 2010.06.03 17:49:19.
