data_PCOD9252810
_publ_section_title
;
Structure prediction by ZEFSAII (Michael W. Deem and Ramdas Pophale) SiO2 
 PCOD9252810
Probable space group: P 21/C
;
_chemical_formula_sum "Si O2"
_cell_formula_units_Z 20
_cell_length_a 14.780809
_cell_length_b 5.741930
_cell_length_c 21.639220
_cell_angle_alpha 90.000000
_cell_angle_beta 156.680050
_cell_angle_gamma 90.000000
_cell_volume 727.017908
_symmetry_space_group_name_H-M "P 21/C"
_symmetry_group_IT_number 14
_symmetry_cell_setting 'monoclinic'
loop_
_space_group_symop_operation_xyz
x,y,z
-x,1/2+y,1/2-z
-x,-y,-z
x,1/2-y,1/2+z
loop_
_atom_site_type_symbol
_atom_site_label
_atom_site_fract_x
_atom_site_fract_y
_atom_site_fract_z
Si Si1 0.782370 0.558070 0.197191
Si Si2 0.794226 0.044296 0.248777
Si Si3 0.662036 0.783523 0.282664
Si Si4 0.748629 0.958086 0.949700
Si Si5 0.711780 0.940487 0.508623
O O1 0.679635 0.816390 0.144348
O O2 0.033161 0.580331 0.384445
O O3 0.704970 0.307546 0.177989
O O4 0.781195 0.524524 0.122988
O O5 0.786253 0.958950 0.314604
O O6 0.051583 0.048921 0.382372
O O7 0.825643 0.659840 0.434166
O O8 0.493274 0.612346 0.138408
O O9 0.472593 0.897221 0.208853
O O10 0.648228 0.817108 0.945699
#
# Coordination Sequence:
#
# PCOD9252810 Si02
#       5
#     4   4   4   4   4
#     4  11  26  48  73 103 147 192 235 302 360 422
#     4  11  26  45  74 109 139 192 242 294 358 435
#     4  12  26  45  74 104 144 189 245 296 360 432
#     4  11  25  47  71 103 149 191 241 299 365 417
#     4  11  25  48  70 102 149 189 236 301 363 420
#
# _framework density 27.509639
#
# number of rings (size 3 to 8) (size 9 to 14) (size 15 to 20)
#    0.000    0.800    4.000    2.400    5.600    5.600 
#    0.000    0.000    0.000    0.000    0.000    0.000 
#    0.000    0.000    0.000    0.000    0.000    0.000 
#
# Total GULP energy -111678.315506 kJ/mol
# GULP energy per Si atom -5583.915775 kJ/mol
# Density = 2.744703 g / cm^3
# Si number density = 27.509639 Si / 1000 Ang^3
#
#
#
# Elastic Constant Matrix: (Units=GPa)
#
#
# Indices 1 2 3 4 5 6 
#
# 1 124.4711 49.5779 50.6105 0.0000 -35.4298 0.0000
# 2 49.5779 148.3664 -4.2646 0.0000 -6.9755 0.0000
# 3 50.6105 -4.2646 80.9688 0.0000 -25.3052 0.0000
# 4 0.0000 0.0000 0.0000 40.4671 0.0000 6.7263
# 5 -35.4298 -6.9755 -25.3052 0.0000 42.1835 0.0000
# 6 0.0000 0.0000 0.0000 6.7263 0.0000 42.7606
#
#
#
# Elastic Compliance Matrix: (Units=1/GPa)
#
#
# Indices 1 2 3 4 5 6 
#
# 1 0.015110 -0.004911 -0.007373 0.000000 0.007456 0.000000
# 2 -0.004911 0.008439 0.003275 0.000000 -0.000764 0.000000
# 3 -0.007373 0.003275 0.018911 0.000000 0.005693 0.000000
# 4 0.000000 0.000000 0.000000 0.025375 0.000000 -0.003992
# 5 0.007456 -0.000764 0.005693 0.000000 0.033257 0.000000
# 6 0.000000 0.000000 0.000000 -0.003992 0.000000 0.024014
#
#
# Mechanical properties :
#
#
# Convention : Reuss Voigt Hill
#
# Bulk Modulus (GPa) = 40.91188 60.62823 50.77005
# Shear Modulus (GPa) = 33.05321 42.27440 37.66381
#
# Velocity S-wave (km/s) = 3.47005 3.92435 3.70417
# Velocity P-wave (km/s) = 5.56409 6.52846 6.06547
#
# Compressibility (1/GPa) = 0.02444278
#
# Stress axis : x y z
#
# Youngs Moduli (GPa) = 66.18052 118.49474 52.87943
#
# Poissons Ratio (x) = 0.58188 0.38989
# Poissons Ratio (y) = 0.32499 -0.17318
# Poissons Ratio (z) = 0.48797 -0.38808
#
# Static dielectric constant tensor:
#      x y z
#    x 2.178430 0.000000 0.065560 
#    y 0.000000 2.420870 0.000000 
#    z 0.065560 0.000000 2.129660 
# 
# From -- ./inp_files/67922.got.cif
#   From: 2010.05.17/outbox.cif.g08.bks.cpg/sg14_34_cif.got.tgz:67922.got - 2010.06.03 17:49:19.
