data_PCOD9252332
_publ_section_title
;
Structure prediction by ZEFSAII (Michael W. Deem and Ramdas Pophale) SiO2 
 PCOD9252332
Probable space group: P 21/C
;
_chemical_formula_sum "Si O2"
_cell_formula_units_Z 32
_cell_length_a 9.465423
_cell_length_b 14.318671
_cell_length_c 13.260880
_cell_angle_alpha 90.000000
_cell_angle_beta 113.561609
_cell_angle_gamma 90.000000
_cell_volume 1647.439663
_symmetry_space_group_name_H-M "P 21/C"
_symmetry_group_IT_number 14
_symmetry_cell_setting 'monoclinic'
loop_
_space_group_symop_operation_xyz
x,y,z
-x,1/2+y,1/2-z
-x,-y,-z
x,1/2-y,1/2+z
loop_
_atom_site_type_symbol
_atom_site_label
_atom_site_fract_x
_atom_site_fract_y
_atom_site_fract_z
Si Si1 0.253620 0.212659 0.891236
Si Si2 0.679511 0.623173 0.234768
Si Si3 0.380631 0.578142 0.765056
Si Si4 0.234749 0.631069 0.313497
Si Si5 0.086838 0.703308 0.654322
Si Si6 0.992288 0.403137 0.562762
Si Si7 0.440023 0.037654 0.875517
Si Si8 0.533858 0.736849 0.367561
O O1 0.282066 0.310423 0.846393
O O2 0.353606 0.134232 0.865833
O O3 0.075473 0.186294 0.838299
O O4 0.317652 0.220123 0.022242
O O5 0.620774 0.522106 0.183383
O O6 0.559587 0.677489 0.273100
O O7 0.838115 0.608922 0.341936
O O8 0.217618 0.630286 0.724960
O O9 0.419455 0.552120 0.660322
O O10 0.503223 0.655036 0.835635
O O11 0.143867 0.693864 0.205291
O O12 0.128754 0.602649 0.378613
O O13 0.316721 0.536940 0.298708
O O14 0.383240 0.696246 0.381958
O O15 0.055096 0.679528 0.528192
O O16 0.000000 0.500000 0.500000
O O17 0.500000 0.000000 0.000000
#
# Coordination Sequence:
#
# PCOD9252332 Si02
#       8
#     4   4   4   4   4   4   4   4
#     4  12  24  40  67  92 130 173 215 273 330 393
#     4  12  23  41  65  96 129 171 219 274 328 383
#     4  11  24  42  61  96 133 167 213 275 326 389
#     4  11  24  40  64  99 131 167 216 272 331 390
#     4  11  24  40  64  96 134 168 212 273 332 391
#     4  12  23  40  68  99 129 169 224 280 328 388
#     4  12  22  39  67  97 123 167 224 273 325 380
#     4  11  24  42  64  95 129 173 219 263 334 395
#
# _framework density 19.424078999999999
#
# number of rings (size 3 to 8) (size 9 to 14) (size 15 to 20)
#    0.000    0.500    7.500    1.500    0.000    0.500 
#    0.000    0.000    0.000    1.500    0.000    0.000 
#    0.000    0.000    0.000    0.000    0.000    0.000 
#
# Total GULP energy -178658.051696 kJ/mol
# GULP energy per Si atom -5583.064115 kJ/mol
# Density = 1.937987 g / cm^3
# Si number density = 19.424079 Si / 1000 Ang^3
#
#
#
# Elastic Constant Matrix: (Units=GPa)
#
#
# Indices 1 2 3 4 5 6 
#
# 1 113.7501 29.6895 3.2319 0.0000 -8.8604 0.0000
# 2 29.6895 116.7441 11.1922 0.0000 -6.3525 0.0000
# 3 3.2319 11.1922 15.6760 0.0000 -0.5509 0.0000
# 4 0.0000 0.0000 0.0000 34.1293 0.0000 0.4240
# 5 -8.8604 -6.3525 -0.5509 0.0000 27.3378 0.0000
# 6 0.0000 0.0000 0.0000 0.4240 0.0000 36.0345
#
#
#
# Elastic Compliance Matrix: (Units=1/GPa)
#
#
# Indices 1 2 3 4 5 6 
#
# 1 0.009593 -0.002274 -0.000264 0.000000 0.002575 0.000000
# 2 -0.002274 0.009846 -0.006511 0.000000 0.001420 0.000000
# 3 -0.000264 -0.006511 0.068487 0.000000 -0.000218 0.000000
# 4 0.000000 0.000000 0.000000 0.029305 0.000000 -0.000345
# 5 0.002575 0.001420 -0.000218 0.000000 0.037740 0.000000
# 6 0.000000 0.000000 0.000000 -0.000345 0.000000 0.027755
#
#
# Mechanical properties :
#
#
# Convention : Reuss Voigt Hill
#
# Bulk Modulus (GPa) = 14.32084 37.15528 25.73806
# Shear Modulus (GPa) = 22.31173 32.97075 27.64124
#
# Velocity S-wave (km/s) = 3.39287 4.12444 3.77641
# Velocity P-wave (km/s) = 4.76838 6.46926 5.68282
#
# Compressibility (1/GPa) = 0.06982830
#
# Stress axis : x y z
#
# Youngs Moduli (GPa) = 104.24405 101.56905 14.60138
#
# Poissons Ratio (x) = 0.23099 0.00385
# Poissons Ratio (y) = 0.23707 0.09506
# Poissons Ratio (z) = 0.02747 0.66128
#
# Static dielectric constant tensor:
#      x y z
#    x 1.695710 0.000000 0.003990 
#    y 0.000000 1.694880 0.000000 
#    z 0.003990 0.000000 1.678550 
# 
# From -- ./inp_files/40378.got.cif
#   From: 2010.05.17/outbox.cif.g08.bks.cpg/sg14_21_cif.got.tgz:40378.got - 2010.06.03 17:49:19.
