data_PCOD9252517
_publ_section_title
;
Structure prediction by ZEFSAII (Michael W. Deem and Ramdas Pophale) SiO2 
 PCOD9252517
Probable space group: P 21/C
;
_chemical_formula_sum "Si O2"
_cell_formula_units_Z 32
_cell_length_a 9.075453
_cell_length_b 11.779089
_cell_length_c 14.484501
_cell_angle_alpha 90.000000
_cell_angle_beta 71.292832
_cell_angle_gamma 90.000000
_cell_volume 1466.599595
_symmetry_space_group_name_H-M "P 21/C"
_symmetry_group_IT_number 14
_symmetry_cell_setting 'monoclinic'
loop_
_space_group_symop_operation_xyz
x,y,z
-x,1/2+y,1/2-z
-x,-y,-z
x,1/2-y,1/2+z
loop_
_atom_site_type_symbol
_atom_site_label
_atom_site_fract_x
_atom_site_fract_y
_atom_site_fract_z
Si Si1 0.444995 0.272343 0.309425
Si Si2 0.474795 0.324902 0.616910
Si Si3 0.203841 0.035329 0.103662
Si Si4 0.743588 0.998766 0.108812
Si Si5 0.914011 0.097696 0.249710
Si Si6 0.422878 0.122370 0.493323
Si Si7 0.940258 0.938163 0.419858
Si Si8 0.210747 0.664927 0.750474
O O1 0.388008 0.210269 0.228584
O O2 0.339476 0.377251 0.361843
O O3 0.460172 0.178221 0.386449
O O4 0.612250 0.328011 0.250993
O O5 0.372903 0.409978 0.576057
O O6 0.625126 0.396092 0.617089
O O7 0.490885 0.211413 0.554032
O O8 0.083578 0.121930 0.173735
O O9 0.199348 0.927073 0.171550
O O10 0.165726 0.008026 0.006115
O O11 0.834327 0.024918 0.184411
O O12 0.825193 0.212932 0.283371
O O13 0.922867 0.028997 0.341495
O O14 0.233039 0.114865 0.535284
O O15 0.500000 0.000000 0.500000
O O16 0.082143 0.859508 0.354747
O O17 0.000000 0.000000 0.500000
#
# Coordination Sequence:
#
# PCOD9252517 Si02
#       8
#     4   4   4   4   4   4   4   4
#     4  12  26  43  76 104 142 192 240 305 359 431
#     4  12  25  44  72 107 146 184 241 307 354 438
#     4  11  24  45  71 101 145 186 242 300 367 436
#     4  12  24  46  72 106 140 188 245 295 368 428
#     4  11  25  46  70 105 143 187 240 297 370 438
#     4  12  28  47  76 111 145 189 252 300 366 439
#     4  11  28  49  71 104 150 194 237 303 370 438
#     4  11  24  45  70 105 144 189 238 299 368 434
#
# _framework density 21.819179999999999
#
# number of rings (size 3 to 8) (size 9 to 14) (size 15 to 20)
#    0.000    0.500    3.750    3.750    7.000    2.000 
#    0.000    0.000    0.000    0.000    0.000    0.000 
#    0.000    0.000    0.000    0.000    0.000    0.000 
#
# Total GULP energy -178921.839599 kJ/mol
# GULP energy per Si atom -5591.307487 kJ/mol
# Density = 2.176952 g / cm^3
# Si number density = 21.819180 Si / 1000 Ang^3
#
#
#
# Elastic Constant Matrix: (Units=GPa)
#
#
# Indices 1 2 3 4 5 6 
#
# 1 91.4584 15.8211 38.7757 0.0000 7.8991 0.0000
# 2 15.8211 89.1432 48.2882 0.0000 9.2770 0.0000
# 3 38.7757 48.2882 115.8122 0.0000 25.6140 0.0000
# 4 0.0000 0.0000 0.0000 27.4035 0.0000 -0.4045
# 5 7.8991 9.2770 25.6140 0.0000 48.1366 0.0000
# 6 0.0000 0.0000 0.0000 -0.4045 0.0000 21.0873
#
#
#
# Elastic Compliance Matrix: (Units=1/GPa)
#
#
# Indices 1 2 3 4 5 6 
#
# 1 0.012745 0.000068 -0.004341 0.000000 0.000205 0.000000
# 2 0.000068 0.014501 -0.006175 0.000000 0.000480 0.000000
# 3 -0.004341 -0.006175 0.013875 0.000000 -0.005481 0.000000
# 4 0.000000 0.000000 0.000000 0.036502 0.000000 0.000700
# 5 0.000205 0.000480 -0.005481 0.000000 0.023564 0.000000
# 6 0.000000 0.000000 0.000000 0.000700 0.000000 0.047435
#
#
# Mechanical properties :
#
#
# Convention : Reuss Voigt Hill
#
# Bulk Modulus (GPa) = 49.44446 55.79819 52.62132
# Shear Modulus (GPa) = 28.36719 32.22741 30.29730
#
# Velocity S-wave (km/s) = 3.60961 3.84737 3.73038
# Velocity P-wave (km/s) = 6.33108 6.73535 6.53634
#
# Compressibility (1/GPa) = 0.02022471
#
# Stress axis : x y z
#
# Youngs Moduli (GPa) = 78.46297 68.96124 72.07209
#
# Poissons Ratio (x) = -0.00470 0.31287
# Poissons Ratio (y) = -0.00535 0.44506
# Poissons Ratio (z) = 0.34061 0.42585
#
# Static dielectric constant tensor:
#      x y z
#    x 1.930190 0.000000 -0.031820 
#    y 0.000000 1.781380 0.000000 
#    z -0.031820 0.000000 1.779240 
# 
# From -- ./inp_files/40300.got.cif
#   From: 2010.05.17/outbox.cif.g08.bks.cpg/sg14_21_cif.got.tgz:40300.got - 2010.06.03 17:49:19.
