data_PCOD9252074
_publ_section_title
;
Structure prediction by ZEFSAII (Michael W. Deem and Ramdas Pophale) SiO2 
 PCOD9252074
Probable space group: P 21/C
;
_chemical_formula_sum "Si O2"
_cell_formula_units_Z 28
_cell_length_a 18.046452
_cell_length_b 8.431580
_cell_length_c 14.662914
_cell_angle_alpha 90.000000
_cell_angle_beta 30.081790
_cell_angle_gamma 90.000000
_cell_volume 1118.312343
_symmetry_space_group_name_H-M "P 21/C"
_symmetry_group_IT_number 14
_symmetry_cell_setting 'monoclinic'
loop_
_space_group_symop_operation_xyz
x,y,z
-x,1/2+y,1/2-z
-x,-y,-z
x,1/2-y,1/2+z
loop_
_atom_site_type_symbol
_atom_site_label
_atom_site_fract_x
_atom_site_fract_y
_atom_site_fract_z
Si Si1 0.663674 0.510117 0.255094
Si Si2 0.844453 0.151164 0.866216
Si Si3 0.927034 0.329824 0.596370
Si Si4 0.966177 0.131314 0.388134
Si Si5 0.489111 0.747665 0.808987
Si Si6 0.364387 0.983542 0.579006
Si Si7 0.617509 0.825512 0.982464
O O1 0.576317 0.649030 0.292458
O O2 0.555200 0.359638 0.360157
O O3 0.685390 0.546469 0.339629
O O4 0.820762 0.479194 0.042880
O O5 0.913890 0.263762 0.712763
O O6 0.919769 0.218281 0.876926
O O7 0.665641 0.166564 0.055136
O O8 0.897783 0.972698 0.791111
O O9 0.989804 0.196008 0.464141
O O10 0.756508 0.365164 0.754156
O O11 0.000000 0.500000 0.500000
O O12 0.596473 0.699411 0.612627
O O13 0.426634 0.586175 0.919046
O O14 0.308495 0.161104 0.626144
O O15 0.500000 0.000000 0.500000
#
# Coordination Sequence:
#
# PCOD9252074 Si02
#       7
#     4   4   4   4   4   4   4
#     4  11  25  44  73 107 146 186 240 304 362 424
#     4  11  27  47  74 102 144 194 237 301 359 429
#     4  11  27  48  73 103 141 188 244 296 354 437
#     4  12  26  54  70 106 149 188 244 300 359 434
#     4  11  24  45  69 109 139 185 245 298 359 436
#     4  11  23  43  68 105 141 182 231 296 360 423
#     4  11  23  42  71 103 147 185 235 299 364 425
#
# _framework density 25.037728999999999
#
# number of rings (size 3 to 8) (size 9 to 14) (size 15 to 20)
#    0.000    0.857    2.857    3.000   10.000    1.143 
#    5.143    0.000    0.000    0.000    0.000    0.000 
#    0.000    0.000    0.000    0.000    0.000    0.000 
#
# Total GULP energy -156640.842428 kJ/mol
# GULP energy per Si atom -5594.315801 kJ/mol
# Density = 2.498074 g / cm^3
# Si number density = 25.037729 Si / 1000 Ang^3
#
#
#
# Elastic Constant Matrix: (Units=GPa)
#
#
# Indices 1 2 3 4 5 6 
#
# 1 52.3516 -0.9435 36.7696 0.0000 4.4509 0.0000
# 2 -0.9435 84.0674 27.3330 0.0000 0.3921 0.0000
# 3 36.7696 27.3330 98.7035 0.0000 4.5392 0.0000
# 4 0.0000 0.0000 0.0000 55.2707 0.0000 0.1234
# 5 4.4509 0.3921 4.5392 0.0000 37.7083 0.0000
# 6 0.0000 0.0000 0.0000 0.1234 0.0000 42.6280
#
#
#
# Elastic Compliance Matrix: (Units=1/GPa)
#
#
# Indices 1 2 3 4 5 6 
#
# 1 0.027136 0.003925 -0.011108 0.000000 -0.001907 0.000000
# 2 0.003925 0.013643 -0.005241 0.000000 0.000026 0.000000
# 3 -0.011108 -0.005241 0.015745 0.000000 -0.000530 0.000000
# 4 0.000000 0.000000 0.000000 0.018093 0.000000 -0.000052
# 5 -0.001907 0.000026 -0.000530 0.000000 0.026808 0.000000
# 6 0.000000 0.000000 0.000000 -0.000052 0.000000 0.023459
#
#
# Mechanical properties :
#
#
# Convention : Reuss Voigt Hill
#
# Bulk Modulus (GPa) = 31.56993 40.16008 35.86500
# Shear Modulus (GPa) = 31.19293 38.58563 34.88928
#
# Velocity S-wave (km/s) = 3.53347 3.92994 3.73697
# Velocity P-wave (km/s) = 5.41143 6.05535 5.74242
#
# Compressibility (1/GPa) = 0.03167571
#
# Stress axis : x y z
#
# Youngs Moduli (GPa) = 36.85082 73.29591 63.51097
#
# Poissons Ratio (x) = -0.28769 0.70550
# Poissons Ratio (y) = -0.14464 0.33289
# Poissons Ratio (z) = 0.40935 0.38418
#
# Static dielectric constant tensor:
#      x y z
#    x 2.001360 0.000000 -0.040780 
#    y 0.000000 1.934110 0.000000 
#    z -0.040780 0.000000 2.051890 
# 
# From -- ./inp_files/50216.got.cif
#   From: 2010.05.17/outbox.cif.g08.bks.cpg/sg14_26_cif.got.tgz:50216.got - 2010.06.03 17:49:19.
