data_PCOD9252303
_publ_section_title
;
Structure prediction by ZEFSAII (Michael W. Deem and Ramdas Pophale) SiO2 
 PCOD9252303
Probable space group: P 21/C
;
_chemical_formula_sum "Si O2"
_cell_formula_units_Z 26
_cell_length_a 5.408822
_cell_length_b 14.952381
_cell_length_c 11.872529
_cell_angle_alpha 90.000000
_cell_angle_beta 77.642203
_cell_angle_gamma 90.000000
_cell_volume 937.940640
_symmetry_space_group_name_H-M "P 21/C"
_symmetry_group_IT_number 14
_symmetry_cell_setting 'monoclinic'
loop_
_space_group_symop_operation_xyz
x,y,z
-x,1/2+y,1/2-z
-x,-y,-z
x,1/2-y,1/2+z
loop_
_atom_site_type_symbol
_atom_site_label
_atom_site_fract_x
_atom_site_fract_y
_atom_site_fract_z
Si Si1 0.065868 0.888007 0.630149
Si Si2 0.043875 0.237853 0.013867
Si Si3 0.426658 0.386104 0.230745
Si Si4 0.632157 0.204808 0.225174
Si Si5 0.870852 0.084540 0.869481
Si Si6 0.306620 0.095612 0.119547
Si Si7 0.500000 0.000000 0.500000
O O1 0.911385 0.830507 0.553813
O O2 0.293078 0.826846 0.658856
O O3 0.892080 0.904507 0.755955
O O4 0.210252 0.971007 0.565012
O O5 0.894172 0.170667 0.945949
O O6 0.867125 0.251214 0.139797
O O7 0.273116 0.178206 0.037518
O O8 0.411454 0.277628 0.236411
O O9 0.653521 0.405297 0.296218
O O10 0.505580 0.426531 0.103909
O O11 0.154463 0.422978 0.293940
O O12 0.560700 0.115439 0.163246
O O13 0.769823 0.993942 0.937713
#
# Coordination Sequence:
#
# PCOD9252303 Si02
#       7
#     4   4   4   4   4   4   2
#     4  11  23  48  68 110 146 192 252 310 377 450
#     4  11  25  44  75 106 148 201 248 309 380 450
#     4  12  27  48  77 111 151 198 252 313 377 449
#     4  11  25  45  71 108 152 196 247 307 378 451
#     4  12  27  50  75 112 150 196 254 312 372 450
#     4  11  26  45  73 106 148 195 251 312 372 451
#     4  12  24  48  78 110 148 198 254 316 380 444
#
# _framework density 27.720306000000001
#
# number of rings (size 3 to 8) (size 9 to 14) (size 15 to 20)
#    0.000    0.615    4.615    2.308    6.462    2.462 
#    5.538    0.000    0.000    0.000    0.000    0.000 
#    0.000    0.000    0.000    0.000    0.000    0.000 
#
# Total GULP energy -145250.413793 kJ/mol
# GULP energy per Si atom -5586.554377 kJ/mol
# Density = 2.765721 g / cm^3
# Si number density = 27.720306 Si / 1000 Ang^3
#
#
#
# Elastic Constant Matrix: (Units=GPa)
#
#
# Indices 1 2 3 4 5 6 
#
# 1 112.2744 8.4001 54.2328 0.0000 3.2380 0.0000
# 2 8.4001 62.2037 14.2666 0.0000 19.5335 0.0000
# 3 54.2328 14.2666 73.2671 0.0000 5.6393 0.0000
# 4 0.0000 0.0000 0.0000 41.2017 0.0000 5.5939
# 5 3.2380 19.5335 5.6393 0.0000 53.9347 0.0000
# 6 0.0000 0.0000 0.0000 5.5939 0.0000 37.4589
#
#
#
# Elastic Compliance Matrix: (Units=1/GPa)
#
#
# Indices 1 2 3 4 5 6 
#
# 1 0.013879 0.000481 -0.010373 0.000000 0.000077 0.000000
# 2 0.000481 0.018859 -0.003528 0.000000 -0.006490 0.000000
# 3 -0.010373 -0.003528 0.022045 0.000000 -0.000404 0.000000
# 4 0.000000 0.000000 0.000000 0.024773 0.000000 -0.003700
# 5 0.000077 -0.006490 -0.000404 0.000000 0.020929 0.000000
# 6 0.000000 0.000000 0.000000 -0.003700 0.000000 0.027248
#
#
# Mechanical properties :
#
#
# Convention : Reuss Voigt Hill
#
# Bulk Modulus (GPa) = 35.78948 44.61603 40.20275
# Shear Modulus (GPa) = 30.50859 37.90876 34.20867
#
# Velocity S-wave (km/s) = 3.32111 3.70205 3.51674
# Velocity P-wave (km/s) = 5.25788 5.86545 5.56996
#
# Compressibility (1/GPa) = 0.02794117
#
# Stress axis : x y z
#
# Youngs Moduli (GPa) = 72.05086 53.02636 45.36185
#
# Poissons Ratio (x) = -0.02548 0.47053
# Poissons Ratio (y) = -0.03462 0.16005
# Poissons Ratio (z) = 0.74738 0.18709
#
# Static dielectric constant tensor:
#      x y z
#    x 2.105470 0.000000 -0.020360 
#    y 0.000000 2.326510 0.000000 
#    z -0.020360 0.000000 2.146000 
# 
# From -- ./inp_files/21246.got.cif
#   From: 2010.05.17/outbox.cif.g08.bks.cpg/sg14_11_cif.got.tgz:21246.got - 2010.06.03 17:49:19.
