data_PCOD9252419
_publ_section_title
;
Structure prediction by ZEFSAII (Michael W. Deem and Ramdas Pophale) SiO2 
 PCOD9252419
Probable space group: P 21/C
;
_chemical_formula_sum "Si O2"
_cell_formula_units_Z 24
_cell_length_a 18.598798
_cell_length_b 12.242853
_cell_length_c 8.728879
_cell_angle_alpha 90.000000
_cell_angle_beta 33.052887
_cell_angle_gamma 90.000000
_cell_volume 1084.055265
_symmetry_space_group_name_H-M "P 21/C"
_symmetry_group_IT_number 14
_symmetry_cell_setting 'monoclinic'
loop_
_space_group_symop_operation_xyz
x,y,z
-x,1/2+y,1/2-z
-x,-y,-z
x,1/2-y,1/2+z
loop_
_atom_site_type_symbol
_atom_site_label
_atom_site_fract_x
_atom_site_fract_y
_atom_site_fract_z
Si Si1 0.347536 0.517459 0.226368
Si Si2 0.418332 0.111281 0.114264
Si Si3 0.191277 0.060868 0.729087
Si Si4 0.783413 0.143175 0.807186
Si Si5 0.909512 0.154873 0.246374
Si Si6 0.451601 0.778081 0.387214
O O1 0.290759 0.438635 0.196290
O O2 0.247551 0.531400 0.546854
O O3 0.500000 0.500000 0.000000
O O4 0.351881 0.635714 0.138297
O O5 0.271336 0.094416 0.434794
O O6 0.478124 0.205729 0.113061
O O7 0.445606 0.152130 0.895324
O O8 0.500000 0.000000 0.000000
O O9 0.141665 0.937852 0.780968
O O10 0.065092 0.135255 0.983687
O O11 0.841019 0.134435 0.533380
O O12 0.872035 0.227136 0.746273
O O13 0.638951 0.198083 0.050090
#
# Coordination Sequence:
#
# PCOD9252419 Si02
#       6
#     4   4   4   4   4   4
#     4  12  25  42  70 104 140 175 236 295 346 424
#     4  12  24  41  68 100 139 175 224 299 354 410
#     4  11  25  45  64 100 140 180 230 288 355 414
#     4  12  21  43  69  98 132 183 232 277 350 421
#     4  11  24  43  70  92 137 190 229 282 343 430
#     4  12  23  39  67 101 131 178 227 279 358 414
#
# _framework density 22.139092999999999
#
# number of rings (size 3 to 8) (size 9 to 14) (size 15 to 20)
#    0.000    0.333    6.667    2.000    2.333    2.000 
#    0.000    0.000    0.000    0.000    0.000    0.000 
#    0.000    0.000    0.000    0.000    0.000    0.000 
#
# Total GULP energy -134242.194243 kJ/mol
# GULP energy per Si atom -5593.424760 kJ/mol
# Density = 2.208870 g / cm^3
# Si number density = 22.139093 Si / 1000 Ang^3
#
#
#
# Elastic Constant Matrix: (Units=GPa)
#
#
# Indices 1 2 3 4 5 6 
#
# 1 93.2594 11.3310 35.4843 0.0000 -2.4066 0.0000
# 2 11.3310 39.8959 14.1534 0.0000 0.5825 0.0000
# 3 35.4843 14.1534 112.2753 0.0000 -4.6974 0.0000
# 4 0.0000 0.0000 0.0000 31.4656 0.0000 8.0518
# 5 -2.4066 0.5825 -4.6974 0.0000 36.3173 0.0000
# 6 0.0000 0.0000 0.0000 8.0518 0.0000 38.7869
#
#
#
# Elastic Compliance Matrix: (Units=1/GPa)
#
#
# Indices 1 2 3 4 5 6 
#
# 1 0.012380 -0.002240 -0.003614 0.000000 0.000389 0.000000
# 2 -0.002240 0.026670 -0.002693 0.000000 -0.000924 0.000000
# 3 -0.003614 -0.002693 0.010437 0.000000 0.001154 0.000000
# 4 0.000000 0.000000 0.000000 0.033564 0.000000 -0.006967
# 5 0.000389 -0.000924 0.001154 0.000000 0.027725 0.000000
# 6 0.000000 0.000000 0.000000 -0.006967 0.000000 0.027228
#
#
# Mechanical properties :
#
#
# Convention : Reuss Voigt Hill
#
# Bulk Modulus (GPa) = 30.87030 40.81866 35.84448
# Shear Modulus (GPa) = 30.13957 33.61140 31.87548
#
# Velocity S-wave (km/s) = 3.69368 3.90063 3.79856
# Velocity P-wave (km/s) = 5.67143 6.22607 5.95521
#
# Compressibility (1/GPa) = 0.03239359
#
# Stress axis : x y z
#
# Youngs Moduli (GPa) = 80.77509 37.49509 95.81637
#
# Poissons Ratio (x) = 0.08398 0.34629
# Poissons Ratio (y) = 0.18091 0.25802
# Poissons Ratio (z) = 0.29193 0.10097
#
# Static dielectric constant tensor:
#      x y z
#    x 1.768550 0.000000 0.011350 
#    y 0.000000 1.935230 0.000000 
#    z 0.011350 0.000000 1.793020 
# 
# From -- ./inp_files/17962.got.cif
#   From: 2010.05.17/outbox.cif.g08.bks.cpg/sg14_9_cif.got.tgz:17962.got - 2010.06.03 17:49:19.
