data_PCOD9252004
_publ_section_title
;
Structure prediction by ZEFSAII (Michael W. Deem and Ramdas Pophale) SiO2 
 PCOD9252004
Probable space group: P 21/C
;
_chemical_formula_sum "Si O2"
_cell_formula_units_Z 20
_cell_length_a 12.652772
_cell_length_b 14.924843
_cell_length_c 4.944869
_cell_angle_alpha 90.000000
_cell_angle_beta 91.641429
_cell_angle_gamma 90.000000
_cell_volume 933.409037
_symmetry_space_group_name_H-M "P 21/C"
_symmetry_group_IT_number 14
_symmetry_cell_setting 'monoclinic'
loop_
_space_group_symop_operation_xyz
x,y,z
-x,1/2+y,1/2-z
-x,-y,-z
x,1/2-y,1/2+z
loop_
_atom_site_type_symbol
_atom_site_label
_atom_site_fract_x
_atom_site_fract_y
_atom_site_fract_z
Si Si1 0.385243 0.308386 0.828720
Si Si2 0.254851 0.811382 0.051107
Si Si3 0.245839 0.043440 0.560423
Si Si4 0.432929 0.930417 0.812884
Si Si5 0.123015 0.517887 0.541840
O O1 0.385847 0.278774 0.517369
O O2 0.489470 0.369345 0.858928
O O3 0.287295 0.366274 0.926742
O O4 0.251218 0.773411 0.351800
O O5 0.160392 0.880798 0.980190
O O6 0.361607 0.866430 0.996780
O O7 0.349368 0.983269 0.622189
O O8 0.165215 0.998849 0.345760
O O9 0.187651 0.046904 0.843496
O O10 0.500000 0.000000 0.000000
O O11 0.000000 0.500000 0.500000
#
# Coordination Sequence:
#
# PCOD9252004 Si02
#       5
#     4   4   4   4   4
#     4  12  24  39  60  94 132 171 208 254 313 381
#     4  11  23  41  64  98 130 162 213 278 322 369
#     4  11  24  43  64  92 126 166 214 260 313 387
#     4  11  23  41  65  95 133 178 215 252 315 396
#     4  11  24  46  71  91 121 169 218 268 329 389
#
# _framework density 21.426832000000001
#
# number of rings (size 3 to 8) (size 9 to 14) (size 15 to 20)
#    0.000    0.800    0.000    9.600    0.000    4.800 
#    0.000    6.000    0.000    0.000    0.000    0.000 
#    0.000    0.000    0.000    0.000    0.000    0.000 
#
# Total GULP energy -111965.474467 kJ/mol
# GULP energy per Si atom -5598.273723 kJ/mol
# Density = 2.137806 g / cm^3
# Si number density = 21.426832 Si / 1000 Ang^3
#
#
#
# Elastic Constant Matrix: (Units=GPa)
#
#
# Indices 1 2 3 4 5 6 
#
# 1 99.0996 42.8752 1.0933 0.0000 18.5206 0.0000
# 2 42.8752 67.4100 -2.8866 0.0000 8.8899 0.0000
# 3 1.0933 -2.8866 73.4373 0.0000 16.1059 0.0000
# 4 0.0000 0.0000 0.0000 46.4614 0.0000 -13.2167
# 5 18.5206 8.8899 16.1059 0.0000 36.7125 0.0000
# 6 0.0000 0.0000 0.0000 -13.2167 0.0000 27.9588
#
#
#
# Elastic Compliance Matrix: (Units=1/GPa)
#
#
# Indices 1 2 3 4 5 6 
#
# 1 0.014919 -0.008705 0.000690 0.000000 -0.005721 0.000000
# 2 -0.008705 0.020568 0.001181 0.000000 -0.001107 0.000000
# 3 0.000690 0.001181 0.015261 0.000000 -0.007329 0.000000
# 4 0.000000 0.000000 0.000000 0.024867 0.000000 0.011755
# 5 -0.005721 -0.001107 -0.007329 0.000000 0.033608 0.000000
# 6 0.000000 0.000000 0.000000 0.011755 0.000000 0.041324
#
#
# Mechanical properties :
#
#
# Convention : Reuss Voigt Hill
#
# Bulk Modulus (GPa) = 26.96866 35.79008 31.37937
# Shear Modulus (GPa) = 28.31696 35.48421 31.90059
#
# Velocity S-wave (km/s) = 3.63928 4.07389 3.86270
# Velocity P-wave (km/s) = 5.50208 6.23446 5.87968
#
# Compressibility (1/GPa) = 0.03708008
#
# Stress axis : x y z
#
# Youngs Moduli (GPa) = 67.03086 48.62000 65.52834
#
# Poissons Ratio (x) = 0.42322 -0.04525
# Poissons Ratio (y) = 0.58348 -0.07738
# Poissons Ratio (z) = -0.04628 -0.05741
#
# Static dielectric constant tensor:
#      x y z
#    x 1.736390 0.000000 -0.008140 
#    y 0.000000 1.809910 0.000000 
#    z -0.008140 0.000000 1.779520 
# 
# From -- ./inp_files/2466.got.cif
#   From: 2010.05.17/outbox.cif.g08.bks.cpg/sg14_2_cif.got.tgz:2466.got - 2010.06.03 17:49:19.
