data_PCOD9252505
_publ_section_title
;
Structure prediction by ZEFSAII (Michael W. Deem and Ramdas Pophale) SiO2 
 PCOD9252505
Probable space group: P 21/C
;
_chemical_formula_sum "Si O2"
_cell_formula_units_Z 28
_cell_length_a 4.909499
_cell_length_b 9.944904
_cell_length_c 22.754134
_cell_angle_alpha 90.000000
_cell_angle_beta 81.426247
_cell_angle_gamma 90.000000
_cell_volume 1098.543916
_symmetry_space_group_name_H-M "P 21/C"
_symmetry_group_IT_number 14
_symmetry_cell_setting 'monoclinic'
loop_
_space_group_symop_operation_xyz
x,y,z
-x,1/2+y,1/2-z
-x,-y,-z
x,1/2-y,1/2+z
loop_
_atom_site_type_symbol
_atom_site_label
_atom_site_fract_x
_atom_site_fract_y
_atom_site_fract_z
Si Si1 0.425657 0.675976 0.450162
Si Si2 0.051790 0.728996 0.263157
Si Si3 0.343728 0.014808 0.251729
Si Si4 0.010231 0.283357 0.106448
Si Si5 0.280550 0.684546 0.588151
Si Si6 0.940236 0.064953 0.350832
Si Si7 0.732848 0.946869 0.137873
O O1 0.747334 0.702807 0.432805
O O2 0.344231 0.647995 0.519365
O O3 0.344478 0.556843 0.408595
O O4 0.237953 0.797768 0.431179
O O5 0.143122 0.882387 0.247287
O O6 0.168491 0.634518 0.206799
O O7 0.743824 0.662872 0.270782
O O8 0.108262 0.714724 0.330403
O O9 0.611368 0.972663 0.206704
O O10 0.262559 0.039235 0.322589
O O11 0.149121 0.418539 0.126752
O O12 0.138750 0.829388 0.597640
O O13 0.556247 0.678077 0.617833
O O14 0.053609 0.585193 0.623542
#
# Coordination Sequence:
#
# PCOD9252505 Si02
#       7
#     4   4   4   4   4   4   4
#     4  12  25  44  69  97 138 183 226 282 331 407
#     4   9  18  41  65  98 133 171 221 283 339 403
#     4   9  18  40  66  99 131 175 219 283 340 401
#     4  11  24  45  68  99 132 182 231 275 342 408
#     4  12  26  44  68 101 139 177 229 279 339 405
#     4   9  22  43  68 102 134 177 227 280 346 408
#     4  12  23  43  68 101 131 180 227 281 342 404
#
# _framework density 25.488287
#
# number of rings (size 3 to 8) (size 9 to 14) (size 15 to 20)
#    0.857    0.571    2.857    2.571    0.000    2.286 
#   10.286    1.429    0.000    0.000    0.000    0.000 
#    0.000    0.000    0.000    0.000    0.000    0.000 
#
# Total GULP energy -156127.689011 kJ/mol
# GULP energy per Si atom -5575.988893 kJ/mol
# Density = 2.543027 g / cm^3
# Si number density = 25.488287 Si / 1000 Ang^3
#
#
#
# Elastic Constant Matrix: (Units=GPa)
#
#
# Indices 1 2 3 4 5 6 
#
# 1 93.5168 17.0826 45.2416 0.0000 -23.4882 0.0000
# 2 17.0826 109.0444 25.3494 0.0000 -20.9972 0.0000
# 3 45.2416 25.3494 147.1353 0.0000 -29.1670 0.0000
# 4 0.0000 0.0000 0.0000 35.3785 0.0000 -5.8610
# 5 -23.4882 -20.9972 -29.1670 0.0000 34.9881 0.0000
# 6 0.0000 0.0000 0.0000 -5.8610 0.0000 23.5859
#
#
#
# Elastic Compliance Matrix: (Units=1/GPa)
#
#
# Indices 1 2 3 4 5 6 
#
# 1 0.013818 -0.000194 -0.002875 0.000000 0.006764 0.000000
# 2 -0.000194 0.010426 -0.000625 0.000000 0.005605 0.000000
# 3 -0.002875 -0.000625 0.008782 0.000000 0.005016 0.000000
# 4 0.000000 0.000000 0.000000 0.029479 0.000000 0.007326
# 5 0.006764 0.005605 0.005016 0.000000 0.040667 0.000000
# 6 0.000000 0.000000 0.000000 0.007326 0.000000 0.044219
#
#
# Mechanical properties :
#
#
# Convention : Reuss Voigt Hill
#
# Bulk Modulus (GPa) = 39.00458 58.33817 48.67137
# Shear Modulus (GPa) = 30.61371 36.25870 33.43621
#
# Velocity S-wave (km/s) = 3.46943 3.77578 3.62584
# Velocity P-wave (km/s) = 5.60227 6.47662 6.05525
#
# Compressibility (1/GPa) = 0.02563802
#
# Stress axis : x y z
#
# Youngs Moduli (GPa) = 72.36830 95.91720 113.86298
#
# Poissons Ratio (x) = 0.01862 0.32732
# Poissons Ratio (y) = 0.01405 0.07121
# Poissons Ratio (z) = 0.20803 0.05999
#
# Static dielectric constant tensor:
#      x y z
#    x 2.094710 0.000000 0.005730 
#    y 0.000000 2.135470 0.000000 
#    z 0.005730 0.000000 1.911390 
# 
# From -- ./inp_files/71158.got.cif
#   From: 2010.05.17/outbox.cif.g08.bks.cpg/sg14_36_cif.got.tgz:71158.got - 2010.06.03 17:49:19.
