data_PCOD9252374
_publ_section_title
;
Structure prediction by ZEFSAII (Michael W. Deem and Ramdas Pophale) SiO2 
 PCOD9252374
Probable space group: P 21/C
;
_chemical_formula_sum "Si O2"
_cell_formula_units_Z 28
_cell_length_a 16.066222
_cell_length_b 4.978724
_cell_length_c 14.098807
_cell_angle_alpha 90.000000
_cell_angle_beta 106.387714
_cell_angle_gamma 90.000000
_cell_volume 1081.937937
_symmetry_space_group_name_H-M "P 21/C"
_symmetry_group_IT_number 14
_symmetry_cell_setting 'monoclinic'
loop_
_space_group_symop_operation_xyz
x,y,z
-x,1/2+y,1/2-z
-x,-y,-z
x,1/2-y,1/2+z
loop_
_atom_site_type_symbol
_atom_site_label
_atom_site_fract_x
_atom_site_fract_y
_atom_site_fract_z
Si Si1 0.191290 0.837104 0.683113
Si Si2 0.146520 0.357950 0.980326
Si Si3 0.535971 0.818939 0.150460
Si Si4 0.362845 0.563017 0.165758
Si Si5 0.014691 0.693368 0.688903
Si Si6 0.235582 0.866022 0.914883
Si Si7 0.399166 0.314667 0.515845
O O1 0.109415 0.645927 0.674486
O O2 0.158707 0.050371 0.593129
O O3 0.283168 0.747273 0.666640
O O4 0.215614 0.927659 0.797999
O O5 0.048555 0.318551 0.910932
O O6 0.195448 0.578252 0.929339
O O7 0.187040 0.072028 0.968267
O O8 0.456895 0.690375 0.180984
O O9 0.618510 0.869104 0.240896
O O10 0.486916 0.081244 0.093558
O O11 0.572136 0.668597 0.070534
O O12 0.349310 0.379356 0.070419
O O13 0.019182 0.922143 0.772540
O O14 0.336911 0.935246 0.968087
#
# Coordination Sequence:
#
# PCOD9252374 Si02
#       7
#     4   4   4   4   4   4   4
#     4  12  26  47  76 107 150 196 247 307 372 434
#     4  12  26  49  77 108 152 190 245 298 373 439
#     4  11  24  42  67  99 138 188 236 297 358 429
#     4  12  23  45  67 105 137 186 246 293 361 437
#     4  12  25  50  76 109 151 192 243 302 371 443
#     4  12  26  48  74 113 148 192 243 310 358 442
#     4  11  24  45  67  97 145 184 241 295 365 420
#
# _framework density 25.879486
#
# number of rings (size 3 to 8) (size 9 to 14) (size 15 to 20)
#    0.000    0.286    7.143    1.714    0.000    2.286 
#    7.714    2.857    0.000    0.000    0.000    0.000 
#    0.000    0.000    0.000    0.000    0.000    0.000 
#
# Total GULP energy -156680.330450 kJ/mol
# GULP energy per Si atom -5595.726087 kJ/mol
# Density = 2.582058 g / cm^3
# Si number density = 25.879486 Si / 1000 Ang^3
#
#
#
# Elastic Constant Matrix: (Units=GPa)
#
#
# Indices 1 2 3 4 5 6 
#
# 1 142.9658 8.7426 32.4675 0.0000 7.8407 0.0000
# 2 8.7426 59.3485 18.2376 0.0000 2.4381 0.0000
# 3 32.4675 18.2376 163.8281 0.0000 -2.5636 0.0000
# 4 0.0000 0.0000 0.0000 19.3866 0.0000 8.1689
# 5 7.8407 2.4381 -2.5636 0.0000 43.4900 0.0000
# 6 0.0000 0.0000 0.0000 8.1689 0.0000 31.2058
#
#
#
# Elastic Compliance Matrix: (Units=1/GPa)
#
#
# Indices 1 2 3 4 5 6 
#
# 1 0.007432 -0.000599 -0.001428 0.000000 -0.001390 0.000000
# 2 -0.000599 0.017547 -0.001850 0.000000 -0.000985 0.000000
# 3 -0.001428 -0.001850 0.006605 0.000000 0.000750 0.000000
# 4 0.000000 0.000000 0.000000 0.057977 0.000000 -0.015177
# 5 -0.001390 -0.000985 0.000750 0.000000 0.023344 0.000000
# 6 0.000000 0.000000 0.000000 -0.015177 0.000000 0.036018
#
#
# Mechanical properties :
#
#
# Convention : Reuss Voigt Hill
#
# Bulk Modulus (GPa) = 41.96465 53.89309 47.92887
# Shear Modulus (GPa) = 30.37310 39.26281 34.81795
#
# Velocity S-wave (km/s) = 3.42955 3.89927 3.67193
# Velocity P-wave (km/s) = 5.65094 6.41423 6.04464
#
# Compressibility (1/GPa) = 0.02382958
#
# Stress axis : x y z
#
# Youngs Moduli (GPa) = 134.55619 56.99042 151.40862
#
# Poissons Ratio (x) = 0.03413 0.21620
# Poissons Ratio (y) = 0.08058 0.28012
# Poissons Ratio (z) = 0.19214 0.10544
#
# Static dielectric constant tensor:
#      x y z
#    x 2.026920 0.000000 0.013820 
#    y 0.000000 2.041730 0.000000 
#    z 0.013820 0.000000 2.091030 
# 
# From -- ./inp_files/48004.got.cif
#   From: 2010.05.17/outbox.cif.g08.bks.cpg/sg14_25_cif.got.tgz:48004.got - 2010.06.03 17:49:19.
