data_PCOD9252586
_publ_section_title
;
Structure prediction by ZEFSAII (Michael W. Deem and Ramdas Pophale) SiO2 
 PCOD9252586
Probable space group: P 21/C
;
_chemical_formula_sum "Si O2"
_cell_formula_units_Z 16
_cell_length_a 9.648157
_cell_length_b 9.293592
_cell_length_c 7.043216
_cell_angle_alpha 90.000000
_cell_angle_beta 111.115417
_cell_angle_gamma 90.000000
_cell_volume 589.133714
_symmetry_space_group_name_H-M "P 21/C"
_symmetry_group_IT_number 14
_symmetry_cell_setting 'monoclinic'
loop_
_space_group_symop_operation_xyz
x,y,z
-x,1/2+y,1/2-z
-x,-y,-z
x,1/2-y,1/2+z
loop_
_atom_site_type_symbol
_atom_site_label
_atom_site_fract_x
_atom_site_fract_y
_atom_site_fract_z
Si Si1 0.085757 0.881916 0.414457
Si Si2 0.343397 0.169550 0.945799
Si Si3 0.418450 0.948708 0.656303
Si Si4 0.127924 0.387656 0.649686
O O1 0.260404 0.871142 0.546045
O O2 0.996758 0.734723 0.388746
O O3 0.084901 0.959337 0.210795
O O4 0.000000 0.000000 0.500000
O O5 0.259795 0.317003 0.847880
O O6 0.384329 0.083890 0.776475
O O7 0.481866 0.154021 0.157633
O O8 0.212158 0.091008 0.994498
O O9 0.500000 0.000000 0.500000
#
# Coordination Sequence:
#
# PCOD9252586 Si02
#       4
#     4   4   4   4
#     4  12  25  51  79 120 164 221 273 342 409 499
#     4  11  24  46  80 114 158 220 263 347 400 487
#     4  11  24  50  80 113 158 216 284 335 413 483
#     4  12  25  50  82 117 172 214 275 338 418 486
#
# _framework density 27.158519999999999
#
# number of rings (size 3 to 8) (size 9 to 14) (size 15 to 20)
#    0.000    0.500    7.500    0.000    0.000    1.000 
#    4.500    2.500    0.000    0.000    0.000    0.000 
#    0.000    0.000    0.000    0.000    0.000    0.000 
#
# Total GULP energy -89660.180567 kJ/mol
# GULP energy per Si atom -5603.761285 kJ/mol
# Density = 2.709671 g / cm^3
# Si number density = 27.158520 Si / 1000 Ang^3
#
#
#
# Elastic Constant Matrix: (Units=GPa)
#
#
# Indices 1 2 3 4 5 6 
#
# 1 243.1247 90.1259 111.8229 0.0000 20.9078 0.0000
# 2 90.1259 156.5414 71.4908 0.0000 8.2981 0.0000
# 3 111.8229 71.4908 157.9790 0.0000 -15.7806 0.0000
# 4 0.0000 0.0000 0.0000 49.6842 0.0000 -0.8356
# 5 20.9078 8.2981 -15.7806 0.0000 87.4098 0.0000
# 6 0.0000 0.0000 0.0000 -0.8356 0.0000 56.9738
#
#
#
# Elastic Compliance Matrix: (Units=1/GPa)
#
#
# Indices 1 2 3 4 5 6 
#
# 1 0.007013 -0.001949 -0.004308 0.000000 -0.002270 0.000000
# 2 -0.001949 0.008778 -0.002678 0.000000 -0.000850 0.000000
# 3 -0.004308 -0.002678 0.010916 0.000000 0.003256 0.000000
# 4 0.000000 0.000000 0.000000 0.020132 0.000000 0.000295
# 5 -0.002270 -0.000850 0.003256 0.000000 0.012652 0.000000
# 6 0.000000 0.000000 0.000000 0.000295 0.000000 0.017556
#
#
# Mechanical properties :
#
#
# Convention : Reuss Voigt Hill
#
# Bulk Modulus (GPa) = 113.16470 122.72493 117.94481
# Shear Modulus (GPa) = 51.09151 57.76058 54.42605
#
# Velocity S-wave (km/s) = 4.34202 4.61672 4.48148
# Velocity P-wave (km/s) = 8.17901 8.58518 8.38455
#
# Compressibility (1/GPa) = 0.00883668
#
# Stress axis : x y z
#
# Youngs Moduli (GPa) = 142.60138 113.91670 91.60550
#
# Poissons Ratio (x) = 0.22208 0.39466
# Poissons Ratio (y) = 0.27800 0.24528
# Poissons Ratio (z) = 0.61437 0.30502
#
# Static dielectric constant tensor:
#      x y z
#    x 2.098550 0.000000 0.116630 
#    y 0.000000 2.131060 0.000000 
#    z 0.116630 0.000000 2.380320 
# 
# From -- ./inp_files/7286.got.cif
#   From: 2010.05.17/outbox.cif.g08.bks.cpg/sg14_4_cif.got.tgz:7286.got - 2010.06.03 17:49:19.
