data_PCOD9252853
_publ_section_title
;
Structure prediction by ZEFSAII (Michael W. Deem and Ramdas Pophale) SiO2 
 PCOD9252853
Probable space group: P 21/C
;
_chemical_formula_sum "Si O2"
_cell_formula_units_Z 28
_cell_length_a 13.732370
_cell_length_b 10.972249
_cell_length_c 8.601607
_cell_angle_alpha 90.000000
_cell_angle_beta 120.386090
_cell_angle_gamma 90.000000
_cell_volume 1118.017433
_symmetry_space_group_name_H-M "P 21/C"
_symmetry_group_IT_number 14
_symmetry_cell_setting 'monoclinic'
loop_
_space_group_symop_operation_xyz
x,y,z
-x,1/2+y,1/2-z
-x,-y,-z
x,1/2-y,1/2+z
loop_
_atom_site_type_symbol
_atom_site_label
_atom_site_fract_x
_atom_site_fract_y
_atom_site_fract_z
Si Si1 0.771588 0.917045 0.590392
Si Si2 0.526086 0.358093 0.511869
Si Si3 0.266348 0.806711 0.389363
Si Si4 0.887424 0.188044 0.008254
Si Si5 0.167656 0.079188 0.004248
Si Si6 0.389994 0.277236 0.654245
Si Si7 0.070587 0.123914 0.583721
O O1 0.836604 0.901727 0.808349
O O2 0.670630 0.822953 0.500241
O O3 0.842434 0.882339 0.491198
O O4 0.720135 0.054303 0.541519
O O5 0.500000 0.500000 0.500000
O O6 0.641058 0.300610 0.537858
O O7 0.507306 0.316279 0.672724
O O8 0.425500 0.296524 0.334138
O O9 0.150395 0.766011 0.376305
O O10 0.229294 0.816975 0.181498
O O11 0.986311 0.261293 0.004645
O O12 0.900453 0.048267 0.062229
O O13 0.302567 0.110035 0.097545
O O14 0.123739 0.133607 0.801046
O O15 0.000000 0.000000 0.500000
#
# Coordination Sequence:
#
# PCOD9252853 Si02
#       7
#     4   4   4   4   4   4   4
#     4  11  27  52  78 114 162 210 272 335 405 498
#     4  12  28  47  85 119 157 215 276 340 431 504
#     4  11  25  49  75 112 160 203 265 338 400 484
#     4  11  25  49  75 113 157 205 270 330 404 485
#     4  11  27  53  77 116 163 207 278 340 405 497
#     4  12  26  52  77 115 164 208 270 343 420 494
#     4  12  26  51  82 115 162 218 269 339 416 486
#
# _framework density 25.044333000000002
#
# number of rings (size 3 to 8) (size 9 to 14) (size 15 to 20)
#    0.000    0.571    2.857    3.429    4.000    4.571 
#    2.571    0.000    0.000    0.000    0.000    0.000 
#    0.000    0.000    0.000    0.000    0.000    0.000 
#
# Total GULP energy -156039.850764 kJ/mol
# GULP energy per Si atom -5572.851813 kJ/mol
# Density = 2.498733 g / cm^3
# Si number density = 25.044333 Si / 1000 Ang^3
#
#
#
# Elastic Constant Matrix: (Units=GPa)
#
#
# Indices 1 2 3 4 5 6 
#
# 1 107.8692 76.1379 27.9238 0.0000 -15.0125 0.0000
# 2 76.1379 126.1830 46.7546 0.0000 -16.7089 0.0000
# 3 27.9238 46.7546 98.1607 0.0000 -19.9794 0.0000
# 4 0.0000 0.0000 0.0000 18.2494 0.0000 -6.3257
# 5 -15.0125 -16.7089 -19.9794 0.0000 32.5174 0.0000
# 6 0.0000 0.0000 0.0000 -6.3257 0.0000 42.8412
#
#
#
# Elastic Compliance Matrix: (Units=1/GPa)
#
#
# Indices 1 2 3 4 5 6 
#
# 1 0.016383 -0.009705 0.000556 0.000000 0.002918 0.000000
# 2 -0.009705 0.015544 -0.004491 0.000000 0.000747 0.000000
# 3 0.000556 -0.004491 0.013430 0.000000 0.006201 0.000000
# 4 0.000000 0.000000 0.000000 0.057752 0.000000 0.008527
# 5 0.002918 0.000747 0.006201 0.000000 0.036294 0.000000
# 6 0.000000 0.000000 0.000000 0.008527 0.000000 0.024601
#
#
# Mechanical properties :
#
#
# Convention : Reuss Voigt Hill
#
# Bulk Modulus (GPa) = 55.31640 70.42726 62.87183
# Shear Modulus (GPa) = 25.34097 30.81470 28.07784
#
# Velocity S-wave (km/s) = 3.18440 3.51152 3.35195
# Velocity P-wave (km/s) = 5.97126 6.68005 6.33557
#
# Compressibility (1/GPa) = 0.01807782
#
# Stress axis : x y z
#
# Youngs Moduli (GPa) = 61.04011 64.33475 74.45846
#
# Poissons Ratio (x) = 0.62435 -0.04140
# Poissons Ratio (y) = 0.59238 0.33437
# Poissons Ratio (z) = -0.03394 0.28891
#
# Static dielectric constant tensor:
#      x y z
#    x 1.593590 0.000000 0.119140 
#    y 0.000000 2.062460 0.000000 
#    z 0.119140 0.000000 1.985540 
# 
# From -- ./inp_files/15900.got.cif
#   From: 2010.05.17/outbox.cif.g08.bks.cpg/sg14_8_cif.got.tgz:15900.got - 2010.06.03 17:49:19.
