data_PCOD9252430
_publ_section_title
;
Structure prediction by ZEFSAII (Michael W. Deem and Ramdas Pophale) SiO2 
 PCOD9252430
Probable space group: P 21/C
;
_chemical_formula_sum "Si O2"
_cell_formula_units_Z 28
_cell_length_a 14.440103
_cell_length_b 8.724575
_cell_length_c 16.946436
_cell_angle_alpha 90.000000
_cell_angle_beta 40.319283
_cell_angle_gamma 90.000000
_cell_volume 1381.428419
_symmetry_space_group_name_H-M "P 21/C"
_symmetry_group_IT_number 14
_symmetry_cell_setting 'monoclinic'
loop_
_space_group_symop_operation_xyz
x,y,z
-x,1/2+y,1/2-z
-x,-y,-z
x,1/2-y,1/2+z
loop_
_atom_site_type_symbol
_atom_site_label
_atom_site_fract_x
_atom_site_fract_y
_atom_site_fract_z
Si Si1 0.594657 0.747061 0.749055
Si Si2 0.594051 0.378027 0.983838
Si Si3 0.341316 0.593595 0.671135
Si Si4 0.603311 0.505799 0.607799
Si Si5 0.148207 0.070540 0.612051
Si Si6 0.163806 0.069128 0.153776
Si Si7 0.164887 0.476179 0.913919
O O1 0.621630 0.636295 0.659606
O O2 0.744270 0.827748 0.674330
O O3 0.482438 0.874255 0.791938
O O4 0.506993 0.679666 0.879348
O O5 0.638827 0.241302 0.896220
O O6 0.733381 0.466525 0.923205
O O7 0.500000 0.500000 0.000000
O O8 0.496224 0.546543 0.604653
O O9 0.256909 0.470515 0.671422
O O10 0.248665 0.610201 0.812004
O O11 0.754822 0.477516 0.469059
O O12 0.160160 0.249967 0.631695
O O13 0.174078 0.043132 0.501910
O O14 0.992191 0.002119 0.732742
O O15 0.000000 0.500000 0.000000
#
# Coordination Sequence:
#
# PCOD9252430 Si02
#       7
#     4   4   4   4   4   4   4
#     4  11  25  44  70 106 141 189 236 297 354 431
#     4  12  27  43  70 108 142 183 242 301 359 427
#     4  11  24  44  72 103 140 189 239 293 356 431
#     4  11  24  43  73 102 143 187 238 291 361 423
#     4  12  27  46  71 102 144 190 237 305 364 431
#     4  12  24  46  72 102 141 187 242 295 364 432
#     4  11  24  44  73  99 139 188 239 289 362 424
#
# _framework density 20.268872999999999
#
# number of rings (size 3 to 8) (size 9 to 14) (size 15 to 20)
#    0.000    0.571    4.286    3.857    8.000    0.000 
#    0.000    0.000    0.000    3.429    0.000    0.000 
#    0.000    0.000    0.000    0.000    0.000    0.000 
#
# Total GULP energy -156266.853785 kJ/mol
# GULP energy per Si atom -5580.959064 kJ/mol
# Density = 2.022274 g / cm^3
# Si number density = 20.268873 Si / 1000 Ang^3
#
#
#
# Elastic Constant Matrix: (Units=GPa)
#
#
# Indices 1 2 3 4 5 6 
#
# 1 89.8896 40.5298 49.6729 0.0000 0.3444 0.0000
# 2 40.5298 73.9734 41.6196 0.0000 9.5666 0.0000
# 3 49.6729 41.6196 136.7561 0.0000 -20.8451 0.0000
# 4 0.0000 0.0000 0.0000 34.0141 0.0000 -3.7164
# 5 0.3444 9.5666 -20.8451 0.0000 35.5668 0.0000
# 6 0.0000 0.0000 0.0000 -3.7164 0.0000 25.5140
#
#
#
# Elastic Compliance Matrix: (Units=1/GPa)
#
#
# Indices 1 2 3 4 5 6 
#
# 1 0.016326 -0.006569 -0.004047 0.000000 -0.000763 0.000000
# 2 -0.006569 0.021338 -0.005461 0.000000 -0.008876 0.000000
# 3 -0.004047 -0.005461 0.011721 0.000000 0.008377 0.000000
# 4 0.000000 0.000000 0.000000 0.029875 0.000000 0.004352
# 5 -0.000763 -0.008876 0.008377 0.000000 0.035421 0.000000
# 6 0.000000 0.000000 0.000000 0.004352 0.000000 0.039828
#
#
# Mechanical properties :
#
#
# Convention : Reuss Voigt Hill
#
# Bulk Modulus (GPa) = 58.03500 62.69597 60.36549
# Shear Modulus (GPa) = 25.98659 30.27211 28.12935
#
# Velocity S-wave (km/s) = 3.58452 3.86881 3.72937
# Velocity P-wave (km/s) = 6.76952 7.13836 6.95639
#
# Compressibility (1/GPa) = 0.01723098
#
# Stress axis : x y z
#
# Youngs Moduli (GPa) = 61.25166 46.86477 85.31641
#
# Poissons Ratio (x) = 0.30787 0.34528
# Poissons Ratio (y) = 0.40238 0.46589
# Poissons Ratio (z) = 0.24789 0.25591
#
# Static dielectric constant tensor:
#      x y z
#    x 1.731880 0.000000 0.017720 
#    y 0.000000 1.476670 0.000000 
#    z 0.017720 0.000000 1.681620 
# 
# From -- ./inp_files/46698.got.cif
#   From: 2010.05.17/outbox.cif.g08.bks.cpg/sg14_24_cif.got.tgz:46698.got - 2010.06.03 17:49:19.
