data_PCOD9252209
_publ_section_title
;
Structure prediction by ZEFSAII (Michael W. Deem and Ramdas Pophale) SiO2 
 PCOD9252209
Probable space group: P 21/C
;
_chemical_formula_sum "Si O2"
_cell_formula_units_Z 24
_cell_length_a 12.054103
_cell_length_b 10.728743
_cell_length_c 15.606905
_cell_angle_alpha 90.000000
_cell_angle_beta 32.219638
_cell_angle_gamma 90.000000
_cell_volume 1076.126183
_symmetry_space_group_name_H-M "P 21/C"
_symmetry_group_IT_number 14
_symmetry_cell_setting 'monoclinic'
loop_
_space_group_symop_operation_xyz
x,y,z
-x,1/2+y,1/2-z
-x,-y,-z
x,1/2-y,1/2+z
loop_
_atom_site_type_symbol
_atom_site_label
_atom_site_fract_x
_atom_site_fract_y
_atom_site_fract_z
Si Si1 0.291518 0.963120 0.683031
Si Si2 0.907854 0.788501 0.189458
Si Si3 0.668359 0.847168 0.104650
Si Si4 0.523757 0.857321 0.002543
Si Si5 0.663566 0.144763 0.162889
Si Si6 0.930045 0.259371 0.732498
O O1 0.181889 0.084679 0.789758
O O2 0.500000 0.000000 0.500000
O O3 0.337265 0.877204 0.734405
O O4 0.143210 0.902414 0.708224
O O5 0.710521 0.696752 0.321419
O O6 0.969130 0.800029 0.249883
O O7 0.128654 0.779202 0.998960
O O8 0.518103 0.742354 0.245880
O O9 0.660252 0.997448 0.132536
O O10 0.598497 0.844096 0.051105
O O11 0.897673 0.782476 0.953823
O O12 0.292783 0.803151 0.138467
O O13 0.500000 0.000000 0.000000
#
# Coordination Sequence:
#
# PCOD9252209 Si02
#       6
#     4   4   4   4   4   4
#     4  12  23  45  74  98 135 193 237 290 357 438
#     4  11  25  42  71 103 136 186 234 294 359 430
#     4  11  26  45  69 105 143 188 237 300 359 435
#     4  11  24  46  69 102 140 182 240 296 365 429
#     4  12  26  46  70 109 147 186 243 300 364 430
#     4  11  23  45  69  97 138 181 241 284 356 430
#
# _framework density 22.302216000000001
#
# number of rings (size 3 to 8) (size 9 to 14) (size 15 to 20)
#    0.000    0.667    5.000    2.500    4.667    2.667 
#    0.000    1.667    0.000    0.000    0.000    0.000 
#    0.000    0.000    0.000    0.000    0.000    0.000 
#
# Total GULP energy -133625.726074 kJ/mol
# GULP energy per Si atom -5567.738586 kJ/mol
# Density = 2.225146 g / cm^3
# Si number density = 22.302216 Si / 1000 Ang^3
#
#
#
# Elastic Constant Matrix: (Units=GPa)
#
#
# Indices 1 2 3 4 5 6 
#
# 1 59.7579 23.0900 19.0187 0.0000 -4.7791 0.0000
# 2 23.0900 130.1221 69.3679 0.0000 -9.0294 0.0000
# 3 19.0187 69.3679 180.9644 0.0000 -35.7825 0.0000
# 4 0.0000 0.0000 0.0000 21.3821 0.0000 10.0228
# 5 -4.7791 -9.0294 -35.7825 0.0000 29.3285 0.0000
# 6 0.0000 0.0000 0.0000 10.0228 0.0000 36.2193
#
#
#
# Elastic Compliance Matrix: (Units=1/GPa)
#
#
# Indices 1 2 3 4 5 6 
#
# 1 0.018112 -0.002829 -0.000538 0.000000 0.001425 0.000000
# 2 -0.002829 0.010194 -0.004060 0.000000 -0.002276 0.000000
# 3 -0.000538 -0.004060 0.009060 0.000000 0.009716 0.000000
# 4 0.000000 0.000000 0.000000 0.053739 0.000000 -0.014871
# 5 0.001425 -0.002276 0.009716 0.000000 0.045482 0.000000
# 6 0.000000 0.000000 0.000000 -0.014871 0.000000 0.031725
#
#
# Mechanical properties :
#
#
# Convention : Reuss Voigt Hill
#
# Bulk Modulus (GPa) = 44.41881 65.97749 55.19815
# Shear Modulus (GPa) = 26.22354 34.67717 30.45036
#
# Velocity S-wave (km/s) = 3.43275 3.94747 3.69907
# Velocity P-wave (km/s) = 5.97258 7.10101 6.56110
#
# Compressibility (1/GPa) = 0.02251298
#
# Stress axis : x y z
#
# Youngs Moduli (GPa) = 55.21158 98.10096 110.37483
#
# Poissons Ratio (x) = 0.27748 0.05933
# Poissons Ratio (y) = 0.15617 0.44815
# Poissons Ratio (z) = 0.02968 0.39832
#
# Static dielectric constant tensor:
#      x y z
#    x 1.733180 0.000000 0.290110 
#    y 0.000000 1.939940 0.000000 
#    z 0.290110 0.000000 1.188850 
# 
# From -- ./inp_files/57658.got.cif
#   From: 2010.05.17/outbox.cif.g08.bks.cpg/sg14_29_cif.got.tgz:57658.got - 2010.06.03 17:49:19.
