data_PCOD9252226
_publ_section_title
;
Structure prediction by ZEFSAII (Michael W. Deem and Ramdas Pophale) SiO2 
 PCOD9252226
Probable space group: P 21/C
;
_chemical_formula_sum "Si O2"
_cell_formula_units_Z 28
_cell_length_a 10.984752
_cell_length_b 8.235441
_cell_length_c 13.255014
_cell_angle_alpha 90.000000
_cell_angle_beta 106.108843
_cell_angle_gamma 90.000000
_cell_volume 1152.023999
_symmetry_space_group_name_H-M "P 21/C"
_symmetry_group_IT_number 14
_symmetry_cell_setting 'monoclinic'
loop_
_space_group_symop_operation_xyz
x,y,z
-x,1/2+y,1/2-z
-x,-y,-z
x,1/2-y,1/2+z
loop_
_atom_site_type_symbol
_atom_site_label
_atom_site_fract_x
_atom_site_fract_y
_atom_site_fract_z
Si Si1 0.035315 0.684439 0.910482
Si Si2 0.016565 0.042766 0.805928
Si Si3 0.346858 0.051280 0.164231
Si Si4 0.263463 0.227939 0.344788
Si Si5 0.197046 0.750702 0.135202
Si Si6 0.632828 0.010377 0.236119
Si Si7 0.240170 0.338786 0.049834
O O1 0.035527 0.550497 0.821324
O O2 0.902327 0.660836 0.939638
O O3 0.038895 0.864460 0.859154
O O4 0.145349 0.671997 0.020007
O O5 0.135382 0.165789 0.824314
O O6 0.915819 0.135383 0.852996
O O7 0.277334 0.116378 0.249277
O O8 0.495144 0.086707 0.205165
O O9 0.279687 0.149011 0.060360
O O10 0.317597 0.863611 0.142453
O O11 0.363503 0.372323 0.347863
O O12 0.271532 0.116320 0.443693
O O13 0.247512 0.632886 0.235398
O O14 0.665266 0.922406 0.349523
#
# Coordination Sequence:
#
# PCOD9252226 Si02
#       7
#     4   4   4   4   4   4   4
#     4  12  25  43  70 105 142 179 225 296 350 418
#     4  12  22  42  70 105 139 177 229 286 361 406
#     4  11  24  47  70  96 144 185 229 289 335 412
#     4  11  23  45  71  99 135 187 224 286 356 404
#     4  12  24  42  71 106 137 176 235 286 346 417
#     4  11  26  45  68 101 140 187 236 280 338 417
#     4  11  23  47  69  97 142 184 229 284 356 405
#
# _framework density 24.305052
#
# number of rings (size 3 to 8) (size 9 to 14) (size 15 to 20)
#    0.000    0.571    5.714    3.857    0.000    4.000 
#    0.000    4.286    0.000    0.000    0.000    0.000 
#    0.000    0.000    0.000    0.000    0.000    0.000 
#
# Total GULP energy -156574.098471 kJ/mol
# GULP energy per Si atom -5591.932088 kJ/mol
# Density = 2.424973 g / cm^3
# Si number density = 24.305052 Si / 1000 Ang^3
#
#
#
# Elastic Constant Matrix: (Units=GPa)
#
#
# Indices 1 2 3 4 5 6 
#
# 1 101.5003 25.3560 44.3614 0.0000 6.9367 0.0000
# 2 25.3560 80.4405 7.3666 0.0000 5.3615 0.0000
# 3 44.3614 7.3666 94.8629 0.0000 -13.4433 0.0000
# 4 0.0000 0.0000 0.0000 33.5245 0.0000 2.1844
# 5 6.9367 5.3615 -13.4433 0.0000 22.5837 0.0000
# 6 0.0000 0.0000 0.0000 2.1844 0.0000 41.5659
#
#
#
# Elastic Compliance Matrix: (Units=1/GPa)
#
#
# Indices 1 2 3 4 5 6 
#
# 1 0.014657 -0.003353 -0.007775 0.000000 -0.008334 0.000000
# 2 -0.003353 0.013606 0.000218 0.000000 -0.002071 0.000000
# 3 -0.007775 0.000218 0.015827 0.000000 0.011758 0.000000
# 4 0.000000 0.000000 0.000000 0.029931 0.000000 -0.001573
# 5 -0.008334 -0.002071 0.011758 0.000000 0.054330 0.000000
# 6 0.000000 0.000000 0.000000 -0.001573 0.000000 0.024141
#
#
# Mechanical properties :
#
#
# Convention : Reuss Voigt Hill
#
# Bulk Modulus (GPa) = 44.90227 47.88573 46.39400
# Shear Modulus (GPa) = 27.51229 32.84946 30.18088
#
# Velocity S-wave (km/s) = 3.36811 3.68033 3.52767
# Velocity P-wave (km/s) = 5.80001 6.14854 5.97681
#
# Compressibility (1/GPa) = 0.02227059
#
# Stress axis : x y z
#
# Youngs Moduli (GPa) = 68.22448 73.49449 63.18412
#
# Poissons Ratio (x) = 0.24641 0.49126
# Poissons Ratio (y) = 0.22874 -0.01376
# Poissons Ratio (z) = 0.53045 -0.01601
#
# Static dielectric constant tensor:
#      x y z
#    x 1.892980 0.000000 -0.010940 
#    y 0.000000 2.039450 0.000000 
#    z -0.010940 0.000000 1.944270 
# 
# From -- ./inp_files/43459.got.cif
#   From: 2010.05.17/outbox.cif.g08.bks.cpg/sg14_22_cif.got.tgz:43459.got - 2010.06.03 17:49:19.
