data_PCOD9252922
_publ_section_title
;
Structure prediction by ZEFSAII (Michael W. Deem and Ramdas Pophale) SiO2 
 PCOD9252922
Probable space group: P 21/C
;
_chemical_formula_sum "Si O2"
_cell_formula_units_Z 16
_cell_length_a 14.095629
_cell_length_b 8.661922
_cell_length_c 8.182003
_cell_angle_alpha 90.000000
_cell_angle_beta 140.425942
_cell_angle_gamma 90.000000
_cell_volume 636.427541
_symmetry_space_group_name_H-M "P 21/C"
_symmetry_group_IT_number 14
_symmetry_cell_setting 'monoclinic'
loop_
_space_group_symop_operation_xyz
x,y,z
-x,1/2+y,1/2-z
-x,-y,-z
x,1/2-y,1/2+z
loop_
_atom_site_type_symbol
_atom_site_label
_atom_site_fract_x
_atom_site_fract_y
_atom_site_fract_z
Si Si1 0.091804 0.017606 0.385119
Si Si2 0.628005 0.417651 0.565830
Si Si3 0.574364 0.632662 0.203790
Si Si4 0.138945 0.189290 0.107749
O O1 0.059500 0.145670 0.480583
O O2 0.223303 0.908410 0.627826
O O3 0.145231 0.115906 0.295604
O O4 0.953113 0.925462 0.130835
O O5 0.500000 0.500000 0.500000
O O6 0.652774 0.536330 0.451065
O O7 0.552140 0.255797 0.411990
O O8 0.697400 0.707467 0.250036
O O9 0.500000 0.500000 0.000000
#
# Coordination Sequence:
#
# PCOD9252922 Si02
#       4
#     4   4   4   4
#     4  11  26  48  75 106 147 191 245 302 367 439
#     4  12  25  46  74 107 149 193 245 301 365 433
#     4  12  27  46  74 109 149 194 245 304 363 438
#     4  11  26  49  73 108 145 191 246 301 367 438
#
# _framework density 25.140332999999998
#
# number of rings (size 3 to 8) (size 9 to 14) (size 15 to 20)
#    0.000    0.500    2.500    4.500    3.500    4.000 
#    0.000    0.000    0.000    0.000    0.000    0.000 
#    0.000    0.000    0.000    0.000    0.000    0.000 
#
# Total GULP energy -89669.170737 kJ/mol
# GULP energy per Si atom -5604.323171 kJ/mol
# Density = 2.508311 g / cm^3
# Si number density = 25.140333 Si / 1000 Ang^3
#
#
#
# Elastic Constant Matrix: (Units=GPa)
#
#
# Indices 1 2 3 4 5 6 
#
# 1 69.1750 18.6957 24.3953 0.0000 0.5304 0.0000
# 2 18.6957 137.2261 50.6563 0.0000 1.5428 0.0000
# 3 24.3953 50.6563 173.8205 0.0000 -11.5841 0.0000
# 4 0.0000 0.0000 0.0000 66.1373 0.0000 -6.6702
# 5 0.5304 1.5428 -11.5841 0.0000 26.9204 0.0000
# 6 0.0000 0.0000 0.0000 -6.6702 0.0000 35.1894
#
#
#
# Elastic Compliance Matrix: (Units=1/GPa)
#
#
# Indices 1 2 3 4 5 6 
#
# 1 0.015493 -0.001425 -0.001826 0.000000 -0.001009 0.000000
# 2 -0.001425 0.008359 -0.002333 0.000000 -0.001455 0.000000
# 3 -0.001826 -0.002333 0.006898 0.000000 0.003138 0.000000
# 4 0.000000 0.000000 0.000000 0.015415 0.000000 0.002922
# 5 -0.001009 -0.001455 0.003138 0.000000 0.038600 0.000000
# 6 0.000000 0.000000 0.000000 0.002922 0.000000 0.028971
#
#
# Mechanical properties :
#
#
# Convention : Reuss Voigt Hill
#
# Bulk Modulus (GPa) = 51.06893 63.07959 57.07426
# Shear Modulus (GPa) = 38.04215 44.74772 41.39494
#
# Velocity S-wave (km/s) = 3.89420 4.22348 4.06218
# Velocity P-wave (km/s) = 6.37003 6.99494 6.68979
#
# Compressibility (1/GPa) = 0.01958138
#
# Stress axis : x y z
#
# Youngs Moduli (GPa) = 64.54487 119.63179 144.96083
#
# Poissons Ratio (x) = 0.17051 0.26475
# Poissons Ratio (y) = 0.09199 0.33819
# Poissons Ratio (z) = 0.11788 0.27910
#
# Static dielectric constant tensor:
#      x y z
#    x 2.001320 0.000000 -0.058340 
#    y 0.000000 2.042080 0.000000 
#    z -0.058340 0.000000 2.028560 
# 
# From -- ./inp_files/7215.got.cif
#   From: 2010.05.17/outbox.cif.g08.bks.cpg/sg14_4_cif.got.tgz:7215.got - 2010.06.03 17:49:19.
