data_PCOD9252799
_publ_section_title
;
Structure prediction by ZEFSAII (Michael W. Deem and Ramdas Pophale) SiO2 
 PCOD9252799
Probable space group: P 21/C
;
_chemical_formula_sum "Si O2"
_cell_formula_units_Z 30
_cell_length_a 13.581589
_cell_length_b 11.536349
_cell_length_c 10.004484
_cell_angle_alpha 90.000000
_cell_angle_beta 44.807362
_cell_angle_gamma 90.000000
_cell_volume 1104.672582
_symmetry_space_group_name_H-M "P 21/C"
_symmetry_group_IT_number 14
_symmetry_cell_setting 'monoclinic'
loop_
_space_group_symop_operation_xyz
x,y,z
-x,1/2+y,1/2-z
-x,-y,-z
x,1/2-y,1/2+z
loop_
_atom_site_type_symbol
_atom_site_label
_atom_site_fract_x
_atom_site_fract_y
_atom_site_fract_z
Si Si1 0.707329 0.122308 0.828600
Si Si2 0.937490 0.752560 0.621901
Si Si3 0.651805 0.780646 0.528609
Si Si4 0.268979 0.027905 0.946801
Si Si5 0.393501 0.868934 0.603054
Si Si6 0.036976 0.879542 0.773370
Si Si7 0.000000 0.500000 0.000000
Si Si8 0.664760 0.480222 0.100349
O O1 0.865166 0.084663 0.646381
O O2 0.668036 0.050830 0.996219
O O3 0.629681 0.087389 0.767938
O O4 0.692988 0.258088 0.865523
O O5 0.903905 0.880749 0.596897
O O6 0.011589 0.670045 0.444343
O O7 0.788841 0.700023 0.805853
O O8 0.021054 0.775681 0.679975
O O9 0.676944 0.658387 0.577372
O O10 0.519576 0.809625 0.562766
O O11 0.650772 0.883975 0.636331
O O12 0.098932 0.039105 0.124008
O O13 0.304152 0.956179 0.780277
O O14 0.571581 0.059444 0.564195
O O15 0.176815 0.947965 0.600437
#
# Coordination Sequence:
#
# PCOD9252799 Si02
#       8
#     4   4   4   4   4   4   2   4
#     4  12  25  50  78 115 153 209 252 324 391 463
#     4  11  25  46  77 111 157 199 259 324 390 464
#     4  11  28  52  79 111 162 213 261 323 386 474
#     4  11  27  54  79 116 151 208 264 320 400 466
#     4  12  29  52  78 113 162 206 269 323 382 468
#     4  11  25  48  78 117 155 202 259 324 399 464
#     4  12  22  48  74 114 154 200 254 310 396 474
#     4  12  27  48  78 119 158 207 258 329 397 461
#
# _framework density 27.15737
#
# number of rings (size 3 to 8) (size 9 to 14) (size 15 to 20)
#    0.000    0.533    4.000    2.800    5.600    4.800 
#   16.800    0.000    0.000    0.000    0.000    0.000 
#    0.000    0.000    0.000    0.000    0.000    0.000 
#
# Total GULP energy -167844.556493 kJ/mol
# GULP energy per Si atom -5594.818550 kJ/mol
# Density = 2.709556 g / cm^3
# Si number density = 27.157370 Si / 1000 Ang^3
#
#
#
# Elastic Constant Matrix: (Units=GPa)
#
#
# Indices 1 2 3 4 5 6 
#
# 1 98.2493 32.3419 20.8482 0.0000 17.4644 0.0000
# 2 32.3419 198.4332 23.6520 0.0000 12.7342 0.0000
# 3 20.8482 23.6520 53.5504 0.0000 -1.3782 0.0000
# 4 0.0000 0.0000 0.0000 48.2001 0.0000 3.8846
# 5 17.4644 12.7342 -1.3782 0.0000 65.2142 0.0000
# 6 0.0000 0.0000 0.0000 3.8846 0.0000 40.3687
#
#
#
# Elastic Compliance Matrix: (Units=1/GPa)
#
#
# Indices 1 2 3 4 5 6 
#
# 1 0.012031 -0.001263 -0.004205 0.000000 -0.003064 0.000000
# 2 -0.001263 0.005531 -0.001971 0.000000 -0.000783 0.000000
# 3 -0.004205 -0.001971 0.021232 0.000000 0.001960 0.000000
# 4 0.000000 0.000000 0.000000 0.020909 0.000000 -0.002012
# 5 -0.003064 -0.000783 0.001960 0.000000 0.016349 0.000000
# 6 0.000000 0.000000 0.000000 -0.002012 0.000000 0.024965
#
#
# Mechanical properties :
#
#
# Convention : Reuss Voigt Hill
#
# Bulk Modulus (GPa) = 41.81406 55.99079 48.90243
# Shear Modulus (GPa) = 40.36597 48.98266 44.67432
#
# Velocity S-wave (km/s) = 3.85953 4.25156 4.06028
# Velocity P-wave (km/s) = 5.94068 6.69051 6.32671
#
# Compressibility (1/GPa) = 0.02391540
#
# Stress axis : x y z
#
# Youngs Moduli (GPa) = 83.11937 180.81366 47.09858
#
# Poissons Ratio (x) = 0.22838 0.19804
# Poissons Ratio (y) = 0.10498 0.09284
# Poissons Ratio (z) = 0.34951 0.35641
#
# Static dielectric constant tensor:
#      x y z
#    x 2.294530 0.000000 -0.035760 
#    y 0.000000 2.068260 0.000000 
#    z -0.035760 0.000000 2.152200 
# 
# From -- ./inp_files/61174.got.cif
#   From: 2010.05.17/outbox.cif.g08.bks.cpg/sg14_31_cif.got.tgz:61174.got - 2010.06.03 17:49:19.
