data_PCOD9252706
_publ_section_title
;
Structure prediction by ZEFSAII (Michael W. Deem and Ramdas Pophale) SiO2 
 PCOD9252706
Probable space group: P 21/C
;
_chemical_formula_sum "Si O2"
_cell_formula_units_Z 26
_cell_length_a 16.016222
_cell_length_b 4.751071
_cell_length_c 13.685509
_cell_angle_alpha 90.000000
_cell_angle_beta 92.284886
_cell_angle_gamma 90.000000
_cell_volume 1040.560008
_symmetry_space_group_name_H-M "P 21/C"
_symmetry_group_IT_number 14
_symmetry_cell_setting 'monoclinic'
loop_
_space_group_symop_operation_xyz
x,y,z
-x,1/2+y,1/2-z
-x,-y,-z
x,1/2-y,1/2+z
loop_
_atom_site_type_symbol
_atom_site_label
_atom_site_fract_x
_atom_site_fract_y
_atom_site_fract_z
Si Si1 0.936937 0.005239 0.644128
Si Si2 0.500000 0.000000 0.000000
Si Si3 0.720528 0.291938 0.253073
Si Si4 0.230947 0.121801 0.440330
Si Si5 0.104916 0.495792 0.231855
Si Si6 0.548247 0.965724 0.211610
Si Si7 0.689992 0.126395 0.960770
O O1 0.868885 0.921995 0.561019
O O2 0.903657 0.827098 0.736888
O O3 0.035614 0.943989 0.645386
O O4 0.925996 0.328930 0.673930
O O5 0.539241 0.850396 0.102061
O O6 0.407241 0.883238 0.022037
O O7 0.735939 0.491146 0.160253
O O8 0.801813 0.100120 0.275513
O O9 0.637726 0.103381 0.234882
O O10 0.706947 0.466856 0.351269
O O11 0.257506 0.439717 0.460376
O O12 0.277487 0.941478 0.524228
O O13 0.481787 0.224303 0.216136
#
# Coordination Sequence:
#
# PCOD9252706 Si02
#       7
#     4   2   4   4   4   4   4
#     4   9  18  37  65  97 133 175 225 273 340 402
#     4  12  28  48  70 100 138 182 228 288 340 410
#     4  11  25  47  70 100 139 181 226 286 341 404
#     4  11  25  44  68  99 138 178 221 287 337 400
#     4   9  19  36  66  98 129 179 226 272 336 410
#     4  12  29  47  73 103 137 179 231 286 344 405
#     4  12  28  42  69 102 133 179 236 272 343 411
#
# _framework density 24.986546000000001
#
# number of rings (size 3 to 8) (size 9 to 14) (size 15 to 20)
#    0.000    1.231    3.077    1.846    4.308    6.154 
#    0.000    1.538    0.000    0.000    0.000    0.000 
#    0.000    0.000    0.000    0.000    0.000    0.000 
#
# Total GULP energy -144991.044279 kJ/mol
# GULP energy per Si atom -5576.578626 kJ/mol
# Density = 2.492968 g / cm^3
# Si number density = 24.986546 Si / 1000 Ang^3
#
#
#
# Elastic Constant Matrix: (Units=GPa)
#
#
# Indices 1 2 3 4 5 6 
#
# 1 171.1970 5.8443 34.5937 0.0000 40.2144 0.0000
# 2 5.8443 69.0237 -4.1380 0.0000 0.4731 0.0000
# 3 34.5937 -4.1380 53.1959 0.0000 6.7745 0.0000
# 4 0.0000 0.0000 0.0000 13.0185 0.0000 2.9688
# 5 40.2144 0.4731 6.7745 0.0000 25.3522 0.0000
# 6 0.0000 0.0000 0.0000 2.9688 0.0000 14.4682
#
#
#
# Elastic Compliance Matrix: (Units=1/GPa)
#
#
# Indices 1 2 3 4 5 6 
#
# 1 0.010459 -0.001077 -0.004943 0.000000 -0.015249 0.000000
# 2 -0.001077 0.014675 0.001718 0.000000 0.000976 0.000000
# 3 -0.004943 0.001718 0.021897 0.000000 0.001958 0.000000
# 4 0.000000 0.000000 0.000000 0.080585 0.000000 -0.016536
# 5 -0.015249 0.000976 0.001958 0.000000 0.063092 0.000000
# 6 0.000000 0.000000 0.000000 -0.016536 0.000000 0.072510
#
#
# Mechanical properties :
#
#
# Convention : Reuss Voigt Hill
#
# Bulk Modulus (GPa) = 26.02406 40.66852 33.34629
# Shear Modulus (GPa) = 17.56650 27.70889 22.63769
#
# Velocity S-wave (km/s) = 2.65436 3.33371 3.01324
# Velocity P-wave (km/s) = 4.45332 5.57939 5.04785
#
# Compressibility (1/GPa) = 0.03842598
#
# Stress axis : x y z
#
# Youngs Moduli (GPa) = 95.61147 68.14171 45.66745
#
# Poissons Ratio (x) = 0.07342 0.22575
# Poissons Ratio (y) = 0.10301 -0.07845
# Poissons Ratio (z) = 0.47264 -0.11706
#
# Static dielectric constant tensor:
#      x y z
#    x 1.957360 0.000000 -0.031200 
#    y 0.000000 1.935130 0.000000 
#    z -0.031200 0.000000 2.063750 
# 
# From -- ./inp_files/45922.got.cif
#   From: 2010.05.17/outbox.cif.g08.bks.cpg/sg14_23_cif.got.tgz:45922.got - 2010.06.03 17:49:19.
