data_PCOD9252128
_publ_section_title
;
Structure prediction by ZEFSAII (Michael W. Deem and Ramdas Pophale) SiO2 
 PCOD9252128
Probable space group: P 21/C
;
_chemical_formula_sum "Si O2"
_cell_formula_units_Z 24
_cell_length_a 11.271439
_cell_length_b 8.453863
_cell_length_c 10.947999
_cell_angle_alpha 90.000000
_cell_angle_beta 110.449530
_cell_angle_gamma 90.000000
_cell_volume 977.461781
_symmetry_space_group_name_H-M "P 21/C"
_symmetry_group_IT_number 14
_symmetry_cell_setting 'monoclinic'
loop_
_space_group_symop_operation_xyz
x,y,z
-x,1/2+y,1/2-z
-x,-y,-z
x,1/2-y,1/2+z
loop_
_atom_site_type_symbol
_atom_site_label
_atom_site_fract_x
_atom_site_fract_y
_atom_site_fract_z
Si Si1 0.117167 0.188673 0.727543
Si Si2 0.665455 0.222111 0.564357
Si Si3 0.897172 0.073460 0.078708
Si Si4 0.537896 0.676738 0.377474
Si Si5 0.251501 0.014048 0.198708
Si Si6 0.325343 0.007367 0.658270
O O1 0.214954 0.336839 0.771659
O O2 0.192238 0.071231 0.663136
O O3 0.994444 0.281581 0.634338
O O4 0.082973 0.086705 0.834591
O O5 0.766689 0.358846 0.587105
O O6 0.518998 0.282464 0.509301
O O7 0.692944 0.120194 0.695852
O O8 0.692455 0.102929 0.464209
O O9 0.868925 0.038838 0.925964
O O10 0.649798 0.565640 0.370583
O O11 0.588894 0.843118 0.346840
O O12 0.412065 0.595955 0.278703
#
# Coordination Sequence:
#
# PCOD9252128 Si02
#       6
#     4   4   4   4   4   4
#     4  11  27  50  76 106 143 198 253 305 377 428
#     4  12  25  46  74 110 155 198 245 302 379 438
#     4  12  27  50  78 106 150 195 255 311 365 450
#     4  11  23  43  72 109 148 192 246 298 376 435
#     4  11  27  47  74 112 152 193 248 308 374 445
#     4  11  25  46  73 110 150 196 245 307 371 452
#
# _framework density 24.55339
#
# number of rings (size 3 to 8) (size 9 to 14) (size 15 to 20)
#    0.000    0.667    3.333    3.000    4.667    2.667 
#    0.000    0.000    0.000    0.000    0.000    0.000 
#    0.000    0.000    0.000    0.000    0.000    0.000 
#
# Total GULP energy -134132.367822 kJ/mol
# GULP energy per Si atom -5588.848659 kJ/mol
# Density = 2.449751 g / cm^3
# Si number density = 24.553390 Si / 1000 Ang^3
#
#
#
# Elastic Constant Matrix: (Units=GPa)
#
#
# Indices 1 2 3 4 5 6 
#
# 1 138.1915 41.5831 37.7354 0.0000 -16.3065 0.0000
# 2 41.5831 113.2017 48.9122 0.0000 -4.1371 0.0000
# 3 37.7354 48.9122 63.4512 0.0000 -0.5829 0.0000
# 4 0.0000 0.0000 0.0000 797.7485 0.0000 -705.4923
# 5 -16.3065 -4.1371 -0.5829 0.0000 30.7337 0.0000
# 6 0.0000 0.0000 0.0000 -705.4923 0.0000 697.7999
#
#
#
# Elastic Compliance Matrix: (Units=1/GPa)
#
#
# Indices 1 2 3 4 5 6 
#
# 1 0.009437 -0.001330 -0.004543 0.000000 0.004742 0.000000
# 2 -0.001330 0.013511 -0.009616 0.000000 0.000931 0.000000
# 3 -0.004543 -0.009616 0.025845 0.000000 -0.003215 0.000000
# 4 0.000000 0.000000 0.000000 0.011837 0.000000 0.011968
# 5 0.004742 0.000931 -0.003215 0.000000 0.035118 0.000000
# 6 0.000000 0.000000 0.000000 0.011968 0.000000 0.013533
#
#
# Mechanical properties :
#
#
# Convention : Reuss Voigt Hill
#
# Bulk Modulus (GPa) = 56.13339 63.47843 59.80591
# Shear Modulus (GPa) = 34.20049 317.69732 175.94891
#
# Velocity S-wave (km/s) = 3.73621 11.38733 8.47439
# Velocity P-wave (km/s) = 6.44389 14.09980 10.96194
#
# Compressibility (1/GPa) = 0.01781471
#
# Stress axis : x y z
#
# Youngs Moduli (GPa) = 105.96926 74.01311 38.69231
#
# Poissons Ratio (x) = 0.09844 0.17579
# Poissons Ratio (y) = 0.14095 0.37205
# Poissons Ratio (z) = 0.48145 0.71168
#
# Static dielectric constant tensor:
#      x y z
#    x 2.081000 0.000000 -0.046490 
#    y 0.000000 1.943300 0.000000 
#    z -0.046490 0.000000 1.972230 
# 
# From -- ./inp_files/28208.got.cif
#   From: 2010.05.17/outbox.cif.g08.bks.cpg/sg14_15_cif.got.tgz:28208.got - 2010.06.03 17:49:19.
