data_PCOD9252805
_publ_section_title
;
Structure prediction by ZEFSAII (Michael W. Deem and Ramdas Pophale) SiO2 
 PCOD9252805
Probable space group: P 21/C
;
_chemical_formula_sum "Si O2"
_cell_formula_units_Z 26
_cell_length_a 25.407459
_cell_length_b 9.159176
_cell_length_c 12.767818
_cell_angle_alpha 90.000000
_cell_angle_beta 156.070398
_cell_angle_gamma 90.000000
_cell_volume 1205.166729
_symmetry_space_group_name_H-M "P 21/C"
_symmetry_group_IT_number 14
_symmetry_cell_setting 'monoclinic'
loop_
_space_group_symop_operation_xyz
x,y,z
-x,1/2+y,1/2-z
-x,-y,-z
x,1/2-y,1/2+z
loop_
_atom_site_type_symbol
_atom_site_label
_atom_site_fract_x
_atom_site_fract_y
_atom_site_fract_z
Si Si1 0.213504 0.845879 0.772525
Si Si2 0.740682 0.778275 0.626558
Si Si3 0.582503 0.544527 0.250625
Si Si4 0.614859 0.421025 0.923503
Si Si5 0.969335 0.664040 0.406672
Si Si6 0.500000 0.000000 0.000000
Si Si7 0.766720 0.927240 0.365486
O O1 0.176585 0.946845 0.607299
O O2 0.094848 0.757952 0.606294
O O3 0.290787 0.946008 0.997198
O O4 0.317414 0.727629 0.920961
O O5 0.634254 0.712284 0.350869
O O6 0.882763 0.757152 0.837841
O O7 0.720346 0.694403 0.697737
O O8 0.716670 0.947832 0.598869
O O9 0.490057 0.528699 0.182785
O O10 0.500000 0.500000 0.000000
O O11 0.552799 0.407064 0.696821
O O12 0.000000 0.500000 0.500000
O O13 0.875065 0.643201 0.136013
O O14 0.649792 0.990743 0.221791
#
# Coordination Sequence:
#
# PCOD9252805 Si02
#       7
#     4   4   4   4   4   2   4
#     4  11  26  48  70 108 142 192 248 295 368 448
#     4  11  25  47  69 105 141 192 241 295 372 438
#     4  11  27  44  70 108 147 181 240 313 376 426
#     4  12  24  42  74 101 146 184 243 301 371 439
#     4  12  26  48  73 103 143 199 245 296 369 440
#     4  12  22  44  74 102 146 184 242 296 376 424
#     4  11  27  45  76 104 147 192 242 312 359 441
#
# _framework density 21.573778000000001
#
# number of rings (size 3 to 8) (size 9 to 14) (size 15 to 20)
#    0.000    0.615    6.154    0.923    6.462    3.692 
#    0.000    0.000    0.000    0.000    0.000    0.000 
#    0.000    0.000    0.000    0.000    0.000    0.000 
#
# Total GULP energy -144904.986810 kJ/mol
# GULP energy per Si atom -5573.268723 kJ/mol
# Density = 2.152468 g / cm^3
# Si number density = 21.573778 Si / 1000 Ang^3
#
#
#
# Elastic Constant Matrix: (Units=GPa)
#
#
# Indices 1 2 3 4 5 6 
#
# 1 107.9523 11.1610 39.2689 0.0000 10.9664 0.0000
# 2 11.1610 63.3333 -3.1191 0.0000 -0.0325 0.0000
# 3 39.2689 -3.1191 69.4415 0.0000 1.4760 0.0000
# 4 0.0000 0.0000 0.0000 34.8297 0.0000 5.9177
# 5 10.9664 -0.0325 1.4760 0.0000 44.9257 0.0000
# 6 0.0000 0.0000 0.0000 5.9177 0.0000 35.8489
#
#
#
# Elastic Compliance Matrix: (Units=1/GPa)
#
#
# Indices 1 2 3 4 5 6 
#
# 1 0.012373 -0.002529 -0.007051 0.000000 -0.002790 0.000000
# 2 -0.002529 0.016341 0.002152 0.000000 0.000558 0.000000
# 3 -0.007051 0.002152 0.018461 0.000000 0.001116 0.000000
# 4 0.000000 0.000000 0.000000 0.029540 0.000000 -0.004876
# 5 -0.002790 0.000558 0.001116 0.000000 0.022904 0.000000
# 6 0.000000 0.000000 0.000000 -0.004876 0.000000 0.028700
#
#
# Mechanical properties :
#
#
# Convention : Reuss Voigt Hill
#
# Bulk Modulus (GPa) = 30.94102 37.26097 34.10100
# Shear Modulus (GPa) = 32.47835 36.01527 34.24681
#
# Velocity S-wave (km/s) = 3.88423 4.09026 3.98858
# Velocity P-wave (km/s) = 5.87277 6.29412 6.08709
#
# Compressibility (1/GPa) = 0.03231955
#
# Stress axis : x y z
#
# Youngs Moduli (GPa) = 80.81902 61.19393 54.16805
#
# Poissons Ratio (x) = 0.15477 0.38196
# Poissons Ratio (y) = 0.20441 -0.11659
# Poissons Ratio (z) = 0.56988 -0.13171
#
# Static dielectric constant tensor:
#      x y z
#    x 1.769780 0.000000 0.002950 
#    y 0.000000 1.855340 0.000000 
#    z 0.002950 0.000000 1.821710 
# 
# From -- ./inp_files/35831.got.cif
#   From: 2010.05.17/outbox.cif.g08.bks.cpg/sg14_18_cif.got.tgz:35831.got - 2010.06.03 17:49:19.
