data_PCOD9252278
_publ_section_title
;
Structure prediction by ZEFSAII (Michael W. Deem and Ramdas Pophale) SiO2 
 PCOD9252278
Probable space group: P 21/C
;
_chemical_formula_sum "Si O2"
_cell_formula_units_Z 20
_cell_length_a 26.275304
_cell_length_b 5.101939
_cell_length_c 17.790269
_cell_angle_alpha 90.000000
_cell_angle_beta 17.395519
_cell_angle_gamma 90.000000
_cell_volume 712.996770
_symmetry_space_group_name_H-M "P 21/C"
_symmetry_group_IT_number 14
_symmetry_cell_setting 'monoclinic'
loop_
_space_group_symop_operation_xyz
x,y,z
-x,1/2+y,1/2-z
-x,-y,-z
x,1/2-y,1/2+z
loop_
_atom_site_type_symbol
_atom_site_label
_atom_site_fract_x
_atom_site_fract_y
_atom_site_fract_z
Si Si1 0.680944 0.825527 0.963919
Si Si2 0.537953 0.828730 0.019370
Si Si3 0.774591 0.488608 0.493395
Si Si4 0.909810 0.629846 0.455159
Si Si5 0.850130 0.168644 0.174743
O O1 0.702901 0.865553 0.021676
O O2 0.823717 0.037668 0.736776
O O3 0.695950 0.518353 0.920681
O O4 0.533012 0.921433 0.114333
O O5 0.390820 0.611238 0.227882
O O6 0.737244 0.765662 0.728266
O O7 0.500000 0.000000 0.000000
O O8 0.882824 0.639435 0.404049
O O9 0.908013 0.258294 0.282962
O O10 0.887176 0.358692 0.533668
O O11 0.000000 0.000000 0.000000
#
# Coordination Sequence:
#
# PCOD9252278 Si02
#       5
#     4   4   4   4   4
#     4  11  27  46  77 112 148 199 259 312 380 458
#     4  11  26  48  73 107 159 202 253 318 390 459
#     4  12  26  46  74 116 151 202 262 320 382 463
#     4  11  26  44  75 106 152 198 253 314 386 458
#     4  11  23  46  75 107 151 194 245 312 383 449
#
# _framework density 28.050616000000002
#
# number of rings (size 3 to 8) (size 9 to 14) (size 15 to 20)
#    0.000    0.800    2.000    3.600    5.600    8.000 
#    0.000    0.000    0.000    0.000    0.000    0.000 
#    0.000    0.000    0.000    0.000    0.000    0.000 
#
# Total GULP energy -111680.216163 kJ/mol
# GULP energy per Si atom -5584.010808 kJ/mol
# Density = 2.798677 g / cm^3
# Si number density = 28.050616 Si / 1000 Ang^3
#
#
#
# Elastic Constant Matrix: (Units=GPa)
#
#
# Indices 1 2 3 4 5 6 
#
# 1 214.2451 9.5033 15.9417 0.0000 18.3798 0.0000
# 2 9.5033 73.8204 48.7189 0.0000 4.7578 0.0000
# 3 15.9417 48.7189 124.4991 0.0000 9.6851 0.0000
# 4 0.0000 0.0000 0.0000 52.1435 0.0000 1.7140
# 5 18.3798 4.7578 9.6851 0.0000 59.0739 0.0000
# 6 0.0000 0.0000 0.0000 1.7140 0.0000 43.4963
#
#
#
# Elastic Compliance Matrix: (Units=1/GPa)
#
#
# Indices 1 2 3 4 5 6 
#
# 1 0.004831 -0.000263 -0.000406 0.000000 -0.001415 0.000000
# 2 -0.000263 0.018283 -0.007103 0.000000 -0.000226 0.000000
# 3 -0.000406 -0.007103 0.010949 0.000000 -0.001097 0.000000
# 4 0.000000 0.000000 0.000000 0.019203 0.000000 -0.000757
# 5 -0.001415 -0.000226 -0.001097 0.000000 0.017566 0.000000
# 6 0.000000 0.000000 0.000000 -0.000757 0.000000 0.023020
#
#
# Mechanical properties :
#
#
# Convention : Reuss Voigt Hill
#
# Bulk Modulus (GPa) = 53.99814 62.32136 58.15975
# Shear Modulus (GPa) = 43.26454 53.50279 48.38366
#
# Velocity S-wave (km/s) = 3.93157 4.37208 4.15766
# Velocity P-wave (km/s) = 6.31678 6.91031 6.62020
#
# Compressibility (1/GPa) = 0.01851916
#
# Stress axis : x y z
#
# Youngs Moduli (GPa) = 207.00444 54.69681 91.33258
#
# Poissons Ratio (x) = 0.01439 0.03704
# Poissons Ratio (y) = 0.05445 0.64874
# Poissons Ratio (z) = 0.08395 0.38851
#
# Static dielectric constant tensor:
#      x y z
#    x 2.307720 0.000000 0.069160 
#    y 0.000000 2.286880 0.000000 
#    z 0.069160 0.000000 2.374650 
# 
# From -- ./inp_files/62110.got.cif
#   From: 2010.05.17/outbox.cif.g08.bks.cpg/sg14_32_cif.got.tgz:62110.got - 2010.06.03 17:49:19.
