data_PCOD9252470
_publ_section_title
;
Structure prediction by ZEFSAII (Michael W. Deem and Ramdas Pophale) SiO2 
 PCOD9252470
Probable space group: P 21/C
;
_chemical_formula_sum "Si O2"
_cell_formula_units_Z 20
_cell_length_a 4.954069
_cell_length_b 10.632960
_cell_length_c 15.886399
_cell_angle_alpha 90.000000
_cell_angle_beta 92.159177
_cell_angle_gamma 90.000000
_cell_volume 836.244443
_symmetry_space_group_name_H-M "P 21/C"
_symmetry_group_IT_number 14
_symmetry_cell_setting 'monoclinic'
loop_
_space_group_symop_operation_xyz
x,y,z
-x,1/2+y,1/2-z
-x,-y,-z
x,1/2-y,1/2+z
loop_
_atom_site_type_symbol
_atom_site_label
_atom_site_fract_x
_atom_site_fract_y
_atom_site_fract_z
Si Si1 0.054346 0.751688 0.714594
Si Si2 0.580774 0.789167 0.827824
Si Si3 0.551132 0.755811 0.507000
Si Si4 0.058992 0.884409 0.559764
Si Si5 0.798989 0.458760 0.420981
O O1 0.830940 0.728345 0.782213
O O2 0.333758 0.788959 0.761156
O O3 0.974141 0.872202 0.655697
O O4 0.083128 0.633584 0.651120
O O5 0.478752 0.718513 0.909789
O O6 0.440853 0.876195 0.039838
O O7 0.683597 0.920760 0.869319
O O8 0.375468 0.853825 0.558621
O O9 0.869408 0.775817 0.517075
O O10 0.000000 0.000000 0.500000
O O11 0.000000 0.500000 0.500000
#
# Coordination Sequence:
#
# PCOD9252470 Si02
#       5
#     4   4   4   4   4
#     4  11  26  43  65 104 136 171 233 289 346 423
#     4  12  25  43  68 101 135 170 221 299 350 389
#     4  11  24  44  70  99 130 183 240 270 333 440
#     4  11  24  45  67  93 137 184 222 275 343 418
#     4  11  25  49  74  99 142 196 239 287 360 444
#
# _framework density 23.916453000000001
#
# number of rings (size 3 to 8) (size 9 to 14) (size 15 to 20)
#    0.000    0.800    0.000    8.400    0.000   11.200 
#    0.000    0.000    0.000    0.000    0.000    0.000 
#    0.000    0.000    0.000    0.000    0.000    0.000 
#
# Total GULP energy -111750.089969 kJ/mol
# GULP energy per Si atom -5587.504498 kJ/mol
# Density = 2.386202 g / cm^3
# Si number density = 23.916453 Si / 1000 Ang^3
#
#
#
# Elastic Constant Matrix: (Units=GPa)
#
#
# Indices 1 2 3 4 5 6 
#
# 1 123.0599 35.5098 40.1833 0.0000 16.8693 0.0000
# 2 35.5098 55.1917 25.6135 0.0000 6.2295 0.0000
# 3 40.1833 25.6135 138.2462 0.0000 0.0009 0.0000
# 4 0.0000 0.0000 0.0000 33.0283 0.0000 3.6923
# 5 16.8693 6.2295 0.0009 0.0000 62.4434 0.0000
# 6 0.0000 0.0000 0.0000 3.6923 0.0000 30.3943
#
#
#
# Elastic Compliance Matrix: (Units=1/GPa)
#
#
# Indices 1 2 3 4 5 6 
#
# 1 0.010770 -0.005702 -0.002074 0.000000 -0.002341 0.000000
# 2 -0.005702 0.023090 -0.002620 0.000000 -0.000763 0.000000
# 3 -0.002074 -0.002620 0.008322 0.000000 0.000822 0.000000
# 4 0.000000 0.000000 0.000000 0.030694 0.000000 -0.003729
# 5 -0.002341 -0.000763 0.000822 0.000000 0.016723 0.000000
# 6 0.000000 0.000000 0.000000 -0.003729 0.000000 0.033354
#
#
# Mechanical properties :
#
#
# Convention : Reuss Voigt Hill
#
# Bulk Modulus (GPa) = 46.75582 57.67900 52.21741
# Shear Modulus (GPa) = 33.14012 39.51927 36.32969
#
# Velocity S-wave (km/s) = 3.72649 4.06937 3.90170
# Velocity P-wave (km/s) = 6.17314 6.80065 6.49448
#
# Compressibility (1/GPa) = 0.02138771
#
# Stress axis : x y z
#
# Youngs Moduli (GPa) = 92.85368 43.30921 120.16708
#
# Poissons Ratio (x) = 0.24697 0.24920
# Poissons Ratio (y) = 0.52950 0.31489
# Poissons Ratio (z) = 0.19256 0.11349
#
# Static dielectric constant tensor:
#      x y z
#    x 1.924940 0.000000 -0.006660 
#    y 0.000000 2.025360 0.000000 
#    z -0.006660 0.000000 1.918230 
# 
# From -- ./inp_files/52788.got.cif
#   From: 2010.05.17/outbox.cif.g08.bks.cpg/sg14_27_cif.got.tgz:52788.got - 2010.06.03 17:49:19.
