data_PCOD9252089
_publ_section_title
;
Structure prediction by ZEFSAII (Michael W. Deem and Ramdas Pophale) SiO2 
 PCOD9252089
Probable space group: P 21/C
;
_chemical_formula_sum "Si O2"
_cell_formula_units_Z 18
_cell_length_a 11.814714
_cell_length_b 12.905376
_cell_length_c 9.074212
_cell_angle_alpha 90.000000
_cell_angle_beta 27.022620
_cell_angle_gamma 90.000000
_cell_volume 628.616679
_symmetry_space_group_name_H-M "P 21/C"
_symmetry_group_IT_number 14
_symmetry_cell_setting 'monoclinic'
loop_
_space_group_symop_operation_xyz
x,y,z
-x,1/2+y,1/2-z
-x,-y,-z
x,1/2-y,1/2+z
loop_
_atom_site_type_symbol
_atom_site_label
_atom_site_fract_x
_atom_site_fract_y
_atom_site_fract_z
Si Si1 0.156914 0.328916 0.941526
Si Si2 0.819332 0.874925 0.265370
Si Si3 0.000000 0.500000 0.000000
Si Si4 0.349952 0.629402 0.153448
Si Si5 0.630192 0.137984 0.723644
O O1 0.123210 0.216444 0.917772
O O2 0.346807 0.391321 0.610279
O O3 0.250917 0.326494 0.995904
O O4 0.921749 0.401944 0.193842
O O5 0.571339 0.920930 0.489613
O O6 0.085260 0.923781 0.982859
O O7 0.844387 0.438626 0.035327
O O8 0.332538 0.747049 0.247359
O O9 0.386669 0.638063 0.934040
#
# Coordination Sequence:
#
# PCOD9252089 Si02
#       5
#     4   4   2   4   4
#     4  11  24  43  69  98 132 174 224 272 331 390
#     4  11  23  42  75  99 128 170 231 277 318 385
#     4  12  26  40  68  92 148 170 216 264 352 394
#     4  11  23  42  75  99 128 170 231 277 318 385
#     4  11  24  43  69  98 132 174 224 272 331 390
#
# _framework density 28.634305000000001
#
# number of rings (size 3 to 8) (size 9 to 14) (size 15 to 20)
#    0.000    0.889    2.222    7.333    6.222    0.000 
#    0.000    2.222    0.000    0.000    0.000    0.000 
#    0.000    0.000    0.000    0.000    0.000    0.000 
#
# Total GULP energy -100325.978564 kJ/mol
# GULP energy per Si atom -5573.665476 kJ/mol
# Density = 2.856913 g / cm^3
# Si number density = 28.634305 Si / 1000 Ang^3
#
#
#
# Elastic Constant Matrix: (Units=GPa)
#
#
# Indices 1 2 3 4 5 6 
#
# 1 245.0718 -7.4424 74.5964 0.0000 21.2906 0.0000
# 2 -7.4424 38.7697 -7.5786 0.0000 -5.8187 0.0000
# 3 74.5964 -7.5786 131.7088 0.0000 5.2701 0.0000
# 4 0.0000 0.0000 0.0000 22.1230 0.0000 -9.6154
# 5 21.2906 -5.8187 5.2701 0.0000 56.5468 0.0000
# 6 0.0000 0.0000 0.0000 -9.6154 0.0000 57.6147
#
#
#
# Elastic Compliance Matrix: (Units=1/GPa)
#
#
# Indices 1 2 3 4 5 6 
#
# 1 0.005081 0.000183 -0.002802 0.000000 -0.001633 0.000000
# 2 0.000183 0.026466 0.001318 0.000000 0.002532 0.000000
# 3 -0.002802 0.001318 0.009242 0.000000 0.000329 0.000000
# 4 0.000000 0.000000 0.000000 0.048737 0.000000 0.008134
# 5 -0.001633 0.002532 0.000329 0.000000 0.018529 0.000000
# 6 0.000000 0.000000 0.000000 0.008134 0.000000 0.018714
#
#
# Mechanical properties :
#
#
# Convention : Reuss Voigt Hill
#
# Bulk Modulus (GPa) = 26.18709 59.41122 42.79915
# Shear Modulus (GPa) = 35.18651 50.98855 43.08753
#
# Velocity S-wave (km/s) = 3.50926 4.22439 3.88332
# Velocity P-wave (km/s) = 5.05817 6.67737 5.92336
#
# Compressibility (1/GPa) = 0.03818676
#
# Stress axis : x y z
#
# Youngs Moduli (GPa) = 196.82530 37.78424 108.20179
#
# Poissons Ratio (x) = -0.00690 0.30315
# Poissons Ratio (y) = -0.03593 -0.14263
# Poissons Ratio (z) = 0.55144 -0.04981
#
# Static dielectric constant tensor:
#      x y z
#    x 1.740700 0.000000 0.671440 
#    y 0.000000 1.591140 0.000000 
#    z 0.671440 0.000000 1.418940 
# 
# From -- ./inp_files/5200.got.cif
#   From: 2010.05.17/outbox.cif.g08.bks.cpg/sg14_3_cif.got.tgz:5200.got - 2010.06.03 17:49:19.
