data_PCOD9252974
_publ_section_title
;
Structure prediction by ZEFSAII (Michael W. Deem and Ramdas Pophale) SiO2 
 PCOD9252974
Probable space group: P 21/C
;
_chemical_formula_sum "Si O2"
_cell_formula_units_Z 20
_cell_length_a 4.967736
_cell_length_b 17.991005
_cell_length_c 8.856472
_cell_angle_alpha 90.000000
_cell_angle_beta 103.020024
_cell_angle_gamma 90.000000
_cell_volume 771.193837
_symmetry_space_group_name_H-M "P 21/C"
_symmetry_group_IT_number 14
_symmetry_cell_setting 'monoclinic'
loop_
_space_group_symop_operation_xyz
x,y,z
-x,1/2+y,1/2-z
-x,-y,-z
x,1/2-y,1/2+z
loop_
_atom_site_type_symbol
_atom_site_label
_atom_site_fract_x
_atom_site_fract_y
_atom_site_fract_z
Si Si1 0.579604 0.748435 0.311082
Si Si2 0.570586 0.038188 0.214945
Si Si3 0.875813 0.616429 0.756470
Si Si4 0.969739 0.608646 0.441480
Si Si5 0.326050 0.656267 0.046707
O O1 0.696630 0.810090 0.213475
O O2 0.810253 0.685252 0.375040
O O3 0.324872 0.709416 0.192839
O O4 0.488436 0.795592 0.443946
O O5 0.274640 0.047231 0.099942
O O6 0.540294 0.081035 0.370835
O O7 0.789275 0.083943 0.139756
O O8 0.691059 0.956612 0.249657
O O9 0.056172 0.611676 0.627169
O O10 0.050442 0.631013 0.928912
#
# Coordination Sequence:
#
# PCOD9252974 Si02
#       5
#     4   4   4   4   4
#     4  11  27  47  72 110 147 201 251 319 369 454
#     4  11  28  51  77 115 152 201 249 313 378 457
#     4  12  27  45  81 109 154 200 251 314 381 445
#     4  11  27  51  77 111 156 198 253 304 382 450
#     4  11  28  46  74 105 154 195 258 308 380 446
#
# _framework density 25.933816
#
# number of rings (size 3 to 8) (size 9 to 14) (size 15 to 20)
#    0.000    0.800    2.000    1.800   19.600    0.800 
#    0.000    0.000    0.000    0.000    0.000    0.000 
#    0.000    0.000    0.000    0.000    0.000    0.000 
#
# Total GULP energy -112086.967493 kJ/mol
# GULP energy per Si atom -5604.348375 kJ/mol
# Density = 2.587479 g / cm^3
# Si number density = 25.933816 Si / 1000 Ang^3
#
#
#
# Elastic Constant Matrix: (Units=GPa)
#
#
# Indices 1 2 3 4 5 6 
#
# 1 89.0857 17.1324 47.7083 0.0000 -7.8943 0.0000
# 2 17.1324 152.9466 60.2694 0.0000 -14.2724 0.0000
# 3 47.7083 60.2694 132.4290 0.0000 12.1485 0.0000
# 4 0.0000 0.0000 0.0000 -3.5395 0.0000 -9.2506
# 5 -7.8943 -14.2724 12.1485 0.0000 33.5468 0.0000
# 6 0.0000 0.0000 0.0000 -9.2506 0.0000 49.5591
#
#
#
# Elastic Compliance Matrix: (Units=1/GPa)
#
#
# Indices 1 2 3 4 5 6 
#
# 1 0.015158 0.001613 -0.006811 0.000000 0.006720 0.000000
# 2 0.001613 0.008988 -0.005231 0.000000 0.006098 0.000000
# 3 -0.006811 -0.005231 0.013175 0.000000 -0.008599 0.000000
# 4 0.000000 0.000000 0.000000 -0.189890 0.000000 -0.035444
# 5 0.006720 0.006098 -0.008599 0.000000 0.037099 0.000000
# 6 0.000000 0.000000 0.000000 -0.035444 0.000000 0.013562
#
#
# Mechanical properties :
#
#
# Convention : Reuss Voigt Hill
#
# Bulk Modulus (GPa) = 60.74539 69.40906 65.07722
# Shear Modulus (GPa) = -66.17040 32.53668 -16.81686
#
# Velocity S-wave (km/s) = -5.05673 3.54588 -2.54924
# Velocity P-wave (km/s) = 3.25882 6.60200 4.05996
#
# Compressibility (1/GPa) = 0.01646216
#
# Stress axis : x y z
#
# Youngs Moduli (GPa) = 65.97103 111.26133 75.90347
#
# Poissons Ratio (x) = -0.17949 0.51702
# Poissons Ratio (y) = -0.10643 0.39705
# Poissons Ratio (z) = 0.44936 0.58201
#
# Static dielectric constant tensor:
#      x y z
#    x 2.028070 0.000000 0.006000 
#    y 0.000000 2.045490 0.000000 
#    z 0.006000 0.000000 2.068030 
# 
# From -- ./inp_files/5531.got.cif
#   From: 2010.05.17/outbox.cif.g08.bks.cpg/sg14_3_cif.got.tgz:5531.got - 2010.06.03 17:49:19.
