data_PCOD9252485
_publ_section_title
;
Structure prediction by ZEFSAII (Michael W. Deem and Ramdas Pophale) SiO2 
 PCOD9252485
Probable space group: P 21/C
;
_chemical_formula_sum "Si O2"
_cell_formula_units_Z 20
_cell_length_a 20.664861
_cell_length_b 6.361339
_cell_length_c 14.072039
_cell_angle_alpha 90.000000
_cell_angle_beta 152.811001
_cell_angle_gamma 90.000000
_cell_volume 845.249690
_symmetry_space_group_name_H-M "P 21/C"
_symmetry_group_IT_number 14
_symmetry_cell_setting 'monoclinic'
loop_
_space_group_symop_operation_xyz
x,y,z
-x,1/2+y,1/2-z
-x,-y,-z
x,1/2-y,1/2+z
loop_
_atom_site_type_symbol
_atom_site_label
_atom_site_fract_x
_atom_site_fract_y
_atom_site_fract_z
Si Si1 0.600006 0.802105 0.154235
Si Si2 0.414256 0.025486 0.529598
Si Si3 0.869563 0.524820 0.106788
Si Si4 0.060590 0.101720 0.677600
Si Si5 0.697922 0.193896 0.984079
O O1 0.501117 0.638421 0.079029
O O2 0.734819 0.844752 0.394324
O O3 0.653308 0.696808 0.126981
O O4 0.500000 0.000000 0.000000
O O5 0.535426 0.143357 0.748221
O O6 0.307069 0.880751 0.446181
O O7 0.974996 0.496852 0.155711
O O8 0.934837 0.651915 0.282601
O O9 0.793972 0.301677 0.028881
O O10 0.221280 0.016785 0.884253
O O11 0.000000 0.000000 0.500000
#
# Coordination Sequence:
#
# PCOD9252485 Si02
#       5
#     4   4   4   4   4
#     4  11  24  44  73 109 145 191 245 320 381 455
#     4  11  26  41  73 109 144 190 246 313 393 441
#     4  12  26  50  73 105 154 195 260 311 380 459
#     4  12  30  48  75 107 151 207 251 316 379 459
#     4  12  26  46  71 108 149 191 255 311 379 459
#
# _framework density 23.661649000000001
#
# number of rings (size 3 to 8) (size 9 to 14) (size 15 to 20)
#    0.000    0.400    6.000    1.200    5.600    2.400 
#    0.000    0.000    0.000    0.000    0.000    0.000 
#    0.000    0.000    0.000    0.000    0.000    0.000 
#
# Total GULP energy -111686.970080 kJ/mol
# GULP energy per Si atom -5584.348504 kJ/mol
# Density = 2.360779 g / cm^3
# Si number density = 23.661649 Si / 1000 Ang^3
#
#
#
# Elastic Constant Matrix: (Units=GPa)
#
#
# Indices 1 2 3 4 5 6 
#
# 1 93.9162 11.0643 -10.6169 0.0000 12.3151 0.0000
# 2 11.0643 55.0323 -15.9700 0.0000 2.9730 0.0000
# 3 -10.6169 -15.9700 28.5172 0.0000 3.5386 0.0000
# 4 0.0000 0.0000 0.0000 27.3846 0.0000 10.3804
# 5 12.3151 2.9730 3.5386 0.0000 25.8957 0.0000
# 6 0.0000 0.0000 0.0000 10.3804 0.0000 57.6751
#
#
#
# Elastic Compliance Matrix: (Units=1/GPa)
#
#
# Indices 1 2 3 4 5 6 
#
# 1 0.012117 -0.000662 0.004930 0.000000 -0.006360 0.000000
# 2 -0.000662 0.022197 0.012676 0.000000 -0.003966 0.000000
# 3 0.004930 0.012676 0.045239 0.000000 -0.009982 0.000000
# 4 0.000000 0.000000 0.000000 0.039191 0.000000 -0.007054
# 5 -0.006360 -0.003966 -0.009982 0.000000 0.043460 0.000000
# 6 0.000000 0.000000 0.000000 -0.007054 0.000000 0.018608
#
#
# Mechanical properties :
#
#
# Convention : Reuss Voigt Hill
#
# Bulk Modulus (GPa) = 8.81516 16.26896 12.54206
# Shear Modulus (GPa) = 27.06532 35.05697 31.06114
#
# Velocity S-wave (km/s) = 3.38575 3.85332 3.62708
# Velocity P-wave (km/s) = 4.36096 5.16605 4.78048
#
# Compressibility (1/GPa) = 0.11344094
#
# Stress axis : x y z
#
# Youngs Moduli (GPa) = 82.52842 45.05108 22.10470
#
# Poissons Ratio (x) = 0.02982 -0.10897
# Poissons Ratio (y) = 0.05464 -0.28020
# Poissons Ratio (z) = -0.40683 -0.57108
#
# Static dielectric constant tensor:
#      x y z
#    x 2.019880 0.000000 -0.040860 
#    y 0.000000 1.981260 0.000000 
#    z -0.040860 0.000000 1.891080 
# 
# From -- ./inp_files/49763.got.cif
#   From: 2010.05.17/outbox.cif.g08.bks.cpg/sg14_25_cif.got.tgz:49763.got - 2010.06.03 17:49:19.
