data_PCOD9252039
_publ_section_title
;
Structure prediction by ZEFSAII (Michael W. Deem and Ramdas Pophale) SiO2 
 PCOD9252039
Probable space group: P 21/C
;
_chemical_formula_sum "Si O2"
_cell_formula_units_Z 16
_cell_length_a 17.418335
_cell_length_b 5.305077
_cell_length_c 9.189805
_cell_angle_alpha 90.000000
_cell_angle_beta 61.416632
_cell_angle_gamma 90.000000
_cell_volume 745.691912
_symmetry_space_group_name_H-M "P 21/C"
_symmetry_group_IT_number 14
_symmetry_cell_setting 'monoclinic'
loop_
_space_group_symop_operation_xyz
x,y,z
-x,1/2+y,1/2-z
-x,-y,-z
x,1/2-y,1/2+z
loop_
_atom_site_type_symbol
_atom_site_label
_atom_site_fract_x
_atom_site_fract_y
_atom_site_fract_z
Si Si1 0.036916 0.279317 0.865402
Si Si2 0.330195 0.971356 0.839508
Si Si3 0.874498 0.021710 0.960258
Si Si4 0.604257 0.978129 0.887665
O O1 0.114454 0.334919 0.683470
O O2 0.082076 0.082503 0.932873
O O3 0.000000 0.500000 0.000000
O O4 0.949095 0.224610 0.851373
O O5 0.225895 0.926517 0.924676
O O6 0.362812 0.220589 0.721581
O O7 0.370285 0.720164 0.732378
O O8 0.355551 0.003291 0.986212
O O9 0.500000 0.000000 0.000000
#
# Coordination Sequence:
#
# PCOD9252039 Si02
#       4
#     4   4   4   4
#     4  11  23  42  61  92 134 179 217 276 329 395
#     4  12  27  44  76 107 141 185 238 292 345 431
#     4  11  25  39  67  93 135 176 230 273 336 396
#     4  12  26  50  74 106 142 184 230 296 364 422
#
# _framework density 21.456585
#
# number of rings (size 3 to 8) (size 9 to 14) (size 15 to 20)
#    0.000    0.500    2.500    5.250    7.000    0.000 
#    0.000    0.000    0.000    0.000    0.000    0.000 
#    0.000    0.000    0.000    0.000    0.000    0.000 
#
# Total GULP energy -89274.286442 kJ/mol
# GULP energy per Si atom -5579.642903 kJ/mol
# Density = 2.140775 g / cm^3
# Si number density = 21.456585 Si / 1000 Ang^3
#
#
#
# Elastic Constant Matrix: (Units=GPa)
#
#
# Indices 1 2 3 4 5 6 
#
# 1 64.3462 -33.1968 -23.2186 0.0000 -13.3407 0.0000
# 2 -33.1968 65.6890 -6.5686 0.0000 1.3560 0.0000
# 3 -23.2186 -6.5686 56.0215 0.0000 -7.7735 0.0000
# 4 0.0000 0.0000 0.0000 43.2278 0.0000 -0.7796
# 5 -13.3407 1.3560 -7.7735 0.0000 68.8915 0.0000
# 6 0.0000 0.0000 0.0000 -0.7796 0.0000 27.3035
#
#
#
# Elastic Compliance Matrix: (Units=1/GPa)
#
#
# Indices 1 2 3 4 5 6 
#
# 1 0.032338 0.017839 0.016574 0.000000 0.007781 0.000000
# 2 0.017839 0.025246 0.010935 0.000000 0.004192 0.000000
# 3 0.016574 0.010935 0.026838 0.000000 0.006023 0.000000
# 4 0.000000 0.000000 0.000000 0.023145 0.000000 0.000661
# 5 0.007781 0.004192 0.006023 0.000000 0.016619 0.000000
# 6 0.000000 0.000000 0.000000 0.000661 0.000000 0.036644
#
#
# Mechanical properties :
#
#
# Convention : Reuss Voigt Hill
#
# Bulk Modulus (GPa) = 5.71039 6.67652 6.19346
# Shear Modulus (GPa) = 38.90889 44.48729 41.69809
#
# Velocity S-wave (km/s) = 4.26300 4.55836 4.41315
# Velocity P-wave (km/s) = 5.18633 5.55187 5.37221
#
# Compressibility (1/GPa) = 0.17511932
#
# Stress axis : x y z
#
# Youngs Moduli (GPa) = 30.92306 39.61094 37.26127
#
# Poissons Ratio (x) = -0.70663 -0.61758
# Poissons Ratio (y) = -0.55165 -0.40746
# Poissons Ratio (z) = -0.51253 -0.43316
#
# Static dielectric constant tensor:
#      x y z
#    x 1.567060 0.000000 0.219370 
#    y 0.000000 2.067680 0.000000 
#    z 0.219370 0.000000 1.725210 
# 
# From -- ./inp_files/14738.got.cif
#   From: 2010.05.17/outbox.cif.g08.bks.cpg/sg14_8_cif.got.tgz:14738.got - 2010.06.03 17:49:19.
