data_PCOD9252676
_publ_section_title
;
Structure prediction by ZEFSAII (Michael W. Deem and Ramdas Pophale) SiO2 
 PCOD9252676
Probable space group: P 21/C
;
_chemical_formula_sum "Si O2"
_cell_formula_units_Z 8
_cell_length_a 12.495699
_cell_length_b 4.848505
_cell_length_c 12.720235
_cell_angle_alpha 90.000000
_cell_angle_beta 23.314486
_cell_angle_gamma 90.000000
_cell_volume 305.010547
_symmetry_space_group_name_H-M "P 21/C"
_symmetry_group_IT_number 14
_symmetry_cell_setting 'monoclinic'
loop_
_space_group_symop_operation_xyz
x,y,z
-x,1/2+y,1/2-z
-x,-y,-z
x,1/2-y,1/2+z
loop_
_atom_site_type_symbol
_atom_site_label
_atom_site_fract_x
_atom_site_fract_y
_atom_site_fract_z
Si Si1 0.019753 0.438602 0.158915
Si Si2 0.736326 0.695387 0.747826
O O1 0.912832 0.177828 0.319706
O O2 0.805218 0.572466 0.271959
O O3 0.268697 0.340170 0.861650
O O4 0.000000 0.500000 0.500000
O O5 0.500000 0.500000 0.000000
#
# Coordination Sequence:
#
# PCOD9252676 Si02
#       2
#     4   4
#     4  11  24  51  78 120 156 209 262 323 388 470
#     4  11  26  52  77 113 160 205 257 326 389 463
#
# _framework density 26.228598999999999
#
# number of rings (size 3 to 8) (size 9 to 14) (size 15 to 20)
#    0.000    1.000    5.000    0.000    0.000    8.000 
#   18.000    0.000    0.000    0.000    0.000    0.000 
#    0.000    0.000    0.000    0.000    0.000    0.000 
#
# Total GULP energy -44909.948245 kJ/mol
# GULP energy per Si atom -5613.743531 kJ/mol
# Density = 2.616890 g / cm^3
# Si number density = 26.228599 Si / 1000 Ang^3
#
#
#
# Elastic Constant Matrix: (Units=GPa)
#
#
# Indices 1 2 3 4 5 6 
#
# 1 88.7840 66.8523 101.1389 0.0000 39.6960 0.0000
# 2 66.8523 225.7766 143.5647 0.0000 31.0756 0.0000
# 3 101.1389 143.5647 266.6600 0.0000 18.3882 0.0000
# 4 0.0000 0.0000 0.0000 79.9411 0.0000 25.4309
# 5 39.6960 31.0756 18.3882 0.0000 56.6515 0.0000
# 6 0.0000 0.0000 0.0000 25.4309 0.0000 80.5984
#
#
#
# Elastic Compliance Matrix: (Units=1/GPa)
#
#
# Indices 1 2 3 4 5 6 
#
# 1 0.032163 0.000025 -0.010901 0.000000 -0.019012 0.000000
# 2 0.000025 0.007123 -0.003656 0.000000 -0.002738 0.000000
# 3 -0.010901 -0.003656 0.009398 0.000000 0.006593 0.000000
# 4 0.000000 0.000000 0.000000 0.013905 0.000000 -0.004387
# 5 -0.019012 -0.002738 0.006593 0.000000 0.030336 0.000000
# 6 0.000000 0.000000 0.000000 -0.004387 0.000000 0.013792
#
#
# Mechanical properties :
#
#
# Convention : Reuss Voigt Hill
#
# Bulk Modulus (GPa) = 50.96592 133.81471 92.39031
# Shear Modulus (GPa) = 35.13172 61.41584 48.27378
#
# Velocity S-wave (km/s) = 3.66381 4.84422 4.29476
# Velocity P-wave (km/s) = 6.11323 9.07843 7.73917
#
# Compressibility (1/GPa) = 0.01962096
#
# Stress axis : x y z
#
# Youngs Moduli (GPa) = 31.09120 140.38718 106.40226
#
# Poissons Ratio (x) = -0.00354 1.15994
# Poissons Ratio (y) = -0.00078 0.38897
# Poissons Ratio (z) = 0.33894 0.51321
#
# Static dielectric constant tensor:
#      x y z
#    x 2.166550 0.000000 -0.047550 
#    y 0.000000 2.044090 0.000000 
#    z -0.047550 0.000000 2.047260 
# 
# From -- ./inp_files/20065.got.cif
#   From: 2010.05.17/outbox.cif.g08.bks.cpg/sg14_11_cif.got.tgz:20065.got - 2010.06.03 17:49:19.
