data_PCOD9252617
_publ_section_title
;
Structure prediction by ZEFSAII (Michael W. Deem and Ramdas Pophale) SiO2 
 PCOD9252617
Probable space group: P 21/C
;
_chemical_formula_sum "Si O2"
_cell_formula_units_Z 24
_cell_length_a 14.533069
_cell_length_b 4.927219
_cell_length_c 13.192198
_cell_angle_alpha 90.000000
_cell_angle_beta 83.785574
_cell_angle_gamma 90.000000
_cell_volume 939.110740
_symmetry_space_group_name_H-M "P 21/C"
_symmetry_group_IT_number 14
_symmetry_cell_setting 'monoclinic'
loop_
_space_group_symop_operation_xyz
x,y,z
-x,1/2+y,1/2-z
-x,-y,-z
x,1/2-y,1/2+z
loop_
_atom_site_type_symbol
_atom_site_label
_atom_site_fract_x
_atom_site_fract_y
_atom_site_fract_z
Si Si1 0.414065 0.292666 0.501012
Si Si2 0.121741 0.892259 0.108042
Si Si3 0.750903 0.418554 0.595156
Si Si4 0.202179 0.434326 0.787570
Si Si5 0.508998 0.565443 0.821968
Si Si6 0.997408 0.910420 0.383897
O O1 0.500000 0.500000 0.500000
O O2 0.330069 0.459498 0.463737
O O3 0.441788 0.065173 0.414820
O O4 0.406427 0.162674 0.614808
O O5 0.083946 0.603145 0.149560
O O6 0.203338 0.004148 0.169262
O O7 0.036766 0.103597 0.120216
O O8 0.162582 0.878618 0.990709
O O9 0.776180 0.636585 0.677547
O O10 0.735602 0.137460 0.654226
O O11 0.095547 0.512389 0.826089
O O12 0.474585 0.825561 0.761671
O O13 0.000000 0.000000 0.500000
#
# Coordination Sequence:
#
# PCOD9252617 Si02
#       6
#     4   4   4   4   4   4
#     4  11  27  49  76 106 147 192 245 299 369 440
#     4  12  24  45  68 101 138 186 231 285 348 418
#     4  12  27  46  68 101 145 179 230 300 348 412
#     4  12  26  43  70 105 138 184 235 287 351 416
#     4  11  24  47  78 108 137 184 248 298 361 443
#     4  12  21  43  73  94 142 188 228 284 348 417
#
# _framework density 25.556090000000001
#
# number of rings (size 3 to 8) (size 9 to 14) (size 15 to 20)
#    0.000    0.333    5.000    3.500    4.667    1.333 
#    3.000    0.000    0.000    0.000    0.000    0.000 
#    0.000    0.000    0.000    0.000    0.000    0.000 
#
# Total GULP energy -134540.674905 kJ/mol
# GULP energy per Si atom -5605.861454 kJ/mol
# Density = 2.549792 g / cm^3
# Si number density = 25.556090 Si / 1000 Ang^3
#
#
#
# Elastic Constant Matrix: (Units=GPa)
#
#
# Indices 1 2 3 4 5 6 
#
# 1 74.5336 11.9569 12.9424 0.0000 28.6770 0.0000
# 2 11.9569 110.2500 22.8537 0.0000 7.1418 0.0000
# 3 12.9424 22.8537 148.1513 0.0000 17.6087 0.0000
# 4 0.0000 0.0000 0.0000 52.3991 0.0000 15.3179
# 5 28.6770 7.1418 17.6087 0.0000 30.0693 0.0000
# 6 0.0000 0.0000 0.0000 15.3179 0.0000 34.3278
#
#
#
# Elastic Compliance Matrix: (Units=1/GPa)
#
#
# Indices 1 2 3 4 5 6 
#
# 1 0.021379 -0.001143 0.000752 0.000000 -0.020559 0.000000
# 2 -0.001143 0.009493 -0.001318 0.000000 -0.000393 0.000000
# 3 0.000752 -0.001318 0.007454 0.000000 -0.004770 0.000000
# 4 0.000000 0.000000 0.000000 0.021947 0.000000 -0.009793
# 5 -0.020559 -0.000393 -0.004770 0.000000 0.055750 0.000000
# 6 0.000000 0.000000 0.000000 -0.009793 0.000000 0.033501
#
#
# Mechanical properties :
#
#
# Convention : Reuss Voigt Hill
#
# Bulk Modulus (GPa) = 28.64537 47.60454 38.12495
# Shear Modulus (GPa) = 30.38071 42.37136 36.37603
#
# Velocity S-wave (km/s) = 3.45162 4.07624 3.77686
# Velocity P-wave (km/s) = 5.20750 6.38923 5.82839
#
# Compressibility (1/GPa) = 0.03490965
#
# Stress axis : x y z
#
# Youngs Moduli (GPa) = 46.77378 105.34222 134.15013
#
# Poissons Ratio (x) = 0.12039 -0.10090
# Poissons Ratio (y) = 0.05345 0.17679
# Poissons Ratio (z) = -0.03518 0.13882
#
# Static dielectric constant tensor:
#      x y z
#    x 2.022580 0.000000 0.012590 
#    y 0.000000 1.995430 0.000000 
#    z 0.012590 0.000000 2.070220 
# 
# From -- ./inp_files/45948.got.cif
#   From: 2010.05.17/outbox.cif.g08.bks.cpg/sg14_23_cif.got.tgz:45948.got - 2010.06.03 17:49:19.
