data_PCOD9252663
_publ_section_title
;
Structure prediction by ZEFSAII (Michael W. Deem and Ramdas Pophale) SiO2 
 PCOD9252663
Probable space group: P 21/C
;
_chemical_formula_sum "Si O2"
_cell_formula_units_Z 16
_cell_length_a 4.821556
_cell_length_b 5.311922
_cell_length_c 23.855988
_cell_angle_alpha 90.000000
_cell_angle_beta 95.042232
_cell_angle_gamma 90.000000
_cell_volume 608.628679
_symmetry_space_group_name_H-M "P 21/C"
_symmetry_group_IT_number 14
_symmetry_cell_setting 'monoclinic'
loop_
_space_group_symop_operation_xyz
x,y,z
-x,1/2+y,1/2-z
-x,-y,-z
x,1/2-y,1/2+z
loop_
_atom_site_type_symbol
_atom_site_label
_atom_site_fract_x
_atom_site_fract_y
_atom_site_fract_z
Si Si1 0.005530 0.541306 0.589648
Si Si2 0.185280 0.979736 0.257205
Si Si3 0.479152 0.302799 0.342411
Si Si4 0.747071 0.681169 0.986054
O O1 0.779837 0.548697 0.634988
O O2 0.800704 0.603199 0.533748
O O3 0.195061 0.307504 0.572994
O O4 0.254619 0.730498 0.612155
O O5 0.396229 0.944576 0.209340
O O6 0.997993 0.730938 0.255732
O O7 0.354471 0.042182 0.316809
O O8 0.500000 0.500000 0.000000
O O9 0.000000 0.500000 0.000000
#
# Coordination Sequence:
#
# PCOD9252663 Si02
#       4
#     4   4   4   4
#     4  11  26  48  78 114 160 204 270 333 400 484
#     4  12  28  56  80 116 170 218 272 336 400 484
#     4  12  26  51  78 116 160 217 266 334 406 478
#     4  11  24  49  76 114 155 207 263 333 404 487
#
# _framework density 26.288606999999999
#
# number of rings (size 3 to 8) (size 9 to 14) (size 15 to 20)
#    0.000    0.500    2.500    4.500    0.000    6.000 
#   22.500    0.000    0.000    0.000    0.000    0.000 
#    0.000    0.000    0.000    0.000    0.000    0.000 
#
# Total GULP energy -89501.553598 kJ/mol
# GULP energy per Si atom -5593.847100 kJ/mol
# Density = 2.622877 g / cm^3
# Si number density = 26.288607 Si / 1000 Ang^3
#
#
#
# Elastic Constant Matrix: (Units=GPa)
#
#
# Indices 1 2 3 4 5 6 
#
# 1 208.1754 45.4229 32.1605 0.0000 -26.2387 0.0000
# 2 45.4229 118.2221 19.3189 0.0000 -16.3052 0.0000
# 3 32.1605 19.3189 69.8332 0.0000 -24.3839 0.0000
# 4 0.0000 0.0000 0.0000 28.7768 0.0000 7.7721
# 5 -26.2387 -16.3052 -24.3839 0.0000 75.2977 0.0000
# 6 0.0000 0.0000 0.0000 7.7721 0.0000 52.8461
#
#
#
# Elastic Compliance Matrix: (Units=1/GPa)
#
#
# Indices 1 2 3 4 5 6 
#
# 1 0.005574 -0.001719 -0.001740 0.000000 0.001007 0.000000
# 2 -0.001719 0.009498 -0.001496 0.000000 0.000973 0.000000
# 3 -0.001740 -0.001496 0.017149 0.000000 0.004623 0.000000
# 4 0.000000 0.000000 0.000000 0.036188 0.000000 -0.005322
# 5 0.001007 0.000973 0.004623 0.000000 0.015339 0.000000
# 6 0.000000 0.000000 0.000000 -0.005322 0.000000 0.019706
#
#
# Mechanical properties :
#
#
# Convention : Reuss Voigt Hill
#
# Bulk Modulus (GPa) = 44.81965 65.55947 55.18956
# Shear Modulus (GPa) = 41.39037 51.33937 46.36487
#
# Velocity S-wave (km/s) = 3.97225 4.42397 4.20418
# Velocity P-wave (km/s) = 6.17450 7.14758 6.67878
#
# Compressibility (1/GPa) = 0.02231164
#
# Stress axis : x y z
#
# Youngs Moduli (GPa) = 179.39297 105.28893 58.31093
#
# Poissons Ratio (x) = 0.18094 0.10147
# Poissons Ratio (y) = 0.30829 0.08724
# Poissons Ratio (z) = 0.31218 0.15753
#
# Static dielectric constant tensor:
#      x y z
#    x 2.013690 0.000000 0.069700 
#    y 0.000000 2.076390 0.000000 
#    z 0.069700 0.000000 2.459310 
# 
# From -- ./inp_files/70832.got.cif
#   From: 2010.05.17/outbox.cif.g08.bks.cpg/sg14_36_cif.got.tgz:70832.got - 2010.06.03 17:49:19.
