data_PCOD9252866
_publ_section_title
;
Structure prediction by ZEFSAII (Michael W. Deem and Ramdas Pophale) SiO2 
 PCOD9252866
Probable space group: P 21/C
;
_chemical_formula_sum "Si O2"
_cell_formula_units_Z 16
_cell_length_a 9.788707
_cell_length_b 12.039887
_cell_length_c 8.599178
_cell_angle_alpha 90.000000
_cell_angle_beta 40.773697
_cell_angle_gamma 90.000000
_cell_volume 661.860435
_symmetry_space_group_name_H-M "P 21/C"
_symmetry_group_IT_number 14
_symmetry_cell_setting 'monoclinic'
loop_
_space_group_symop_operation_xyz
x,y,z
-x,1/2+y,1/2-z
-x,-y,-z
x,1/2-y,1/2+z
loop_
_atom_site_type_symbol
_atom_site_label
_atom_site_fract_x
_atom_site_fract_y
_atom_site_fract_z
Si Si1 0.690488 0.783988 0.591993
Si Si2 0.959505 0.132512 0.324385
Si Si3 0.741544 0.998500 0.757925
Si Si4 0.439285 0.627485 0.036962
O O1 0.761475 0.891386 0.627578
O O2 0.597346 0.688940 0.782528
O O3 0.496144 0.818021 0.651648
O O4 0.886960 0.736930 0.325426
O O5 0.796335 0.133937 0.324025
O O6 0.123554 0.030016 0.205637
O O7 0.818247 0.106866 0.599198
O O8 0.500000 0.000000 0.000000
O O9 0.500000 0.500000 0.000000
#
# Coordination Sequence:
#
# PCOD9252866 Si02
#       4
#     4   4   4   4
#     4  12  27  49  75 115 157 203 264 325 400 460
#     4  11  26  47  77 112 149 210 255 325 396 462
#     4  11  25  51  77 112 156 207 263 324 396 475
#     4  12  28  50  75 116 157 205 266 327 388 482
#
# _framework density 24.174282000000002
#
# number of rings (size 3 to 8) (size 9 to 14) (size 15 to 20)
#    0.000    0.500    5.000    1.500    3.500    3.000 
#    0.000    0.000    0.000    0.000    0.000    0.000 
#    0.000    0.000    0.000    0.000    0.000    0.000 
#
# Total GULP energy -89484.173393 kJ/mol
# GULP energy per Si atom -5592.760837 kJ/mol
# Density = 2.411926 g / cm^3
# Si number density = 24.174282 Si / 1000 Ang^3
#
#
#
# Elastic Constant Matrix: (Units=GPa)
#
#
# Indices 1 2 3 4 5 6 
#
# 1 166.9599 53.8632 27.8597 0.0000 -43.4279 0.0000
# 2 53.8632 134.9886 45.3356 0.0000 5.5260 0.0000
# 3 27.8597 45.3356 104.3329 0.0000 -28.8971 0.0000
# 4 0.0000 0.0000 0.0000 58.4534 0.0000 6.8998
# 5 -43.4279 5.5260 -28.8971 0.0000 52.0041 0.0000
# 6 0.0000 0.0000 0.0000 6.8998 0.0000 44.5768
#
#
#
# Elastic Compliance Matrix: (Units=1/GPa)
#
#
# Indices 1 2 3 4 5 6 
#
# 1 0.009900 -0.005180 0.002422 0.000000 0.010164 0.000000
# 2 -0.005180 0.011982 -0.006351 0.000000 -0.009128 0.000000
# 3 0.002422 -0.006351 0.014709 0.000000 0.010871 0.000000
# 4 0.000000 0.000000 0.000000 0.017426 0.000000 -0.002697
# 5 0.010164 -0.009128 0.010871 0.000000 0.034728 0.000000
# 6 0.000000 0.000000 0.000000 -0.002697 0.000000 0.022851
#
#
# Mechanical properties :
#
#
# Convention : Reuss Voigt Hill
#
# Bulk Modulus (GPa) = 54.42958 73.37761 63.90360
# Shear Modulus (GPa) = 36.78173 49.62173 43.20173
#
# Velocity S-wave (km/s) = 3.90490 4.53555 4.23199
# Velocity P-wave (km/s) = 6.54946 7.60577 7.09729
#
# Compressibility (1/GPa) = 0.01837236
#
# Stress axis : x y z
#
# Youngs Moduli (GPa) = 101.00918 83.46040 67.98708
#
# Poissons Ratio (x) = 0.43232 -0.16469
# Poissons Ratio (y) = 0.52322 0.43182
# Poissons Ratio (z) = -0.24468 0.53009
#
# Static dielectric constant tensor:
#      x y z
#    x 1.963920 0.000000 0.007790 
#    y 0.000000 1.913850 0.000000 
#    z 0.007790 0.000000 1.946470 
# 
# From -- ./inp_files/28856.got.cif
#   From: 2010.05.17/outbox.cif.g08.bks.cpg/sg14_15_cif.got.tgz:28856.got - 2010.06.03 17:49:19.
