data_PCOD9252883
_publ_section_title
;
Structure prediction by ZEFSAII (Michael W. Deem and Ramdas Pophale) SiO2 
 PCOD9252883
Probable space group: P 21/C
;
_chemical_formula_sum "Si O2"
_cell_formula_units_Z 30
_cell_length_a 13.710774
_cell_length_b 11.667862
_cell_length_c 8.849158
_cell_angle_alpha 90.000000
_cell_angle_beta 63.743070
_cell_angle_gamma 90.000000
_cell_volume 1269.580146
_symmetry_space_group_name_H-M "P 21/C"
_symmetry_group_IT_number 14
_symmetry_cell_setting 'monoclinic'
loop_
_space_group_symop_operation_xyz
x,y,z
-x,1/2+y,1/2-z
-x,-y,-z
x,1/2-y,1/2+z
loop_
_atom_site_type_symbol
_atom_site_label
_atom_site_fract_x
_atom_site_fract_y
_atom_site_fract_z
Si Si1 0.844533 0.308045 0.993935
Si Si2 0.316875 0.251366 0.063007
Si Si3 0.462440 0.275718 0.211140
Si Si4 0.180456 0.444484 0.521309
Si Si5 0.500000 0.000000 0.500000
Si Si6 0.813323 0.960640 0.343745
Si Si7 0.653418 0.367342 0.657663
Si Si8 0.962817 0.383511 0.215542
O O1 0.741919 0.233800 0.124132
O O2 0.909745 0.361745 0.089647
O O3 0.809018 0.410373 0.906182
O O4 0.921428 0.219443 0.851055
O O5 0.347022 0.237249 0.217052
O O6 0.295631 0.386936 0.055453
O O7 0.430276 0.220731 0.907584
O O8 0.221090 0.172716 0.067562
O O9 0.558251 0.187148 0.124131
O O10 0.490473 0.399664 0.132860
O O11 0.160898 0.445836 0.353377
O O12 0.279527 0.533816 0.472421
O O13 0.080286 0.498955 0.678812
O O14 0.405138 0.922502 0.658104
O O15 0.908402 0.896922 0.370599
#
# Coordination Sequence:
#
# PCOD9252883 Si02
#       8
#     4   4   4   4   2   4   4   4
#     4  11  27  47  72 117 142 192 255 302 376 451
#     4  12  26  45  69 109 143 190 247 306 373 445
#     4  12  27  44  73 105 143 198 243 302 380 438
#     4  11  26  48  70 106 145 193 249 301 378 441
#     4  12  24  48  70 102 152 196 242 302 372 438
#     4  12  27  47  79  99 156 195 244 315 373 455
#     4  11  26  45  76 102 149 193 243 305 369 448
#     4  11  27  46  77 107 144 194 242 308 377 446
#
# _framework density 23.629860000000001
#
# number of rings (size 3 to 8) (size 9 to 14) (size 15 to 20)
#    0.000    0.533    4.000    2.400   13.067    0.533 
#    0.000    0.000    0.000    0.000    0.000    0.000 
#    0.000    0.000    0.000    0.000    0.000    0.000 
#
# Total GULP energy -167380.978345 kJ/mol
# GULP energy per Si atom -5579.365945 kJ/mol
# Density = 2.357608 g / cm^3
# Si number density = 23.629860 Si / 1000 Ang^3
#
#
#
# Elastic Constant Matrix: (Units=GPa)
#
#
# Indices 1 2 3 4 5 6 
#
# 1 72.4752 40.2405 11.7790 0.0000 8.7024 0.0000
# 2 40.2405 121.4516 9.1818 0.0000 13.4597 0.0000
# 3 11.7790 9.1818 44.6875 0.0000 15.4317 0.0000
# 4 0.0000 0.0000 0.0000 39.0023 0.0000 -2.0836
# 5 8.7024 13.4597 15.4317 0.0000 33.9837 0.0000
# 6 0.0000 0.0000 0.0000 -2.0836 0.0000 31.2245
#
#
#
# Elastic Compliance Matrix: (Units=1/GPa)
#
#
# Indices 1 2 3 4 5 6 
#
# 1 0.017440 -0.005442 -0.003179 0.000000 -0.000867 0.000000
# 2 -0.005442 0.010328 0.000289 0.000000 -0.002828 0.000000
# 3 -0.003179 0.000289 0.027176 0.000000 -0.011641 0.000000
# 4 0.000000 0.000000 0.000000 0.025731 0.000000 0.001717
# 5 -0.000867 -0.002828 -0.011641 0.000000 0.036054 0.000000
# 6 0.000000 0.000000 0.000000 0.001717 0.000000 0.032141
#
#
# Mechanical properties :
#
#
# Convention : Reuss Voigt Hill
#
# Bulk Modulus (GPa) = 26.12344 40.11300 33.11822
# Shear Modulus (GPa) = 28.04328 32.66963 30.35646
#
# Velocity S-wave (km/s) = 3.44869 3.72231 3.58811
# Velocity P-wave (km/s) = 5.19011 5.95706 5.58676
#
# Compressibility (1/GPa) = 0.03827980
#
# Stress axis : x y z
#
# Youngs Moduli (GPa) = 57.33869 96.82017 36.79693
#
# Poissons Ratio (x) = 0.52690 0.11700
# Poissons Ratio (y) = 0.31204 -0.01063
# Poissons Ratio (z) = 0.18231 -0.02798
#
# Static dielectric constant tensor:
#      x y z
#    x 1.937310 0.000000 0.005220 
#    y 0.000000 1.888190 0.000000 
#    z 0.005220 0.000000 1.840300 
# 
# From -- ./inp_files/15549.got.cif
#   From: 2010.05.17/outbox.cif.g08.bks.cpg/sg14_8_cif.got.tgz:15549.got - 2010.06.03 17:49:19.
