data_PCOD9252523
_publ_section_title
;
Structure prediction by ZEFSAII (Michael W. Deem and Ramdas Pophale) SiO2 
 PCOD9252523
Probable space group: P 21/C
;
_chemical_formula_sum "Si O2"
_cell_formula_units_Z 26
_cell_length_a 23.160386
_cell_length_b 8.895845
_cell_length_c 12.721334
_cell_angle_alpha 90.000000
_cell_angle_beta 153.918445
_cell_angle_gamma 90.000000
_cell_volume 1152.319155
_symmetry_space_group_name_H-M "P 21/C"
_symmetry_group_IT_number 14
_symmetry_cell_setting 'monoclinic'
loop_
_space_group_symop_operation_xyz
x,y,z
-x,1/2+y,1/2-z
-x,-y,-z
x,1/2-y,1/2+z
loop_
_atom_site_type_symbol
_atom_site_label
_atom_site_fract_x
_atom_site_fract_y
_atom_site_fract_z
Si Si1 0.567629 0.326487 0.827549
Si Si2 0.632151 0.836485 0.158044
Si Si3 0.000000 0.000000 0.500000
Si Si4 0.906586 0.141204 0.137408
Si Si5 0.149159 0.349362 0.573253
Si Si6 0.770763 0.378593 0.777982
Si Si7 0.335591 0.347676 0.044960
O O1 0.516659 0.315536 0.624120
O O2 0.615947 0.495113 0.924638
O O3 0.435300 0.282748 0.674088
O O4 0.677861 0.212978 0.046547
O O5 0.715725 0.689566 0.264420
O O6 0.653902 0.863094 0.314784
O O7 0.693220 0.977220 0.194954
O O8 0.899740 0.066368 0.241343
O O9 0.901973 0.068762 0.432074
O O10 0.044106 0.228953 0.365005
O O11 0.805270 0.268305 0.932022
O O12 0.900175 0.012509 0.038258
O O13 0.188822 0.322475 0.760011
#
# Coordination Sequence:
#
# PCOD9252523 Si02
#       7
#     4   4   2   4   4   4   4
#     4  11  24  45  71 107 139 185 235 299 362 439
#     4  11  25  47  73 104 144 189 239 305 361 440
#     4  12  28  46  72 102 150 198 234 310 358 432
#     4  12  25  45  69 103 145 193 239 299 359 436
#     4  11  24  46  68 105 141 183 248 291 361 437
#     4  12  26  47  74 107 149 188 251 291 372 442
#     4  11  25  45  74 102 143 186 238 294 367 424
#
# _framework density 22.563193999999999
#
# number of rings (size 3 to 8) (size 9 to 14) (size 15 to 20)
#    0.000    0.615    6.154    0.462    4.308    0.000 
#    0.000    3.846    0.000    0.000    0.000    0.000 
#    0.000    0.000    0.000    0.000    0.000    0.000 
#
# Total GULP energy -144838.092378 kJ/mol
# GULP energy per Si atom -5570.695861 kJ/mol
# Density = 2.251184 g / cm^3
# Si number density = 22.563194 Si / 1000 Ang^3
#
#
#
# Elastic Constant Matrix: (Units=GPa)
#
#
# Indices 1 2 3 4 5 6 
#
# 1 62.9312 28.7824 41.6207 0.0000 -31.3980 0.0000
# 2 28.7824 97.8785 65.8955 0.0000 -13.3571 0.0000
# 3 41.6207 65.8955 188.7244 0.0000 -20.9534 0.0000
# 4 0.0000 0.0000 0.0000 51.9890 0.0000 2.9557
# 5 -31.3980 -13.3571 -20.9534 0.0000 28.4959 0.0000
# 6 0.0000 0.0000 0.0000 2.9557 0.0000 10.1838
#
#
#
# Elastic Compliance Matrix: (Units=1/GPa)
#
#
# Indices 1 2 3 4 5 6 
#
# 1 0.039266 -0.004312 -0.002804 0.000000 0.039182 0.000000
# 2 -0.004312 0.014083 -0.004095 0.000000 -0.001161 0.000000
# 3 -0.002804 -0.004095 0.007395 0.000000 0.000428 0.000000
# 4 0.000000 0.000000 0.000000 0.019558 0.000000 -0.005676
# 5 0.039182 -0.001161 0.000428 0.000000 0.078036 0.000000
# 6 0.000000 0.000000 0.000000 -0.005676 0.000000 0.099843
#
#
# Mechanical properties :
#
#
# Convention : Reuss Voigt Hill
#
# Bulk Modulus (GPa) = 26.09504 69.12569 47.61036
# Shear Modulus (GPa) = 17.04301 32.34943 24.69622
#
# Velocity S-wave (km/s) = 2.75134 3.79056 3.31197
# Velocity P-wave (km/s) = 4.65656 7.06122 5.98099
#
# Compressibility (1/GPa) = 0.03832146
#
# Stress axis : x y z
#
# Youngs Moduli (GPa) = 25.46760 71.00531 135.23446
#
# Poissons Ratio (x) = 0.30617 0.37916
# Poissons Ratio (y) = 0.10982 0.55383
# Poissons Ratio (z) = 0.07140 0.29079
#
# Static dielectric constant tensor:
#      x y z
#    x 1.852200 0.000000 -0.025960 
#    y 0.000000 1.836110 0.000000 
#    z -0.025960 0.000000 1.883290 
# 
# From -- ./inp_files/35815.got.cif
#   From: 2010.05.17/outbox.cif.g08.bks.cpg/sg14_18_cif.got.tgz:35815.got - 2010.06.03 17:49:19.
