data_PCOD9252815
_publ_section_title
;
Structure prediction by ZEFSAII (Michael W. Deem and Ramdas Pophale) SiO2 
 PCOD9252815
Probable space group: P 21/C
;
_chemical_formula_sum "Si O2"
_cell_formula_units_Z 20
_cell_length_a 14.519659
_cell_length_b 10.250503
_cell_length_c 9.308684
_cell_angle_alpha 90.000000
_cell_angle_beta 40.107258
_cell_angle_gamma 90.000000
_cell_volume 892.533317
_symmetry_space_group_name_H-M "P 21/C"
_symmetry_group_IT_number 14
_symmetry_cell_setting 'monoclinic'
loop_
_space_group_symop_operation_xyz
x,y,z
-x,1/2+y,1/2-z
-x,-y,-z
x,1/2-y,1/2+z
loop_
_atom_site_type_symbol
_atom_site_label
_atom_site_fract_x
_atom_site_fract_y
_atom_site_fract_z
Si Si1 0.872602 0.494945 0.360043
Si Si2 0.776427 0.840827 0.221697
Si Si3 0.312625 0.611033 0.670300
Si Si4 0.370760 0.124545 0.300279
Si Si5 0.043499 0.753478 0.081648
O O1 0.788304 0.535130 0.603982
O O2 0.767638 0.477773 0.351932
O O3 0.950200 0.359042 0.298921
O O4 0.933335 0.689218 0.597606
O O5 0.719531 0.724638 0.189329
O O6 0.676738 0.860194 0.479040
O O7 0.981089 0.612795 0.200517
O O8 0.462915 0.654524 0.425234
O O9 0.342863 0.520785 0.772773
O O10 0.203236 0.725917 0.837389
#
# Coordination Sequence:
#
# PCOD9252815 Si02
#       5
#     4   4   4   4   4
#     4  12  26  47  77 111 145 195 248 307 364 434
#     4  12  24  48  74 104 148 192 248 302 371 430
#     4  11  26  46  72 106 148 196 248 299 371 433
#     4  11  25  47  72 104 150 197 238 308 368 438
#     4  12  25  46  79 110 146 194 247 305 360 447
#
# _framework density 22.408125999999999
#
# number of rings (size 3 to 8) (size 9 to 14) (size 15 to 20)
#    0.000    0.400    4.000    3.600    2.800    2.400 
#    3.600    0.000    0.000    0.000    0.000    0.000 
#    0.000    0.000    0.000    0.000    0.000    0.000 
#
# Total GULP energy -112046.148983 kJ/mol
# GULP energy per Si atom -5602.307449 kJ/mol
# Density = 2.235712 g / cm^3
# Si number density = 22.408126 Si / 1000 Ang^3
#
#
#
# Elastic Constant Matrix: (Units=GPa)
#
#
# Indices 1 2 3 4 5 6 
#
# 1 46.4650 11.5703 17.6104 0.0000 0.7597 0.0000
# 2 11.5703 60.4751 13.8693 0.0000 -4.8393 0.0000
# 3 17.6104 13.8693 71.3771 0.0000 17.0400 0.0000
# 4 0.0000 0.0000 0.0000 37.3199 0.0000 -3.2515
# 5 0.7597 -4.8393 17.0400 0.0000 43.8344 0.0000
# 6 0.0000 0.0000 0.0000 -3.2515 0.0000 -26.6276
#
#
#
# Elastic Compliance Matrix: (Units=1/GPa)
#
#
# Indices 1 2 3 4 5 6 
#
# 1 0.024489 -0.003248 -0.005758 0.000000 0.001455 0.000000
# 2 -0.003248 0.018253 -0.003571 0.000000 0.003460 0.000000
# 3 -0.005758 -0.003571 0.017852 0.000000 -0.007234 0.000000
# 4 0.000000 0.000000 0.000000 0.026513 0.000000 -0.003238
# 5 0.001455 0.003460 -0.007234 0.000000 0.025982 0.000000
# 6 0.000000 0.000000 0.000000 -0.003238 0.000000 -0.037160
#
#
# Mechanical properties :
#
#
# Convention : Reuss Voigt Hill
#
# Bulk Modulus (GPa) = 28.21817 29.37971 28.79894
# Shear Modulus (GPa) = 44.28779 19.92315 32.10547
#
# Velocity S-wave (km/s) = 4.45051 2.98502 3.78929
# Velocity P-wave (km/s) = 6.24737 5.00201 5.65905
#
# Compressibility (1/GPa) = 0.03543816
#
# Stress axis : x y z
#
# Youngs Moduli (GPa) = 40.83458 54.78525 56.01689
#
# Poissons Ratio (x) = 0.17796 0.32256
# Poissons Ratio (y) = 0.13264 0.20005
# Poissons Ratio (z) = 0.23514 0.19565
#
# Static dielectric constant tensor:
#      x y z
#    x 1.794730 0.000000 -0.001830 
#    y 0.000000 1.839530 0.000000 
#    z -0.001830 0.000000 1.855400 
# 
# From -- ./inp_files/12316.got.cif
#   From: 2010.05.17/outbox.cif.g08.bks.cpg/sg14_7_cif.got.tgz:12316.got - 2010.06.03 17:49:19.
