data_PCOD9252942
_publ_section_title
;
Structure prediction by ZEFSAII (Michael W. Deem and Ramdas Pophale) SiO2 
 PCOD9252942
Probable space group: P 21/C
;
_chemical_formula_sum "Si O2"
_cell_formula_units_Z 16
_cell_length_a 7.491503
_cell_length_b 16.874762
_cell_length_c 5.085827
_cell_angle_alpha 90.000000
_cell_angle_beta 94.886405
_cell_angle_gamma 90.000000
_cell_volume 640.599941
_symmetry_space_group_name_H-M "P 21/C"
_symmetry_group_IT_number 14
_symmetry_cell_setting 'monoclinic'
loop_
_space_group_symop_operation_xyz
x,y,z
-x,1/2+y,1/2-z
-x,-y,-z
x,1/2-y,1/2+z
loop_
_atom_site_type_symbol
_atom_site_label
_atom_site_fract_x
_atom_site_fract_y
_atom_site_fract_z
Si Si1 0.333200 0.398808 0.353325
Si Si2 0.283523 0.578383 0.307836
Si Si3 0.991716 0.805440 0.993923
Si Si4 0.436757 0.807412 0.457945
O O1 0.252102 0.484902 0.286384
O O2 0.523899 0.410586 0.523305
O O3 0.202150 0.345702 0.509210
O O4 0.378514 0.352109 0.090378
O O5 0.307484 0.620515 0.027590
O O6 0.132416 0.625472 0.445963
O O7 0.014633 0.759778 0.270734
O O8 0.417592 0.751919 0.200483
#
# Coordination Sequence:
#
# PCOD9252942 Si02
#       4
#     4   4   4   4
#     4  11  26  49  76 109 149 193 241 303 369 434
#     4  11  26  49  76 109 149 193 241 303 369 434
#     4  12  29  48  73 110 146 194 246 300 359 436
#     4  12  23  42  71 104 142 186 238 292 351 430
#
# _framework density 24.976590000000002
#
# number of rings (size 3 to 8) (size 9 to 14) (size 15 to 20)
#    0.000    0.500    2.500    4.500    7.000    0.000 
#    0.000    2.500    0.000    0.000    0.000    0.000 
#    0.000    0.000    0.000    0.000    0.000    0.000 
#
# Total GULP energy -89646.377084 kJ/mol
# GULP energy per Si atom -5602.898568 kJ/mol
# Density = 2.491974 g / cm^3
# Si number density = 24.976590 Si / 1000 Ang^3
#
#
#
# Elastic Constant Matrix: (Units=GPa)
#
#
# Indices 1 2 3 4 5 6 
#
# 1 67.1613 20.1675 48.4854 0.0000 -25.5255 0.0000
# 2 20.1675 127.1727 42.6834 0.0000 -20.1402 0.0000
# 3 48.4854 42.6834 191.2478 0.0000 -22.4491 0.0000
# 4 0.0000 0.0000 0.0000 28.5116 0.0000 -15.8357
# 5 -25.5255 -20.1402 -22.4491 0.0000 44.6972 0.0000
# 6 0.0000 0.0000 0.0000 -15.8357 0.0000 42.1853
#
#
#
# Elastic Compliance Matrix: (Units=1/GPa)
#
#
# Indices 1 2 3 4 5 6 
#
# 1 0.021991 -0.000434 -0.004280 0.000000 0.010214 0.000000
# 2 -0.000434 0.008921 -0.001528 0.000000 0.003004 0.000000
# 3 -0.004280 -0.001528 0.006681 0.000000 0.000223 0.000000
# 4 0.000000 0.000000 0.000000 0.044312 0.000000 0.016634
# 5 0.010214 0.003004 0.000223 0.000000 0.029671 0.000000
# 6 0.000000 0.000000 0.000000 0.016634 0.000000 0.029949
#
#
# Mechanical properties :
#
#
# Convention : Reuss Voigt Hill
#
# Bulk Modulus (GPa) = 39.82458 67.58382 53.70420
# Shear Modulus (GPa) = 30.79220 41.36186 36.07703
#
# Velocity S-wave (km/s) = 3.51499 4.07384 3.80469
# Velocity P-wave (km/s) = 5.69675 7.01754 6.39136
#
# Compressibility (1/GPa) = 0.02511012
#
# Stress axis : x y z
#
# Youngs Moduli (GPa) = 45.47289 112.09666 149.67698
#
# Poissons Ratio (x) = 0.04859 0.64055
# Poissons Ratio (y) = 0.01971 0.22877
# Poissons Ratio (z) = 0.19460 0.17133
#
# Static dielectric constant tensor:
#      x y z
#    x 2.076030 0.000000 0.093110 
#    y 0.000000 1.942670 0.000000 
#    z 0.093110 0.000000 1.976800 
# 
# From -- ./inp_files/979.got.cif
#   From: 2010.05.17/outbox.cif.g08.bks.cpg/sg14_1_cif.got.tgz:979.got - 2010.06.03 17:49:19.
