data_PCOD9252680
_publ_section_title
;
Structure prediction by ZEFSAII (Michael W. Deem and Ramdas Pophale) SiO2 
 PCOD9252680
Probable space group: P 21/C
;
_chemical_formula_sum "Si O2"
_cell_formula_units_Z 20
_cell_length_a 9.099959
_cell_length_b 9.878499
_cell_length_c 11.159743
_cell_angle_alpha 90.000000
_cell_angle_beta 131.547321
_cell_angle_gamma 90.000000
_cell_volume 750.798036
_symmetry_space_group_name_H-M "P 21/C"
_symmetry_group_IT_number 14
_symmetry_cell_setting 'monoclinic'
loop_
_space_group_symop_operation_xyz
x,y,z
-x,1/2+y,1/2-z
-x,-y,-z
x,1/2-y,1/2+z
loop_
_atom_site_type_symbol
_atom_site_label
_atom_site_fract_x
_atom_site_fract_y
_atom_site_fract_z
Si Si1 0.039259 0.734373 0.172812
Si Si2 0.821240 0.978220 0.673623
Si Si3 0.607270 0.763232 0.170051
Si Si4 0.412997 0.328361 0.599110
Si Si5 0.731266 0.007520 0.343560
O O1 0.149778 0.872003 0.263525
O O2 0.140721 0.636038 0.129961
O O3 0.007154 0.624331 0.262178
O O4 0.818428 0.794859 0.027103
O O5 0.750775 0.987720 0.496223
O O6 0.682187 0.888777 0.682633
O O7 0.505221 0.754817 0.243243
O O8 0.778338 0.874630 0.288233
O O9 0.510380 0.798575 0.992062
O O10 0.506137 0.471502 0.679680
#
# Coordination Sequence:
#
# PCOD9252680 Si02
#       5
#     4   4   4   4   4
#     4  11  25  49  77 113 154 203 253 326 385 460
#     4  11  26  48  78 112 156 199 265 314 390 456
#     4  11  24  52  77 116 152 205 258 323 381 469
#     4  11  27  45  80 109 157 198 265 304 392 453
#     4  12  26  50  81 111 160 206 253 326 386 455
#
# _framework density 26.638323
#
# number of rings (size 3 to 8) (size 9 to 14) (size 15 to 20)
#    0.000    0.800    4.000    3.600    8.400    3.200 
#    3.600    0.000    0.000    0.000    0.000    0.000 
#    0.000    0.000    0.000    0.000    0.000    0.000 
#
# Total GULP energy -111549.219698 kJ/mol
# GULP energy per Si atom -5577.460985 kJ/mol
# Density = 2.657769 g / cm^3
# Si number density = 26.638323 Si / 1000 Ang^3
#
#
#
# Elastic Constant Matrix: (Units=GPa)
#
#
# Indices 1 2 3 4 5 6 
#
# 1 79.0051 42.2837 55.7325 0.0000 -9.4703 0.0000
# 2 42.2837 210.5602 77.5877 0.0000 -6.5644 0.0000
# 3 55.7325 77.5877 132.2300 0.0000 -36.2302 0.0000
# 4 0.0000 0.0000 0.0000 44.5994 0.0000 -3.1083
# 5 -9.4703 -6.5644 -36.2302 0.0000 43.6039 0.0000
# 6 0.0000 0.0000 0.0000 -3.1083 0.0000 46.1550
#
#
#
# Elastic Compliance Matrix: (Units=1/GPa)
#
#
# Indices 1 2 3 4 5 6 
#
# 1 0.018449 -0.000820 -0.008067 0.000000 -0.002820 0.000000
# 2 -0.000820 0.006341 -0.004094 0.000000 -0.002625 0.000000
# 3 -0.008067 -0.004094 0.016464 0.000000 0.011312 0.000000
# 4 0.000000 0.000000 0.000000 0.022528 0.000000 0.001517
# 5 -0.002820 -0.002625 0.011312 0.000000 0.031325 0.000000
# 6 0.000000 0.000000 0.000000 0.001517 0.000000 0.021768
#
#
# Mechanical properties :
#
#
# Convention : Reuss Voigt Hill
#
# Bulk Modulus (GPa) = 65.39722 85.88922 75.64322
# Shear Modulus (GPa) = 33.79850 43.28443 38.54147
#
# Velocity S-wave (km/s) = 3.56588 4.03537 3.80787
# Velocity P-wave (km/s) = 6.44650 7.35017 6.91311
#
# Compressibility (1/GPa) = 0.01529117
#
# Stress axis : x y z
#
# Youngs Moduli (GPa) = 54.20257 157.71123 60.73691
#
# Poissons Ratio (x) = 0.12934 0.48999
# Poissons Ratio (y) = 0.04445 0.24867
# Poissons Ratio (z) = 0.43727 0.64569
#
# Static dielectric constant tensor:
#      x y z
#    x 2.261390 0.000000 0.116430 
#    y 0.000000 2.231420 0.000000 
#    z 0.116430 0.000000 2.134960 
# 
# From -- ./inp_files/28251.got.cif
#   From: 2010.05.17/outbox.cif.g08.bks.cpg/sg14_15_cif.got.tgz:28251.got - 2010.06.03 17:49:19.
