data_PCOD9252277
_publ_section_title
;
Structure prediction by ZEFSAII (Michael W. Deem and Ramdas Pophale) SiO2 
 PCOD9252277
Probable space group: P 21/C
;
_chemical_formula_sum "Si O2"
_cell_formula_units_Z 20
_cell_length_a 13.727253
_cell_length_b 7.986891
_cell_length_c 14.714369
_cell_angle_alpha 90.000000
_cell_angle_beta 31.797592
_cell_angle_gamma 90.000000
_cell_volume 850.056484
_symmetry_space_group_name_H-M "P 21/C"
_symmetry_group_IT_number 14
_symmetry_cell_setting 'monoclinic'
loop_
_space_group_symop_operation_xyz
x,y,z
-x,1/2+y,1/2-z
-x,-y,-z
x,1/2-y,1/2+z
loop_
_atom_site_type_symbol
_atom_site_label
_atom_site_fract_x
_atom_site_fract_y
_atom_site_fract_z
Si Si1 0.787314 0.911183 0.826941
Si Si2 0.379432 0.660590 0.656233
Si Si3 0.050356 0.051259 0.758011
Si Si4 0.397588 0.684923 0.942927
Si Si5 0.285699 0.933472 0.868405
O O1 0.886829 0.733788 0.758671
O O2 0.739946 0.994279 0.767660
O O3 0.920419 0.043162 0.771904
O O4 0.583487 0.880666 0.033033
O O5 0.423323 0.733856 0.521415
O O6 0.274569 0.798432 0.796735
O O7 0.909157 0.987705 0.947178
O O8 0.225628 0.940281 0.594662
O O9 0.357613 0.819080 0.895584
O O10 0.571193 0.573813 0.775563
#
# Coordination Sequence:
#
# PCOD9252277 Si02
#       5
#     4   4   4   4   4
#     4  11  23  46  75 101 157 185 236 312 353 422
#     4  11  25  48  72 111 149 193 245 304 358 441
#     4  12  24  48  72 107 146 192 241 306 354 436
#     4  12  27  48  72 108 153 187 250 305 358 439
#     4  12  26  44  77 106 142 208 235 297 386 418
#
# _framework density 23.527849
#
# number of rings (size 3 to 8) (size 9 to 14) (size 15 to 20)
#    0.000    0.400    6.000    1.800    2.800    1.600 
#    0.000    0.000    0.000    0.000    0.000    0.000 
#    0.000    0.000    0.000    0.000    0.000    0.000 
#
# Total GULP energy -111843.940144 kJ/mol
# GULP energy per Si atom -5592.197007 kJ/mol
# Density = 2.347430 g / cm^3
# Si number density = 23.527849 Si / 1000 Ang^3
#
#
#
# Elastic Constant Matrix: (Units=GPa)
#
#
# Indices 1 2 3 4 5 6 
#
# 1 85.5740 37.5497 32.8930 0.0000 3.2816 0.0000
# 2 37.5497 83.7621 21.4022 0.0000 -4.4690 0.0000
# 3 32.8930 21.4022 114.8219 0.0000 -9.1415 0.0000
# 4 0.0000 0.0000 0.0000 38.3965 0.0000 -4.9034
# 5 3.2816 -4.4690 -9.1415 0.0000 44.9094 0.0000
# 6 0.0000 0.0000 0.0000 -4.9034 0.0000 40.4996
#
#
#
# Elastic Compliance Matrix: (Units=1/GPa)
#
#
# Indices 1 2 3 4 5 6 
#
# 1 0.015957 -0.006372 -0.003585 0.000000 -0.002530 0.000000
# 2 -0.006372 0.015108 -0.000847 0.000000 0.001797 0.000000
# 3 -0.003585 -0.000847 0.010071 0.000000 0.002228 0.000000
# 4 0.000000 0.000000 0.000000 0.026453 0.000000 0.003203
# 5 -0.002530 0.001797 0.002228 0.000000 0.023084 0.000000
# 6 0.000000 0.000000 0.000000 0.003203 0.000000 0.025079
#
#
# Mechanical properties :
#
#
# Convention : Reuss Voigt Hill
#
# Bulk Modulus (GPa) = 51.21197 51.98310 51.59753
# Shear Modulus (GPa) = 34.75344 37.58196 36.16770
#
# Velocity S-wave (km/s) = 3.84750 4.00101 3.92500
# Velocity P-wave (km/s) = 6.44604 6.59442 6.52065
#
# Compressibility (1/GPa) = 0.01952669
#
# Stress axis : x y z
#
# Youngs Moduli (GPa) = 62.66877 66.19176 99.29109
#
# Poissons Ratio (x) = 0.42180 0.35594
# Poissons Ratio (y) = 0.39935 0.08415
# Poissons Ratio (z) = 0.22466 0.05610
#
# Static dielectric constant tensor:
#      x y z
#    x 1.946940 0.000000 -0.019860 
#    y 0.000000 1.920500 0.000000 
#    z -0.019860 0.000000 1.881950 
# 
# From -- ./inp_files/58709.got.cif
#   From: 2010.05.17/outbox.cif.g08.bks.cpg/sg14_30_cif.got.tgz:58709.got - 2010.06.03 17:49:19.
