data_PCOD9252244
_publ_section_title
;
Structure prediction by ZEFSAII (Michael W. Deem and Ramdas Pophale) SiO2 
 PCOD9252244
Probable space group: P 21/C
;
_chemical_formula_sum "Si O2"
_cell_formula_units_Z 24
_cell_length_a 18.425257
_cell_length_b 10.558238
_cell_length_c 12.602377
_cell_angle_alpha 90.000000
_cell_angle_beta 152.840572
_cell_angle_gamma 90.000000
_cell_volume 1119.097202
_symmetry_space_group_name_H-M "P 21/C"
_symmetry_group_IT_number 14
_symmetry_cell_setting 'monoclinic'
loop_
_space_group_symop_operation_xyz
x,y,z
-x,1/2+y,1/2-z
-x,-y,-z
x,1/2-y,1/2+z
loop_
_atom_site_type_symbol
_atom_site_label
_atom_site_fract_x
_atom_site_fract_y
_atom_site_fract_z
Si Si1 0.054179 0.627339 0.626778
Si Si2 0.714968 0.232102 0.218272
Si Si3 0.768911 0.686032 0.774080
Si Si4 0.512335 0.111476 0.599871
Si Si5 0.806171 0.030690 0.479627
Si Si6 0.538118 0.017885 0.874176
O O1 0.213221 0.678466 0.777542
O O2 0.000000 0.500000 0.500000
O O3 0.926723 0.739213 0.446260
O O4 0.082160 0.581051 0.782738
O O5 0.663040 0.309270 0.254501
O O6 0.832119 0.125195 0.415175
O O7 0.574577 0.147797 0.985242
O O8 0.637613 0.796333 0.609983
O O9 0.813627 0.609875 0.940049
O O10 0.680727 0.581242 0.584592
O O11 0.500000 0.000000 0.500000
O O12 0.524322 0.056053 0.733515
O O13 0.625637 0.037315 0.291460
#
# Coordination Sequence:
#
# PCOD9252244 Si02
#       6
#     4   4   4   4   4   4
#     4  12  28  46  67 108 151 185 229 300 360 425
#     4  11  23  46  69 102 142 185 241 286 354 420
#     4  11  25  48  72 104 143 187 237 290 359 419
#     4  12  24  40  73 108 134 185 241 287 348 421
#     4  11  23  47  75  99 143 191 234 301 352 411
#     4  11  23  45  78 103 139 188 240 302 342 413
#
# _framework density 21.445858999999999
#
# number of rings (size 3 to 8) (size 9 to 14) (size 15 to 20)
#    0.000    0.667    3.333    5.000    4.667    4.000 
#    6.000    0.000    0.000    0.000    0.000    0.000 
#    0.000    0.000    0.000    0.000    0.000    0.000 
#
# Total GULP energy -134010.295310 kJ/mol
# GULP energy per Si atom -5583.762305 kJ/mol
# Density = 2.139705 g / cm^3
# Si number density = 21.445859 Si / 1000 Ang^3
#
#
#
# Elastic Constant Matrix: (Units=GPa)
#
#
# Indices 1 2 3 4 5 6 
#
# 1 81.5371 49.8892 18.7486 0.0000 -18.4305 0.0000
# 2 49.8892 131.1248 36.6670 0.0000 -8.2444 0.0000
# 3 18.7486 36.6670 45.2315 0.0000 -8.3701 0.0000
# 4 0.0000 0.0000 0.0000 20.1055 0.0000 -5.4554
# 5 -18.4305 -8.2444 -8.3701 0.0000 39.9826 0.0000
# 6 0.0000 0.0000 0.0000 -5.4554 0.0000 44.2094
#
#
#
# Elastic Compliance Matrix: (Units=1/GPa)
#
#
# Indices 1 2 3 4 5 6 
#
# 1 0.017714 -0.005964 -0.001273 0.000000 0.006669 0.000000
# 2 -0.005964 0.011875 -0.007501 0.000000 -0.001871 0.000000
# 3 -0.001273 -0.007501 0.029463 0.000000 0.004034 0.000000
# 4 0.000000 0.000000 0.000000 0.051461 0.000000 0.006350
# 5 0.006669 -0.001871 0.004034 0.000000 0.028544 0.000000
# 6 0.000000 0.000000 0.000000 0.006350 0.000000 0.023403
#
#
# Mechanical properties :
#
#
# Convention : Reuss Voigt Hill
#
# Bulk Modulus (GPa) = 33.81148 52.05589 42.93369
# Shear Modulus (GPa) = 24.77749 31.03206 27.90478
#
# Velocity S-wave (km/s) = 3.40273 3.80807 3.61109
# Velocity P-wave (km/s) = 5.58912 6.60765 6.11961
#
# Compressibility (1/GPa) = 0.02957575
#
# Stress axis : x y z
#
# Youngs Moduli (GPa) = 56.45293 84.20766 33.94036
#
# Poissons Ratio (x) = 0.50223 0.04322
# Poissons Ratio (y) = 0.33670 0.25458
# Poissons Ratio (z) = 0.07189 0.63163
#
# Static dielectric constant tensor:
#      x y z
#    x 1.800980 0.000000 -0.003890 
#    y 0.000000 1.833610 0.000000 
#    z -0.003890 0.000000 1.826240 
# 
# From -- ./inp_files/33968.got.cif
#   From: 2010.05.17/outbox.cif.g08.bks.cpg/sg14_17_cif.got.tgz:33968.got - 2010.06.03 17:49:19.
