data_PCOD9252465
_publ_section_title
;
Structure prediction by ZEFSAII (Michael W. Deem and Ramdas Pophale) SiO2 
 PCOD9252465
Probable space group: P 21/C
;
_chemical_formula_sum "Si O2"
_cell_formula_units_Z 20
_cell_length_a 4.839004
_cell_length_b 15.500035
_cell_length_c 10.610818
_cell_angle_alpha 90.000000
_cell_angle_beta 90.136562
_cell_angle_gamma 90.000000
_cell_volume 795.859293
_symmetry_space_group_name_H-M "P 21/C"
_symmetry_group_IT_number 14
_symmetry_cell_setting 'monoclinic'
loop_
_space_group_symop_operation_xyz
x,y,z
-x,1/2+y,1/2-z
-x,-y,-z
x,1/2-y,1/2+z
loop_
_atom_site_type_symbol
_atom_site_label
_atom_site_fract_x
_atom_site_fract_y
_atom_site_fract_z
Si Si1 0.836137 0.413885 0.545878
Si Si2 0.443669 0.011164 0.256286
Si Si3 0.373696 0.673574 0.710120
Si Si4 0.109380 0.215626 0.241281
Si Si5 0.932655 0.063950 0.388289
O O1 0.585080 0.448461 0.633321
O O2 0.701100 0.360705 0.429919
O O3 0.027611 0.345473 0.623197
O O4 0.000000 0.500000 0.500000
O O5 0.507014 0.911090 0.270253
O O6 0.118102 0.021547 0.275531
O O7 0.606654 0.060004 0.366242
O O8 0.085609 0.701672 0.769591
O O9 0.581518 0.752212 0.735996
O O10 0.020362 0.162807 0.368051
O O11 0.000000 0.000000 0.500000
#
# Coordination Sequence:
#
# PCOD9252465 Si02
#       5
#     4   4   4   4   4
#     4  11  25  49  77 104 146 202 244 291 365 451
#     4  11  24  44  70 100 133 186 245 277 338 446
#     4  12  25  43  70 106 142 178 230 311 362 403
#     4  11  26  43  66 109 142 177 243 300 358 436
#     4  11  24  45  67  93 138 189 229 281 349 424
#
# _framework density 25.130068999999999
#
# number of rings (size 3 to 8) (size 9 to 14) (size 15 to 20)
#    0.000    0.800    0.000    8.400    0.000   11.200 
#    0.000    0.000    0.000    0.000    0.000    0.000 
#    0.000    0.000    0.000    0.000    0.000    0.000 
#
# Total GULP energy -111730.813496 kJ/mol
# GULP energy per Si atom -5586.540675 kJ/mol
# Density = 2.507287 g / cm^3
# Si number density = 25.130069 Si / 1000 Ang^3
#
#
#
# Elastic Constant Matrix: (Units=GPa)
#
#
# Indices 1 2 3 4 5 6 
#
# 1 120.9196 40.2193 21.5748 0.0000 4.0304 0.0000
# 2 40.2193 117.8949 13.8867 0.0000 2.8595 0.0000
# 3 21.5748 13.8867 60.2712 0.0000 -7.3066 0.0000
# 4 0.0000 0.0000 0.0000 40.4141 0.0000 -4.7033
# 5 4.0304 2.8595 -7.3066 0.0000 27.0952 0.0000
# 6 0.0000 0.0000 0.0000 -4.7033 0.0000 63.4682
#
#
#
# Elastic Compliance Matrix: (Units=1/GPa)
#
#
# Indices 1 2 3 4 5 6 
#
# 1 0.009871 -0.002955 -0.003094 0.000000 -0.001991 0.000000
# 2 -0.002955 0.009663 -0.001281 0.000000 -0.000926 0.000000
# 3 -0.003094 -0.001281 0.018677 0.000000 0.005632 0.000000
# 4 0.000000 0.000000 0.000000 0.024959 0.000000 0.001850
# 5 -0.001991 -0.000926 0.005632 0.000000 0.038819 0.000000
# 6 0.000000 0.000000 0.000000 0.001850 0.000000 0.015893
#
#
# Mechanical properties :
#
#
# Convention : Reuss Voigt Hill
#
# Bulk Modulus (GPa) = 42.45911 50.04969 46.25440
# Shear Modulus (GPa) = 35.61412 41.08915 38.35163
#
# Velocity S-wave (km/s) = 3.76864 4.04797 3.91080
# Velocity P-wave (km/s) = 5.98910 6.46588 6.23205
#
# Compressibility (1/GPa) = 0.02355207
#
# Stress axis : x y z
#
# Youngs Moduli (GPa) = 101.30525 103.48236 53.54133
#
# Poissons Ratio (x) = 0.30577 0.16566
# Poissons Ratio (y) = 0.29933 0.06859
# Poissons Ratio (z) = 0.31345 0.13256
#
# Static dielectric constant tensor:
#      x y z
#    x 1.977230 0.000000 0.055310 
#    y 0.000000 2.027960 0.000000 
#    z 0.055310 0.000000 2.076010 
# 
# From -- ./inp_files/20745.got.cif
#   From: 2010.05.17/outbox.cif.g08.bks.cpg/sg14_11_cif.got.tgz:20745.got - 2010.06.03 17:49:19.
