data_PCOD9252767
_publ_section_title
;
Structure prediction by ZEFSAII (Michael W. Deem and Ramdas Pophale) SiO2 
 PCOD9252767
Probable space group: P 21/C
;
_chemical_formula_sum "Si O2"
_cell_formula_units_Z 22
_cell_length_a 4.734710
_cell_length_b 17.980683
_cell_length_c 9.160971
_cell_angle_alpha 90.000000
_cell_angle_beta 103.479090
_cell_angle_gamma 90.000000
_cell_volume 758.421460
_symmetry_space_group_name_H-M "P 21/C"
_symmetry_group_IT_number 14
_symmetry_cell_setting 'monoclinic'
loop_
_space_group_symop_operation_xyz
x,y,z
-x,1/2+y,1/2-z
-x,-y,-z
x,1/2-y,1/2+z
loop_
_atom_site_type_symbol
_atom_site_label
_atom_site_fract_x
_atom_site_fract_y
_atom_site_fract_z
Si Si1 0.906125 0.965401 0.773086
Si Si2 0.500000 0.500000 0.500000
Si Si3 0.432613 0.333891 0.876453
Si Si4 0.223516 0.238582 0.092550
Si Si5 0.081791 0.880526 0.341454
Si Si6 0.284787 0.629022 0.537215
O O1 0.819874 0.894617 0.668135
O O2 0.992477 0.033053 0.680928
O O3 0.163418 0.945638 0.921429
O O4 0.634661 0.987931 0.841486
O O5 0.600081 0.592433 0.552878
O O6 0.462032 0.306391 0.713880
O O7 0.338599 0.258969 0.947796
O O8 0.688262 0.368452 0.999752
O O9 0.156323 0.318883 0.151448
O O10 0.924268 0.192654 0.051886
O O11 0.222346 0.862877 0.200577
#
# Coordination Sequence:
#
# PCOD9252767 Si02
#       6
#     4   2   4   4   4   4
#     4   9  22  45  66 107 135 187 231 289 351 424
#     4   8  20  40  76  94 140 180 236 284 342 434
#     4  11  26  45  70 101 145 179 244 292 357 422
#     4  11  25  46  67 103 141 190 236 292 356 428
#     4  12  24  41  72 103 144 184 234 299 352 427
#     4   9  21  44  66 103 135 185 235 279 355 416
#
# _framework density 29.007618000000001
#
# number of rings (size 3 to 8) (size 9 to 14) (size 15 to 20)
#    1.091    0.727    1.818    1.091    5.091    0.727 
#    3.273    0.000    0.000    0.000    0.000    0.000 
#    0.000    0.000    0.000    0.000    0.000    0.000 
#
# Total GULP energy -122923.465389 kJ/mol
# GULP energy per Si atom -5587.430245 kJ/mol
# Density = 2.894160 g / cm^3
# Si number density = 29.007618 Si / 1000 Ang^3
#
#
#
# Elastic Constant Matrix: (Units=GPa)
#
#
# Indices 1 2 3 4 5 6 
#
# 1 125.1242 29.3053 57.1952 0.0000 10.2981 0.0000
# 2 29.3053 119.9442 56.1423 0.0000 35.6935 0.0000
# 3 57.1952 56.1423 157.6459 0.0000 32.8325 0.0000
# 4 0.0000 0.0000 0.0000 77.9744 0.0000 3.1979
# 5 10.2981 35.6935 32.8325 0.0000 54.2449 0.0000
# 6 0.0000 0.0000 0.0000 3.1979 0.0000 49.5424
#
#
#
# Elastic Compliance Matrix: (Units=1/GPa)
#
#
# Indices 1 2 3 4 5 6 
#
# 1 0.009687 -0.001076 -0.003313 0.000000 0.000875 0.000000
# 2 -0.001076 0.011509 -0.002487 0.000000 -0.005863 0.000000
# 3 -0.003313 -0.002487 0.009107 0.000000 -0.003247 0.000000
# 4 0.000000 0.000000 0.000000 0.012859 0.000000 -0.000830
# 5 0.000875 -0.005863 -0.003247 0.000000 0.024092 0.000000
# 6 0.000000 0.000000 0.000000 -0.000830 0.000000 0.020238
#
#
# Mechanical properties :
#
#
# Convention : Reuss Voigt Hill
#
# Bulk Modulus (GPa) = 60.42275 76.44443 68.43359
# Shear Modulus (GPa) = 46.83304 53.69045 50.26174
#
# Velocity S-wave (km/s) = 4.02245 4.30689 4.16710
# Velocity P-wave (km/s) = 6.51527 7.15142 6.84074
#
# Compressibility (1/GPa) = 0.01655006
#
# Stress axis : x y z
#
# Youngs Moduli (GPa) = 103.23488 86.88739 109.80104
#
# Poissons Ratio (x) = 0.09350 0.36380
# Poissons Ratio (y) = 0.11109 0.27310
# Poissons Ratio (z) = 0.34205 0.21611
#
# Static dielectric constant tensor:
#      x y z
#    x 2.325820 0.000000 -0.003030 
#    y 0.000000 2.617770 0.000000 
#    z -0.003030 0.000000 2.202480 
# 
# From -- ./inp_files/5982.got.cif
#   From: 2010.05.17/outbox.cif.g08.bks.cpg/sg14_3_cif.got.tgz:5982.got - 2010.06.03 17:49:19.
