data_PCOD9252592
_publ_section_title
;
Structure prediction by ZEFSAII (Michael W. Deem and Ramdas Pophale) SiO2 
 PCOD9252592
Probable space group: P 21/C
;
_chemical_formula_sum "Si O2"
_cell_formula_units_Z 16
_cell_length_a 16.914113
_cell_length_b 7.204817
_cell_length_c 13.290106
_cell_angle_alpha 90.000000
_cell_angle_beta 22.475445
_cell_angle_gamma 90.000000
_cell_volume 619.142580
_symmetry_space_group_name_H-M "P 21/C"
_symmetry_group_IT_number 14
_symmetry_cell_setting 'monoclinic'
loop_
_space_group_symop_operation_xyz
x,y,z
-x,1/2+y,1/2-z
-x,-y,-z
x,1/2-y,1/2+z
loop_
_atom_site_type_symbol
_atom_site_label
_atom_site_fract_x
_atom_site_fract_y
_atom_site_fract_z
Si Si1 0.441341 0.831525 0.828555
Si Si2 0.120446 0.691546 0.551864
Si Si3 0.787139 0.814650 0.811823
Si Si4 0.742745 0.773537 0.137631
O O1 0.649890 0.855701 0.517257
O O2 0.527758 0.750288 0.831314
O O3 0.297702 0.724426 0.915689
O O4 0.308847 0.009547 0.017023
O O5 0.201877 0.491242 0.421945
O O6 0.023720 0.791652 0.568356
O O7 0.924260 0.683245 0.857336
O O8 0.749891 0.815831 0.738194
#
# Coordination Sequence:
#
# PCOD9252592 Si02
#       4
#     4   4   4   4
#     4  11  24  47  69 108 143 183 239 291 343 427
#     4  11  24  47  69 108 143 183 239 291 343 427
#     4  11  26  47  75 105 143 189 234 291 356 414
#     4  11  26  47  75 105 143 189 234 291 356 414
#
# _framework density 25.842191
#
# number of rings (size 3 to 8) (size 9 to 14) (size 15 to 20)
#    0.000    1.000    5.000    1.500    7.000    4.000 
#    0.000    0.000    0.000    0.000    0.000    0.000 
#    0.000    0.000    0.000    0.000    0.000    0.000 
#
# Total GULP energy -89471.335764 kJ/mol
# GULP energy per Si atom -5591.958485 kJ/mol
# Density = 2.578337 g / cm^3
# Si number density = 25.842191 Si / 1000 Ang^3
#
#
#
# Elastic Constant Matrix: (Units=GPa)
#
#
# Indices 1 2 3 4 5 6 
#
# 1 206.0557 -0.4671 43.5976 0.0000 -52.3894 0.0000
# 2 -0.4671 85.1398 18.0479 0.0000 -26.5819 0.0000
# 3 43.5976 18.0479 66.7281 0.0000 -40.3855 0.0000
# 4 0.0000 0.0000 0.0000 44.0615 0.0000 -6.9647
# 5 -52.3894 -26.5819 -40.3855 0.0000 63.9485 0.0000
# 6 0.0000 0.0000 0.0000 -6.9647 0.0000 33.3162
#
#
#
# Elastic Compliance Matrix: (Units=1/GPa)
#
#
# Indices 1 2 3 4 5 6 
#
# 1 0.006511 0.001984 -0.001721 0.000000 0.005072 0.000000
# 2 0.001984 0.014109 -0.000937 0.000000 0.006898 0.000000
# 3 -0.001721 -0.000937 0.024726 0.000000 0.013815 0.000000
# 4 0.000000 0.000000 0.000000 0.023471 0.000000 0.004907
# 5 0.005072 0.006898 0.013815 0.000000 0.031385 0.000000
# 6 0.000000 0.000000 0.000000 0.004907 0.000000 0.031041
#
#
# Mechanical properties :
#
#
# Convention : Reuss Voigt Hill
#
# Bulk Modulus (GPa) = 22.72882 53.36449 38.04665
# Shear Modulus (GPa) = 33.95416 48.04825 41.00120
#
# Velocity S-wave (km/s) = 3.62871 4.31663 3.98754
# Velocity P-wave (km/s) = 5.13528 6.74829 5.99627
#
# Compressibility (1/GPa) = 0.04399701
#
# Stress axis : x y z
#
# Youngs Moduli (GPa) = 153.57908 70.87830 40.44389
#
# Poissons Ratio (x) = -0.14063 0.06961
# Poissons Ratio (y) = -0.30473 0.03791
# Poissons Ratio (z) = 0.26432 0.06644
#
# Static dielectric constant tensor:
#      x y z
#    x 2.036330 0.000000 -0.059550 
#    y 0.000000 2.182050 0.000000 
#    z -0.059550 0.000000 2.025850 
# 
# From -- ./inp_files/48348.got.cif
#   From: 2010.05.17/outbox.cif.g08.bks.cpg/sg14_25_cif.got.tgz:48348.got - 2010.06.03 17:49:19.
