data_PCOD9252407
_publ_section_title
;
Structure prediction by ZEFSAII (Michael W. Deem and Ramdas Pophale) SiO2 
 PCOD9252407
Probable space group: P 21/C
;
_chemical_formula_sum "Si O2"
_cell_formula_units_Z 24
_cell_length_a 10.825448
_cell_length_b 8.680198
_cell_length_c 11.230725
_cell_angle_alpha 90.000000
_cell_angle_beta 103.833488
_cell_angle_gamma 90.000000
_cell_volume 1024.708081
_symmetry_space_group_name_H-M "P 21/C"
_symmetry_group_IT_number 14
_symmetry_cell_setting 'monoclinic'
loop_
_space_group_symop_operation_xyz
x,y,z
-x,1/2+y,1/2-z
-x,-y,-z
x,1/2-y,1/2+z
loop_
_atom_site_type_symbol
_atom_site_label
_atom_site_fract_x
_atom_site_fract_y
_atom_site_fract_z
Si Si1 0.217594 0.589977 0.172610
Si Si2 0.959986 0.822272 0.341018
Si Si3 0.571245 0.136269 0.084252
Si Si4 0.199887 0.827576 0.995298
Si Si5 0.604656 0.892448 0.459554
Si Si6 0.163505 0.191676 0.941940
O O1 0.086617 0.498554 0.161446
O O2 0.316772 0.584968 0.302683
O O3 0.298733 0.494718 0.093905
O O4 0.184419 0.762027 0.124087
O O5 0.894406 0.748009 0.444530
O O6 0.912534 0.778489 0.198070
O O7 0.105620 0.775255 0.393356
O O8 0.654735 0.211457 0.999920
O O9 0.480491 0.260888 0.125563
O O10 0.500000 0.000000 0.000000
O O11 0.175413 0.007642 0.969314
O O12 0.702295 0.779180 0.551859
O O13 0.500000 0.000000 0.500000
#
# Coordination Sequence:
#
# PCOD9252407 Si02
#       6
#     4   4   4   4   4   4
#     4  11  26  44  71 103 143 194 238 316 364 453
#     4  11  26  48  73 107 148 192 253 308 380 444
#     4  12  25  46  69 103 147 184 247 301 377 440
#     4  12  25  46  73 104 146 194 243 307 377 441
#     4  11  24  43  69 102 139 188 245 296 375 442
#     4  11  26  49  74 108 151 197 249 318 369 456
#
# _framework density 23.421305
#
# number of rings (size 3 to 8) (size 9 to 14) (size 15 to 20)
#    0.000    0.667    5.000    1.000    4.667    6.667 
#    0.000    0.000    0.000    0.000    0.000    0.000 
#    0.000    0.000    0.000    0.000    0.000    0.000 
#
# Total GULP energy -133802.866755 kJ/mol
# GULP energy per Si atom -5575.119448 kJ/mol
# Density = 2.336800 g / cm^3
# Si number density = 23.421305 Si / 1000 Ang^3
#
#
#
# Elastic Constant Matrix: (Units=GPa)
#
#
# Indices 1 2 3 4 5 6 
#
# 1 111.1756 53.3294 25.2277 0.0000 9.5770 0.0000
# 2 53.3294 125.1627 63.1649 0.0000 10.5298 0.0000
# 3 25.2277 63.1649 127.0601 0.0000 10.3907 0.0000
# 4 0.0000 0.0000 0.0000 26.6572 0.0000 7.3529
# 5 9.5770 10.5298 10.3907 0.0000 32.5114 0.0000
# 6 0.0000 0.0000 0.0000 7.3529 0.0000 45.8627
#
#
#
# Elastic Compliance Matrix: (Units=1/GPa)
#
#
# Indices 1 2 3 4 5 6 
#
# 1 0.011420 -0.004860 0.000303 0.000000 -0.001887 0.000000
# 2 -0.004860 0.012838 -0.005334 0.000000 -0.001022 0.000000
# 3 0.000303 -0.005334 0.010605 0.000000 -0.001751 0.000000
# 4 0.000000 0.000000 0.000000 0.039249 0.000000 -0.006293
# 5 -0.001887 -0.001022 -0.001751 0.000000 0.032205 0.000000
# 6 0.000000 0.000000 0.000000 -0.006293 0.000000 0.022813
#
#
# Mechanical properties :
#
#
# Convention : Reuss Voigt Hill
#
# Bulk Modulus (GPa) = 66.30702 71.87139 69.08920
# Shear Modulus (GPa) = 32.48067 35.78468 34.13267
#
# Velocity S-wave (km/s) = 3.72802 3.91304 3.82165
# Velocity P-wave (km/s) = 6.84856 7.15323 7.00256
#
# Compressibility (1/GPa) = 0.01508136
#
# Stress axis : x y z
#
# Youngs Moduli (GPa) = 87.56723 77.89427 94.29664
#
# Poissons Ratio (x) = 0.37856 -0.02856
# Poissons Ratio (y) = 0.42557 0.50294
# Poissons Ratio (z) = -0.02652 0.41546
#
# Static dielectric constant tensor:
#      x y z
#    x 2.015250 0.000000 -0.125950 
#    y 0.000000 1.967930 0.000000 
#    z -0.125950 0.000000 1.994080 
# 
# From -- ./inp_files/28196.got.cif
#   From: 2010.05.17/outbox.cif.g08.bks.cpg/sg14_15_cif.got.tgz:28196.got - 2010.06.03 17:49:19.
