data_PCOD9252399
_publ_section_title
;
Structure prediction by ZEFSAII (Michael W. Deem and Ramdas Pophale) SiO2 
 PCOD9252399
Probable space group: P 21/C
;
_chemical_formula_sum "Si O2"
_cell_formula_units_Z 32
_cell_length_a 14.055815
_cell_length_b 8.037844
_cell_length_c 13.291186
_cell_angle_alpha 90.000000
_cell_angle_beta 62.421193
_cell_angle_gamma 90.000000
_cell_volume 1330.996102
_symmetry_space_group_name_H-M "P 21/C"
_symmetry_group_IT_number 14
_symmetry_cell_setting 'monoclinic'
loop_
_space_group_symop_operation_xyz
x,y,z
-x,1/2+y,1/2-z
-x,-y,-z
x,1/2-y,1/2+z
loop_
_atom_site_type_symbol
_atom_site_label
_atom_site_fract_x
_atom_site_fract_y
_atom_site_fract_z
Si Si1 0.046931 0.728963 0.869438
Si Si2 0.152480 0.244782 0.885883
Si Si3 0.491632 0.936402 0.667814
Si Si4 0.704031 0.413569 0.432557
Si Si5 0.333559 0.021526 0.246360
Si Si6 0.090146 0.104319 0.225327
Si Si7 0.523675 0.767214 0.959136
Si Si8 0.252660 0.887936 0.872842
O O1 0.059539 0.550645 0.810896
O O2 0.154029 0.796150 0.868227
O O3 0.004326 0.851664 0.803474
O O4 0.951861 0.728384 0.996809
O O5 0.233013 0.401158 0.852566
O O6 0.116434 0.243381 0.786927
O O7 0.216784 0.081198 0.885467
O O8 0.571135 0.981383 0.720428
O O9 0.530035 0.788565 0.573024
O O10 0.374011 0.892900 0.769001
O O11 0.490944 0.099812 0.598330
O O12 0.700117 0.373990 0.313976
O O13 0.799945 0.551001 0.384525
O O14 0.575146 0.393470 0.512747
O O15 0.740834 0.317718 0.515828
O O16 0.372186 0.150498 0.140571
#
# Coordination Sequence:
#
# PCOD9252399 Si02
#       8
#     4   4   4   4   4   4   4   4
#     4  12  26  47  75 104 144 189 239 302 363 433
#     4  11  25  46  72 103 138 192 240 298 359 429
#     4  11  26  43  67 107 140 187 233 299 359 429
#     4  11  25  42  71 102 134 189 233 289 357 437
#     4  11  25  43  74  98 146 182 240 288 361 428
#     4  11  26  47  71 108 140 183 247 296 365 429
#     4  11  24  43  67 101 143 181 234 286 358 431
#     4  12  24  45  73 102 144 188 240 294 366 431
#
# _framework density 24.042144
#
# number of rings (size 3 to 8) (size 9 to 14) (size 15 to 20)
#    0.000    0.750    3.750    2.625    5.250    2.000 
#    6.750    0.000    0.000    0.000    0.000    0.000 
#    0.000    0.000    0.000    0.000    0.000    0.000 
#
# Total GULP energy -178468.299895 kJ/mol
# GULP energy per Si atom -5577.134372 kJ/mol
# Density = 2.398742 g / cm^3
# Si number density = 24.042144 Si / 1000 Ang^3
#
#
#
# Elastic Constant Matrix: (Units=GPa)
#
#
# Indices 1 2 3 4 5 6 
#
# 1 174.7058 20.4899 76.3795 0.0000 27.9613 0.0000
# 2 20.4899 54.9722 30.6042 0.0000 3.6747 0.0000
# 3 76.3795 30.6042 146.5770 0.0000 5.0898 0.0000
# 4 0.0000 0.0000 0.0000 10.4279 0.0000 -15.0425
# 5 27.9613 3.6747 5.0898 0.0000 50.3827 0.0000
# 6 0.0000 0.0000 0.0000 -15.0425 0.0000 12.1340
#
#
#
# Elastic Compliance Matrix: (Units=1/GPa)
#
#
# Indices 1 2 3 4 5 6 
#
# 1 0.008201 -0.000546 -0.004017 0.000000 -0.004106 0.000000
# 2 -0.000546 0.020678 -0.004005 0.000000 -0.000801 0.000000
# 3 -0.004017 -0.004005 0.009698 0.000000 0.001542 0.000000
# 4 0.000000 0.000000 0.000000 -0.121651 0.000000 -0.150810
# 5 -0.004106 -0.000801 0.001542 0.000000 0.022029 0.000000
# 6 0.000000 0.000000 0.000000 -0.150810 0.000000 -0.104546
#
#
# Mechanical properties :
#
#
# Convention : Reuss Voigt Hill
#
# Bulk Modulus (GPa) = 46.63935 70.13356 58.38646
# Shear Modulus (GPa) = -35.38390 31.17434 -2.10478
#
# Velocity S-wave (km/s) = -3.84049 3.60481 -0.93667
# Velocity P-wave (km/s) = 0.47408 6.82354 4.81331
#
# Compressibility (1/GPa) = 0.02144112
#
# Stress axis : x y z
#
# Youngs Moduli (GPa) = 121.93213 48.36118 103.11139
#
# Poissons Ratio (x) = 0.02641 0.41420
# Poissons Ratio (y) = 0.06658 0.41296
# Poissons Ratio (z) = 0.48980 0.19369
#
# Static dielectric constant tensor:
#      x y z
#    x 1.930480 0.000000 0.028790 
#    y 0.000000 2.066610 0.000000 
#    z 0.028790 0.000000 1.931570 
# 
# From -- ./inp_files/31790.got.cif
#   From: 2010.05.17/outbox.cif.g08.bks.cpg/sg14_16_cif.got.tgz:31790.got - 2010.06.03 17:49:19.
