data_PCOD9252545
_publ_section_title
;
Structure prediction by ZEFSAII (Michael W. Deem and Ramdas Pophale) SiO2 
 PCOD9252545
Probable space group: P 21/C
;
_chemical_formula_sum "Si O2"
_cell_formula_units_Z 20
_cell_length_a 17.356722
_cell_length_b 9.921207
_cell_length_c 18.185509
_cell_angle_alpha 90.000000
_cell_angle_beta 16.474390
_cell_angle_gamma 90.000000
_cell_volume 888.062653
_symmetry_space_group_name_H-M "P 21/C"
_symmetry_group_IT_number 14
_symmetry_cell_setting 'monoclinic'
loop_
_space_group_symop_operation_xyz
x,y,z
-x,1/2+y,1/2-z
-x,-y,-z
x,1/2-y,1/2+z
loop_
_atom_site_type_symbol
_atom_site_label
_atom_site_fract_x
_atom_site_fract_y
_atom_site_fract_z
Si Si1 0.076052 0.637111 0.203882
Si Si2 0.469704 0.928221 0.212773
Si Si3 0.314742 0.875219 0.193519
Si Si4 0.526110 0.392149 0.040413
Si Si5 0.825731 0.806774 0.550338
O O1 0.787129 0.586744 0.438886
O O2 0.998995 0.773079 0.318868
O O3 0.287606 0.636702 0.943681
O O4 0.238030 0.558506 0.120031
O O5 0.371791 0.858154 0.227161
O O6 0.399996 0.086226 0.266913
O O7 0.006241 0.882415 0.446574
O O8 0.405904 0.743433 0.065993
O O9 0.500000 0.000000 0.000000
O O10 0.284804 0.333940 0.313929
O O11 0.500000 0.500000 0.000000
#
# Coordination Sequence:
#
# PCOD9252545 Si02
#       5
#     4   4   4   4   4
#     4  11  27  47  70 110 152 193 246 318 375 443
#     4  12  25  46  77 111 144 194 255 316 379 434
#     4  11  24  45  78 111 146 200 256 311 376 457
#     4  11  26  52  73 108 157 202 249 306 383 468
#     4  11  25  50  74 107 159 192 263 313 375 461
#
# _framework density 22.520931000000001
#
# number of rings (size 3 to 8) (size 9 to 14) (size 15 to 20)
#    0.000    0.800    4.000    1.800    5.600    4.800 
#    7.200    0.000    0.000    0.000    0.000    0.000 
#    0.000    0.000    0.000    0.000    0.000    0.000 
#
# Total GULP energy -111689.607888 kJ/mol
# GULP energy per Si atom -5584.480394 kJ/mol
# Density = 2.246967 g / cm^3
# Si number density = 22.520931 Si / 1000 Ang^3
#
#
#
# Elastic Constant Matrix: (Units=GPa)
#
#
# Indices 1 2 3 4 5 6 
#
# 1 210.7658 31.6323 74.1640 0.0000 -8.7412 0.0000
# 2 31.6323 61.1159 18.7829 0.0000 -4.8308 0.0000
# 3 74.1640 18.7829 123.8705 0.0000 -5.8934 0.0000
# 4 0.0000 0.0000 0.0000 39.1275 0.0000 3.8849
# 5 -8.7412 -4.8308 -5.8934 0.0000 56.5245 0.0000
# 6 0.0000 0.0000 0.0000 3.8849 0.0000 35.6991
#
#
#
# Elastic Compliance Matrix: (Units=1/GPa)
#
#
# Indices 1 2 3 4 5 6 
#
# 1 0.006291 -0.002172 -0.003417 0.000000 0.000431 0.000000
# 2 -0.002172 0.017994 -0.001378 0.000000 0.001058 0.000000
# 3 -0.003417 -0.001378 0.010348 0.000000 0.000433 0.000000
# 4 0.000000 0.000000 0.000000 0.025837 0.000000 -0.002812
# 5 0.000431 0.001058 0.000433 0.000000 0.017894 0.000000
# 6 0.000000 0.000000 0.000000 -0.002812 0.000000 0.028318
#
#
# Mechanical properties :
#
#
# Convention : Reuss Voigt Hill
#
# Bulk Modulus (GPa) = 48.30925 71.65674 59.98299
# Shear Modulus (GPa) = 39.21186 44.34843 41.78015
#
# Velocity S-wave (km/s) = 4.17721 4.44239 4.31184
# Velocity P-wave (km/s) = 6.69050 7.62890 7.17506
#
# Compressibility (1/GPa) = 0.02069997
#
# Stress axis : x y z
#
# Youngs Moduli (GPa) = 158.96658 55.57561 96.63708
#
# Poissons Ratio (x) = 0.12070 0.33016
# Poissons Ratio (y) = 0.34525 0.13314
# Poissons Ratio (z) = 0.54311 0.07657
#
# Static dielectric constant tensor:
#      x y z
#    x 1.932140 0.000000 0.048290 
#    y 0.000000 1.858990 0.000000 
#    z 0.048290 0.000000 2.010180 
# 
# From -- ./inp_files/60284.got.cif
#   From: 2010.05.17/outbox.cif.g08.bks.cpg/sg14_31_cif.got.tgz:60284.got - 2010.06.03 17:49:19.
