data_PCOD9252652
_publ_section_title
;
Structure prediction by ZEFSAII (Michael W. Deem and Ramdas Pophale) SiO2 
 PCOD9252652
Probable space group: P 21/C
;
_chemical_formula_sum "Si O2"
_cell_formula_units_Z 30
_cell_length_a 9.504164
_cell_length_b 19.010352
_cell_length_c 14.369698
_cell_angle_alpha 90.000000
_cell_angle_beta 31.227511
_cell_angle_gamma 90.000000
_cell_volume 1346.009925
_symmetry_space_group_name_H-M "P 21/C"
_symmetry_group_IT_number 14
_symmetry_cell_setting 'monoclinic'
loop_
_space_group_symop_operation_xyz
x,y,z
-x,1/2+y,1/2-z
-x,-y,-z
x,1/2-y,1/2+z
loop_
_atom_site_type_symbol
_atom_site_label
_atom_site_fract_x
_atom_site_fract_y
_atom_site_fract_z
Si Si1 0.237094 0.944466 0.341042
Si Si2 0.981303 0.206907 0.581965
Si Si3 0.069654 0.276766 0.342874
Si Si4 0.695836 0.499895 0.707816
Si Si5 0.041472 0.067538 0.775200
Si Si6 0.432280 0.129733 0.414831
Si Si7 0.333507 0.724322 0.072901
Si Si8 0.500000 0.500000 0.500000
O O1 0.361954 0.964427 0.170805
O O2 0.114546 0.866268 0.408537
O O3 0.481115 0.950786 0.277748
O O4 0.000000 0.000000 0.500000
O O5 0.002186 0.264221 0.488722
O O6 0.284222 0.195769 0.451898
O O7 0.783439 0.224760 0.779980
O O8 0.011069 0.356686 0.343640
O O9 0.885646 0.225690 0.384100
O O10 0.378881 0.259204 0.138199
O O11 0.743588 0.522632 0.786920
O O12 0.588091 0.420780 0.758432
O O13 0.000000 0.500000 0.500000
O O14 0.185465 0.085059 0.596595
O O15 0.758327 0.029541 0.918424
O O16 0.616302 0.153636 0.396923
#
# Coordination Sequence:
#
# PCOD9252652 Si02
#       8
#     4   4   4   4   4   4   4   2
#     4  12  26  46  72 108 146 192 244 307 375 443
#     4  12  26  47  78 105 150 195 245 311 376 444
#     4  11  28  46  75 108 147 192 249 305 369 460
#     4  12  26  43  72 107 145 187 247 306 369 441
#     4  11  24  49  72 106 149 194 248 310 377 443
#     4  11  25  49  68 108 151 185 247 315 365 446
#     4  11  25  49  71 105 144 194 245 301 372 442
#     4  12  22  46  78 102 150 196 244 308 372 456
#
# _framework density 22.288097
#
# number of rings (size 3 to 8) (size 9 to 14) (size 15 to 20)
#    0.000    0.533    6.667    0.400    7.467    3.200 
#    2.400    0.000    0.000    0.000    0.000    0.000 
#    0.000    0.000    0.000    0.000    0.000    0.000 
#
# Total GULP energy -167213.129005 kJ/mol
# GULP energy per Si atom -5573.770967 kJ/mol
# Density = 2.223737 g / cm^3
# Si number density = 22.288097 Si / 1000 Ang^3
#
#
#
# Elastic Constant Matrix: (Units=GPa)
#
#
# Indices 1 2 3 4 5 6 
#
# 1 103.7515 -1.7049 25.9371 0.0000 -0.1721 0.0000
# 2 -1.7049 38.3014 26.5016 0.0000 -0.3073 0.0000
# 3 25.9371 26.5016 91.7999 0.0000 3.2195 0.0000
# 4 0.0000 0.0000 0.0000 36.8438 0.0000 4.9531
# 5 -0.1721 -0.3073 3.2195 0.0000 21.6613 0.0000
# 6 0.0000 0.0000 0.0000 4.9531 0.0000 35.1267
#
#
#
# Elastic Compliance Matrix: (Units=1/GPa)
#
#
# Indices 1 2 3 4 5 6 
#
# 1 0.010687 0.003234 -0.003979 0.000000 0.000722 0.000000
# 2 0.003234 0.033680 -0.010711 0.000000 0.002095 0.000000
# 3 -0.003979 -0.010711 0.015195 0.000000 -0.002442 0.000000
# 4 0.000000 0.000000 0.000000 0.027666 0.000000 -0.003901
# 5 0.000722 0.002095 -0.002442 0.000000 0.046564 0.000000
# 6 0.000000 0.000000 0.000000 -0.003901 0.000000 0.029018
#
#
# Mechanical properties :
#
#
# Convention : Reuss Voigt Hill
#
# Bulk Modulus (GPa) = 27.28262 37.25781 32.27022
# Shear Modulus (GPa) = 25.26042 30.93431 28.09736
#
# Velocity S-wave (km/s) = 3.37019 3.72953 3.55441
# Velocity P-wave (km/s) = 5.23562 5.94127 5.59957
#
# Compressibility (1/GPa) = 0.03665337
#
# Stress axis : x y z
#
# Youngs Moduli (GPa) = 93.56808 29.69089 65.81093
#
# Poissons Ratio (x) = -0.09603 0.26184
# Poissons Ratio (y) = -0.30264 0.70487
# Poissons Ratio (z) = 0.37228 0.31800
#
# Static dielectric constant tensor:
#      x y z
#    x 1.902150 0.000000 0.014080 
#    y 0.000000 1.862660 0.000000 
#    z 0.014080 0.000000 1.826270 
# 
# From -- ./inp_files/42110.got.cif
#   From: 2010.05.17/outbox.cif.g08.bks.cpg/sg14_22_cif.got.tgz:42110.got - 2010.06.03 17:49:19.
