data_PCOD9252173
_publ_section_title
;
Structure prediction by ZEFSAII (Michael W. Deem and Ramdas Pophale) SiO2 
 PCOD9252173
Probable space group: P 21/C
;
_chemical_formula_sum "Si O2"
_cell_formula_units_Z 22
_cell_length_a 12.381061
_cell_length_b 5.053237
_cell_length_c 12.979020
_cell_angle_alpha 90.000000
_cell_angle_beta 92.463947
_cell_angle_gamma 90.000000
_cell_volume 811.274320
_symmetry_space_group_name_H-M "P 21/C"
_symmetry_group_IT_number 14
_symmetry_cell_setting 'monoclinic'
loop_
_space_group_symop_operation_xyz
x,y,z
-x,1/2+y,1/2-z
-x,-y,-z
x,1/2-y,1/2+z
loop_
_atom_site_type_symbol
_atom_site_label
_atom_site_fract_x
_atom_site_fract_y
_atom_site_fract_z
Si Si1 0.242703 0.904988 0.778853
Si Si2 0.413756 0.565208 0.852673
Si Si3 0.638596 0.775577 0.859144
Si Si4 0.000000 0.500000 0.000000
Si Si5 0.772716 0.738973 0.539728
Si Si6 0.952914 0.123954 0.799836
O O1 0.271881 0.081184 0.683810
O O2 0.182063 0.056840 0.867011
O O3 0.171556 0.658096 0.741517
O O4 0.358177 0.847534 0.834272
O O5 0.535552 0.605830 0.893334
O O6 0.408396 0.443873 0.737152
O O7 0.324229 0.413498 0.915617
O O8 0.706568 0.921917 0.949833
O O9 0.873034 0.589070 0.005574
O O10 0.032746 0.738683 0.088943
O O11 0.986261 0.819684 0.781162
#
# Coordination Sequence:
#
# PCOD9252173 Si02
#       6
#     4   4   4   2   4   4
#     4  11  24  44  68 102 141 184 238 302 365 439
#     4  11  24  45  68 101 140 186 241 302 365 442
#     4  11  23  44  70  98 141 185 235 297 371 435
#     4  12  24  48  74 108 146 202 242 308 392 442
#     4  11  25  44  69 106 138 186 245 294 370 450
#     4  12  27  49  75 107 152 201 257 319 373 459
#
# _framework density 27.117830000000001
#
# number of rings (size 3 to 8) (size 9 to 14) (size 15 to 20)
#    0.000    0.727    5.455    1.636    2.545    2.909 
#    6.545    0.000    0.000    0.000    0.000    0.000 
#    0.000    0.000    0.000    0.000    0.000    0.000 
#
# Total GULP energy -122640.015151 kJ/mol
# GULP energy per Si atom -5574.546143 kJ/mol
# Density = 2.705611 g / cm^3
# Si number density = 27.117830 Si / 1000 Ang^3
#
#
#
# Elastic Constant Matrix: (Units=GPa)
#
#
# Indices 1 2 3 4 5 6 
#
# 1 152.8619 28.5800 67.2825 0.0000 4.2141 0.0000
# 2 28.5800 56.0860 5.6806 0.0000 -8.1920 0.0000
# 3 67.2825 5.6806 76.6501 0.0000 11.0301 0.0000
# 4 0.0000 0.0000 0.0000 22.3776 0.0000 -13.7064
# 5 4.2141 -8.1920 11.0301 0.0000 43.6156 0.0000
# 6 0.0000 0.0000 0.0000 -13.7064 0.0000 35.3235
#
#
#
# Elastic Compliance Matrix: (Units=1/GPa)
#
#
# Indices 1 2 3 4 5 6 
#
# 1 0.011942 -0.004983 -0.010183 0.000000 0.000486 0.000000
# 2 -0.004983 0.020690 0.002296 0.000000 0.003787 0.000000
# 3 -0.010183 0.002296 0.022428 0.000000 -0.004257 0.000000
# 4 0.000000 0.000000 0.000000 0.058620 0.000000 0.022746
# 5 0.000486 0.003787 -0.004257 0.000000 0.024668 0.000000
# 6 0.000000 0.000000 0.000000 0.022746 0.000000 0.037136
#
#
# Mechanical properties :
#
#
# Convention : Reuss Voigt Hill
#
# Bulk Modulus (GPa) = 34.10852 54.29825 44.20338
# Shear Modulus (GPa) = 23.69694 32.53366 28.11530
#
# Velocity S-wave (km/s) = 2.95930 3.46745 3.22340
# Velocity P-wave (km/s) = 4.92766 6.00812 5.49451
#
# Compressibility (1/GPa) = 0.02931819
#
# Stress axis : x y z
#
# Youngs Moduli (GPa) = 83.73491 48.33337 44.58789
#
# Poissons Ratio (x) = 0.24086 0.45406
# Poissons Ratio (y) = 0.41727 -0.10237
# Poissons Ratio (z) = 0.85271 -0.11097
#
# Static dielectric constant tensor:
#      x y z
#    x 2.069750 0.000000 -0.101730 
#    y 0.000000 2.142500 0.000000 
#    z -0.101730 0.000000 2.251720 
# 
# From -- ./inp_files/42491.got.cif
#   From: 2010.05.17/outbox.cif.g08.bks.cpg/sg14_22_cif.got.tgz:42491.got - 2010.06.03 17:49:19.
