data_PCOD9252361
_publ_section_title
;
Structure prediction by ZEFSAII (Michael W. Deem and Ramdas Pophale) SiO2 
 PCOD9252361
Probable space group: P 21/C
;
_chemical_formula_sum "Si O2"
_cell_formula_units_Z 28
_cell_length_a 9.613302
_cell_length_b 12.044300
_cell_length_c 12.946554
_cell_angle_alpha 90.000000
_cell_angle_beta 119.029431
_cell_angle_gamma 90.000000
_cell_volume 1310.701704
_symmetry_space_group_name_H-M "P 21/C"
_symmetry_group_IT_number 14
_symmetry_cell_setting 'monoclinic'
loop_
_space_group_symop_operation_xyz
x,y,z
-x,1/2+y,1/2-z
-x,-y,-z
x,1/2-y,1/2+z
loop_
_atom_site_type_symbol
_atom_site_label
_atom_site_fract_x
_atom_site_fract_y
_atom_site_fract_z
Si Si1 0.257260 0.689232 0.570730
Si Si2 0.955712 0.326834 0.703521
Si Si3 0.137999 0.349505 0.397129
Si Si4 0.319401 0.213278 0.137373
Si Si5 0.599216 0.891391 0.165067
Si Si6 0.862209 0.502220 0.337981
Si Si7 0.339560 0.866005 0.752636
O O1 0.112533 0.814126 0.937735
O O2 0.418492 0.643566 0.577161
O O3 0.230229 0.610695 0.661938
O O4 0.285713 0.812047 0.625018
O O5 0.806009 0.353868 0.721386
O O6 0.031090 0.214088 0.775143
O O7 0.085301 0.426706 0.745568
O O8 0.199194 0.259625 0.501744
O O9 0.292641 0.398802 0.397483
O O10 0.039344 0.447110 0.417636
O O11 0.327432 0.297465 0.234329
O O12 0.498953 0.199849 0.161344
O O13 0.250003 0.095716 0.151259
O O14 0.610506 0.006407 0.229589
#
# Coordination Sequence:
#
# PCOD9252361 Si02
#       7
#     4   4   4   4   4   4   4
#     4  11  24  43  63  93 127 164 207 253 312 369
#     4  12  24  40  64  97 125 160 208 257 309 364
#     4  12  24  40  64  97 125 160 208 257 309 364
#     4  11  24  43  63  93 127 164 207 253 312 369
#     4  11  24  42  65  91 126 166 207 254 307 371
#     4  12  23  40  68  90 126 165 207 261 302 361
#     4  11  24  42  65  91 126 166 207 254 307 371
#
# _framework density 21.362603
#
# number of rings (size 3 to 8) (size 9 to 14) (size 15 to 20)
#    0.000    0.571    5.714    3.429    0.000    1.143 
#    2.571    1.429    0.000    6.857    0.000    0.000 
#    0.000    0.000    0.000    0.000    0.000    0.000 
#
# Total GULP energy -155984.799771 kJ/mol
# GULP energy per Si atom -5570.885706 kJ/mol
# Density = 2.131398 g / cm^3
# Si number density = 21.362603 Si / 1000 Ang^3
#
#
#
# Elastic Constant Matrix: (Units=GPa)
#
#
# Indices 1 2 3 4 5 6 
#
# 1 149.0887 -2.9639 5.2223 0.0000 -11.7969 0.0000
# 2 -2.9639 40.6715 32.3800 0.0000 3.1344 0.0000
# 3 5.2223 32.3800 70.6828 0.0000 12.5268 0.0000
# 4 0.0000 0.0000 0.0000 14.5689 0.0000 -2.3846
# 5 -11.7969 3.1344 12.5268 0.0000 12.7589 0.0000
# 6 0.0000 0.0000 0.0000 -2.3846 0.0000 36.4280
#
#
#
# Elastic Compliance Matrix: (Units=1/GPa)
#
#
# Indices 1 2 3 4 5 6 
#
# 1 0.007664 0.002586 -0.003504 0.000000 0.009891 0.000000
# 2 0.002586 0.040563 -0.021103 0.000000 0.013145 0.000000
# 3 -0.003504 -0.021103 0.028728 0.000000 -0.026260 0.000000
# 4 0.000000 0.000000 0.000000 0.069383 0.000000 0.004542
# 5 0.009891 0.013145 -0.026260 0.000000 0.110075 0.000000
# 6 0.000000 0.000000 0.000000 0.004542 0.000000 0.027749
#
#
# Mechanical properties :
#
#
# Convention : Reuss Voigt Hill
#
# Bulk Modulus (GPa) = 30.38246 36.63553 33.50900
# Shear Modulus (GPa) = 14.74166 27.80481 21.27324
#
# Velocity S-wave (km/s) = 2.62977 3.61163 3.15908
# Velocity P-wave (km/s) = 4.84500 5.88035 5.38760
#
# Compressibility (1/GPa) = 0.03291373
#
# Stress axis : x y z
#
# Youngs Moduli (GPa) = 130.47699 24.65285 34.80946
#
# Poissons Ratio (x) = -0.06374 0.12196
# Poissons Ratio (y) = -0.33737 0.73457
# Poissons Ratio (z) = 0.45715 0.52024
#
# Static dielectric constant tensor:
#      x y z
#    x 1.807240 0.000000 -0.000730 
#    y 0.000000 1.772800 0.000000 
#    z -0.000730 0.000000 1.803820 
# 
# From -- ./inp_files/40116.got.cif
#   From: 2010.05.17/outbox.cif.g08.bks.cpg/sg14_21_cif.got.tgz:40116.got - 2010.06.03 17:49:19.
