data_PCOD9252824
_publ_section_title
;
Structure prediction by ZEFSAII (Michael W. Deem and Ramdas Pophale) SiO2 
 PCOD9252824
Probable space group: P 21/C
;
_chemical_formula_sum "Si O2"
_cell_formula_units_Z 28
_cell_length_a 14.222244
_cell_length_b 5.304494
_cell_length_c 17.999397
_cell_angle_alpha 90.000000
_cell_angle_beta 119.462153
_cell_angle_gamma 90.000000
_cell_volume 1182.303569
_symmetry_space_group_name_H-M "P 21/C"
_symmetry_group_IT_number 14
_symmetry_cell_setting 'monoclinic'
loop_
_space_group_symop_operation_xyz
x,y,z
-x,1/2+y,1/2-z
-x,-y,-z
x,1/2-y,1/2+z
loop_
_atom_site_type_symbol
_atom_site_label
_atom_site_fract_x
_atom_site_fract_y
_atom_site_fract_z
Si Si1 0.747865 0.614683 0.697966
Si Si2 0.983514 0.702542 0.293271
Si Si3 0.779716 0.717076 0.547298
Si Si4 0.913902 0.410918 0.027338
Si Si5 0.369373 0.615132 0.792200
Si Si6 0.305352 0.654208 0.599535
Si Si7 0.433088 0.993072 0.549241
O O1 0.863717 0.709557 0.771423
O O2 0.771124 0.563886 0.619595
O O3 0.669300 0.850172 0.686227
O O4 0.700536 0.355144 0.709641
O O5 0.020258 0.931464 0.250983
O O6 0.049191 0.702186 0.397296
O O7 0.889126 0.858945 0.573256
O O8 0.745602 0.585082 0.458929
O O9 0.684207 0.916836 0.521019
O O10 0.800038 0.339307 0.943375
O O11 0.000000 0.500000 0.000000
O O12 0.351972 0.603036 0.697882
O O13 0.493387 0.652235 0.865294
O O14 0.401432 0.745222 0.582686
O O15 0.500000 0.000000 0.500000
#
# Coordination Sequence:
#
# PCOD9252824 Si02
#       7
#     4   4   4   4   4   4   4
#     4  12  26  48  74 110 149 196 252 305 370 447
#     4  12  25  45  76 107 145 194 250 306 368 437
#     4  11  25  47  75 103 150 193 249 303 368 454
#     4  11  26  48  71 107 148 196 244 308 379 441
#     4  12  29  46  76 110 153 193 250 311 372 444
#     4  11  28  46  75 107 151 195 248 313 373 446
#     4  11  25  47  75 108 144 199 246 300 376 441
#
# _framework density 23.682582
#
# number of rings (size 3 to 8) (size 9 to 14) (size 15 to 20)
#    0.000    0.571    2.857    3.429   12.000    1.714 
#    0.000    0.000    0.000    0.000    0.000    0.000 
#    0.000    0.000    0.000    0.000    0.000    0.000 
#
# Total GULP energy -156380.581121 kJ/mol
# GULP energy per Si atom -5585.020754 kJ/mol
# Density = 2.362868 g / cm^3
# Si number density = 23.682582 Si / 1000 Ang^3
#
#
#
# Elastic Constant Matrix: (Units=GPa)
#
#
# Indices 1 2 3 4 5 6 
#
# 1 88.6645 11.1468 6.5855 0.0000 -3.0822 0.0000
# 2 11.1468 70.3119 -4.6904 0.0000 -8.9095 0.0000
# 3 6.5855 -4.6904 152.0294 0.0000 -15.7552 0.0000
# 4 0.0000 0.0000 0.0000 32.6641 0.0000 -6.6039
# 5 -3.0822 -8.9095 -15.7552 0.0000 30.9976 0.0000
# 6 0.0000 0.0000 0.0000 -6.6039 0.0000 -59.3342
#
#
#
# Elastic Compliance Matrix: (Units=1/GPa)
#
#
# Indices 1 2 3 4 5 6 
#
# 1 0.011559 -0.001821 -0.000519 0.000000 0.000362 0.000000
# 2 -0.001821 0.015177 0.001035 0.000000 0.004707 0.000000
# 3 -0.000519 0.001035 0.007028 0.000000 0.003818 0.000000
# 4 0.000000 0.000000 0.000000 0.029941 0.000000 -0.003332
# 5 0.000362 0.004707 0.003818 0.000000 0.035590 0.000000
# 6 0.000000 0.000000 0.000000 -0.003332 0.000000 -0.016483
#
#
# Mechanical properties :
#
#
# Convention : Reuss Voigt Hill
#
# Bulk Modulus (GPa) = 32.10113 37.45440 34.77777
# Shear Modulus (GPa) = 52.18869 20.72975 36.45922
#
# Velocity S-wave (km/s) = 4.69942 2.96178 3.92790
# Velocity P-wave (km/s) = 6.55975 5.24840 5.94037
#
# Compressibility (1/GPa) = 0.03115155
#
# Stress axis : x y z
#
# Youngs Moduli (GPa) = 86.51574 65.89109 142.29296
#
# Poissons Ratio (x) = 0.12000 0.07390
# Poissons Ratio (y) = 0.15756 -0.14726
# Poissons Ratio (z) = 0.04493 -0.06819
#
# Static dielectric constant tensor:
#      x y z
#    x 1.963980 0.000000 0.098000 
#    y 0.000000 1.209140 0.000000 
#    z 0.098000 0.000000 2.056390 
# 
# From -- ./inp_files/58662.got.cif
#   From: 2010.05.17/outbox.cif.g08.bks.cpg/sg14_30_cif.got.tgz:58662.got - 2010.06.03 17:49:19.
