data_PCOD9252694
_publ_section_title
;
Structure prediction by ZEFSAII (Michael W. Deem and Ramdas Pophale) SiO2 
 PCOD9252694
Probable space group: P 21/C
;
_chemical_formula_sum "Si O2"
_cell_formula_units_Z 24
_cell_length_a 17.173856
_cell_length_b 6.192650
_cell_length_c 10.330503
_cell_angle_alpha 90.000000
_cell_angle_beta 66.291793
_cell_angle_gamma 90.000000
_cell_volume 1005.944407
_symmetry_space_group_name_H-M "P 21/C"
_symmetry_group_IT_number 14
_symmetry_cell_setting 'monoclinic'
loop_
_space_group_symop_operation_xyz
x,y,z
-x,1/2+y,1/2-z
-x,-y,-z
x,1/2-y,1/2+z
loop_
_atom_site_type_symbol
_atom_site_label
_atom_site_fract_x
_atom_site_fract_y
_atom_site_fract_z
Si Si1 0.664421 0.284672 0.137982
Si Si2 0.600486 0.475627 0.920550
Si Si3 0.023062 0.712158 0.072271
Si Si4 0.861427 0.953315 0.165650
Si Si5 0.183654 0.708409 0.622279
Si Si6 0.276087 0.344984 0.729980
O O1 0.620585 0.121688 0.265381
O O2 0.670020 0.510358 0.208539
O O3 0.625811 0.316136 0.021648
O O4 0.761898 0.220042 0.044238
O O5 0.656066 0.695673 0.890535
O O6 0.500000 0.500000 0.000000
O O7 0.085898 0.734064 0.153235
O O8 0.932428 0.798211 0.180659
O O9 0.000000 0.500000 0.000000
O O10 0.077267 0.876936 0.946380
O O11 0.795458 0.789889 0.142142
O O12 0.799183 0.083769 0.300804
O O13 0.218990 0.501467 0.675584
#
# Coordination Sequence:
#
# PCOD9252694 Si02
#       6
#     4   4   4   4   4   4
#     4  12  27  53  78 119 162 206 275 332 415 491
#     4  12  31  51  85 121 160 211 265 340 418 505
#     4  11  26  43  69 106 158 207 265 335 392 468
#     4  11  25  43  69 110 148 207 264 320 397 468
#     4  12  25  45  76 110 157 206 268 326 405 477
#     4  12  26  49  78 113 154 213 264 333 405 496
#
# _framework density 23.858180000000001
#
# number of rings (size 3 to 8) (size 9 to 14) (size 15 to 20)
#    0.000    0.333    3.333    4.000   11.667    2.000 
#    0.000    0.000    0.000    0.000    0.000    0.000 
#    0.000    0.000    0.000    0.000    0.000    0.000 
#
# Total GULP energy -133869.292455 kJ/mol
# GULP energy per Si atom -5577.887186 kJ/mol
# Density = 2.380388 g / cm^3
# Si number density = 23.858180 Si / 1000 Ang^3
#
#
#
# Elastic Constant Matrix: (Units=GPa)
#
#
# Indices 1 2 3 4 5 6 
#
# 1 114.5815 38.3533 20.9402 0.0000 -22.6623 0.0000
# 2 38.3533 100.0198 30.4494 0.0000 -15.4880 0.0000
# 3 20.9402 30.4494 107.2939 0.0000 -12.0119 0.0000
# 4 0.0000 0.0000 0.0000 31.5723 0.0000 -2.5467
# 5 -22.6623 -15.4880 -12.0119 0.0000 47.3444 0.0000
# 6 0.0000 0.0000 0.0000 -2.5467 0.0000 28.6486
#
#
#
# Elastic Compliance Matrix: (Units=1/GPa)
#
#
# Indices 1 2 3 4 5 6 
#
# 1 0.010729 -0.003293 -0.000726 0.000000 0.003874 0.000000
# 2 -0.003293 0.012348 -0.002661 0.000000 0.001788 0.000000
# 3 -0.000726 -0.002661 0.010375 0.000000 0.001414 0.000000
# 4 0.000000 0.000000 0.000000 0.031902 0.000000 0.002836
# 5 0.003874 0.001788 0.001414 0.000000 0.023920 0.000000
# 6 0.000000 0.000000 0.000000 0.002836 0.000000 0.035158
#
#
# Mechanical properties :
#
#
# Convention : Reuss Voigt Hill
#
# Bulk Modulus (GPa) = 49.77198 55.70901 52.74049
# Shear Modulus (GPa) = 34.60470 36.98989 35.79729
#
# Velocity S-wave (km/s) = 3.81259 3.94179 3.87773
# Velocity P-wave (km/s) = 6.34728 6.64212 6.49637
#
# Compressibility (1/GPa) = 0.02009163
#
# Stress axis : x y z
#
# Youngs Moduli (GPa) = 93.20939 80.98570 96.38146
#
# Poissons Ratio (x) = 0.26670 0.06993
# Poissons Ratio (y) = 0.30695 0.25651
# Poissons Ratio (z) = 0.06763 0.21553
#
# Static dielectric constant tensor:
#      x y z
#    x 2.001340 0.000000 0.070180 
#    y 0.000000 2.019160 0.000000 
#    z 0.070180 0.000000 1.913240 
# 
# From -- ./inp_files/33342.got.cif
#   From: 2010.05.17/outbox.cif.g08.bks.cpg/sg14_17_cif.got.tgz:33342.got - 2010.06.03 17:49:19.
