data_PCOD9252819
_publ_section_title
;
Structure prediction by ZEFSAII (Michael W. Deem and Ramdas Pophale) SiO2 
 PCOD9252819
Probable space group: P 21/C
;
_chemical_formula_sum "Si O2"
_cell_formula_units_Z 28
_cell_length_a 14.370447
_cell_length_b 8.659643
_cell_length_c 15.842452
_cell_angle_alpha 90.000000
_cell_angle_beta 145.610543
_cell_angle_gamma 90.000000
_cell_volume 1113.522544
_symmetry_space_group_name_H-M "P 21/C"
_symmetry_group_IT_number 14
_symmetry_cell_setting 'monoclinic'
loop_
_space_group_symop_operation_xyz
x,y,z
-x,1/2+y,1/2-z
-x,-y,-z
x,1/2-y,1/2+z
loop_
_atom_site_type_symbol
_atom_site_label
_atom_site_fract_x
_atom_site_fract_y
_atom_site_fract_z
Si Si1 0.319527 0.436527 0.869495
Si Si2 0.117058 0.054023 0.878705
Si Si3 0.608054 0.739552 0.917402
Si Si4 0.722034 0.122867 0.309613
Si Si5 0.804070 0.201871 0.556633
Si Si6 0.431824 0.295133 0.314925
Si Si7 0.046054 0.855041 0.092742
O O1 0.321634 0.313654 0.793889
O O2 0.191521 0.570237 0.756406
O O3 0.500000 0.500000 0.000000
O O4 0.298976 0.376467 0.950069
O O5 0.966850 0.108136 0.708499
O O6 0.096950 0.161176 0.946763
O O7 0.120859 0.874048 0.903239
O O8 0.300676 0.100810 0.989933
O O9 0.420209 0.748779 0.808557
O O10 0.591178 0.715975 0.804381
O O11 0.749763 0.118147 0.430363
O O12 0.888113 0.195783 0.395466
O O13 0.641965 0.964420 0.218337
O O14 0.627129 0.244554 0.470841
O O15 0.000000 0.000000 0.000000
#
# Coordination Sequence:
#
# PCOD9252819 Si02
#       7
#     4   4   4   4   4   4   4
#     4  12  26  47  78 111 150 205 260 310 387 471
#     4  12  25  47  71 109 150 193 249 316 385 457
#     4  11  26  46  78 109 151 198 259 309 382 462
#     4  11  25  47  73 107 153 195 258 314 381 455
#     4  11  26  44  74 109 149 199 248 317 393 447
#     4  11  27  47  77 114 151 200 258 322 378 451
#     4  12  25  46  73 108 149 200 248 317 391 460
#
# _framework density 25.145426
#
# number of rings (size 3 to 8) (size 9 to 14) (size 15 to 20)
#    0.000    0.571    4.286    2.571    8.000    1.714 
#    0.000    2.857    0.000    0.000    0.000    0.000 
#    0.000    0.000    0.000    0.000    0.000    0.000 
#
# Total GULP energy -156212.476607 kJ/mol
# GULP energy per Si atom -5579.017022 kJ/mol
# Density = 2.508819 g / cm^3
# Si number density = 25.145426 Si / 1000 Ang^3
#
#
#
# Elastic Constant Matrix: (Units=GPa)
#
#
# Indices 1 2 3 4 5 6 
#
# 1 64.5752 13.4479 13.0642 0.0000 1.2963 0.0000
# 2 13.4479 73.9392 17.2963 0.0000 -1.4133 0.0000
# 3 13.0642 17.2963 91.9600 0.0000 -0.6564 0.0000
# 4 0.0000 0.0000 0.0000 40.1011 0.0000 9.4049
# 5 1.2963 -1.4133 -0.6564 0.0000 38.5812 0.0000
# 6 0.0000 0.0000 0.0000 9.4049 0.0000 38.1578
#
#
#
# Elastic Compliance Matrix: (Units=1/GPa)
#
#
# Indices 1 2 3 4 5 6 
#
# 1 0.016408 -0.002564 -0.001854 0.000000 -0.000677 0.000000
# 2 -0.002564 0.014556 -0.002369 0.000000 0.000579 0.000000
# 3 -0.001854 -0.002369 0.011585 0.000000 0.000173 0.000000
# 4 0.000000 0.000000 0.000000 0.026467 0.000000 -0.006523
# 5 -0.000677 0.000579 0.000173 0.000000 0.025966 0.000000
# 6 0.000000 0.000000 0.000000 -0.006523 0.000000 0.027815
#
#
# Mechanical properties :
#
#
# Convention : Reuss Voigt Hill
#
# Bulk Modulus (GPa) = 34.51191 35.34347 34.92769
# Shear Modulus (GPa) = 34.23974 35.81241 35.02607
#
# Velocity S-wave (km/s) = 3.69408 3.77797 3.73626
# Velocity P-wave (km/s) = 5.65241 5.75472 5.70380
#
# Compressibility (1/GPa) = 0.02897551
#
# Stress axis : x y z
#
# Youngs Moduli (GPa) = 60.94479 68.69899 86.32198
#
# Poissons Ratio (x) = 0.17612 0.16001
# Poissons Ratio (y) = 0.15624 0.20454
# Poissons Ratio (z) = 0.11297 0.16278
#
# Static dielectric constant tensor:
#      x y z
#    x 2.078690 0.000000 -0.045750 
#    y 0.000000 2.049790 0.000000 
#    z -0.045750 0.000000 1.999940 
# 
# From -- ./inp_files/46767.got.cif
#   From: 2010.05.17/outbox.cif.g08.bks.cpg/sg14_24_cif.got.tgz:46767.got - 2010.06.03 17:49:19.
