data_PCOD9252364
_publ_section_title
;
Structure prediction by ZEFSAII (Michael W. Deem and Ramdas Pophale) SiO2 
 PCOD9252364
Probable space group: P 21/C
;
_chemical_formula_sum "Si O2"
_cell_formula_units_Z 16
_cell_length_a 5.193894
_cell_length_b 10.856461
_cell_length_c 13.544073
_cell_angle_alpha 90.000000
_cell_angle_beta 118.658768
_cell_angle_gamma 90.000000
_cell_volume 670.152394
_symmetry_space_group_name_H-M "P 21/C"
_symmetry_group_IT_number 14
_symmetry_cell_setting 'monoclinic'
loop_
_space_group_symop_operation_xyz
x,y,z
-x,1/2+y,1/2-z
-x,-y,-z
x,1/2-y,1/2+z
loop_
_atom_site_type_symbol
_atom_site_label
_atom_site_fract_x
_atom_site_fract_y
_atom_site_fract_z
Si Si1 0.324243 0.370812 0.673850
Si Si2 0.345014 0.843618 0.972169
Si Si3 0.671912 0.603142 0.727224
Si Si4 0.193823 0.934085 0.452825
O O1 0.480743 0.339656 0.598349
O O2 0.483740 0.493405 0.742650
O O3 0.361648 0.243884 0.741578
O O4 0.979617 0.400621 0.598446
O O5 0.261515 0.706337 0.991308
O O6 0.556565 0.898980 0.094170
O O7 0.003638 0.569341 0.817156
O O8 0.500000 0.000000 0.500000
O O9 0.000000 0.000000 0.500000
#
# Coordination Sequence:
#
# PCOD9252364 Si02
#       4
#     4   4   4   4
#     4  11  26  44  70 104 137 182 234 282 341 415
#     4  11  25  44  69 103 138 180 235 281 339 417
#     4  11  25  46  72  99 141 185 222 288 349 396
#     4  11  24  42  66 100 136 175 226 277 333 406
#
# _framework density 23.875164999999999
#
# number of rings (size 3 to 8) (size 9 to 14) (size 15 to 20)
#    0.000    1.000    0.000    6.000    0.000   16.000 
#    0.000    0.000    0.000    0.000    0.000    0.000 
#    0.000    0.000    0.000    0.000    0.000    0.000 
#
# Total GULP energy -89559.847742 kJ/mol
# GULP energy per Si atom -5597.490484 kJ/mol
# Density = 2.382082 g / cm^3
# Si number density = 23.875165 Si / 1000 Ang^3
#
#
#
# Elastic Constant Matrix: (Units=GPa)
#
#
# Indices 1 2 3 4 5 6 
#
# 1 155.4569 21.1848 65.4322 0.0000 24.1822 0.0000
# 2 21.1848 103.6848 42.3955 0.0000 32.3672 0.0000
# 3 65.4322 42.3955 170.7455 0.0000 36.9744 0.0000
# 4 0.0000 0.0000 0.0000 42.2335 0.0000 19.8852
# 5 24.1822 32.3672 36.9744 0.0000 47.1043 0.0000
# 6 0.0000 0.0000 0.0000 19.8852 0.0000 34.0230
#
#
#
# Elastic Compliance Matrix: (Units=1/GPa)
#
#
# Indices 1 2 3 4 5 6 
#
# 1 0.007824 0.000099 -0.002576 0.000000 -0.002062 0.000000
# 2 0.000099 0.012595 -0.001542 0.000000 -0.007494 0.000000
# 3 -0.002576 -0.001542 0.008085 0.000000 -0.003964 0.000000
# 4 0.000000 0.000000 0.000000 0.032668 0.000000 -0.019093
# 5 -0.002062 -0.007494 -0.003964 0.000000 0.030550 0.000000
# 6 0.000000 0.000000 0.000000 -0.019093 0.000000 0.040551
#
#
# Mechanical properties :
#
#
# Convention : Reuss Voigt Hill
#
# Bulk Modulus (GPa) = 48.86504 76.43470 62.64987
# Shear Modulus (GPa) = 33.98273 44.73048 39.35661
#
# Velocity S-wave (km/s) = 3.77682 4.33311 4.06449
# Velocity P-wave (km/s) = 6.28733 7.55766 6.95157
#
# Compressibility (1/GPa) = 0.02046453
#
# Stress axis : x y z
#
# Youngs Moduli (GPa) = 127.80529 79.39972 123.68133
#
# Poissons Ratio (x) = -0.00782 0.31864
# Poissons Ratio (y) = -0.01259 0.19072
# Poissons Ratio (z) = 0.32927 0.12244
#
# Static dielectric constant tensor:
#      x y z
#    x 1.864890 0.000000 -0.011090 
#    y 0.000000 1.957000 0.000000 
#    z -0.011090 0.000000 1.931470 
# 
# From -- ./inp_files/20334.got.cif
#   From: 2010.05.17/outbox.cif.g08.bks.cpg/sg14_11_cif.got.tgz:20334.got - 2010.06.03 17:49:19.
