data_PCOD9252590
_publ_section_title
;
Structure prediction by ZEFSAII (Michael W. Deem and Ramdas Pophale) SiO2 
 PCOD9252590
Probable space group: P 21/C
;
_chemical_formula_sum "Si O2"
_cell_formula_units_Z 28
_cell_length_a 9.404980
_cell_length_b 20.766346
_cell_length_c 10.009533
_cell_angle_alpha 90.000000
_cell_angle_beta 139.766175
_cell_angle_gamma 90.000000
_cell_volume 1262.707528
_symmetry_space_group_name_H-M "P 21/C"
_symmetry_group_IT_number 14
_symmetry_cell_setting 'monoclinic'
loop_
_space_group_symop_operation_xyz
x,y,z
-x,1/2+y,1/2-z
-x,-y,-z
x,1/2-y,1/2+z
loop_
_atom_site_type_symbol
_atom_site_label
_atom_site_fract_x
_atom_site_fract_y
_atom_site_fract_z
Si Si1 0.022282 0.023083 0.366116
Si Si2 0.190306 0.437269 0.498380
Si Si3 0.512347 0.040747 0.644234
Si Si4 0.159565 0.237357 0.580957
Si Si5 0.828125 0.347643 0.705528
Si Si6 0.378656 0.305746 0.510953
Si Si7 0.871827 0.143829 0.929038
O O1 0.830984 0.075499 0.211399
O O2 0.264490 0.051324 0.514874
O O3 0.981982 0.967260 0.229393
O O4 0.000000 0.000000 0.500000
O O5 0.358182 0.492824 0.662487
O O6 0.300108 0.376177 0.504471
O O7 0.059529 0.410365 0.534424
O O8 0.648611 0.107306 0.726400
O O9 0.500000 0.000000 0.500000
O O10 0.355735 0.260099 0.624017
O O11 0.235439 0.224049 0.786431
O O12 0.042622 0.175158 0.438421
O O13 0.974782 0.293703 0.432052
O O14 0.619641 0.315824 0.624823
O O15 0.846119 0.333792 0.562224
#
# Coordination Sequence:
#
# PCOD9252590 Si02
#       7
#     4   4   4   4   4   4   4
#     4  12  26  42  70 105 144 184 231 296 366 429
#     4  11  24  47  68 109 148 178 243 299 354 441
#     4  12  24  44  75 107 142 192 233 290 377 427
#     4  11  26  50  70 100 141 189 244 294 359 424
#     4  12  26  44  71 103 138 183 243 288 352 431
#     4  11  27  46  73 100 140 190 235 302 362 423
#     4  11  24  47  71 102 145 185 238 299 344 438
#
# _framework density 22.174572000000001
#
# number of rings (size 3 to 8) (size 9 to 14) (size 15 to 20)
#    0.000    0.571    4.286    3.000    6.000    1.143 
#    5.143    0.000    0.000    0.000    0.000    0.000 
#    0.000    0.000    0.000    0.000    0.000    0.000 
#
# Total GULP energy -156528.312477 kJ/mol
# GULP energy per Si atom -5590.296874 kJ/mol
# Density = 2.212410 g / cm^3
# Si number density = 22.174572 Si / 1000 Ang^3
#
#
#
# Elastic Constant Matrix: (Units=GPa)
#
#
# Indices 1 2 3 4 5 6 
#
# 1 126.8568 25.7348 38.3198 0.0000 -8.6204 0.0000
# 2 25.7348 68.4047 19.8878 0.0000 2.0067 0.0000
# 3 38.3198 19.8878 67.7944 0.0000 -3.6319 0.0000
# 4 0.0000 0.0000 0.0000 31.9810 0.0000 4.0938
# 5 -8.6204 2.0067 -3.6319 0.0000 31.2976 0.0000
# 6 0.0000 0.0000 0.0000 4.0938 0.0000 22.3916
#
#
#
# Elastic Compliance Matrix: (Units=1/GPa)
#
#
# Indices 1 2 3 4 5 6 
#
# 1 0.009987 -0.002429 -0.004807 0.000000 0.002349 0.000000
# 2 -0.002429 0.016650 -0.003627 0.000000 -0.002157 0.000000
# 3 -0.004807 -0.003627 0.018589 0.000000 0.001066 0.000000
# 4 0.000000 0.000000 0.000000 0.032018 0.000000 -0.005854
# 5 0.002349 -0.002157 0.001066 0.000000 0.032860 0.000000
# 6 0.000000 0.000000 0.000000 -0.005854 0.000000 0.045730
#
#
# Mechanical properties :
#
#
# Convention : Reuss Voigt Hill
#
# Bulk Modulus (GPa) = 42.55192 47.88228 45.21710
# Shear Modulus (GPa) = 26.96966 29.07493 28.02229
#
# Velocity S-wave (km/s) = 3.49125 3.62495 3.55873
# Velocity P-wave (km/s) = 5.95676 6.25784 6.10915
#
# Compressibility (1/GPa) = 0.02350070
#
# Stress axis : x y z
#
# Youngs Moduli (GPa) = 100.12807 60.05837 53.79625
#
# Poissons Ratio (x) = 0.14586 0.25859
# Poissons Ratio (y) = 0.24318 0.19513
# Poissons Ratio (z) = 0.48130 0.21785
#
# Static dielectric constant tensor:
#      x y z
#    x 2.083180 0.000000 -0.203700 
#    y 0.000000 1.790510 0.000000 
#    z -0.203700 0.000000 1.968170 
# 
# From -- ./inp_files/10442.got.cif
#   From: 2010.05.17/outbox.cif.g08.bks.cpg/sg14_6_cif.got.tgz:10442.got - 2010.06.03 17:49:19.
