data_PCOD9252330
_publ_section_title
;
Structure prediction by ZEFSAII (Michael W. Deem and Ramdas Pophale) SiO2 
 PCOD9252330
Probable space group: P 21/C
;
_chemical_formula_sum "Si O2"
_cell_formula_units_Z 16
_cell_length_a 6.699853
_cell_length_b 20.293199
_cell_length_c 4.777521
_cell_angle_alpha 90.000000
_cell_angle_beta 65.375149
_cell_angle_gamma 90.000000
_cell_volume 590.484874
_symmetry_space_group_name_H-M "P 21/C"
_symmetry_group_IT_number 14
_symmetry_cell_setting 'monoclinic'
loop_
_space_group_symop_operation_xyz
x,y,z
-x,1/2+y,1/2-z
-x,-y,-z
x,1/2-y,1/2+z
loop_
_atom_site_type_symbol
_atom_site_label
_atom_site_fract_x
_atom_site_fract_y
_atom_site_fract_z
Si Si1 0.356440 0.294286 0.187875
Si Si2 0.000000 0.000000 0.500000
Si Si3 0.351522 0.906498 0.572010
Si Si4 0.500000 0.000000 0.000000
Si Si5 0.147425 0.074003 0.996246
O O1 0.327135 0.270372 0.889950
O O2 0.592003 0.331561 0.038317
O O3 0.199022 0.350359 0.406023
O O4 0.095834 0.925153 0.662738
O O5 0.928342 0.955508 0.252770
O O6 0.519092 0.948057 0.279049
O O7 0.410172 0.928878 0.846510
O O8 0.767894 0.976584 0.802028
#
# Coordination Sequence:
#
# PCOD9252330 Si02
#       5
#     4   2   4   2   4
#     4  11  24  39  58  85 120 159 194 230 282 351
#     4   6  12  30  58  86 102 144 184 242 286 322
#     4   8  15  30  57  87 113 152 188 247 282 344
#     4   8  10  24  54  88 112 142 194 236 302 326
#     4   8  15  30  57  87 113 152 188 247 282 344
#
# _framework density 27.096371999999999
#
# number of rings (size 3 to 8) (size 9 to 14) (size 15 to 20)
#    1.500    2.000    0.000    0.000    0.000    2.000 
#    0.000    0.000    0.000   57.000    0.000    0.000 
#    0.000    0.000    0.000    0.000    0.000    0.000 
#
# Total GULP energy -89134.325881 kJ/mol
# GULP energy per Si atom -5570.895368 kJ/mol
# Density = 2.703470 g / cm^3
# Si number density = 27.096372 Si / 1000 Ang^3
#
#
#
# Elastic Constant Matrix: (Units=GPa)
#
#
# Indices 1 2 3 4 5 6 
#
# 1 160.4235 44.7047 23.9486 0.0000 31.6886 0.0000
# 2 44.7047 128.7486 38.1509 0.0000 -8.2727 0.0000
# 3 23.9486 38.1509 239.2172 0.0000 15.8797 0.0000
# 4 0.0000 0.0000 0.0000 58.8731 0.0000 -14.1026
# 5 31.6886 -8.2727 15.8797 0.0000 59.4941 0.0000
# 6 0.0000 0.0000 0.0000 -14.1026 0.0000 48.6113
#
#
#
# Elastic Compliance Matrix: (Units=1/GPa)
#
#
# Indices 1 2 3 4 5 6 
#
# 1 0.008023 -0.003088 0.000002 0.000000 -0.004703 0.000000
# 2 -0.003088 0.009476 -0.001424 0.000000 0.003343 0.000000
# 3 0.000002 -0.001424 0.004500 0.000000 -0.001400 0.000000
# 4 0.000000 0.000000 0.000000 0.018254 0.000000 0.005296
# 5 -0.004703 0.003343 -0.001400 0.000000 0.020152 0.000000
# 6 0.000000 0.000000 0.000000 0.005296 0.000000 0.022108
#
#
# Mechanical properties :
#
#
# Convention : Reuss Voigt Hill
#
# Bulk Modulus (GPa) = 77.05591 82.44421 79.75006
# Shear Modulus (GPa) = 52.15900 61.50137 56.83018
#
# Velocity S-wave (km/s) = 4.39218 4.76933 4.58464
# Velocity P-wave (km/s) = 7.36350 7.79879 7.58427
#
# Compressibility (1/GPa) = 0.01297759
#
# Stress axis : x y z
#
# Youngs Moduli (GPa) = 124.64277 105.52758 222.21327
#
# Poissons Ratio (x) = 0.32591 -0.00035
# Poissons Ratio (y) = 0.38495 0.31643
# Poissons Ratio (z) = -0.00019 0.15027
#
# Static dielectric constant tensor:
#      x y z
#    x 3.252630 0.000000 -0.731580 
#    y 0.000000 2.159650 0.000000 
#    z -0.731580 0.000000 2.624540 
# 
# From -- ./inp_files/287.got.cif
#   From: 2010.05.17/outbox.cif.g08.bks.cpg/sg14_1_cif.got.tgz:287.got - 2010.06.03 17:49:19.
