data_PCOD9252647
_publ_section_title
;
Structure prediction by ZEFSAII (Michael W. Deem and Ramdas Pophale) SiO2 
 PCOD9252647
Probable space group: P 21/C
;
_chemical_formula_sum "Si O2"
_cell_formula_units_Z 28
_cell_length_a 13.985802
_cell_length_b 7.941949
_cell_length_c 19.242077
_cell_angle_alpha 90.000000
_cell_angle_beta 141.558994
_cell_angle_gamma 90.000000
_cell_volume 1328.780434
_symmetry_space_group_name_H-M "P 21/C"
_symmetry_group_IT_number 14
_symmetry_cell_setting 'monoclinic'
loop_
_space_group_symop_operation_xyz
x,y,z
-x,1/2+y,1/2-z
-x,-y,-z
x,1/2-y,1/2+z
loop_
_atom_site_type_symbol
_atom_site_label
_atom_site_fract_x
_atom_site_fract_y
_atom_site_fract_z
Si Si1 0.130987 0.554251 0.127003
Si Si2 0.902683 0.881805 0.616418
Si Si3 0.401233 0.265002 0.617787
Si Si4 0.286262 0.889518 0.246503
Si Si5 0.640262 0.744240 0.246623
Si Si6 0.840453 0.307233 0.173986
Si Si7 0.421030 0.922842 0.024554
O O1 0.197799 0.741962 0.154261
O O2 0.263961 0.416914 0.198827
O O3 0.046646 0.555011 0.153043
O O4 0.000000 0.500000 0.000000
O O5 0.769618 0.805875 0.492492
O O6 0.982602 0.743971 0.711379
O O7 0.834080 0.035056 0.619824
O O8 0.533299 0.143698 0.663102
O O9 0.428992 0.283229 0.715926
O O10 0.412397 0.435280 0.579235
O O11 0.238634 0.859076 0.298618
O O12 0.255143 0.080826 0.207735
O O13 0.519675 0.772090 0.115543
O O14 0.744490 0.151216 0.089169
O O15 0.500000 0.000000 0.000000
#
# Coordination Sequence:
#
# PCOD9252647 Si02
#       7
#     4   4   4   4   4   4   4
#     4  11  24  49  67 101 150 181 228 298 358 420
#     4  11  25  43  69  99 142 185 238 295 355 434
#     4  12  24  46  71 107 142 184 243 298 361 431
#     4  11  26  44  72 106 139 182 243 287 362 427
#     4  12  26  44  75 105 143 190 236 299 361 432
#     4  11  25  45  66 104 136 189 238 294 361 427
#     4  12  24  45  73 102 147 188 238 304 360 425
#
# _framework density 21.071954000000002
#
# number of rings (size 3 to 8) (size 9 to 14) (size 15 to 20)
#    0.000    0.571    4.286    3.429    4.000    4.000 
#    0.000    0.000    0.000    0.000    0.000    0.000 
#    0.000    0.000    0.000    0.000    0.000    0.000 
#
# Total GULP energy -156540.936624 kJ/mol
# GULP energy per Si atom -5590.747737 kJ/mol
# Density = 2.102399 g / cm^3
# Si number density = 21.071954 Si / 1000 Ang^3
#
#
#
# Elastic Constant Matrix: (Units=GPa)
#
#
# Indices 1 2 3 4 5 6 
#
# 1 85.1178 35.4572 18.2344 0.0000 -9.2659 0.0000
# 2 35.4572 101.5815 19.2596 0.0000 -19.7962 0.0000
# 3 18.2344 19.2596 89.5801 0.0000 -2.3027 0.0000
# 4 0.0000 0.0000 0.0000 20.7254 0.0000 2.2353
# 5 -9.2659 -19.7962 -2.3027 0.0000 28.1822 0.0000
# 6 0.0000 0.0000 0.0000 2.2353 0.0000 34.5854
#
#
#
# Elastic Compliance Matrix: (Units=1/GPa)
#
#
# Indices 1 2 3 4 5 6 
#
# 1 0.014098 -0.004270 -0.001914 0.000000 0.001480 0.000000
# 2 -0.004270 0.013170 -0.001764 0.000000 0.007703 0.000000
# 3 -0.001914 -0.001764 0.011909 0.000000 -0.000896 0.000000
# 4 0.000000 0.000000 0.000000 0.048589 0.000000 -0.003140
# 5 0.001480 0.007703 -0.000896 0.000000 0.041308 0.000000
# 6 0.000000 0.000000 0.000000 -0.003140 0.000000 0.029117
#
#
# Mechanical properties :
#
#
# Convention : Reuss Voigt Hill
#
# Bulk Modulus (GPa) = 42.95215 46.90909 44.93062
# Shear Modulus (GPa) = 27.49557 30.25381 28.87469
#
# Velocity S-wave (km/s) = 3.61618 3.79322 3.70576
# Velocity P-wave (km/s) = 6.15333 6.44162 6.29912
#
# Compressibility (1/GPa) = 0.02328172
#
# Stress axis : x y z
#
# Youngs Moduli (GPa) = 70.93154 75.92748 83.96957
#
# Poissons Ratio (x) = 0.32419 0.16069
# Poissons Ratio (y) = 0.30286 0.14816
# Poissons Ratio (z) = 0.13574 0.13397
#
# Static dielectric constant tensor:
#      x y z
#    x 1.751500 0.000000 -0.007560 
#    y 0.000000 1.795770 0.000000 
#    z -0.007560 0.000000 1.785680 
# 
# From -- ./inp_files/59093.got.cif
#   From: 2010.05.17/outbox.cif.g08.bks.cpg/sg14_30_cif.got.tgz:59093.got - 2010.06.03 17:49:19.
