data_PCOD9252242
_publ_section_title
;
Structure prediction by ZEFSAII (Michael W. Deem and Ramdas Pophale) SiO2 
 PCOD9252242
Probable space group: P 21/C
;
_chemical_formula_sum "Si O2"
_cell_formula_units_Z 22
_cell_length_a 4.766754
_cell_length_b 16.350873
_cell_length_c 9.747705
_cell_angle_alpha 90.000000
_cell_angle_beta 83.937812
_cell_angle_gamma 90.000000
_cell_volume 755.493286
_symmetry_space_group_name_H-M "P 21/C"
_symmetry_group_IT_number 14
_symmetry_cell_setting 'monoclinic'
loop_
_space_group_symop_operation_xyz
x,y,z
-x,1/2+y,1/2-z
-x,-y,-z
x,1/2-y,1/2+z
loop_
_atom_site_type_symbol
_atom_site_label
_atom_site_fract_x
_atom_site_fract_y
_atom_site_fract_z
Si Si1 0.971116 0.539532 0.255904
Si Si2 0.240847 0.339955 0.949331
Si Si3 0.500000 0.500000 0.500000
Si Si4 0.345176 0.812141 0.023839
Si Si5 0.496266 0.559700 0.845634
Si Si6 0.199143 0.713244 0.797833
O O1 0.908365 0.624516 0.179442
O O2 0.797029 0.533855 0.403972
O O3 0.812503 0.475400 0.164478
O O4 0.286511 0.500476 0.247736
O O5 0.445927 0.261532 0.940329
O O6 0.422534 0.416579 0.003470
O O7 0.012492 0.320269 0.077235
O O8 0.588771 0.406183 0.469467
O O9 0.097424 0.793924 0.147597
O O10 0.287810 0.797205 0.865468
O O11 0.466513 0.651573 0.786740
#
# Coordination Sequence:
#
# PCOD9252242 Si02
#       6
#     4   4   2   4   4   4
#     4  12  26  44  79 114 157 202 262 319 398 469
#     4  11  25  45  77 109 153 203 263 321 398 472
#     4  12  26  52  70 116 160 210 262 330 392 474
#     4  11  26  48  75 111 157 208 266 327 404 469
#     4  11  23  45  77 113 151 198 255 325 386 474
#     4  11  25  49  76 114 155 207 264 333 396 482
#
# _framework density 29.120047
#
# number of rings (size 3 to 8) (size 9 to 14) (size 15 to 20)
#    0.000    0.727    3.636    2.182    5.091    6.545 
#    3.273    0.000    0.000    0.000    0.000    0.000 
#    0.000    0.000    0.000    0.000    0.000    0.000 
#
# Total GULP energy -122685.180132 kJ/mol
# GULP energy per Si atom -5576.599097 kJ/mol
# Density = 2.905377 g / cm^3
# Si number density = 29.120047 Si / 1000 Ang^3
#
#
#
# Elastic Constant Matrix: (Units=GPa)
#
#
# Indices 1 2 3 4 5 6 
#
# 1 98.9324 10.2007 10.3871 0.0000 -5.9757 0.0000
# 2 10.2007 166.5790 44.4943 0.0000 -6.8357 0.0000
# 3 10.3871 44.4943 134.7957 0.0000 -8.4997 0.0000
# 4 0.0000 0.0000 0.0000 54.5394 0.0000 -4.4200
# 5 -5.9757 -6.8357 -8.4997 0.0000 53.1029 0.0000
# 6 0.0000 0.0000 0.0000 -4.4200 0.0000 41.8451
#
#
#
# Elastic Compliance Matrix: (Units=1/GPa)
#
#
# Indices 1 2 3 4 5 6 
#
# 1 0.010275 -0.000431 -0.000586 0.000000 0.001007 0.000000
# 2 -0.000431 0.006615 -0.002121 0.000000 0.000463 0.000000
# 3 -0.000586 -0.002121 0.008226 0.000000 0.000978 0.000000
# 4 0.000000 0.000000 0.000000 0.018494 0.000000 0.001953
# 5 0.001007 0.000463 0.000978 0.000000 0.019161 0.000000
# 6 0.000000 0.000000 0.000000 0.001953 0.000000 0.024104
#
#
# Mechanical properties :
#
#
# Convention : Reuss Voigt Hill
#
# Bulk Modulus (GPa) = 53.08208 58.94125 56.01166
# Shear Modulus (GPa) = 50.28650 52.24580 51.26615
#
# Velocity S-wave (km/s) = 4.16007 4.24034 4.20040
# Velocity P-wave (km/s) = 6.42987 6.65272 6.54224
#
# Compressibility (1/GPa) = 0.01883875
#
# Stress axis : x y z
#
# Youngs Moduli (GPa) = 97.32620 151.16806 121.57201
#
# Poissons Ratio (x) = 0.06521 0.07123
# Poissons Ratio (y) = 0.04198 0.25787
# Poissons Ratio (z) = 0.05702 0.32064
#
# Static dielectric constant tensor:
#      x y z
#    x 2.374420 0.000000 0.158640 
#    y 0.000000 2.411390 0.000000 
#    z 0.158640 0.000000 2.884740 
# 
# From -- ./inp_files/21054.got.cif
#   From: 2010.05.17/outbox.cif.g08.bks.cpg/sg14_11_cif.got.tgz:21054.got - 2010.06.03 17:49:19.
