data_PCOD9252527
_publ_section_title
;
Structure prediction by ZEFSAII (Michael W. Deem and Ramdas Pophale) SiO2 
 PCOD9252527
Probable space group: P 21/C
;
_chemical_formula_sum "Si O2"
_cell_formula_units_Z 12
_cell_length_a 5.359011
_cell_length_b 7.830449
_cell_length_c 10.132626
_cell_angle_alpha 90.000000
_cell_angle_beta 82.535120
_cell_angle_gamma 90.000000
_cell_volume 421.596364
_symmetry_space_group_name_H-M "P 21/C"
_symmetry_group_IT_number 14
_symmetry_cell_setting 'monoclinic'
loop_
_space_group_symop_operation_xyz
x,y,z
-x,1/2+y,1/2-z
-x,-y,-z
x,1/2-y,1/2+z
loop_
_atom_site_type_symbol
_atom_site_label
_atom_site_fract_x
_atom_site_fract_y
_atom_site_fract_z
Si Si1 0.026896 0.452523 0.661935
Si Si2 0.345803 0.264790 0.809696
Si Si3 0.322808 0.781005 0.976751
O O1 0.791989 0.581479 0.675599
O O2 0.946054 0.284598 0.583817
O O3 0.119300 0.397142 0.798473
O O4 0.250631 0.552755 0.573068
O O5 0.500641 0.267927 0.663188
O O6 0.523602 0.315425 0.918748
#
# Coordination Sequence:
#
# PCOD9252527 Si02
#       3
#     4   4   4
#     4  11  24  45  72 101 138 181 228 283 342 403
#     4  12  24  44  72 102 140 182 226 280 342 406
#     4  11  25  46  70 100 141 183 227 282 340 404
#
# _framework density 28.463242000000001
#
# number of rings (size 3 to 8) (size 9 to 14) (size 15 to 20)
#    0.000    0.667    0.000   10.000    0.000    1.333 
#    0.000   16.667    0.000    6.000    0.000    0.000 
#    0.000    0.000    0.000    0.000    0.000    0.000 
#
# Total GULP energy -66928.230061 kJ/mol
# GULP energy per Si atom -5577.352505 kJ/mol
# Density = 2.839846 g / cm^3
# Si number density = 28.463242 Si / 1000 Ang^3
#
#
#
# Elastic Constant Matrix: (Units=GPa)
#
#
# Indices 1 2 3 4 5 6 
#
# 1 159.6594 35.7911 49.2602 0.0000 14.5567 0.0000
# 2 35.7911 80.6071 41.8281 0.0000 9.7216 0.0000
# 3 49.2602 41.8281 155.7009 0.0000 3.9056 0.0000
# 4 0.0000 0.0000 0.0000 41.7493 0.0000 4.5204
# 5 14.5567 9.7216 3.9056 0.0000 38.9530 0.0000
# 6 0.0000 0.0000 0.0000 4.5204 0.0000 52.5070
#
#
#
# Elastic Compliance Matrix: (Units=1/GPa)
#
#
# Indices 1 2 3 4 5 6 
#
# 1 0.007473 -0.002170 -0.001729 0.000000 -0.002078 0.000000
# 2 -0.002170 0.015459 -0.003399 0.000000 -0.002706 0.000000
# 3 -0.001729 -0.003399 0.007865 0.000000 0.000706 0.000000
# 4 0.000000 0.000000 0.000000 0.024178 0.000000 -0.002082
# 5 -0.002078 -0.002706 0.000706 0.000000 0.027053 0.000000
# 6 0.000000 0.000000 0.000000 -0.002082 0.000000 0.019224
#
#
# Mechanical properties :
#
#
# Convention : Reuss Voigt Hill
#
# Bulk Modulus (GPa) = 61.72335 72.19181 66.95758
# Shear Modulus (GPa) = 41.23761 44.58106 42.90934
#
# Velocity S-wave (km/s) = 3.81044 3.96190 3.88691
# Velocity P-wave (km/s) = 6.41028 6.80787 6.61206
#
# Compressibility (1/GPa) = 0.01620132
#
# Stress axis : x y z
#
# Youngs Moduli (GPa) = 133.81984 64.68532 127.14694
#
# Poissons Ratio (x) = 0.14038 0.21985
# Poissons Ratio (y) = 0.29042 0.43212
# Poissons Ratio (z) = 0.23138 0.21984
#
# Static dielectric constant tensor:
#      x y z
#    x 2.349600 0.000000 -0.036480 
#    y 0.000000 2.385810 0.000000 
#    z -0.036480 0.000000 2.284630 
# 
# From -- ./inp_files/20094.got.cif
#   From: 2010.05.17/outbox.cif.g08.bks.cpg/sg14_11_cif.got.tgz:20094.got - 2010.06.03 17:49:19.
