data_PCOD9252181
_publ_section_title
;
Structure prediction by ZEFSAII (Michael W. Deem and Ramdas Pophale) SiO2 
 PCOD9252181
Probable space group: P 21/C
;
_chemical_formula_sum "Si O2"
_cell_formula_units_Z 26
_cell_length_a 23.056741
_cell_length_b 8.795419
_cell_length_c 17.105248
_cell_angle_alpha 90.000000
_cell_angle_beta 160.059887
_cell_angle_gamma 90.000000
_cell_volume 1183.004249
_symmetry_space_group_name_H-M "P 21/C"
_symmetry_group_IT_number 14
_symmetry_cell_setting 'monoclinic'
loop_
_space_group_symop_operation_xyz
x,y,z
-x,1/2+y,1/2-z
-x,-y,-z
x,1/2-y,1/2+z
loop_
_atom_site_type_symbol
_atom_site_label
_atom_site_fract_x
_atom_site_fract_y
_atom_site_fract_z
Si Si1 0.470145 0.781607 0.770908
Si Si2 0.477714 0.177231 0.483872
Si Si3 0.845043 0.690612 0.526522
Si Si4 0.311512 0.930436 0.782839
Si Si5 0.000000 0.500000 0.000000
Si Si6 0.262750 0.009436 0.965911
Si Si7 0.830201 0.021101 0.565729
O O1 0.635996 0.845486 0.939462
O O2 0.376779 0.641773 0.610638
O O3 0.341161 0.925185 0.609590
O O4 0.508503 0.726717 0.908178
O O5 0.628515 0.257980 0.626429
O O6 0.500000 0.000000 0.500000
O O7 0.296465 0.224206 0.217653
O O8 0.779942 0.554841 0.499319
O O9 0.018416 0.625953 0.710804
O O10 0.868301 0.842100 0.608477
O O11 0.195180 0.990217 0.705087
O O12 0.203763 0.932414 0.567066
O O13 0.500000 0.000000 0.000000
O O14 0.909136 0.486999 0.799916
#
# Coordination Sequence:
#
# PCOD9252181 Si02
#       7
#     4   4   4   4   2   4   4
#     4  11  26  44  70 101 140 185 237 296 370 432
#     4  11  24  43  72 102 139 193 242 298 365 444
#     4  12  24  43  69 100 142 181 241 299 352 440
#     4  11  23  44  71  99 136 191 239 288 367 438
#     4  12  26  42  70 104 142 186 240 296 360 446
#     4  12  26  44  68 105 142 185 238 303 363 433
#     4  11  24  42  68  99 135 186 237 291 358 432
#
# _framework density 21.977943
#
# number of rings (size 3 to 8) (size 9 to 14) (size 15 to 20)
#    0.000    0.615    4.615    3.692    4.308    0.000 
#    0.000    0.000    0.000    5.538    0.000    0.000 
#    0.000    0.000    0.000    0.000    0.000    0.000 
#
# Total GULP energy -144769.376345 kJ/mol
# GULP energy per Si atom -5568.052936 kJ/mol
# Density = 2.192792 g / cm^3
# Si number density = 21.977943 Si / 1000 Ang^3
#
#
#
# Elastic Constant Matrix: (Units=GPa)
#
#
# Indices 1 2 3 4 5 6 
#
# 1 67.9155 -4.4285 32.2510 0.0000 20.2346 0.0000
# 2 -4.4285 102.3991 23.1880 0.0000 9.3359 0.0000
# 3 32.2510 23.1880 129.1006 0.0000 -4.6792 0.0000
# 4 0.0000 0.0000 0.0000 22.7736 0.0000 3.2881
# 5 20.2346 9.3359 -4.6792 0.0000 39.8123 0.0000
# 6 0.0000 0.0000 0.0000 3.2881 0.0000 26.5445
#
#
#
# Elastic Compliance Matrix: (Units=1/GPa)
#
#
# Indices 1 2 3 4 5 6 
#
# 1 0.021872 0.003595 -0.006571 0.000000 -0.012732 0.000000
# 2 0.003595 0.011049 -0.003056 0.000000 -0.004777 0.000000
# 3 -0.006571 -0.003056 0.010126 0.000000 0.005246 0.000000
# 4 0.000000 0.000000 0.000000 0.044710 0.000000 -0.005538
# 5 -0.012732 -0.004777 0.005246 0.000000 0.033326 0.000000
# 6 0.000000 0.000000 0.000000 -0.005538 0.000000 0.038359
#
#
# Mechanical properties :
#
#
# Convention : Reuss Voigt Hill
#
# Bulk Modulus (GPa) = 32.27537 44.60403 38.43970
# Shear Modulus (GPa) = 27.49767 34.38639 30.94203
#
# Velocity S-wave (km/s) = 3.54100 3.95978 3.75623
# Velocity P-wave (km/s) = 5.60673 6.42226 6.02830
#
# Compressibility (1/GPa) = 0.03098338
#
# Stress axis : x y z
#
# Youngs Moduli (GPa) = 45.71991 90.50885 98.75160
#
# Poissons Ratio (x) = -0.32535 0.64891
# Poissons Ratio (y) = -0.16435 0.30175
# Poissons Ratio (z) = 0.30043 0.27656
#
# Static dielectric constant tensor:
#      x y z
#    x 1.792610 0.000000 0.018660 
#    y 0.000000 1.894220 0.000000 
#    z 0.018660 0.000000 1.812140 
# 
# From -- ./inp_files/61842.got.cif
#   From: 2010.05.17/outbox.cif.g08.bks.cpg/sg14_31_cif.got.tgz:61842.got - 2010.06.03 17:49:19.
