data_PCOD9252940
_publ_section_title
;
Structure prediction by ZEFSAII (Michael W. Deem and Ramdas Pophale) SiO2 
 PCOD9252940
Probable space group: P 21/C
;
_chemical_formula_sum "Si O2"
_cell_formula_units_Z 16
_cell_length_a 18.329927
_cell_length_b 8.226465
_cell_length_c 9.072624
_cell_angle_alpha 90.000000
_cell_angle_beta 152.445152
_cell_angle_gamma 90.000000
_cell_volume 632.863721
_symmetry_space_group_name_H-M "P 21/C"
_symmetry_group_IT_number 14
_symmetry_cell_setting 'monoclinic'
loop_
_space_group_symop_operation_xyz
x,y,z
-x,1/2+y,1/2-z
-x,-y,-z
x,1/2-y,1/2+z
loop_
_atom_site_type_symbol
_atom_site_label
_atom_site_fract_x
_atom_site_fract_y
_atom_site_fract_z
Si Si1 0.122727 0.413779 0.110963
Si Si2 0.093677 0.879703 0.276233
Si Si3 0.577000 0.755534 0.220700
Si Si4 0.607460 0.370222 0.866818
O O1 0.274823 0.355167 0.474004
O O2 0.160360 0.522895 0.035989
O O3 0.000000 0.500000 0.000000
O O4 0.028056 0.254887 0.886139
O O5 0.232468 0.811016 0.421683
O O6 0.000000 0.000000 0.000000
O O7 0.423947 0.675416 0.022549
O O8 0.601284 0.937431 0.327168
O O9 0.536342 0.784638 0.978120
#
# Coordination Sequence:
#
# PCOD9252940 Si02
#       4
#     4   4   4   4
#     4  12  28  47  78 109 155 203 253 320 383 457
#     4  12  27  49  75 114 153 202 256 315 388 460
#     4  11  26  49  75 109 150 200 256 315 377 455
#     4  11  27  47  76 108 153 196 259 314 378 459
#
# _framework density 25.281905999999999
#
# number of rings (size 3 to 8) (size 9 to 14) (size 15 to 20)
#    0.000    0.500    2.500    4.500   14.000    1.000 
#    0.000    0.000    0.000    0.000    0.000    0.000 
#    0.000    0.000    0.000    0.000    0.000    0.000 
#
# Total GULP energy -89778.167941 kJ/mol
# GULP energy per Si atom -5611.135496 kJ/mol
# Density = 2.522436 g / cm^3
# Si number density = 25.281906 Si / 1000 Ang^3
#
#
#
# Elastic Constant Matrix: (Units=GPa)
#
#
# Indices 1 2 3 4 5 6 
#
# 1 96.0174 24.0021 30.8510 0.0000 12.0962 0.0000
# 2 24.0021 57.0192 39.3093 0.0000 -8.1554 0.0000
# 3 30.8510 39.3093 123.4492 0.0000 8.9632 0.0000
# 4 0.0000 0.0000 0.0000 58.6965 0.0000 5.0333
# 5 12.0962 -8.1554 8.9632 0.0000 43.3202 0.0000
# 6 0.0000 0.0000 0.0000 5.0333 0.0000 50.1478
#
#
#
# Elastic Compliance Matrix: (Units=1/GPa)
#
#
# Indices 1 2 3 4 5 6 
#
# 1 0.012607 -0.005060 -0.001233 0.000000 -0.004218 0.000000
# 2 -0.005060 0.026034 -0.007598 0.000000 0.007886 0.000000
# 3 -0.001233 -0.007598 0.011073 0.000000 -0.003377 0.000000
# 4 0.000000 0.000000 0.000000 0.017185 0.000000 -0.001725
# 5 -0.004218 0.007886 -0.003377 0.000000 0.026445 0.000000
# 6 0.000000 0.000000 0.000000 -0.001725 0.000000 0.020114
#
#
# Mechanical properties :
#
#
# Convention : Reuss Voigt Hill
#
# Bulk Modulus (GPa) = 45.59519 51.64563 48.62041
# Shear Modulus (GPa) = 33.65839 42.58778 38.12309
#
# Velocity S-wave (km/s) = 3.65269 4.10874 3.88741
# Velocity P-wave (km/s) = 5.98860 6.55601 6.27872
#
# Compressibility (1/GPa) = 0.02193214
#
# Stress axis : x y z
#
# Youngs Moduli (GPa) = 79.31934 38.41137 90.30788
#
# Poissons Ratio (x) = 0.19437 0.11136
# Poissons Ratio (y) = 0.40137 0.68615
# Poissons Ratio (z) = 0.09781 0.29184
#
# Static dielectric constant tensor:
#      x y z
#    x 1.913500 0.000000 0.036140 
#    y 0.000000 1.987210 0.000000 
#    z 0.036140 0.000000 1.984220 
# 
# From -- ./inp_files/7279.got.cif
#   From: 2010.05.17/outbox.cif.g08.bks.cpg/sg14_4_cif.got.tgz:7279.got - 2010.06.03 17:49:19.
