data_PCOD9252703
_publ_section_title
;
Structure prediction by ZEFSAII (Michael W. Deem and Ramdas Pophale) SiO2 
 PCOD9252703
Probable space group: P 21/C
;
_chemical_formula_sum "Si O2"
_cell_formula_units_Z 24
_cell_length_a 14.416329
_cell_length_b 9.448530
_cell_length_c 16.827022
_cell_angle_alpha 90.000000
_cell_angle_beta 30.991558
_cell_angle_gamma 90.000000
_cell_volume 1180.209255
_symmetry_space_group_name_H-M "P 21/C"
_symmetry_group_IT_number 14
_symmetry_cell_setting 'monoclinic'
loop_
_space_group_symop_operation_xyz
x,y,z
-x,1/2+y,1/2-z
-x,-y,-z
x,1/2-y,1/2+z
loop_
_atom_site_type_symbol
_atom_site_label
_atom_site_fract_x
_atom_site_fract_y
_atom_site_fract_z
Si Si1 0.803748 0.150925 0.355135
Si Si2 0.843300 0.955639 0.175531
Si Si3 0.639680 0.317319 0.210286
Si Si4 0.310239 0.922606 0.148889
Si Si5 0.972636 0.673511 0.161754
Si Si6 0.500022 0.001822 0.321659
O O1 0.714333 0.301354 0.399526
O O2 0.978898 0.178861 0.280464
O O3 0.837828 0.075608 0.246726
O O4 0.675384 0.045556 0.499610
O O5 0.871146 0.809283 0.201605
O O6 0.664673 0.946894 0.254015
O O7 0.000000 0.000000 0.000000
O O8 0.679268 0.354271 0.271827
O O9 0.538945 0.167149 0.281639
O O10 0.519579 0.429066 0.249761
O O11 0.833659 0.318780 0.024380
O O12 0.145394 0.033795 0.266716
O O13 0.500000 0.000000 0.000000
#
# Coordination Sequence:
#
# PCOD9252703 Si02
#       6
#     4   4   4   4   4   4
#     4  11  25  46  68 101 141 182 231 287 353 418
#     4  12  23  44  71  99 139 180 232 286 351 419
#     4  11  26  46  67 101 137 181 231 288 349 410
#     4  12  26  44  71 101 141 180 233 288 349 417
#     4  11  25  44  68 102 138 181 233 287 345 423
#     4  11  25  45  69  99 141 181 234 287 351 421
#
# _framework density 20.335377999999999
#
# number of rings (size 3 to 8) (size 9 to 14) (size 15 to 20)
#    0.000    0.667    3.333    3.000    9.333    1.333 
#    3.000    0.000    0.000    0.000    0.000    0.000 
#    0.000    0.000    0.000    0.000    0.000    0.000 
#
# Total GULP energy -134155.810457 kJ/mol
# GULP energy per Si atom -5589.825436 kJ/mol
# Density = 2.028909 g / cm^3
# Si number density = 20.335378 Si / 1000 Ang^3
#
#
#
# Elastic Constant Matrix: (Units=GPa)
#
#
# Indices 1 2 3 4 5 6 
#
# 1 146.3045 57.6121 -0.1829 0.0000 -4.8912 0.0000
# 2 57.6121 153.2982 29.9016 0.0000 -5.8261 0.0000
# 3 -0.1829 29.9016 31.5588 0.0000 27.7428 0.0000
# 4 0.0000 0.0000 0.0000 30.0984 0.0000 -5.8166
# 5 -4.8912 -5.8261 27.7428 0.0000 -1.5583 0.0000
# 6 0.0000 0.0000 0.0000 -5.8166 0.0000 39.4949
#
#
#
# Elastic Compliance Matrix: (Units=1/GPa)
#
#
# Indices 1 2 3 4 5 6 
#
# 1 0.008158 -0.003152 0.000912 0.000000 0.002414 0.000000
# 2 -0.003152 0.007289 0.000501 0.000000 -0.008447 0.000000
# 3 0.000912 0.000501 0.002125 0.000000 0.033095 0.000000
# 4 0.000000 0.000000 0.000000 0.034198 0.000000 0.005036
# 5 0.002414 -0.008447 0.033095 0.000000 -0.028527 0.000000
# 6 0.000000 0.000000 0.000000 0.005036 0.000000 0.026061
#
#
# Mechanical properties :
#
#
# Convention : Reuss Voigt Hill
#
# Bulk Modulus (GPa) = 70.95723 56.20255 63.57989
# Shear Modulus (GPa) = 86.98536 29.86238 58.42387
#
# Velocity S-wave (km/s) = 6.54738 3.83625 5.36587
# Velocity P-wave (km/s) = 9.59828 6.87897 8.35006
#
# Compressibility (1/GPa) = 0.01409300
#
# Stress axis : x y z
#
# Youngs Moduli (GPa) = 122.57687 137.18941 470.63524
#
# Poissons Ratio (x) = 0.43244 -0.42920
# Poissons Ratio (y) = 0.38638 -0.23560
# Poissons Ratio (z) = -0.11178 -0.06868
#
# Static dielectric constant tensor:
#      x y z
#    x 1.931910 0.000000 1.499340 
#    y 0.000000 1.701510 0.000000 
#    z 1.499340 0.000000 11.766760 
# 
# From -- ./inp_files/58964.got.cif
#   From: 2010.05.17/outbox.cif.g08.bks.cpg/sg14_30_cif.got.tgz:58964.got - 2010.06.03 17:49:19.
