data_PCOD9252861
_publ_section_title
;
Structure prediction by ZEFSAII (Michael W. Deem and Ramdas Pophale) SiO2 
 PCOD9252861
Probable space group: P 21/C
;
_chemical_formula_sum "Si O2"
_cell_formula_units_Z 20
_cell_length_a 19.983829
_cell_length_b 7.447879
_cell_length_c 14.266814
_cell_angle_alpha 90.000000
_cell_angle_beta 158.685982
_cell_angle_gamma 90.000000
_cell_volume 771.823222
_symmetry_space_group_name_H-M "P 21/C"
_symmetry_group_IT_number 14
_symmetry_cell_setting 'monoclinic'
loop_
_space_group_symop_operation_xyz
x,y,z
-x,1/2+y,1/2-z
-x,-y,-z
x,1/2-y,1/2+z
loop_
_atom_site_type_symbol
_atom_site_label
_atom_site_fract_x
_atom_site_fract_y
_atom_site_fract_z
Si Si1 0.345876 0.593697 0.542887
Si Si2 0.760251 0.810600 0.609746
Si Si3 0.118682 0.618603 0.865058
Si Si4 0.358141 0.773320 0.845357
Si Si5 0.249623 0.353891 0.697782
O O1 0.270884 0.394545 0.457628
O O2 0.229183 0.731440 0.451018
O O3 0.348744 0.650326 0.437751
O O4 0.555808 0.603789 0.851855
O O5 0.840490 0.810670 0.819108
O O6 0.862480 0.936839 0.670382
O O7 0.905305 0.667421 0.582469
O O8 0.218854 0.620510 0.095705
O O9 0.302983 0.563684 0.770880
O O10 0.569110 0.766141 0.083753
#
# Coordination Sequence:
#
# PCOD9252861 Si02
#       5
#     4   4   4   4   4
#     4  12  25  48  81 108 153 207 253 311 392 445
#     4  12  24  47  78 107 153 201 251 312 374 454
#     4  12  27  51  75 115 152 203 255 319 376 463
#     4  11  26  50  78 114 154 201 252 321 381 452
#     4  11  25  50  77 109 157 199 255 320 379 453
#
# _framework density 25.912671
#
# number of rings (size 3 to 8) (size 9 to 14) (size 15 to 20)
#    0.000    0.400    6.000    0.600    2.800    7.200 
#    0.000    0.000    0.000    0.000    0.000    0.000 
#    0.000    0.000    0.000    0.000    0.000    0.000 
#
# Total GULP energy -112398.662151 kJ/mol
# GULP energy per Si atom -5619.933108 kJ/mol
# Density = 2.585369 g / cm^3
# Si number density = 25.912671 Si / 1000 Ang^3
#
#
#
# Elastic Constant Matrix: (Units=GPa)
#
#
# Indices 1 2 3 4 5 6 
#
# 1 104.1085 26.3492 26.5099 0.0000 -28.9823 0.0000
# 2 26.3492 100.8139 6.6033 0.0000 -13.4087 0.0000
# 3 26.5099 6.6033 149.1348 0.0000 -23.1898 0.0000
# 4 0.0000 0.0000 0.0000 58.0967 0.0000 -7.6431
# 5 -28.9823 -13.4087 -23.1898 0.0000 24.6176 0.0000
# 6 0.0000 0.0000 0.0000 -7.6431 0.0000 46.2486
#
#
#
# Elastic Compliance Matrix: (Units=1/GPa)
#
#
# Indices 1 2 3 4 5 6 
#
# 1 0.014536 -0.001641 0.000013 0.000000 0.016231 0.000000
# 2 -0.001641 0.010912 0.000507 0.000000 0.004489 0.000000
# 3 0.000013 0.000507 0.007880 0.000000 0.007714 0.000000
# 4 0.000000 0.000000 0.000000 0.017595 0.000000 0.002908
# 5 0.016231 0.004489 0.007714 0.000000 0.069442 0.000000
# 6 0.000000 0.000000 0.000000 0.002908 0.000000 0.022103
#
#
# Mechanical properties :
#
#
# Convention : Reuss Voigt Hill
#
# Bulk Modulus (GPa) = 32.17067 52.55354 42.36211
# Shear Modulus (GPa) = 32.24278 45.43224 38.83751
#
# Velocity S-wave (km/s) = 3.53127 4.19176 3.87561
# Velocity P-wave (km/s) = 5.39152 6.61460 6.03413
#
# Compressibility (1/GPa) = 0.03108421
#
# Stress axis : x y z
#
# Youngs Moduli (GPa) = 68.79445 91.64196 126.90116
#
# Poissons Ratio (x) = 0.15040 -0.00161
# Poissons Ratio (y) = 0.11291 -0.06428
# Poissons Ratio (z) = -0.00087 -0.04642
#
# Static dielectric constant tensor:
#      x y z
#    x 1.999830 0.000000 -0.005470 
#    y 0.000000 1.991500 0.000000 
#    z -0.005470 0.000000 2.041210 
# 
# From -- ./inp_files/50169.got.cif
#   From: 2010.05.17/outbox.cif.g08.bks.cpg/sg14_26_cif.got.tgz:50169.got - 2010.06.03 17:49:19.
