data_PCOD9252451
_publ_section_title
;
Structure prediction by ZEFSAII (Michael W. Deem and Ramdas Pophale) SiO2 
 PCOD9252451
Probable space group: P 21/C
;
_chemical_formula_sum "Si O2"
_cell_formula_units_Z 28
_cell_length_a 20.152819
_cell_length_b 8.147479
_cell_length_c 9.442530
_cell_angle_alpha 90.000000
_cell_angle_beta 130.548253
_cell_angle_gamma 90.000000
_cell_volume 1178.094952
_symmetry_space_group_name_H-M "P 21/C"
_symmetry_group_IT_number 14
_symmetry_cell_setting 'monoclinic'
loop_
_space_group_symop_operation_xyz
x,y,z
-x,1/2+y,1/2-z
-x,-y,-z
x,1/2-y,1/2+z
loop_
_atom_site_type_symbol
_atom_site_label
_atom_site_fract_x
_atom_site_fract_y
_atom_site_fract_z
Si Si1 0.642650 0.699346 0.995527
Si Si2 0.066620 0.593210 0.195679
Si Si3 0.536902 0.677765 0.573891
Si Si4 0.638311 0.359096 0.158575
Si Si5 0.081860 0.174765 0.956521
Si Si6 0.181724 0.099136 0.382335
Si Si7 0.752445 0.273159 0.576783
O O1 0.567982 0.713123 0.774847
O O2 0.621541 0.821923 0.091211
O O3 0.634990 0.527710 0.068304
O O4 0.734418 0.707348 0.045801
O O5 0.084821 0.479717 0.356344
O O6 0.159100 0.636529 0.256257
O O7 0.016460 0.758270 0.170250
O O8 0.000000 0.500000 0.000000
O O9 0.500000 0.500000 0.500000
O O10 0.457610 0.800852 0.428591
O O11 0.703220 0.363664 0.380972
O O12 0.683978 0.239178 0.108974
O O13 0.137822 0.321594 0.960218
O O14 0.116170 0.124432 0.158540
O O15 0.217095 0.911105 0.431695
#
# Coordination Sequence:
#
# PCOD9252451 Si02
#       7
#     4   4   4   4   4   4   4
#     4  11  24  44  68 100 142 178 234 280 348 412
#     4  12  27  44  70 104 135 187 230 301 354 424
#     4  12  24  42  70 103 138 181 231 289 344 413
#     4  11  25  46  69  99 137 188 228 285 352 420
#     4  12  26  45  70  99 143 175 240 279 368 413
#     4  11  25  45  69 102 137 187 227 296 347 429
#     4  11  26  45  71  97 139 181 242 283 360 420
#
# _framework density 23.767182999999999
#
# number of rings (size 3 to 8) (size 9 to 14) (size 15 to 20)
#    0.000    0.571    1.429    7.286    6.000    3.429 
#    0.000    0.000    0.000    0.000    0.000    0.000 
#    0.000    0.000    0.000    0.000    0.000    0.000 
#
# Total GULP energy -156840.603942 kJ/mol
# GULP energy per Si atom -5601.450141 kJ/mol
# Density = 2.371309 g / cm^3
# Si number density = 23.767183 Si / 1000 Ang^3
#
#
#
# Elastic Constant Matrix: (Units=GPa)
#
#
# Indices 1 2 3 4 5 6 
#
# 1 80.3329 -7.2407 12.1978 0.0000 15.0479 0.0000
# 2 -7.2407 34.7371 6.1582 0.0000 10.5226 0.0000
# 3 12.1978 6.1582 87.3270 0.0000 7.1740 0.0000
# 4 0.0000 0.0000 0.0000 26.3837 0.0000 3.1810
# 5 15.0479 10.5226 7.1740 0.0000 35.6199 0.0000
# 6 0.0000 0.0000 0.0000 3.1810 0.0000 43.4131
#
#
#
# Elastic Compliance Matrix: (Units=1/GPa)
#
#
# Indices 1 2 3 4 5 6 
#
# 1 0.014635 0.005641 -0.001827 0.000000 -0.007481 0.000000
# 2 0.005641 0.033982 -0.002200 0.000000 -0.011979 0.000000
# 3 -0.001827 -0.002200 0.011942 0.000000 -0.000983 0.000000
# 4 0.000000 0.000000 0.000000 0.038240 0.000000 -0.002802
# 5 -0.007481 -0.011979 -0.000983 0.000000 0.034971 0.000000
# 6 0.000000 0.000000 0.000000 -0.002802 0.000000 0.023240
#
#
# Mechanical properties :
#
#
# Convention : Reuss Voigt Hill
#
# Bulk Modulus (GPa) = 15.67738 24.95865 20.31802
# Shear Modulus (GPa) = 28.56375 33.83545 31.19960
#
# Velocity S-wave (km/s) = 3.47048 3.77718 3.62708
# Velocity P-wave (km/s) = 4.76125 5.43571 5.10962
#
# Compressibility (1/GPa) = 0.06378616
#
# Stress axis : x y z
#
# Youngs Moduli (GPa) = 68.32705 29.42729 83.73518
#
# Poissons Ratio (x) = -0.16599 0.15303
# Poissons Ratio (y) = -0.38542 0.18424
# Poissons Ratio (z) = 0.12487 0.06475
#
# Static dielectric constant tensor:
#      x y z
#    x 1.900510 0.000000 0.000150 
#    y 0.000000 1.933700 0.000000 
#    z 0.000150 0.000000 1.817700 
# 
# From -- ./inp_files/18713.got.cif
#   From: 2010.05.17/outbox.cif.g08.bks.cpg/sg14_10_cif.got.tgz:18713.got - 2010.06.03 17:49:19.
