data_PCOD9252279
_publ_section_title
;
Structure prediction by ZEFSAII (Michael W. Deem and Ramdas Pophale) SiO2 
 PCOD9252279
Probable space group: P 21/C
;
_chemical_formula_sum "Si O2"
_cell_formula_units_Z 24
_cell_length_a 12.965681
_cell_length_b 9.405110
_cell_length_c 8.986420
_cell_angle_alpha 90.000000
_cell_angle_beta 65.506891
_cell_angle_gamma 90.000000
_cell_volume 997.223795
_symmetry_space_group_name_H-M "P 21/C"
_symmetry_group_IT_number 14
_symmetry_cell_setting 'monoclinic'
loop_
_space_group_symop_operation_xyz
x,y,z
-x,1/2+y,1/2-z
-x,-y,-z
x,1/2-y,1/2+z
loop_
_atom_site_type_symbol
_atom_site_label
_atom_site_fract_x
_atom_site_fract_y
_atom_site_fract_z
Si Si1 0.490282 0.867384 0.893985
Si Si2 0.796607 0.430268 0.829696
Si Si3 0.621048 0.844812 0.511172
Si Si4 0.070977 0.127236 0.534914
Si Si5 0.159667 0.349031 0.662436
Si Si6 0.225772 0.640304 0.490959
O O1 0.572389 0.877129 0.703015
O O2 0.361780 0.864917 0.915924
O O3 0.526811 0.727503 0.963756
O O4 0.500000 0.000000 0.000000
O O5 0.815354 0.385088 0.650658
O O6 0.676004 0.512862 0.911562
O O7 0.878694 0.544514 0.853478
O O8 0.803605 0.293766 0.929721
O O9 0.722984 0.727973 0.457168
O O10 0.057113 0.279809 0.627055
O O11 0.145575 0.171688 0.346768
O O12 0.000000 0.000000 0.500000
O O13 0.174058 0.515348 0.621758
#
# Coordination Sequence:
#
# PCOD9252279 Si02
#       6
#     4   4   4   4   4   4
#     4  12  26  40  68 102 143 195 263 293 343 438
#     4  11  26  44  68 100 147 189 243 309 381 435
#     4  11  24  44  67  98 147 198 245 304 363 425
#     4  11  26  49  78 109 138 189 245 306 384 466
#     4  11  23  46  76 103 149 192 240 307 382 439
#     4  12  25  42  67 104 144 196 243 306 360 429
#
# _framework density 24.066813
#
# number of rings (size 3 to 8) (size 9 to 14) (size 15 to 20)
#    0.000    0.667    1.667    7.000    4.667    4.000 
#    0.000    2.500    0.000    0.000    0.000    0.000 
#    0.000    0.000    0.000    0.000    0.000    0.000 
#
# Total GULP energy -134242.674408 kJ/mol
# GULP energy per Si atom -5593.444767 kJ/mol
# Density = 2.401204 g / cm^3
# Si number density = 24.066813 Si / 1000 Ang^3
#
#
#
# Elastic Constant Matrix: (Units=GPa)
#
#
# Indices 1 2 3 4 5 6 
#
# 1 89.1499 4.6310 6.6295 0.0000 18.4933 0.0000
# 2 4.6310 125.1571 15.9124 0.0000 2.3252 0.0000
# 3 6.6295 15.9124 142.3558 0.0000 20.1693 0.0000
# 4 0.0000 0.0000 0.0000 41.7328 0.0000 11.1003
# 5 18.4933 2.3252 20.1693 0.0000 34.4691 0.0000
# 6 0.0000 0.0000 0.0000 11.1003 0.0000 55.4760
#
#
#
# Elastic Compliance Matrix: (Units=1/GPa)
#
#
# Indices 1 2 3 4 5 6 
#
# 1 0.012663 -0.000395 0.000451 0.000000 -0.007031 0.000000
# 2 -0.000395 0.008117 -0.000917 0.000000 0.000201 0.000000
# 3 0.000451 -0.000917 0.007776 0.000000 -0.004730 0.000000
# 4 0.000000 0.000000 0.000000 0.025309 0.000000 -0.005064
# 5 -0.007031 0.000201 -0.004730 0.000000 0.035538 0.000000
# 6 0.000000 0.000000 0.000000 -0.005064 0.000000 0.019039
#
#
# Mechanical properties :
#
#
# Convention : Reuss Voigt Hill
#
# Bulk Modulus (GPa) = 37.26858 45.66762 41.46810
# Shear Modulus (GPa) = 41.97782 48.30157 45.13969
#
# Velocity S-wave (km/s) = 4.18092 4.48479 4.33552
# Velocity P-wave (km/s) = 6.23104 6.77011 6.50616
#
# Compressibility (1/GPa) = 0.02683226
#
# Stress axis : x y z
#
# Youngs Moduli (GPa) = 78.97315 123.19082 128.59419
#
# Poissons Ratio (x) = 0.04869 -0.05795
# Poissons Ratio (y) = 0.03121 0.11798
# Poissons Ratio (z) = -0.03559 0.11303
#
# Static dielectric constant tensor:
#      x y z
#    x 2.019010 0.000000 -0.022740 
#    y 0.000000 1.948850 0.000000 
#    z -0.022740 0.000000 1.885010 
# 
# From -- ./inp_files/15007.got.cif
#   From: 2010.05.17/outbox.cif.g08.bks.cpg/sg14_8_cif.got.tgz:15007.got - 2010.06.03 17:49:19.
