data_PCOD9252154
_publ_section_title
;
Structure prediction by ZEFSAII (Michael W. Deem and Ramdas Pophale) SiO2 
 PCOD9252154
Probable space group: P 21/C
;
_chemical_formula_sum "Si O2"
_cell_formula_units_Z 20
_cell_length_a 4.850906
_cell_length_b 13.156655
_cell_length_c 11.190172
_cell_angle_alpha 90.000000
_cell_angle_beta 88.463281
_cell_angle_gamma 90.000000
_cell_volume 713.918905
_symmetry_space_group_name_H-M "P 21/C"
_symmetry_group_IT_number 14
_symmetry_cell_setting 'monoclinic'
loop_
_space_group_symop_operation_xyz
x,y,z
-x,1/2+y,1/2-z
-x,-y,-z
x,1/2-y,1/2+z
loop_
_atom_site_type_symbol
_atom_site_label
_atom_site_fract_x
_atom_site_fract_y
_atom_site_fract_z
Si Si1 0.712529 0.726653 0.618311
Si Si2 0.335226 0.838410 0.309913
Si Si3 0.445818 0.620868 0.394302
Si Si4 0.225503 0.869880 0.573286
Si Si5 0.021778 0.488895 0.708529
O O1 0.635195 0.672599 0.745158
O O2 0.584181 0.657551 0.515173
O O3 0.002809 0.777987 0.584458
O O4 0.509661 0.823697 0.614997
O O5 0.286119 0.720774 0.344815
O O6 0.290172 0.896971 0.435076
O O7 0.149472 0.898998 0.217919
O O8 0.710132 0.579631 0.320053
O O9 0.207800 0.535926 0.389152
O O10 0.121670 0.955348 0.665266
#
# Coordination Sequence:
#
# PCOD9252154 Si02
#       5
#     4   4   4   4   4
#     4  11  24  43  71  94 143 181 219 276 344 400
#     4  11  25  44  73  98 137 187 221 278 349 389
#     4  11  25  45  64 103 139 174 227 283 327 409
#     4  11  23  44  68 103 135 175 231 281 329 404
#     4  12  24  44  71 102 137 174 231 277 339 403
#
# _framework density 28.014388
#
# number of rings (size 3 to 8) (size 9 to 14) (size 15 to 20)
#    0.000    0.800    4.000    3.000    0.000    8.000 
#    0.000    7.000    0.000    0.000    0.000    0.000 
#    0.000    0.000    0.000    0.000    0.000    0.000 
#
# Total GULP energy -111983.581820 kJ/mol
# GULP energy per Si atom -5599.179091 kJ/mol
# Density = 2.795063 g / cm^3
# Si number density = 28.014388 Si / 1000 Ang^3
#
#
#
# Elastic Constant Matrix: (Units=GPa)
#
#
# Indices 1 2 3 4 5 6 
#
# 1 121.5960 28.5865 0.6360 0.0000 -16.3557 0.0000
# 2 28.5865 119.3204 14.6699 0.0000 14.7085 0.0000
# 3 0.6360 14.6699 89.9037 0.0000 -20.5968 0.0000
# 4 0.0000 0.0000 0.0000 40.6240 0.0000 14.6434
# 5 -16.3557 14.7085 -20.5968 0.0000 45.4745 0.0000
# 6 0.0000 0.0000 0.0000 14.6434 0.0000 52.6413
#
#
#
# Elastic Compliance Matrix: (Units=1/GPa)
#
#
# Indices 1 2 3 4 5 6 
#
# 1 0.009665 -0.003165 0.001650 0.000000 0.005248 0.000000
# 2 -0.003165 0.010218 -0.002971 0.000000 -0.005789 0.000000
# 3 0.001650 -0.002971 0.013336 0.000000 0.007595 0.000000
# 4 0.000000 0.000000 0.000000 0.027359 0.000000 -0.007611
# 5 0.005248 -0.005789 0.007595 0.000000 0.029190 0.000000
# 6 0.000000 0.000000 0.000000 -0.007611 0.000000 0.021114
#
#
# Mechanical properties :
#
#
# Convention : Reuss Voigt Hill
#
# Bulk Modulus (GPa) = 41.24210 46.51166 43.87688
# Shear Modulus (GPa) = 39.08157 46.87648 42.97902
#
# Velocity S-wave (km/s) = 3.73909 4.09504 3.92111
# Velocity P-wave (km/s) = 5.77882 6.24483 6.01634
#
# Compressibility (1/GPa) = 0.02424707
#
# Stress axis : x y z
#
# Youngs Moduli (GPa) = 103.46258 97.86578 74.98417
#
# Poissons Ratio (x) = 0.30978 -0.12375
# Poissons Ratio (y) = 0.32750 0.22279
# Poissons Ratio (z) = -0.17075 0.29078
#
# Static dielectric constant tensor:
#      x y z
#    x 2.076070 0.000000 0.053060 
#    y 0.000000 2.223780 0.000000 
#    z 0.053060 0.000000 2.275590 
# 
# From -- ./inp_files/20627.got.cif
#   From: 2010.05.17/outbox.cif.g08.bks.cpg/sg14_11_cif.got.tgz:20627.got - 2010.06.03 17:49:19.
