data_PCOD9252158
_publ_section_title
;
Structure prediction by ZEFSAII (Michael W. Deem and Ramdas Pophale) SiO2 
 PCOD9252158
Probable space group: P 21/C
;
_chemical_formula_sum "Si O2"
_cell_formula_units_Z 28
_cell_length_a 17.654929
_cell_length_b 8.548402
_cell_length_c 14.259539
_cell_angle_alpha 90.000000
_cell_angle_beta 34.693208
_cell_angle_gamma 90.000000
_cell_volume 1224.919649
_symmetry_space_group_name_H-M "P 21/C"
_symmetry_group_IT_number 14
_symmetry_cell_setting 'monoclinic'
loop_
_space_group_symop_operation_xyz
x,y,z
-x,1/2+y,1/2-z
-x,-y,-z
x,1/2-y,1/2+z
loop_
_atom_site_type_symbol
_atom_site_label
_atom_site_fract_x
_atom_site_fract_y
_atom_site_fract_z
Si Si1 0.426030 0.788920 0.395002
Si Si2 0.076019 0.809414 0.974997
Si Si3 0.387240 0.177978 0.145568
Si Si4 0.759623 0.413078 0.299530
Si Si5 0.865328 0.633123 0.534718
Si Si6 0.550973 0.656388 0.095975
Si Si7 0.156803 0.197090 0.161217
O O1 0.541970 0.687761 0.327209
O O2 0.295150 0.727629 0.580636
O O3 0.441325 0.741911 0.271572
O O4 0.451812 0.971227 0.385275
O O5 0.002648 0.844365 0.950828
O O6 0.961347 0.792742 0.169417
O O7 0.154704 0.652052 0.873319
O O8 0.169890 0.952281 0.909319
O O9 0.242162 0.254337 0.308611
O O10 0.359887 0.013055 0.124506
O O11 0.465497 0.290867 0.994432
O O12 0.834401 0.533631 0.291385
O O13 0.871029 0.668257 0.419377
O O14 0.698759 0.721183 0.973148
#
# Coordination Sequence:
#
# PCOD9252158 Si02
#       7
#     4   4   4   4   4   4   4
#     4  12  25  44  69  98 138 173 224 273 336 401
#     4  11  25  45  69  98 140 176 229 280 338 405
#     4  11  23  45  69  96 139 174 223 275 333 396
#     4  11  25  44  67 103 135 179 222 280 335 400
#     4  11  24  43  69  97 137 178 227 278 340 394
#     4  11  23  44  68  99 135 175 220 277 332 397
#     4  11  24  45  68 101 139 176 227 281 337 402
#
# _framework density 22.858642
#
# number of rings (size 3 to 8) (size 9 to 14) (size 15 to 20)
#    0.000    0.857    4.286    3.857    4.000    0.000 
#    2.571    0.000    0.000    0.000    0.000    0.000 
#    0.000    0.000    0.000    0.000    0.000    0.000 
#
# Total GULP energy -156707.363256 kJ/mol
# GULP energy per Si atom -5596.691545 kJ/mol
# Density = 2.280661 g / cm^3
# Si number density = 22.858642 Si / 1000 Ang^3
#
#
#
# Elastic Constant Matrix: (Units=GPa)
#
#
# Indices 1 2 3 4 5 6 
#
# 1 61.1008 -0.0097 11.7826 0.0000 25.4161 0.0000
# 2 -0.0097 76.4102 9.5710 0.0000 11.1686 0.0000
# 3 11.7826 9.5710 90.1872 0.0000 19.0448 0.0000
# 4 0.0000 0.0000 0.0000 40.0341 0.0000 3.4466
# 5 25.4161 11.1686 19.0448 0.0000 34.0647 0.0000
# 6 0.0000 0.0000 0.0000 3.4466 0.0000 18.5908
#
#
#
# Elastic Compliance Matrix: (Units=1/GPa)
#
#
# Indices 1 2 3 4 5 6 
#
# 1 0.024314 0.002760 0.000626 0.000000 -0.019396 0.000000
# 2 0.002760 0.014086 -0.000505 0.000000 -0.006395 0.000000
# 3 0.000626 -0.000505 0.012613 0.000000 -0.007353 0.000000
# 4 0.000000 0.000000 0.000000 0.025384 0.000000 -0.004706
# 5 -0.019396 -0.006395 -0.007353 0.000000 0.050036 0.000000
# 6 0.000000 0.000000 0.000000 -0.004706 0.000000 0.054663
#
#
# Mechanical properties :
#
#
# Convention : Reuss Voigt Hill
#
# Bulk Modulus (GPa) = 17.61342 30.04292 23.82817
# Shear Modulus (GPa) = 25.73911 32.29487 29.01699
#
# Velocity S-wave (km/s) = 3.35925 3.76281 3.56674
# Velocity P-wave (km/s) = 4.77160 5.66125 5.23536
#
# Compressibility (1/GPa) = 0.05677488
#
# Stress axis : x y z
#
# Youngs Moduli (GPa) = 41.12801 70.99465 79.28598
#
# Poissons Ratio (x) = -0.19592 -0.04967
# Poissons Ratio (y) = -0.11350 0.04004
# Poissons Ratio (z) = -0.02577 0.03585
#
# Static dielectric constant tensor:
#      x y z
#    x 1.828210 0.000000 -0.039950 
#    y 0.000000 1.864140 0.000000 
#    z -0.039950 0.000000 1.820530 
# 
# From -- ./inp_files/50120.got.cif
#   From: 2010.05.17/outbox.cif.g08.bks.cpg/sg14_26_cif.got.tgz:50120.got - 2010.06.03 17:49:19.
