data_PCOD9252501
_publ_section_title
;
Structure prediction by ZEFSAII (Michael W. Deem and Ramdas Pophale) SiO2 
 PCOD9252501
Probable space group: P 21/C
;
_chemical_formula_sum "Si O2"
_cell_formula_units_Z 20
_cell_length_a 4.967846
_cell_length_b 10.991647
_cell_length_c 14.652341
_cell_angle_alpha 90.000000
_cell_angle_beta 83.590591
_cell_angle_gamma 90.000000
_cell_volume 795.087419
_symmetry_space_group_name_H-M "P 21/C"
_symmetry_group_IT_number 14
_symmetry_cell_setting 'monoclinic'
loop_
_space_group_symop_operation_xyz
x,y,z
-x,1/2+y,1/2-z
-x,-y,-z
x,1/2-y,1/2+z
loop_
_atom_site_type_symbol
_atom_site_label
_atom_site_fract_x
_atom_site_fract_y
_atom_site_fract_z
Si Si1 0.226169 0.826859 0.144228
Si Si2 0.538953 0.077308 0.115553
Si Si3 0.492216 0.084004 0.327486
Si Si4 0.932409 0.691364 0.473764
Si Si5 0.998314 0.917611 0.346140
O O1 0.399908 0.704269 0.128890
O O2 0.103159 0.850227 0.249839
O O3 0.415150 0.942964 0.117934
O O4 0.990280 0.816244 0.078363
O O5 0.493724 0.118424 0.220694
O O6 0.850504 0.096508 0.078627
O O7 0.358260 0.156861 0.054624
O O8 0.201128 0.028614 0.360050
O O9 0.707127 0.975841 0.336466
O O10 0.998816 0.822214 0.428041
#
# Coordination Sequence:
#
# PCOD9252501 Si02
#       5
#     4   4   4   4   4
#     4  11  26  43  74  98 136 183 221 275 342 391
#     4  11  24  45  68 104 135 172 228 279 330 395
#     4  11  25  45  70  98 136 184 218 274 338 401
#     4  12  25  45  70 103 137 172 226 280 332 397
#     4  11  26  44  68  99 139 173 230 275 329 401
#
# _framework density 25.154468999999999
#
# number of rings (size 3 to 8) (size 9 to 14) (size 15 to 20)
#    0.000    0.800    2.000    4.800    2.800    8.000 
#    0.000    0.000    0.000    0.000    0.000    0.000 
#    0.000    0.000    0.000    0.000    0.000    0.000 
#
# Total GULP energy -112302.768323 kJ/mol
# GULP energy per Si atom -5615.138416 kJ/mol
# Density = 2.509722 g / cm^3
# Si number density = 25.154469 Si / 1000 Ang^3
#
#
#
# Elastic Constant Matrix: (Units=GPa)
#
#
# Indices 1 2 3 4 5 6 
#
# 1 81.9461 -3.4709 49.1763 0.0000 14.2383 0.0000
# 2 -3.4709 82.7457 81.6655 0.0000 12.2124 0.0000
# 3 49.1763 81.6655 20.6806 0.0000 29.0956 0.0000
# 4 0.0000 0.0000 0.0000 18.7605 0.0000 22.8378
# 5 14.2383 12.2124 29.0956 0.0000 36.9834 0.0000
# 6 0.0000 0.0000 0.0000 22.8378 0.0000 25.3183
#
#
#
# Elastic Compliance Matrix: (Units=1/GPa)
#
#
# Indices 1 2 3 4 5 6 
#
# 1 0.009441 -0.004782 0.006295 0.000000 -0.007008 0.000000
# 2 -0.004782 0.002834 0.010239 0.000000 -0.007150 0.000000
# 3 0.006295 0.010239 -0.010471 0.000000 0.002433 0.000000
# 4 0.000000 0.000000 0.000000 -0.543551 0.000000 0.490297
# 5 -0.007008 -0.007150 0.002433 0.000000 0.030184 0.000000
# 6 0.000000 0.000000 0.000000 0.490297 0.000000 -0.402763
#
#
# Mechanical properties :
#
#
# Convention : Reuss Voigt Hill
#
# Bulk Modulus (GPa) = 39.51423 48.90159 44.20791
# Shear Modulus (GPa) = -5.37984 20.07921 7.34968
#
# Velocity S-wave (km/s) = -1.46402 2.82837 1.71119
# Velocity P-wave (km/s) = 3.58956 5.49081 4.63864
#
# Compressibility (1/GPa) = 0.02530734
#
# Stress axis : x y z
#
# Youngs Moduli (GPa) = 105.92457 352.82799 -95.50068
#
# Poissons Ratio (x) = 1.68732 0.60115
# Poissons Ratio (y) = 0.50656 0.97787
# Poissons Ratio (z) = -0.66676 -3.61273
#
# Static dielectric constant tensor:
#      x y z
#    x 1.928540 0.000000 -0.042990 
#    y 0.000000 1.965210 0.000000 
#    z -0.042990 0.000000 1.976680 
# 
# From -- ./inp_files/36870.got.cif
#   From: 2010.05.17/outbox.cif.g08.bks.cpg/sg14_19_cif.got.tgz:36870.got - 2010.06.03 17:49:19.
