data_PCOD9252962
_publ_section_title
;
Structure prediction by ZEFSAII (Michael W. Deem and Ramdas Pophale) SiO2 
 PCOD9252962
Probable space group: P 21/C
;
_chemical_formula_sum "Si O2"
_cell_formula_units_Z 12
_cell_length_a 12.226863
_cell_length_b 7.333401
_cell_length_c 8.681613
_cell_angle_alpha 90.000000
_cell_angle_beta 148.626156
_cell_angle_gamma 90.000000
_cell_volume 405.267415
_symmetry_space_group_name_H-M "P 21/C"
_symmetry_group_IT_number 14
_symmetry_cell_setting 'monoclinic'
loop_
_space_group_symop_operation_xyz
x,y,z
-x,1/2+y,1/2-z
-x,-y,-z
x,1/2-y,1/2+z
loop_
_atom_site_type_symbol
_atom_site_label
_atom_site_fract_x
_atom_site_fract_y
_atom_site_fract_z
Si Si1 0.805792 0.613477 0.339347
Si Si2 0.205348 0.513395 0.136694
Si Si3 0.385625 0.673325 0.656847
O O1 0.713269 0.479626 0.354371
O O2 0.000000 0.500000 0.500000
O O3 0.824142 0.805014 0.450389
O O4 0.625218 0.675271 0.001734
O O5 0.362997 0.608146 0.453142
O O6 0.257767 0.644798 0.054470
O O7 0.000000 0.500000 0.000000
#
# Coordination Sequence:
#
# PCOD9252962 Si02
#       3
#     4   4   4
#     4  11  26  51  80 116 160 210 268 329 405 480
#     4  12  28  50  84 116 162 211 270 331 407 484
#     4  11  29  51  80 119 158 211 266 335 405 481
#
# _framework density 29.610077
#
# number of rings (size 3 to 8) (size 9 to 14) (size 15 to 20)
#    0.000    0.667    3.333    1.000   14.000    2.667 
#    0.000    0.000    0.000    0.000    0.000    0.000 
#    0.000    0.000    0.000    0.000    0.000    0.000 
#
# Total GULP energy -67095.438229 kJ/mol
# GULP energy per Si atom -5591.286519 kJ/mol
# Density = 2.954268 g / cm^3
# Si number density = 29.610077 Si / 1000 Ang^3
#
#
#
# Elastic Constant Matrix: (Units=GPa)
#
#
# Indices 1 2 3 4 5 6 
#
# 1 176.6083 87.1250 34.3002 0.0000 5.0233 0.0000
# 2 87.1250 288.3866 24.3754 0.0000 24.7260 0.0000
# 3 34.3002 24.3754 146.6599 0.0000 -8.7431 0.0000
# 4 0.0000 0.0000 0.0000 35.7557 0.0000 5.4856
# 5 5.0233 24.7260 -8.7431 0.0000 46.1655 0.0000
# 6 0.0000 0.0000 0.0000 5.4856 0.0000 80.5355
#
#
#
# Elastic Compliance Matrix: (Units=1/GPa)
#
#
# Indices 1 2 3 4 5 6 
#
# 1 0.006884 -0.001978 -0.001277 0.000000 0.000068 0.000000
# 2 -0.001978 0.004281 -0.000377 0.000000 -0.002149 0.000000
# 3 -0.001277 -0.000377 0.007282 0.000000 0.001720 0.000000
# 4 0.000000 0.000000 0.000000 0.028263 0.000000 -0.001925
# 5 0.000068 -0.002149 0.001720 0.000000 0.023131 0.000000
# 6 0.000000 0.000000 0.000000 -0.001925 0.000000 0.012548
#
#
# Mechanical properties :
#
#
# Convention : Reuss Voigt Hill
#
# Bulk Modulus (GPa) = 89.41691 100.36176 94.88933
# Shear Modulus (GPa) = 53.54404 63.54829 58.54616
#
# Velocity S-wave (km/s) = 4.25703 4.63770 4.45144
# Velocity P-wave (km/s) = 7.37745 7.91491 7.65090
#
# Compressibility (1/GPa) = 0.01118357
#
# Stress axis : x y z
#
# Youngs Moduli (GPa) = 145.26490 233.58033 137.31660
#
# Poissons Ratio (x) = 0.46193 0.17539
# Poissons Ratio (y) = 0.28728 0.05179
# Poissons Ratio (z) = 0.18554 0.08810
#
# Static dielectric constant tensor:
#      x y z
#    x 2.708350 0.000000 -0.006660 
#    y 0.000000 2.418970 0.000000 
#    z -0.006660 0.000000 2.682320 
# 
# From -- ./inp_files/11968.got.cif
#   From: 2010.05.17/outbox.cif.g08.bks.cpg/sg14_6_cif.got.tgz:11968.got - 2010.06.03 17:49:19.
