data_PCOD9252654
_publ_section_title
;
Structure prediction by ZEFSAII (Michael W. Deem and Ramdas Pophale) SiO2 
 PCOD9252654
Probable space group: P 21/C
;
_chemical_formula_sum "Si O2"
_cell_formula_units_Z 32
_cell_length_a 12.274306
_cell_length_b 7.745895
_cell_length_c 14.222941
_cell_angle_alpha 90.000000
_cell_angle_beta 103.628646
_cell_angle_gamma 90.000000
_cell_volume 1314.178059
_symmetry_space_group_name_H-M "P 21/C"
_symmetry_group_IT_number 14
_symmetry_cell_setting 'monoclinic'
loop_
_space_group_symop_operation_xyz
x,y,z
-x,1/2+y,1/2-z
-x,-y,-z
x,1/2-y,1/2+z
loop_
_atom_site_type_symbol
_atom_site_label
_atom_site_fract_x
_atom_site_fract_y
_atom_site_fract_z
Si Si1 0.371153 0.091732 0.302315
Si Si2 0.140127 0.282251 0.687325
Si Si3 0.623857 0.046055 0.987983
Si Si4 0.615779 0.369390 0.846102
Si Si5 0.319197 0.164800 0.497269
Si Si6 0.030455 0.858156 0.219636
Si Si7 0.071411 0.157176 0.473651
Si Si8 0.263650 0.714754 0.307962
O O1 0.270746 0.197512 0.235004
O O2 0.490815 0.116144 0.278237
O O3 0.384016 0.157333 0.411887
O O4 0.332039 0.894027 0.305668
O O5 0.080378 0.455610 0.710359
O O6 0.109420 0.260025 0.573359
O O7 0.078298 0.137198 0.736452
O O8 0.675217 0.862421 0.968565
O O9 0.691918 0.120652 0.090761
O O10 0.500000 0.000000 0.000000
O O11 0.627147 0.190319 0.906783
O O12 0.707226 0.383228 0.782774
O O13 0.630647 0.528233 0.920417
O O14 0.190706 0.107035 0.451558
O O15 0.133056 0.757516 0.288980
O O16 0.997017 0.766679 0.115579
O O17 0.000000 0.000000 0.500000
#
# Coordination Sequence:
#
# PCOD9252654 Si02
#       8
#     4   4   4   4   4   4   4   4
#     4  11  24  49  72 108 150 201 246 318 372 454
#     4  11  26  45  75 103 144 192 247 300 373 446
#     4  12  27  48  76 113 152 211 248 314 390 457
#     4  12  27  51  76 112 159 193 257 316 381 462
#     4  12  26  47  78 108 157 196 254 317 385 458
#     4  11  25  47  70 108 145 190 242 310 365 445
#     4  12  27  47  74 106 146 195 250 309 379 445
#     4  11  28  46  78 109 154 201 254 311 389 454
#
# _framework density 24.349819
#
# number of rings (size 3 to 8) (size 9 to 14) (size 15 to 20)
#    0.000    0.500    3.750    3.000    8.750    4.000 
#    0.000    0.000    0.000    0.000    0.000    0.000 
#    0.000    0.000    0.000    0.000    0.000    0.000 
#
# Total GULP energy -179547.877066 kJ/mol
# GULP energy per Si atom -5610.871158 kJ/mol
# Density = 2.429440 g / cm^3
# Si number density = 24.349819 Si / 1000 Ang^3
#
#
#
# Elastic Constant Matrix: (Units=GPa)
#
#
# Indices 1 2 3 4 5 6 
#
# 1 98.9433 28.6890 8.3721 0.0000 11.7442 0.0000
# 2 28.6890 119.7245 40.1743 0.0000 11.1686 0.0000
# 3 8.3721 40.1743 118.8099 0.0000 9.5907 0.0000
# 4 0.0000 0.0000 0.0000 28.6777 0.0000 5.0214
# 5 11.7442 11.1686 9.5907 0.0000 40.2695 0.0000
# 6 0.0000 0.0000 0.0000 5.0214 0.0000 34.9160
#
#
#
# Elastic Compliance Matrix: (Units=1/GPa)
#
#
# Indices 1 2 3 4 5 6 
#
# 1 0.011123 -0.002515 0.000277 0.000000 -0.002612 0.000000
# 2 -0.002515 0.010133 -0.003142 0.000000 -0.001329 0.000000
# 3 0.000277 -0.003142 0.009580 0.000000 -0.001491 0.000000
# 4 0.000000 0.000000 0.000000 0.035771 0.000000 -0.005144
# 5 -0.002612 -0.001329 -0.001491 0.000000 0.026318 0.000000
# 6 0.000000 0.000000 0.000000 -0.005144 0.000000 0.029380
#
#
# Mechanical properties :
#
#
# Convention : Reuss Voigt Hill
#
# Bulk Modulus (GPa) = 49.80705 54.66094 52.23400
# Shear Modulus (GPa) = 35.77659 38.12213 36.94936
#
# Velocity S-wave (km/s) = 3.83727 3.96106 3.89966
# Velocity P-wave (km/s) = 6.33499 6.58915 6.46332
#
# Compressibility (1/GPa) = 0.02007748
#
# Stress axis : x y z
#
# Youngs Moduli (GPa) = 89.90760 98.68395 104.38335
#
# Poissons Ratio (x) = 0.24815 -0.02896
# Poissons Ratio (y) = 0.22608 0.32798
# Poissons Ratio (z) = -0.02494 0.31007
#
# Static dielectric constant tensor:
#      x y z
#    x 1.934240 0.000000 -0.033100 
#    y 0.000000 1.963070 0.000000 
#    z -0.033100 0.000000 1.923870 
# 
# From -- ./inp_files/43769.got.cif
#   From: 2010.05.17/outbox.cif.g08.bks.cpg/sg14_22_cif.got.tgz:43769.got - 2010.06.03 17:49:19.
