data_PCOD9252745
_publ_section_title
;
Structure prediction by ZEFSAII (Michael W. Deem and Ramdas Pophale) SiO2 
 PCOD9252745
Probable space group: P 21/C
;
_chemical_formula_sum "Si O2"
_cell_formula_units_Z 26
_cell_length_a 13.147630
_cell_length_b 4.897805
_cell_length_c 14.669017
_cell_angle_alpha 90.000000
_cell_angle_beta 92.867637
_cell_angle_gamma 90.000000
_cell_volume 943.421568
_symmetry_space_group_name_H-M "P 21/C"
_symmetry_group_IT_number 14
_symmetry_cell_setting 'monoclinic'
loop_
_space_group_symop_operation_xyz
x,y,z
-x,1/2+y,1/2-z
-x,-y,-z
x,1/2-y,1/2+z
loop_
_atom_site_type_symbol
_atom_site_label
_atom_site_fract_x
_atom_site_fract_y
_atom_site_fract_z
Si Si1 0.431234 0.254964 0.364940
Si Si2 0.823957 0.389029 0.019710
Si Si3 0.000000 0.000000 0.000000
Si Si4 0.951327 0.804730 0.792122
Si Si5 0.370639 0.505676 0.181084
Si Si6 0.757563 0.405003 0.214980
Si Si7 0.301086 0.100046 0.030345
O O1 0.431096 0.455237 0.278679
O O2 0.544451 0.144639 0.378819
O O3 0.346283 0.036689 0.328788
O O4 0.385871 0.371977 0.455990
O O5 0.926235 0.272539 0.984021
O O6 0.735766 0.208769 0.969496
O O7 0.813734 0.307096 0.125494
O O8 0.796205 0.708129 0.006252
O O9 0.027232 0.102687 0.105015
O O10 0.835607 0.879463 0.760896
O O11 0.021210 0.994608 0.729670
O O12 0.275539 0.675467 0.215707
O O13 0.338545 0.233638 0.125519
#
# Coordination Sequence:
#
# PCOD9252745 Si02
#       7
#     4   4   2   4   4   4   4
#     4  11  25  45  71 109 146 192 247 299 363 446
#     4  11  26  49  71 107 145 194 242 310 363 439
#     4  12  28  50  76 110 150 192 262 308 382 450
#     4  12  30  50  79 113 149 199 255 316 382 450
#     4  12  24  45  75 107 147 200 241 300 374 434
#     4  11  25  49  72 107 153 194 244 310 369 443
#     4  11  27  46  75 105 149 190 243 301 367 437
#
# _framework density 27.559256999999999
#
# number of rings (size 3 to 8) (size 9 to 14) (size 15 to 20)
#    0.000    0.615    4.615    1.385   10.769    2.462 
#    0.000    3.077    0.000    0.000    0.000    0.000 
#    0.000    0.000    0.000    0.000    0.000    0.000 
#
# Total GULP energy -145488.186720 kJ/mol
# GULP energy per Si atom -5595.699489 kJ/mol
# Density = 2.749653 g / cm^3
# Si number density = 27.559257 Si / 1000 Ang^3
#
#
#
# Elastic Constant Matrix: (Units=GPa)
#
#
# Indices 1 2 3 4 5 6 
#
# 1 101.1581 15.7451 16.5624 0.0000 -2.4968 0.0000
# 2 15.7451 73.9699 11.7523 0.0000 -7.2769 0.0000
# 3 16.5624 11.7523 158.6588 0.0000 0.6841 0.0000
# 4 0.0000 0.0000 0.0000 45.4507 0.0000 -3.0545
# 5 -2.4968 -7.2769 0.6841 0.0000 42.4529 0.0000
# 6 0.0000 0.0000 0.0000 -3.0545 0.0000 53.5124
#
#
#
# Elastic Compliance Matrix: (Units=1/GPa)
#
#
# Indices 1 2 3 4 5 6 
#
# 1 0.010361 -0.002030 -0.000932 0.000000 0.000276 0.000000
# 2 -0.002030 0.014319 -0.000859 0.000000 0.002349 0.000000
# 3 -0.000932 -0.000859 0.006465 0.000000 -0.000306 0.000000
# 4 0.000000 0.000000 0.000000 0.022087 0.000000 0.001261
# 5 0.000276 0.002349 -0.000306 0.000000 0.023979 0.000000
# 6 0.000000 0.000000 0.000000 0.001261 0.000000 0.018759
#
#
# Mechanical properties :
#
#
# Convention : Reuss Voigt Hill
#
# Bulk Modulus (GPa) = 42.54938 46.87848 44.71393
# Shear Modulus (GPa) = 44.86457 47.59834 46.23145
#
# Velocity S-wave (km/s) = 4.03914 4.16038 4.10021
# Velocity P-wave (km/s) = 6.10128 6.33446 6.21896
#
# Compressibility (1/GPa) = 0.02350211
#
# Stress axis : x y z
#
# Youngs Moduli (GPa) = 96.51600 69.83895 154.67660
#
# Poissons Ratio (x) = 0.14178 0.14422
# Poissons Ratio (y) = 0.19594 0.13284
# Poissons Ratio (z) = 0.08999 0.05998
#
# Static dielectric constant tensor:
#      x y z
#    x 2.296730 0.000000 -0.149140 
#    y 0.000000 2.042590 0.000000 
#    z -0.149140 0.000000 2.348800 
# 
# From -- ./inp_files/45929.got.cif
#   From: 2010.05.17/outbox.cif.g08.bks.cpg/sg14_23_cif.got.tgz:45929.got - 2010.06.03 17:49:19.
