data_PCOD9252258
_publ_section_title
;
Structure prediction by ZEFSAII (Michael W. Deem and Ramdas Pophale) SiO2 
 PCOD9252258
Probable space group: P 21/C
;
_chemical_formula_sum "Si O2"
_cell_formula_units_Z 24
_cell_length_a 17.221456
_cell_length_b 7.458558
_cell_length_c 18.096617
_cell_angle_alpha 90.000000
_cell_angle_beta 23.747613
_cell_angle_gamma 90.000000
_cell_volume 936.080052
_symmetry_space_group_name_H-M "P 21/C"
_symmetry_group_IT_number 14
_symmetry_cell_setting 'monoclinic'
loop_
_space_group_symop_operation_xyz
x,y,z
-x,1/2+y,1/2-z
-x,-y,-z
x,1/2-y,1/2+z
loop_
_atom_site_type_symbol
_atom_site_label
_atom_site_fract_x
_atom_site_fract_y
_atom_site_fract_z
Si Si1 0.075721 0.401489 0.574295
Si Si2 0.158270 0.738442 0.341881
Si Si3 0.147135 0.722709 0.092509
Si Si4 0.888873 0.600718 0.199972
Si Si5 0.469163 0.279309 0.392194
Si Si6 0.562544 0.827300 0.745117
O O1 0.919279 0.411329 0.645944
O O2 0.985735 0.294828 0.721137
O O3 0.256938 0.289807 0.386416
O O4 0.130948 0.590626 0.561889
O O5 0.351664 0.699767 0.218555
O O6 0.989223 0.797084 0.545075
O O7 0.190336 0.914517 0.262824
O O8 0.064459 0.580595 0.105768
O O9 0.364451 0.719809 0.930881
O O10 0.424405 0.327117 0.855962
O O11 0.718274 0.698193 0.393244
O O12 0.533757 0.479401 0.308018
#
# Coordination Sequence:
#
# PCOD9252258 Si02
#       6
#     4   4   4   4   4   4
#     4  12  27  44  73 107 141 190 237 299 355 423
#     4  11  25  45  72 103 148 187 234 295 357 419
#     4  12  25  45  72 106 143 189 245 289 354 429
#     4  11  23  46  70 103 142 184 236 288 351 425
#     4  12  25  46  71 106 141 189 241 287 356 421
#     4  12  24  43  70 102 141 184 237 290 342 424
#
# _framework density 25.638832000000001
#
# number of rings (size 3 to 8) (size 9 to 14) (size 15 to 20)
#    0.000    0.333    5.000    4.500    2.333    2.000 
#    0.000    0.833    0.000    0.000    0.000    0.000 
#    0.000    0.000    0.000    0.000    0.000    0.000 
#
# Total GULP energy -134613.114521 kJ/mol
# GULP energy per Si atom -5608.879772 kJ/mol
# Density = 2.558048 g / cm^3
# Si number density = 25.638832 Si / 1000 Ang^3
#
#
#
# Elastic Constant Matrix: (Units=GPa)
#
#
# Indices 1 2 3 4 5 6 
#
# 1 153.3733 8.1313 23.7227 0.0000 -13.6036 0.0000
# 2 8.1313 88.6646 5.9282 0.0000 1.6931 0.0000
# 3 23.7227 5.9282 134.3729 0.0000 -9.9553 0.0000
# 4 0.0000 0.0000 0.0000 17.3639 0.0000 7.4684
# 5 -13.6036 1.6931 -9.9553 0.0000 39.5983 0.0000
# 6 0.0000 0.0000 0.0000 7.4684 0.0000 42.1921
#
#
#
# Elastic Compliance Matrix: (Units=1/GPa)
#
#
# Indices 1 2 3 4 5 6 
#
# 1 0.006901 -0.000605 -0.001033 0.000000 0.002137 0.000000
# 2 -0.000605 0.011380 -0.000455 0.000000 -0.000809 0.000000
# 3 -0.001033 -0.000455 0.007764 0.000000 0.001616 0.000000
# 4 0.000000 0.000000 0.000000 0.062337 0.000000 -0.011034
# 5 0.002137 -0.000809 0.001616 0.000000 0.026429 0.000000
# 6 0.000000 0.000000 0.000000 -0.011034 0.000000 0.025654
#
#
# Mechanical properties :
#
#
# Convention : Reuss Voigt Hill
#
# Bulk Modulus (GPa) = 45.74779 50.21948 47.98364
# Shear Modulus (GPa) = 32.90813 42.40610 37.65711
#
# Velocity S-wave (km/s) = 3.58652 4.07133 3.83659
# Velocity P-wave (km/s) = 5.91885 6.45993 6.19530
#
# Compressibility (1/GPa) = 0.02185898
#
# Stress axis : x y z
#
# Youngs Moduli (GPa) = 144.89651 87.87512 128.79522
#
# Poissons Ratio (x) = 0.05313 0.13310
# Poissons Ratio (y) = 0.08761 0.05863
# Poissons Ratio (z) = 0.14974 0.04000
#
# Static dielectric constant tensor:
#      x y z
#    x 1.995520 0.000000 -0.014330 
#    y 0.000000 2.078400 0.000000 
#    z -0.014330 0.000000 1.994480 
# 
# From -- ./inp_files/61184.got.cif
#   From: 2010.05.17/outbox.cif.g08.bks.cpg/sg14_31_cif.got.tgz:61184.got - 2010.06.03 17:49:19.
