data_PCOD9252121
_publ_section_title
;
Structure prediction by ZEFSAII (Michael W. Deem and Ramdas Pophale) SiO2 
 PCOD9252121
Probable space group: P 21/C
;
_chemical_formula_sum "Si O2"
_cell_formula_units_Z 20
_cell_length_a 7.657315
_cell_length_b 8.628739
_cell_length_c 23.015034
_cell_angle_alpha 90.000000
_cell_angle_beta 30.825056
_cell_angle_gamma 90.000000
_cell_volume 779.220237
_symmetry_space_group_name_H-M "P 21/C"
_symmetry_group_IT_number 14
_symmetry_cell_setting 'monoclinic'
loop_
_space_group_symop_operation_xyz
x,y,z
-x,1/2+y,1/2-z
-x,-y,-z
x,1/2-y,1/2+z
loop_
_atom_site_type_symbol
_atom_site_label
_atom_site_fract_x
_atom_site_fract_y
_atom_site_fract_z
Si Si1 0.607825 0.343274 0.503742
Si Si2 0.558783 0.942161 0.112002
Si Si3 0.206416 0.127680 0.696102
Si Si4 0.685307 0.616243 0.093653
Si Si5 0.287478 0.169120 0.281369
O O1 0.500000 0.500000 0.500000
O O2 0.751646 0.426833 0.520584
O O3 0.295228 0.241132 0.617507
O O4 0.886678 0.217150 0.403733
O O5 0.760159 0.783915 0.047206
O O6 0.191946 0.900855 0.188001
O O7 0.425329 0.013799 0.210786
O O8 0.364170 0.200637 0.710384
O O9 0.388010 0.962589 0.641356
O O10 0.582796 0.654558 0.189705
O O11 0.000000 0.500000 0.000000
#
# Coordination Sequence:
#
# PCOD9252121 Si02
#       5
#     4   4   4   4   4
#     4  11  23  43  71 105 144 193 252 303 363 444
#     4  11  26  45  74 104 147 201 246 303 370 452
#     4  11  24  47  71 106 148 196 253 296 370 451
#     4  12  25  47  72 109 150 193 249 313 377 436
#     4  11  24  46  69 105 147 193 245 310 366 438
#
# _framework density 25.666685999999999
#
# number of rings (size 3 to 8) (size 9 to 14) (size 15 to 20)
#    0.000    0.800    4.000    3.600    0.000    3.200 
#    3.600    0.000    0.000    0.000    0.000    0.000 
#    0.000    0.000    0.000    0.000    0.000    0.000 
#
# Total GULP energy -111568.285790 kJ/mol
# GULP energy per Si atom -5578.414290 kJ/mol
# Density = 2.560827 g / cm^3
# Si number density = 25.666686 Si / 1000 Ang^3
#
#
#
# Elastic Constant Matrix: (Units=GPa)
#
#
# Indices 1 2 3 4 5 6 
#
# 1 48.0218 19.3824 0.0605 0.0000 -9.5734 0.0000
# 2 19.3824 109.4197 43.9184 0.0000 -20.9545 0.0000
# 3 0.0605 43.9184 96.9042 0.0000 -4.7361 0.0000
# 4 0.0000 0.0000 0.0000 50.1621 0.0000 3.6567
# 5 -9.5734 -20.9545 -4.7361 0.0000 40.5920 0.0000
# 6 0.0000 0.0000 0.0000 3.6567 0.0000 60.2435
#
#
#
# Elastic Compliance Matrix: (Units=1/GPa)
#
#
# Indices 1 2 3 4 5 6 
#
# 1 0.023253 -0.004289 0.002101 0.000000 0.003515 0.000000
# 2 -0.004289 0.013175 -0.005718 0.000000 0.005122 0.000000
# 3 0.002101 -0.005718 0.012863 0.000000 -0.000955 0.000000
# 4 0.000000 0.000000 0.000000 0.020024 0.000000 -0.001215
# 5 0.003515 0.005122 -0.000955 0.000000 0.027997 0.000000
# 6 0.000000 0.000000 0.000000 -0.001215 0.000000 0.016673
#
#
# Mechanical properties :
#
#
# Convention : Reuss Voigt Hill
#
# Bulk Modulus (GPa) = 29.86947 42.34092 36.10519
# Shear Modulus (GPa) = 35.47172 42.93181 39.20176
#
# Velocity S-wave (km/s) = 3.72158 4.09426 3.91236
# Velocity P-wave (km/s) = 5.48904 6.23562 5.87420
#
# Compressibility (1/GPa) = 0.03347900
#
# Stress axis : x y z
#
# Youngs Moduli (GPa) = 43.00479 75.90136 77.74259
#
# Poissons Ratio (x) = 0.32556 -0.16336
# Poissons Ratio (y) = 0.18446 0.44454
# Poissons Ratio (z) = -0.09036 0.43401
#
# Static dielectric constant tensor:
#      x y z
#    x 2.154620 0.000000 0.067510 
#    y 0.000000 2.016590 0.000000 
#    z 0.067510 0.000000 2.048940 
# 
# From -- ./inp_files/22763.got.cif
#   From: 2010.05.17/outbox.cif.g08.bks.cpg/sg14_12_cif.got.tgz:22763.got - 2010.06.03 17:49:19.
