data_PCOD9252667
_publ_section_title
;
Structure prediction by ZEFSAII (Michael W. Deem and Ramdas Pophale) SiO2 
 PCOD9252667
Probable space group: P 21/C
;
_chemical_formula_sum "Si O2"
_cell_formula_units_Z 28
_cell_length_a 5.247254
_cell_length_b 14.364290
_cell_length_c 14.358828
_cell_angle_alpha 90.000000
_cell_angle_beta 74.857940
_cell_angle_gamma 90.000000
_cell_volume 1044.693915
_symmetry_space_group_name_H-M "P 21/C"
_symmetry_group_IT_number 14
_symmetry_cell_setting 'monoclinic'
loop_
_space_group_symop_operation_xyz
x,y,z
-x,1/2+y,1/2-z
-x,-y,-z
x,1/2-y,1/2+z
loop_
_atom_site_type_symbol
_atom_site_label
_atom_site_fract_x
_atom_site_fract_y
_atom_site_fract_z
Si Si1 0.878092 0.381053 0.803495
Si Si2 0.581453 0.143080 0.712622
Si Si3 0.941871 0.769716 0.438716
Si Si4 0.723475 0.557732 0.927056
Si Si5 0.572912 0.562576 0.294825
Si Si6 0.431788 0.712186 0.596309
Si Si7 0.794769 0.416481 0.508330
O O1 0.878355 0.478279 0.858620
O O2 0.662106 0.394155 0.743750
O O3 0.770301 0.297823 0.876859
O O4 0.858069 0.195659 0.664337
O O5 0.446496 0.195446 0.812750
O O6 0.405837 0.129735 0.636135
O O7 0.617200 0.037417 0.743552
O O8 0.109536 0.123350 0.519996
O O9 0.831596 0.626482 0.266684
O O10 0.649373 0.730669 0.496635
O O11 0.103448 0.681553 0.459977
O O12 0.500000 0.500000 0.000000
O O13 0.462195 0.555958 0.409036
O O14 0.271915 0.618556 0.588041
O O15 0.000000 0.500000 0.500000
#
# Coordination Sequence:
#
# PCOD9252667 Si02
#       7
#     4   4   4   4   4   4   4
#     4  11  26  50  82 120 167 215 275 364 440 512
#     4  11  27  48  80 119 165 223 280 359 435 520
#     4  12  26  49  83 120 161 221 285 361 430 521
#     4  11  24  49  83 124 164 210 287 365 436 513
#     4  11  27  52  80 119 166 221 287 355 440 515
#     4  12  29  49  78 120 172 222 289 350 438 529
#     4  12  31  52  79 113 173 232 293 352 433 532
#
# _framework density 26.802109999999999
#
# number of rings (size 3 to 8) (size 9 to 14) (size 15 to 20)
#    0.000    0.571    2.857    2.571    8.000    2.857 
#    2.571    0.000    0.000    0.000    0.000    0.000 
#    0.000    0.000    0.000    0.000    0.000    0.000 
#
# Total GULP energy -156516.183078 kJ/mol
# GULP energy per Si atom -5589.863681 kJ/mol
# Density = 2.674111 g / cm^3
# Si number density = 26.802110 Si / 1000 Ang^3
#
#
#
# Elastic Constant Matrix: (Units=GPa)
#
#
# Indices 1 2 3 4 5 6 
#
# 1 123.6546 59.6956 62.2721 0.0000 -15.8481 0.0000
# 2 59.6956 157.3782 41.6993 0.0000 10.3978 0.0000
# 3 62.2721 41.6993 107.0222 0.0000 -10.3076 0.0000
# 4 0.0000 0.0000 0.0000 43.9617 0.0000 -1.6905
# 5 -15.8481 10.3978 -10.3076 0.0000 43.6734 0.0000
# 6 0.0000 0.0000 0.0000 -1.6905 0.0000 50.5764
#
#
#
# Elastic Compliance Matrix: (Units=1/GPa)
#
#
# Indices 1 2 3 4 5 6 
#
# 1 0.013491 -0.003837 -0.005930 0.000000 0.004410 0.000000
# 2 -0.003837 0.008430 -0.001411 0.000000 -0.003733 0.000000
# 3 -0.005930 -0.001411 0.013476 0.000000 0.001365 0.000000
# 4 0.000000 0.000000 0.000000 0.022776 0.000000 0.000761
# 5 0.004410 -0.003733 0.001365 0.000000 0.025708 0.000000
# 6 0.000000 0.000000 0.000000 0.000761 0.000000 0.019798
#
#
# Mechanical properties :
#
#
# Convention : Reuss Voigt Hill
#
# Bulk Modulus (GPa) = 76.69099 79.48765 78.08932
# Shear Modulus (GPa) = 38.34844 42.60149 40.47497
#
# Velocity S-wave (km/s) = 3.78669 3.99116 3.89027
# Velocity P-wave (km/s) = 6.91337 7.13868 7.02693
#
# Compressibility (1/GPa) = 0.01303934
#
# Stress axis : x y z
#
# Youngs Moduli (GPa) = 74.12265 118.61984 74.20782
#
# Poissons Ratio (x) = 0.45520 0.44006
# Poissons Ratio (y) = 0.28444 0.10473
# Poissons Ratio (z) = 0.43955 0.16741
#
# Static dielectric constant tensor:
#      x y z
#    x 2.238670 0.000000 0.101550 
#    y 0.000000 2.049740 0.000000 
#    z 0.101550 0.000000 2.164470 
# 
# From -- ./inp_files/37616.got.cif
#   From: 2010.05.17/outbox.cif.g08.bks.cpg/sg14_19_cif.got.tgz:37616.got - 2010.06.03 17:49:19.
