data_PCOD9252756
_publ_section_title
;
Structure prediction by ZEFSAII (Michael W. Deem and Ramdas Pophale) SiO2 
 PCOD9252756
Probable space group: P 21/C
;
_chemical_formula_sum "Si O2"
_cell_formula_units_Z 18
_cell_length_a 19.076108
_cell_length_b 7.777607
_cell_length_c 8.772240
_cell_angle_alpha 90.000000
_cell_angle_beta 32.891092
_cell_angle_gamma 90.000000
_cell_volume 706.775059
_symmetry_space_group_name_H-M "P 21/C"
_symmetry_group_IT_number 14
_symmetry_cell_setting 'monoclinic'
loop_
_space_group_symop_operation_xyz
x,y,z
-x,1/2+y,1/2-z
-x,-y,-z
x,1/2-y,1/2+z
loop_
_atom_site_type_symbol
_atom_site_label
_atom_site_fract_x
_atom_site_fract_y
_atom_site_fract_z
Si Si1 0.500000 0.500000 0.000000
Si Si2 0.095976 0.893769 0.502974
Si Si3 0.710062 0.508494 0.134779
Si Si4 0.482033 0.817931 0.231723
Si Si5 0.933367 0.724280 0.565763
O O1 0.467434 0.621632 0.205810
O O2 0.515806 0.336811 0.090640
O O3 0.059304 0.756545 0.441729
O O4 0.220768 0.871533 0.379302
O O5 0.106158 0.082734 0.410806
O O6 0.975577 0.880561 0.839825
O O7 0.631970 0.426244 0.139021
O O8 0.616712 0.623410 0.408847
O O9 0.822539 0.629452 0.860539
#
# Coordination Sequence:
#
# PCOD9252756 Si02
#       5
#     2   4   4   4   4
#     4  12  28  56  76 128 162 218 266 340 396 526
#     4  11  25  45  74 111 156 214 264 339 389 485
#     4  11  25  51  78 116 161 221 262 353 389 516
#     4  11  28  50  84 117 167 207 280 324 440 470
#     4  11  25  47  72 111 157 208 275 321 411 463
#
# _framework density 25.467794000000001
#
# number of rings (size 3 to 8) (size 9 to 14) (size 15 to 20)
#    0.000    0.889    2.222    3.333    6.222    3.556 
#    8.000    0.000    0.000    0.000    0.000    0.000 
#    0.000    0.000    0.000    0.000    0.000    0.000 
#
# Total GULP energy -100457.046138 kJ/mol
# GULP energy per Si atom -5580.947008 kJ/mol
# Density = 2.540983 g / cm^3
# Si number density = 25.467794 Si / 1000 Ang^3
#
#
#
# Elastic Constant Matrix: (Units=GPa)
#
#
# Indices 1 2 3 4 5 6 
#
# 1 132.9564 26.2484 49.3175 0.0000 22.2453 0.0000
# 2 26.2484 101.3809 39.0467 0.0000 12.4405 0.0000
# 3 49.3175 39.0467 92.2253 0.0000 8.7515 0.0000
# 4 0.0000 0.0000 0.0000 37.2623 0.0000 17.2998
# 5 22.2453 12.4405 8.7515 0.0000 45.0150 0.0000
# 6 0.0000 0.0000 0.0000 17.2998 0.0000 43.7332
#
#
#
# Elastic Compliance Matrix: (Units=1/GPa)
#
#
# Indices 1 2 3 4 5 6 
#
# 1 0.010044 -0.000229 -0.004900 0.000000 -0.003948 0.000000
# 2 -0.000229 0.012036 -0.004756 0.000000 -0.002288 0.000000
# 3 -0.004900 -0.004756 0.015407 0.000000 0.000740 0.000000
# 4 0.000000 0.000000 0.000000 0.032874 0.000000 -0.013004
# 5 -0.003948 -0.002288 0.000740 0.000000 0.024654 0.000000
# 6 0.000000 0.000000 0.000000 -0.013004 0.000000 0.028010
#
#
# Mechanical properties :
#
#
# Convention : Reuss Voigt Hill
#
# Bulk Modulus (GPa) = 56.44288 61.75421 59.09855
# Shear Modulus (GPa) = 33.62463 39.33209 36.47836
#
# Velocity S-wave (km/s) = 3.63751 3.93413 3.78872
# Velocity P-wave (km/s) = 6.31289 6.70352 6.51113
#
# Compressibility (1/GPa) = 0.01771703
#
# Stress axis : x y z
#
# Youngs Moduli (GPa) = 99.55749 83.08609 64.90763
#
# Poissons Ratio (x) = 0.01903 0.31803
# Poissons Ratio (y) = 0.02280 0.30871
# Poissons Ratio (z) = 0.48780 0.39517
#
# Static dielectric constant tensor:
#      x y z
#    x 2.148520 0.000000 0.104370 
#    y 0.000000 1.751540 0.000000 
#    z 0.104370 0.000000 2.162110 
# 
# From -- ./inp_files/11636.got.cif
#   From: 2010.05.17/outbox.cif.g08.bks.cpg/sg14_6_cif.got.tgz:11636.got - 2010.06.03 17:49:19.
