data_PCOD9252236
_publ_section_title
;
Structure prediction by ZEFSAII (Michael W. Deem and Ramdas Pophale) SiO2 
 PCOD9252236
Probable space group: P 21/C
;
_chemical_formula_sum "Si O2"
_cell_formula_units_Z 30
_cell_length_a 7.708857
_cell_length_b 13.140414
_cell_length_c 14.309428
_cell_angle_alpha 90.000000
_cell_angle_beta 55.643940
_cell_angle_gamma 90.000000
_cell_volume 1196.638211
_symmetry_space_group_name_H-M "P 21/C"
_symmetry_group_IT_number 14
_symmetry_cell_setting 'monoclinic'
loop_
_space_group_symop_operation_xyz
x,y,z
-x,1/2+y,1/2-z
-x,-y,-z
x,1/2-y,1/2+z
loop_
_atom_site_type_symbol
_atom_site_label
_atom_site_fract_x
_atom_site_fract_y
_atom_site_fract_z
Si Si1 0.587980 0.217879 0.546733
Si Si2 0.986719 0.250528 0.794740
Si Si3 0.875964 0.225993 0.629109
Si Si4 0.423687 0.426004 0.388411
Si Si5 0.275054 0.411048 0.632358
Si Si6 0.626889 0.426503 0.759171
Si Si7 0.500000 0.500000 0.000000
Si Si8 0.274432 0.229489 0.371871
O O1 0.696869 0.184407 0.612329
O O2 0.446966 0.319512 0.593018
O O3 0.780372 0.244966 0.419793
O O4 0.473836 0.120335 0.539887
O O5 0.068620 0.363490 0.739800
O O6 0.170915 0.221322 0.811147
O O7 0.945470 0.189948 0.711540
O O8 0.785011 0.338030 0.678887
O O9 0.086948 0.219610 0.503105
O O10 0.267071 0.432147 0.524200
O O11 0.632063 0.486479 0.353276
O O12 0.341625 0.483294 0.322974
O O13 0.444183 0.307179 0.361879
O O14 0.622421 0.462712 0.866536
O O15 0.393011 0.375697 0.817534
#
# Coordination Sequence:
#
# PCOD9252236 Si02
#       8
#     4   4   4   4   4   4   2   4
#     4  11  25  48  73 109 147 201 249 304 379 454
#     4  11  23  45  74 108 151 192 247 317 373 439
#     4  11  24  46  74 101 154 190 248 309 370 449
#     4  11  24  42  77 102 139 195 248 299 373 447
#     4  11  23  48  73 107 146 193 250 309 370 451
#     4  12  26  47  72 110 146 197 246 312 373 456
#     4  12  28  44  76 104 150 194 250 298 386 438
#     4  11  25  46  73 105 149 199 247 309 378 448
#
# _framework density 25.070236000000001
#
# number of rings (size 3 to 8) (size 9 to 14) (size 15 to 20)
#    0.000    0.800    5.333    0.800    3.733    0.533 
#    0.000    6.667    2.933    0.000    0.000    0.000 
#    0.000    0.000    0.000    0.000    0.000    0.000 
#
# Total GULP energy -167258.084040 kJ/mol
# GULP energy per Si atom -5575.269468 kJ/mol
# Density = 2.501317 g / cm^3
# Si number density = 25.070236 Si / 1000 Ang^3
#
#
#
# Elastic Constant Matrix: (Units=GPa)
#
#
# Indices 1 2 3 4 5 6 
#
# 1 93.4212 16.5836 31.7893 0.0000 5.0115 0.0000
# 2 16.5836 88.3568 10.9196 0.0000 -10.3707 0.0000
# 3 31.7893 10.9196 141.7296 0.0000 2.0500 0.0000
# 4 0.0000 0.0000 0.0000 47.3567 0.0000 1.3941
# 5 5.0115 -10.3707 2.0500 0.0000 44.6553 0.0000
# 6 0.0000 0.0000 0.0000 1.3941 0.0000 23.0845
#
#
#
# Elastic Compliance Matrix: (Units=1/GPa)
#
#
# Indices 1 2 3 4 5 6 
#
# 1 0.012033 -0.002152 -0.002508 0.000000 -0.001735 0.000000
# 2 -0.002152 0.012145 -0.000498 0.000000 0.003085 0.000000
# 3 -0.002508 -0.000498 0.007659 0.000000 -0.000186 0.000000
# 4 0.000000 0.000000 0.000000 0.021154 0.000000 -0.001278
# 5 -0.001735 0.003085 -0.000186 0.000000 0.023313 0.000000
# 6 0.000000 0.000000 0.000000 -0.001278 0.000000 0.043396
#
#
# Mechanical properties :
#
#
# Convention : Reuss Voigt Hill
#
# Bulk Modulus (GPa) = 46.46459 49.12140 47.79300
# Shear Modulus (GPa) = 36.44572 40.63363 38.53968
#
# Velocity S-wave (km/s) = 3.81694 4.03027 3.92505
# Velocity P-wave (km/s) = 6.16436 6.42600 6.29654
#
# Compressibility (1/GPa) = 0.02152176
#
# Stress axis : x y z
#
# Youngs Moduli (GPa) = 83.10663 82.33661 130.56111
#
# Poissons Ratio (x) = 0.17720 0.32744
# Poissons Ratio (y) = 0.17885 0.06497
# Poissons Ratio (z) = 0.20843 0.04097
#
# Static dielectric constant tensor:
#      x y z
#    x 1.750100 0.000000 -0.051170 
#    y 0.000000 1.861690 0.000000 
#    z -0.051170 0.000000 1.957810 
# 
# From -- ./inp_files/41176.got.cif
#   From: 2010.05.17/outbox.cif.g08.bks.cpg/sg14_21_cif.got.tgz:41176.got - 2010.06.03 17:49:19.
