data_PCOD9252223
_publ_section_title
;
Structure prediction by ZEFSAII (Michael W. Deem and Ramdas Pophale) SiO2 
 PCOD9252223
Probable space group: P 21/C
;
_chemical_formula_sum "Si O2"
_cell_formula_units_Z 20
_cell_length_a 11.088567
_cell_length_b 7.700850
_cell_length_c 16.946712
_cell_angle_alpha 90.000000
_cell_angle_beta 145.636374
_cell_angle_gamma 90.000000
_cell_volume 816.807436
_symmetry_space_group_name_H-M "P 21/C"
_symmetry_group_IT_number 14
_symmetry_cell_setting 'monoclinic'
loop_
_space_group_symop_operation_xyz
x,y,z
-x,1/2+y,1/2-z
-x,-y,-z
x,1/2-y,1/2+z
loop_
_atom_site_type_symbol
_atom_site_label
_atom_site_fract_x
_atom_site_fract_y
_atom_site_fract_z
Si Si1 0.061589 0.782950 0.820507
Si Si2 0.169811 0.847706 0.108879
Si Si3 0.087367 0.933071 0.670866
Si Si4 0.528779 0.370079 0.378743
Si Si5 0.647853 0.974879 0.655731
O O1 0.039642 0.790552 0.714200
O O2 0.038047 0.604248 0.859528
O O3 0.874441 0.903902 0.750443
O O4 0.287104 0.878414 0.955766
O O5 0.042932 0.670572 0.064180
O O6 0.337028 0.869938 0.128775
O O7 0.316598 0.869506 0.265806
O O8 0.000000 0.000000 0.000000
O O9 0.328642 0.006264 0.787627
O O10 0.442773 0.176480 0.339490
O O11 0.500000 0.000000 0.500000
#
# Coordination Sequence:
#
# PCOD9252223 Si02
#       5
#     4   4   4   4   4
#     4  11  23  45  71 112 148 198 255 311 378 447
#     4  12  25  48  72 106 152 199 249 316 384 448
#     4  11  25  44  74 109 153 203 249 318 376 455
#     4  11  24  45  72 109 151 197 253 308 385 444
#     4  11  24  47  72 105 148 197 254 309 375 460
#
# _framework density 24.485575000000001
#
# number of rings (size 3 to 8) (size 9 to 14) (size 15 to 20)
#    0.000    0.800    2.000    5.400    0.000    2.400 
#   10.800    0.000    0.000    0.000    0.000    0.000 
#    0.000    0.000    0.000    0.000    0.000    0.000 
#
# Total GULP energy -111551.370356 kJ/mol
# GULP energy per Si atom -5577.568518 kJ/mol
# Density = 2.442985 g / cm^3
# Si number density = 24.485575 Si / 1000 Ang^3
#
#
#
# Elastic Constant Matrix: (Units=GPa)
#
#
# Indices 1 2 3 4 5 6 
#
# 1 164.5496 52.1324 -4.8052 0.0000 17.3302 0.0000
# 2 52.1324 147.6301 35.0455 0.0000 2.4637 0.0000
# 3 -4.8052 35.0455 44.8690 0.0000 11.7655 0.0000
# 4 0.0000 0.0000 0.0000 17.5517 0.0000 -14.3085
# 5 17.3302 2.4637 11.7655 0.0000 41.3159 0.0000
# 6 0.0000 0.0000 0.0000 -14.3085 0.0000 31.1798
#
#
#
# Elastic Compliance Matrix: (Units=1/GPa)
#
#
# Indices 1 2 3 4 5 6 
#
# 1 0.007961 -0.003955 0.005139 0.000000 -0.004567 0.000000
# 2 -0.003955 0.010363 -0.009500 0.000000 0.003746 0.000000
# 3 0.005139 -0.009500 0.033150 0.000000 -0.011029 0.000000
# 4 0.000000 0.000000 0.000000 0.091029 0.000000 0.041774
# 5 -0.004567 0.003746 -0.011029 0.000000 0.029037 0.000000
# 6 0.000000 0.000000 0.000000 0.041774 0.000000 0.051242
#
#
# Mechanical properties :
#
#
# Convention : Reuss Voigt Hill
#
# Bulk Modulus (GPa) = 28.70058 57.97712 43.33885
# Shear Modulus (GPa) = 19.91805 36.32123 28.11964
#
# Velocity S-wave (km/s) = 2.85522 3.85564 3.39251
# Velocity P-wave (km/s) = 4.75569 6.59930 5.75184
#
# Compressibility (1/GPa) = 0.03484250
#
# Stress axis : x y z
#
# Youngs Moduli (GPa) = 125.60638 96.49626 30.16601
#
# Poissons Ratio (x) = 0.38166 -0.15504
# Poissons Ratio (y) = 0.49680 0.28658
# Poissons Ratio (z) = -0.64555 0.91673
#
# Static dielectric constant tensor:
#      x y z
#    x 2.003700 0.000000 -0.348450 
#    y 0.000000 2.066400 0.000000 
#    z -0.348450 0.000000 5.421860 
# 
# From -- ./inp_files/57320.got.cif
#   From: 2010.05.17/outbox.cif.g08.bks.cpg/sg14_29_cif.got.tgz:57320.got - 2010.06.03 17:49:19.
