data_PCOD9252544
_publ_section_title
;
Structure prediction by ZEFSAII (Michael W. Deem and Ramdas Pophale) SiO2 
 PCOD9252544
Probable space group: P 21/C
;
_chemical_formula_sum "Si O2"
_cell_formula_units_Z 24
_cell_length_a 13.002005
_cell_length_b 11.914281
_cell_length_c 17.460276
_cell_angle_alpha 90.000000
_cell_angle_beta 160.391211
_cell_angle_gamma 90.000000
_cell_volume 907.707961
_symmetry_space_group_name_H-M "P 21/C"
_symmetry_group_IT_number 14
_symmetry_cell_setting 'monoclinic'
loop_
_space_group_symop_operation_xyz
x,y,z
-x,1/2+y,1/2-z
-x,-y,-z
x,1/2-y,1/2+z
loop_
_atom_site_type_symbol
_atom_site_label
_atom_site_fract_x
_atom_site_fract_y
_atom_site_fract_z
Si Si1 0.692390 0.768501 0.697378
Si Si2 0.251282 0.823949 0.509029
Si Si3 0.008018 0.512171 0.414122
Si Si4 0.330582 0.076755 0.613212
Si Si5 0.640011 0.101232 0.148029
Si Si6 0.813787 0.811602 0.059125
O O1 0.565237 0.769111 0.695785
O O2 0.456766 0.705418 0.475026
O O3 0.029154 0.712220 0.923171
O O4 0.745728 0.898051 0.709994
O O5 0.029872 0.799885 0.283059
O O6 0.311717 0.956631 0.556885
O O7 0.016793 0.389288 0.383775
O O8 0.000000 0.500000 0.500000
O O9 0.329524 0.569929 0.613774
O O10 0.315518 0.191036 0.553835
O O11 0.994979 0.084004 0.415035
O O12 0.467692 0.115632 0.106534
O O13 0.500000 0.000000 0.000000
#
# Coordination Sequence:
#
# PCOD9252544 Si02
#       6
#     4   4   4   4   4   4
#     4  11  25  46  79 107 152 192 257 312 382 440
#     4  11  25  46  81 110 144 202 261 317 368 450
#     4  12  30  48  71 111 157 200 243 305 390 455
#     4  12  26  47  73 111 155 193 259 304 385 450
#     4  11  24  45  77 114 140 194 261 313 372 442
#     4  11  28  46  76 109 147 200 253 317 369 450
#
# _framework density 26.440223
#
# number of rings (size 3 to 8) (size 9 to 14) (size 15 to 20)
#    0.000    0.667    6.667    0.000   11.667    1.333 
#    0.000    0.000    0.000    0.000    0.000    0.000 
#    0.000    0.000    0.000    0.000    0.000    0.000 
#
# Total GULP energy -134202.700449 kJ/mol
# GULP energy per Si atom -5591.779185 kJ/mol
# Density = 2.638004 g / cm^3
# Si number density = 26.440223 Si / 1000 Ang^3
#
#
#
# Elastic Constant Matrix: (Units=GPa)
#
#
# Indices 1 2 3 4 5 6 
#
# 1 123.3214 60.8729 24.3610 0.0000 47.1167 0.0000
# 2 60.8729 166.2369 28.3273 0.0000 19.4343 0.0000
# 3 24.3610 28.3273 121.0615 0.0000 27.9000 0.0000
# 4 0.0000 0.0000 0.0000 52.5187 0.0000 -2.7505
# 5 47.1167 19.4343 27.9000 0.0000 52.1573 0.0000
# 6 0.0000 0.0000 0.0000 -2.7505 0.0000 33.5411
#
#
#
# Elastic Compliance Matrix: (Units=1/GPa)
#
#
# Indices 1 2 3 4 5 6 
#
# 1 0.014568 -0.004059 0.000801 0.000000 -0.012077 0.000000
# 2 -0.004059 0.007543 -0.001307 0.000000 0.001555 0.000000
# 3 0.000801 -0.001307 0.009649 0.000000 -0.005399 0.000000
# 4 0.000000 0.000000 0.000000 0.019123 0.000000 0.001568
# 5 -0.012077 0.001555 -0.005399 0.000000 0.032390 0.000000
# 6 0.000000 0.000000 0.000000 0.001568 0.000000 0.029943
#
#
# Mechanical properties :
#
#
# Convention : Reuss Voigt Hill
#
# Bulk Modulus (GPa) = 44.18705 70.86024 57.52364
# Shear Modulus (GPa) = 38.49445 47.44732 42.97088
#
# Velocity S-wave (km/s) = 3.81977 4.24076 4.03576
# Velocity P-wave (km/s) = 6.01685 7.13002 6.59696
#
# Compressibility (1/GPa) = 0.02263107
#
# Stress axis : x y z
#
# Youngs Moduli (GPa) = 68.64187 132.57703 103.63916
#
# Poissons Ratio (x) = 0.53818 -0.08306
# Poissons Ratio (y) = 0.27864 0.13541
# Poissons Ratio (z) = -0.05501 0.17322
#
# Static dielectric constant tensor:
#      x y z
#    x 2.098720 0.000000 0.098080 
#    y 0.000000 2.103500 0.000000 
#    z 0.098080 0.000000 2.140390 
# 
# From -- ./inp_files/68533.got.cif
#   From: 2010.05.17/outbox.cif.g08.bks.cpg/sg14_35_cif.got.tgz:68533.got - 2010.06.03 17:49:19.
