data_PCOD9252284
_publ_section_title
;
Structure prediction by ZEFSAII (Michael W. Deem and Ramdas Pophale) SiO2 
 PCOD9252284
Probable space group: P 21/C
;
_chemical_formula_sum "Si O2"
_cell_formula_units_Z 30
_cell_length_a 8.335402
_cell_length_b 24.195208
_cell_length_c 9.644665
_cell_angle_alpha 90.000000
_cell_angle_beta 41.113048
_cell_angle_gamma 90.000000
_cell_volume 1278.997663
_symmetry_space_group_name_H-M "P 21/C"
_symmetry_group_IT_number 14
_symmetry_cell_setting 'monoclinic'
loop_
_space_group_symop_operation_xyz
x,y,z
-x,1/2+y,1/2-z
-x,-y,-z
x,1/2-y,1/2+z
loop_
_atom_site_type_symbol
_atom_site_label
_atom_site_fract_x
_atom_site_fract_y
_atom_site_fract_z
Si Si1 0.789517 0.130692 0.576332
Si Si2 0.000000 0.500000 0.500000
Si Si3 0.683108 0.068323 0.897824
Si Si4 0.103128 0.210483 0.494954
Si Si5 0.021460 0.305277 0.369005
Si Si6 0.873933 0.544627 0.298749
Si Si7 0.636983 0.591301 0.841700
Si Si8 0.442373 0.868674 0.755299
O O1 0.769959 0.119379 0.753002
O O2 0.542057 0.114555 0.661121
O O3 0.896602 0.191779 0.516135
O O4 0.983413 0.088307 0.384409
O O5 0.971011 0.542696 0.390216
O O6 0.758779 0.532135 0.733850
O O7 0.873892 0.019221 0.749688
O O8 0.415260 0.055032 0.015568
O O9 0.646819 0.083253 0.081218
O O10 0.311336 0.163041 0.357548
O O11 0.176008 0.267968 0.375847
O O12 0.027625 0.216958 0.705794
O O13 0.759320 0.320278 0.606230
O O14 0.145289 0.365256 0.282886
O O15 0.489057 0.600988 0.080614
#
# Coordination Sequence:
#
# PCOD9252284 Si02
#       8
#     4   2   4   4   4   4   4   4
#     4  12  25  47  70 108 141 192 243 301 364 439
#     4  12  26  48  68 108 146 194 244 304 358 432
#     4  11  23  47  69 100 145 191 239 297 363 433
#     4  11  27  45  77 108 143 192 245 302 373 439
#     4  11  27  49  73 108 147 191 242 308 367 444
#     4  11  26  40  71 103 142 191 241 299 355 432
#     4  11  29  47  73 110 151 194 249 303 369 438
#     4  11  25  49  75 104 151 194 241 309 366 444
#
# _framework density 23.455867000000001
#
# number of rings (size 3 to 8) (size 9 to 14) (size 15 to 20)
#    0.000    0.800    4.000    1.200    9.333    4.800 
#    0.000    0.000    0.000    0.000    0.000    0.000 
#    0.000    0.000    0.000    0.000    0.000    0.000 
#
# Total GULP energy -167018.239414 kJ/mol
# GULP energy per Si atom -5567.274647 kJ/mol
# Density = 2.340248 g / cm^3
# Si number density = 23.455867 Si / 1000 Ang^3
#
#
#
# Elastic Constant Matrix: (Units=GPa)
#
#
# Indices 1 2 3 4 5 6 
#
# 1 88.5782 9.3774 42.8898 0.0000 2.9189 0.0000
# 2 9.3774 51.4755 18.6826 0.0000 8.2239 0.0000
# 3 42.8898 18.6826 99.6848 0.0000 23.5793 0.0000
# 4 0.0000 0.0000 0.0000 29.7008 0.0000 5.3627
# 5 2.9189 8.2239 23.5793 0.0000 38.5165 0.0000
# 6 0.0000 0.0000 0.0000 5.3627 0.0000 39.0012
#
#
#
# Elastic Compliance Matrix: (Units=1/GPa)
#
#
# Indices 1 2 3 4 5 6 
#
# 1 0.014611 -0.000668 -0.006938 0.000000 0.003283 0.000000
# 2 -0.000668 0.021068 -0.003051 0.000000 -0.002580 0.000000
# 3 -0.006938 -0.003051 0.015564 0.000000 -0.008351 0.000000
# 4 0.000000 0.000000 0.000000 0.034526 0.000000 -0.004747
# 5 0.003283 -0.002580 -0.008351 0.000000 0.031377 0.000000
# 6 0.000000 0.000000 0.000000 -0.004747 0.000000 0.026293
#
#
# Mechanical properties :
#
#
# Convention : Reuss Voigt Hill
#
# Bulk Modulus (GPa) = 33.41192 42.40424 37.90808
# Shear Modulus (GPa) = 28.61570 32.69628 30.65599
#
# Velocity S-wave (km/s) = 3.49661 3.73761 3.61912
# Velocity P-wave (km/s) = 5.52967 6.06167 5.80177
#
# Compressibility (1/GPa) = 0.02992944
#
# Stress axis : x y z
#
# Youngs Moduli (GPa) = 68.44007 47.46564 64.25226
#
# Poissons Ratio (x) = 0.03172 0.44577
# Poissons Ratio (y) = 0.04573 0.19601
# Poissons Ratio (z) = 0.47482 0.14480
#
# Static dielectric constant tensor:
#      x y z
#    x 1.939370 0.000000 -0.043900 
#    y 0.000000 1.905960 0.000000 
#    z -0.043900 0.000000 1.889460 
# 
# From -- ./inp_files/11166.got.cif
#   From: 2010.05.17/outbox.cif.g08.bks.cpg/sg14_6_cif.got.tgz:11166.got - 2010.06.03 17:49:19.
