data_PCOD9252732
_publ_section_title
;
Structure prediction by ZEFSAII (Michael W. Deem and Ramdas Pophale) SiO2 
 PCOD9252732
Probable space group: P 21/C
;
_chemical_formula_sum "Si O2"
_cell_formula_units_Z 16
_cell_length_a 9.964821
_cell_length_b 8.862638
_cell_length_c 8.430189
_cell_angle_alpha 90.000000
_cell_angle_beta 61.354035
_cell_angle_gamma 90.000000
_cell_volume 653.379913
_symmetry_space_group_name_H-M "P 21/C"
_symmetry_group_IT_number 14
_symmetry_cell_setting 'monoclinic'
loop_
_space_group_symop_operation_xyz
x,y,z
-x,1/2+y,1/2-z
-x,-y,-z
x,1/2-y,1/2+z
loop_
_atom_site_type_symbol
_atom_site_label
_atom_site_fract_x
_atom_site_fract_y
_atom_site_fract_z
Si Si1 0.362119 0.321146 0.960964
Si Si2 0.301100 0.901616 0.709579
Si Si3 0.177885 0.110369 0.253627
Si Si4 0.885543 0.180830 0.888724
O O1 0.540396 0.330088 0.819655
O O2 0.260729 0.381853 0.874587
O O3 0.336605 0.431915 0.125797
O O4 0.303307 0.158707 0.050714
O O5 0.238609 0.801799 0.600041
O O6 0.171545 0.892502 0.916000
O O7 0.044062 0.233450 0.319773
O O8 0.109207 0.948877 0.247366
#
# Coordination Sequence:
#
# PCOD9252732 Si02
#       4
#     4   4   4   4
#     4  11  25  45  70 101 135 173 220 274 333 396
#     4  11  25  45  70 101 135 173 220 274 333 396
#     4  12  26  45  69  98 135 178 223 273 330 393
#     4  12  26  45  69  98 135 178 223 273 330 393
#
# _framework density 24.488050000000001
#
# number of rings (size 3 to 8) (size 9 to 14) (size 15 to 20)
#    0.000    0.500    0.000    7.500    0.000   14.000 
#    0.000    2.500    0.000    0.000    0.000    0.000 
#    0.000    0.000    0.000    0.000    0.000    0.000 
#
# Total GULP energy -89821.005494 kJ/mol
# GULP energy per Si atom -5613.812843 kJ/mol
# Density = 2.443231 g / cm^3
# Si number density = 24.488050 Si / 1000 Ang^3
#
#
#
# Elastic Constant Matrix: (Units=GPa)
#
#
# Indices 1 2 3 4 5 6 
#
# 1 151.5635 12.9940 12.8909 0.0000 -15.4752 0.0000
# 2 12.9940 47.9967 -16.7189 0.0000 -13.5611 0.0000
# 3 12.8909 -16.7189 38.9356 0.0000 0.9795 0.0000
# 4 0.0000 0.0000 0.0000 28.5904 0.0000 -0.5773
# 5 -15.4752 -13.5611 0.9795 0.0000 42.2964 0.0000
# 6 0.0000 0.0000 0.0000 -0.5773 0.0000 33.3214
#
#
#
# Elastic Compliance Matrix: (Units=1/GPa)
#
#
# Indices 1 2 3 4 5 6 
#
# 1 0.007335 -0.002719 -0.003644 0.000000 0.001896 0.000000
# 2 -0.002719 0.028232 0.012828 0.000000 0.007760 0.000000
# 3 -0.003644 0.012828 0.032347 0.000000 0.002031 0.000000
# 4 0.000000 0.000000 0.000000 0.034989 0.000000 0.000606
# 5 0.001896 0.007760 0.002031 0.000000 0.026777 0.000000
# 6 0.000000 0.000000 0.000000 0.000606 0.000000 0.030021
#
#
# Mechanical properties :
#
#
# Convention : Reuss Voigt Hill
#
# Bulk Modulus (GPa) = 12.36968 28.53643 20.45306
# Shear Modulus (GPa) = 28.78223 36.13030 32.45627
#
# Velocity S-wave (km/s) = 3.43207 3.84529 3.64454
# Velocity P-wave (km/s) = 4.55716 5.60300 5.10692
#
# Compressibility (1/GPa) = 0.08084282
#
# Stress axis : x y z
#
# Youngs Moduli (GPa) = 136.34178 35.42124 30.91495
#
# Poissons Ratio (x) = 0.09631 0.11264
# Poissons Ratio (y) = 0.37073 -0.39657
# Poissons Ratio (z) = 0.49677 -0.45437
#
# Static dielectric constant tensor:
#      x y z
#    x 1.878870 0.000000 0.005930 
#    y 0.000000 1.951500 0.000000 
#    z 0.005930 0.000000 1.941210 
# 
# From -- ./inp_files/7140.got.cif
#   From: 2010.05.17/outbox.cif.g08.bks.cpg/sg14_4_cif.got.tgz:7140.got - 2010.06.03 17:49:19.
