data_PCOD9252837
_publ_section_title
;
Structure prediction by ZEFSAII (Michael W. Deem and Ramdas Pophale) SiO2 
 PCOD9252837
Probable space group: P 21/C
;
_chemical_formula_sum "Si O2"
_cell_formula_units_Z 20
_cell_length_a 14.985044
_cell_length_b 7.601954
_cell_length_c 24.696969
_cell_angle_alpha 90.000000
_cell_angle_beta 163.347457
_cell_angle_gamma 90.000000
_cell_volume 806.219332
_symmetry_space_group_name_H-M "P 21/C"
_symmetry_group_IT_number 14
_symmetry_cell_setting 'monoclinic'
loop_
_space_group_symop_operation_xyz
x,y,z
-x,1/2+y,1/2-z
-x,-y,-z
x,1/2-y,1/2+z
loop_
_atom_site_type_symbol
_atom_site_label
_atom_site_fract_x
_atom_site_fract_y
_atom_site_fract_z
Si Si1 0.478825 0.738855 0.814712
Si Si2 0.385197 0.389846 0.218999
Si Si3 0.538772 0.268661 0.986668
Si Si4 0.791002 0.604979 0.600679
Si Si5 0.868775 0.901172 0.846399
O O1 0.666703 0.652251 0.874234
O O2 0.243907 0.591228 0.699255
O O3 0.306897 0.912770 0.692156
O O4 0.700303 0.800652 0.992160
O O5 0.254543 0.241015 0.182169
O O6 0.237500 0.612360 0.556926
O O7 0.842243 0.384731 0.174903
O O8 0.663486 0.093024 0.028857
O O9 0.382501 0.204978 0.951215
O O10 0.294451 0.360293 0.805310
#
# Coordination Sequence:
#
# PCOD9252837 Si02
#       5
#     4   4   4   4   4
#     4  12  27  48  75 111 148 201 250 308 373 446
#     4  12  28  49  76 113 150 200 252 308 380 438
#     4  11  25  48  71 114 144 194 242 310 368 448
#     4  11  26  44  76 106 151 190 248 302 376 437
#     4  12  27  49  79 109 156 194 249 316 372 450
#
# _framework density 24.807144999999998
#
# number of rings (size 3 to 8) (size 9 to 14) (size 15 to 20)
#    0.000    0.400    4.000    3.000    2.800    5.600 
#    0.000    0.000    0.000    0.000    0.000    0.000 
#    0.000    0.000    0.000    0.000    0.000    0.000 
#
# Total GULP energy -112441.533465 kJ/mol
# GULP energy per Si atom -5622.076673 kJ/mol
# Density = 2.475068 g / cm^3
# Si number density = 24.807145 Si / 1000 Ang^3
#
#
#
# Elastic Constant Matrix: (Units=GPa)
#
#
# Indices 1 2 3 4 5 6 
#
# 1 141.4706 60.6388 67.6727 0.0000 -23.1767 0.0000
# 2 60.6388 180.7123 51.4762 0.0000 -9.3218 0.0000
# 3 67.6727 51.4762 117.2331 0.0000 -21.6042 0.0000
# 4 0.0000 0.0000 0.0000 35.3497 0.0000 -1.6597
# 5 -23.1767 -9.3218 -21.6042 0.0000 46.0519 0.0000
# 6 0.0000 0.0000 0.0000 -1.6597 0.0000 59.7490
#
#
#
# Elastic Compliance Matrix: (Units=1/GPa)
#
#
# Indices 1 2 3 4 5 6 
#
# 1 0.010682 -0.002092 -0.004745 0.000000 0.002726 0.000000
# 2 -0.002092 0.006734 -0.001852 0.000000 -0.000559 0.000000
# 3 -0.004745 -0.001852 0.012668 0.000000 0.003180 0.000000
# 4 0.000000 0.000000 0.000000 0.028326 0.000000 0.000787
# 5 0.002726 -0.000559 0.003180 0.000000 0.024466 0.000000
# 6 0.000000 0.000000 0.000000 0.000787 0.000000 0.016759
#
#
# Mechanical properties :
#
#
# Convention : Reuss Voigt Hill
#
# Bulk Modulus (GPa) = 78.70397 88.77682 83.74040
# Shear Modulus (GPa) = 41.23755 45.53867 43.38811
#
# Velocity S-wave (km/s) = 4.08159 4.28916 4.18666
# Velocity P-wave (km/s) = 7.34899 7.77134 7.56311
#
# Compressibility (1/GPa) = 0.01270584
#
# Stress axis : x y z
#
# Youngs Moduli (GPa) = 93.61757 148.48924 78.93607
#
# Poissons Ratio (x) = 0.31065 0.37455
# Poissons Ratio (y) = 0.19585 0.14622
# Poissons Ratio (z) = 0.44422 0.27506
#
# Static dielectric constant tensor:
#      x y z
#    x 1.935500 0.000000 0.011540 
#    y 0.000000 1.946010 0.000000 
#    z 0.011540 0.000000 1.935130 
# 
# From -- ./inp_files/77744.got.cif
#   From: 2010.05.17/outbox.cif.g08.bks.cpg/sg14_39_cif.got.tgz:77744.got - 2010.06.03 17:49:19.
