data_PCOD9252216
_publ_section_title
;
Structure prediction by ZEFSAII (Michael W. Deem and Ramdas Pophale) SiO2 
 PCOD9252216
Probable space group: P 21/C
;
_chemical_formula_sum "Si O2"
_cell_formula_units_Z 28
_cell_length_a 6.611422
_cell_length_b 11.504934
_cell_length_c 20.297933
_cell_angle_alpha 90.000000
_cell_angle_beta 119.839406
_cell_angle_gamma 90.000000
_cell_volume 1339.251009
_symmetry_space_group_name_H-M "P 21/C"
_symmetry_group_IT_number 14
_symmetry_cell_setting 'monoclinic'
loop_
_space_group_symop_operation_xyz
x,y,z
-x,1/2+y,1/2-z
-x,-y,-z
x,1/2-y,1/2+z
loop_
_atom_site_type_symbol
_atom_site_label
_atom_site_fract_x
_atom_site_fract_y
_atom_site_fract_z
Si Si1 0.455466 0.514452 0.916417
Si Si2 0.401718 0.841025 0.752146
Si Si3 0.913288 0.562993 0.809350
Si Si4 0.947859 0.378595 0.456721
Si Si5 0.735839 0.725047 0.898598
Si Si6 0.507447 0.275230 0.875187
Si Si7 0.960532 0.676213 0.675238
O O1 0.565144 0.630592 0.903839
O O2 0.588642 0.403531 0.907578
O O3 0.176700 0.514820 0.859824
O O4 0.500000 0.500000 0.000000
O O5 0.579424 0.827154 0.840772
O O6 0.529107 0.788573 0.708747
O O7 0.181539 0.756440 0.726549
O O8 0.290828 0.966323 0.720002
O O9 0.868989 0.658129 0.860056
O O10 0.907636 0.605557 0.732713
O O11 0.101842 0.281356 0.519382
O O12 0.995446 0.389241 0.386161
O O13 0.000000 0.500000 0.500000
O O14 0.687048 0.327114 0.419170
O O15 0.268387 0.252638 0.873499
#
# Coordination Sequence:
#
# PCOD9252216 Si02
#       7
#     4   4   4   4   4   4   4
#     4  12  25  42  71 105 139 177 233 291 349 413
#     4  11  24  42  71 103 133 179 233 288 348 414
#     4  12  25  43  74 104 138 183 235 293 344 418
#     4  11  29  47  67 100 146 188 232 289 354 422
#     4  12  26  45  70 104 140 185 232 287 356 413
#     4  11  23  45  70  97 140 180 228 293 344 409
#     4  11  24  46  69 102 138 184 236 283 353 420
#
# _framework density 20.907208000000001
#
# number of rings (size 3 to 8) (size 9 to 14) (size 15 to 20)
#    0.000    0.571    5.714    1.714    4.000    4.000 
#    2.571    0.000    0.000    0.000    0.000    0.000 
#    0.000    0.000    0.000    0.000    0.000    0.000 
#
# Total GULP energy -156389.128265 kJ/mol
# GULP energy per Si atom -5585.326009 kJ/mol
# Density = 2.085962 g / cm^3
# Si number density = 20.907208 Si / 1000 Ang^3
#
#
#
# Elastic Constant Matrix: (Units=GPa)
#
#
# Indices 1 2 3 4 5 6 
#
# 1 73.1987 16.3913 15.8088 0.0000 -17.8926 0.0000
# 2 16.3913 70.7559 20.0640 0.0000 -7.3662 0.0000
# 3 15.8088 20.0640 97.3088 0.0000 -19.0658 0.0000
# 4 0.0000 0.0000 0.0000 32.7822 0.0000 -0.4006
# 5 -17.8926 -7.3662 -19.0658 0.0000 16.5803 0.0000
# 6 0.0000 0.0000 0.0000 -0.4006 0.0000 27.9337
#
#
#
# Elastic Compliance Matrix: (Units=1/GPa)
#
#
# Indices 1 2 3 4 5 6 
#
# 1 0.019118 -0.002670 0.001619 0.000000 0.021307 0.000000
# 2 -0.002670 0.015593 -0.002567 0.000000 0.001095 0.000000
# 3 0.001619 -0.002567 0.013762 0.000000 0.016432 0.000000
# 4 0.000000 0.000000 0.000000 0.030510 0.000000 0.000438
# 5 0.021307 0.001095 0.016432 0.000000 0.102688 0.000000
# 6 0.000000 0.000000 0.000000 0.000438 0.000000 0.035805
#
#
# Mechanical properties :
#
#
# Convention : Reuss Voigt Hill
#
# Bulk Modulus (GPa) = 24.24909 38.42129 31.33519
# Shear Modulus (GPa) = 20.96809 28.05918 24.51363
#
# Velocity S-wave (km/s) = 3.17031 3.66742 3.42789
# Velocity P-wave (km/s) = 5.00248 6.02911 5.53963
#
# Compressibility (1/GPa) = 0.04123865
#
# Stress axis : x y z
#
# Youngs Moduli (GPa) = 52.30740 64.12938 72.66172
#
# Poissons Ratio (x) = 0.17121 -0.11766
# Poissons Ratio (y) = 0.13965 0.18652
# Poissons Ratio (z) = -0.08470 0.16462
#
# Static dielectric constant tensor:
#      x y z
#    x 1.775650 0.000000 -0.047990 
#    y 0.000000 1.788510 0.000000 
#    z -0.047990 0.000000 1.819850 
# 
# From -- ./inp_files/61264.got.cif
#   From: 2010.05.17/outbox.cif.g08.bks.cpg/sg14_31_cif.got.tgz:61264.got - 2010.06.03 17:49:19.
