data_PCOD9252091
_publ_section_title
;
Structure prediction by ZEFSAII (Michael W. Deem and Ramdas Pophale) SiO2 
 PCOD9252091
Probable space group: P 21/C
;
_chemical_formula_sum "Si O2"
_cell_formula_units_Z 32
_cell_length_a 6.337900
_cell_length_b 21.160073
_cell_length_c 14.400056
_cell_angle_alpha 90.000000
_cell_angle_beta 44.524981
_cell_angle_gamma 90.000000
_cell_volume 1354.194758
_symmetry_space_group_name_H-M "P 21/C"
_symmetry_group_IT_number 14
_symmetry_cell_setting 'monoclinic'
loop_
_space_group_symop_operation_xyz
x,y,z
-x,1/2+y,1/2-z
-x,-y,-z
x,1/2-y,1/2+z
loop_
_atom_site_type_symbol
_atom_site_label
_atom_site_fract_x
_atom_site_fract_y
_atom_site_fract_z
Si Si1 0.325295 0.125745 0.191029
Si Si2 0.669716 0.244732 0.626887
Si Si3 0.299115 0.128986 0.002399
Si Si4 0.560311 0.641167 0.943362
Si Si5 0.915185 0.434937 0.268003
Si Si6 0.392061 0.238577 0.413693
Si Si7 0.937118 0.064492 0.969498
Si Si8 0.945310 0.041704 0.423923
O O1 0.491125 0.192645 0.148257
O O2 0.162609 0.102100 0.334999
O O3 0.139783 0.121815 0.152400
O O4 0.585910 0.076542 0.085355
O O5 0.528829 0.186362 0.614071
O O6 0.586492 0.248485 0.761460
O O7 0.032453 0.238256 0.503520
O O8 0.435627 0.198583 0.961285
O O9 0.566818 0.080697 0.893701
O O10 0.080927 0.120361 0.984320
O O11 0.911491 0.623651 0.832160
O O12 0.506569 0.679024 0.055977
O O13 0.378029 0.575400 0.986936
O O14 0.978824 0.494657 0.184249
O O15 0.046907 0.440002 0.330274
O O16 0.000000 0.000000 0.000000
O O17 0.000000 0.000000 0.500000
#
# Coordination Sequence:
#
# PCOD9252091 Si02
#       8
#     4   4   4   4   4   4   4   4
#     4  11  25  46  73 110 147 186 260 307 378 454
#     4  12  27  47  78 115 151 200 256 315 392 458
#     4  11  23  46  76 109 143 191 251 326 376 446
#     4  12  29  49  75 110 155 201 253 317 382 460
#     4  11  27  47  72 108 148 196 254 308 377 461
#     4  12  27  45  78 111 152 199 253 319 390 458
#     4  11  23  42  77 102 142 190 249 315 376 436
#     4  12  30  50  76 108 160 209 254 309 385 469
#
# _framework density 23.630279000000002
#
# number of rings (size 3 to 8) (size 9 to 14) (size 15 to 20)
#    0.000    0.500    2.500    4.125   12.250    5.000 
#    0.000    0.000    0.000    0.000    0.000    0.000 
#    0.000    0.000    0.000    0.000    0.000    0.000 
#
# Total GULP energy -178816.132955 kJ/mol
# GULP energy per Si atom -5588.004155 kJ/mol
# Density = 2.357650 g / cm^3
# Si number density = 23.630279 Si / 1000 Ang^3
#
#
#
# Elastic Constant Matrix: (Units=GPa)
#
#
# Indices 1 2 3 4 5 6 
#
# 1 78.8971 29.8817 34.4417 0.0000 23.9990 0.0000
# 2 29.8817 98.4068 21.9825 0.0000 9.6881 0.0000
# 3 34.4417 21.9825 97.8943 0.0000 8.2312 0.0000
# 4 0.0000 0.0000 0.0000 41.0171 0.0000 -0.7096
# 5 23.9990 9.6881 8.2312 0.0000 34.0731 0.0000
# 6 0.0000 0.0000 0.0000 -0.7096 0.0000 39.0746
#
#
#
# Elastic Compliance Matrix: (Units=1/GPa)
#
#
# Indices 1 2 3 4 5 6 
#
# 1 0.019915 -0.003736 -0.005183 0.000000 -0.011713 0.000000
# 2 -0.003736 0.011615 -0.001263 0.000000 -0.000366 0.000000
# 3 -0.005183 -0.001263 0.012233 0.000000 0.001054 0.000000
# 4 0.000000 0.000000 0.000000 0.024388 0.000000 0.000443
# 5 -0.011713 -0.000366 0.001054 0.000000 0.037448 0.000000
# 6 0.000000 0.000000 0.000000 0.000443 0.000000 0.025600
#
#
# Mechanical properties :
#
#
# Convention : Reuss Voigt Hill
#
# Bulk Modulus (GPa) = 42.73666 49.75667 46.24666
# Shear Modulus (GPa) = 31.37503 35.42578 33.40040
#
# Velocity S-wave (km/s) = 3.64778 3.87611 3.76368
# Velocity P-wave (km/s) = 5.98887 6.41361 6.20487
#
# Compressibility (1/GPa) = 0.02339912
#
# Stress axis : x y z
#
# Youngs Moduli (GPa) = 50.21306 86.09869 81.74303
#
# Poissons Ratio (x) = 0.32171 0.42366
# Poissons Ratio (y) = 0.18762 0.10322
# Poissons Ratio (z) = 0.26024 0.10872
#
# Static dielectric constant tensor:
#      x y z
#    x 1.986790 0.000000 0.018430 
#    y 0.000000 1.955830 0.000000 
#    z 0.018430 0.000000 1.874960 
# 
# From -- ./inp_files/38193.got.cif
#   From: 2010.05.17/outbox.cif.g08.bks.cpg/sg14_20_cif.got.tgz:38193.got - 2010.06.03 17:49:19.
