data_PCOD9252363
_publ_section_title
;
Structure prediction by ZEFSAII (Michael W. Deem and Ramdas Pophale) SiO2 
 PCOD9252363
Probable space group: P 21/C
;
_chemical_formula_sum "Si O2"
_cell_formula_units_Z 24
_cell_length_a 12.733023
_cell_length_b 8.595424
_cell_length_c 10.815962
_cell_angle_alpha 90.000000
_cell_angle_beta 64.867251
_cell_angle_gamma 90.000000
_cell_volume 1071.689719
_symmetry_space_group_name_H-M "P 21/C"
_symmetry_group_IT_number 14
_symmetry_cell_setting 'monoclinic'
loop_
_space_group_symop_operation_xyz
x,y,z
-x,1/2+y,1/2-z
-x,-y,-z
x,1/2-y,1/2+z
loop_
_atom_site_type_symbol
_atom_site_label
_atom_site_fract_x
_atom_site_fract_y
_atom_site_fract_z
Si Si1 0.696171 0.954172 0.031700
Si Si2 0.044025 0.923931 0.102536
Si Si3 0.303828 0.954172 0.227873
Si Si4 0.365275 0.106723 0.451947
Si Si5 0.365275 0.893277 0.682779
Si Si6 0.955975 0.923931 0.646561
O O1 0.705853 0.766879 0.026312
O O2 0.639484 0.009722 0.187639
O O3 0.636555 1.000000 0.931721
O O4 0.818329 0.045666 0.966755
O O5 0.000000 0.750000 0.124541
O O6 0.997317 1.000000 0.251341
O O7 0.000000 0.000000 0.000000
O O8 0.360515 0.009721 0.327126
O O9 0.181670 0.045665 0.285085
O O10 0.294146 0.766878 0.232166
O O11 0.500000 0.150755 0.407541
O O12 0.326593 0.000001 0.586705
O O13 0.000000 0.000000 0.500000
#
# Coordination Sequence:
#
# PCOD9252363 Si02
#       6
#     4   4   4   4   4   4
#     4  11  24  42  65  97 131 173 220 269 327 387
#     4  11  24  43  67  97 130 170 218 271 329 390
#     4  11  24  42  65  97 131 173 220 269 327 387
#     4  11  24  42  67  99 135 175 219 268 324 389
#     4  11  24  42  67  99 135 175 219 268 324 389
#     4  11  24  43  67  97 130 170 218 271 329 390
#
# _framework density 22.394542000000001
#
# number of rings (size 3 to 8) (size 9 to 14) (size 15 to 20)
#    0.000    1.000    0.000    6.000    0.000   12.000 
#    0.000    0.000    0.000    0.000    0.000    0.000 
#    0.000    0.000    0.000    0.000    0.000    0.000 
#
# Total GULP energy -134237.352877 kJ/mol
# GULP energy per Si atom -5593.223037 kJ/mol
# Density = 2.234357 g / cm^3
# Si number density = 22.394542 Si / 1000 Ang^3
#
#
#
# Elastic Constant Matrix: (Units=GPa)
#
#
# Indices 1 2 3 4 5 6 
#
# 1 78.6127 52.0520 47.7044 0.0000 -1.7568 0.0000
# 2 52.0520 223.2361 84.2952 0.0000 18.5483 0.0000
# 3 47.7044 84.2952 172.5941 0.0000 55.8231 0.0000
# 4 0.0000 0.0000 0.0000 48.2496 0.0000 13.2866
# 5 -1.7568 18.5483 55.8231 0.0000 47.0576 0.0000
# 6 0.0000 0.0000 0.0000 13.2866 0.0000 25.1566
#
#
#
# Elastic Compliance Matrix: (Units=1/GPa)
#
#
# Indices 1 2 3 4 5 6 
#
# 1 0.019178 -0.002521 -0.007500 0.000000 0.010607 0.000000
# 2 -0.002521 0.005904 -0.002277 0.000000 0.000280 0.000000
# 3 -0.007500 -0.002277 0.014245 0.000000 -0.016281 0.000000
# 4 0.000000 0.000000 0.000000 0.024253 0.000000 -0.012809
# 5 0.010607 0.000280 -0.016281 0.000000 0.040850 0.000000
# 6 0.000000 0.000000 0.000000 -0.012809 0.000000 0.046516
#
#
# Mechanical properties :
#
#
# Convention : Reuss Voigt Hill
#
# Bulk Modulus (GPa) = 67.88826 93.61624 80.75225
# Shear Modulus (GPa) = 27.70796 43.45218 35.58007
#
# Velocity S-wave (km/s) = 3.52129 4.40966 3.99028
# Velocity P-wave (km/s) = 6.84932 8.23534 7.57410
#
# Compressibility (1/GPa) = 0.01473009
#
# Stress axis : x y z
#
# Youngs Moduli (GPa) = 52.14262 169.37501 70.19955
#
# Poissons Ratio (x) = 0.42699 0.52651
# Poissons Ratio (y) = 0.13145 0.15988
# Poissons Ratio (z) = 0.39108 0.38574
#
# Static dielectric constant tensor:
#      x y z
#    x 2.160400 0.000000 -0.159850 
#    y 0.000000 1.780990 0.000000 
#    z -0.159850 0.000000 1.882550 
# 
# From -- ./inp_files/28003.got.cif
#   From: 2010.05.17/outbox.cif.g08.bks.cpg/sg14_15_cif.got.tgz:28003.got - 2010.06.03 17:49:19.
