data_PCOD9252727
_publ_section_title
;
Structure prediction by ZEFSAII (Michael W. Deem and Ramdas Pophale) SiO2 
 PCOD9252727
Probable space group: P 21/C
;
_chemical_formula_sum "Si O2"
_cell_formula_units_Z 32
_cell_length_a 8.770791
_cell_length_b 11.436448
_cell_length_c 30.160358
_cell_angle_alpha 90.000000
_cell_angle_beta 150.978891
_cell_angle_gamma 90.000000
_cell_volume 1467.662412
_symmetry_space_group_name_H-M "P 21/C"
_symmetry_group_IT_number 14
_symmetry_cell_setting 'monoclinic'
loop_
_space_group_symop_operation_xyz
x,y,z
-x,1/2+y,1/2-z
-x,-y,-z
x,1/2-y,1/2+z
loop_
_atom_site_type_symbol
_atom_site_label
_atom_site_fract_x
_atom_site_fract_y
_atom_site_fract_z
Si Si1 0.741363 0.027179 0.173354
Si Si2 0.232751 0.519697 0.873876
Si Si3 0.357042 0.622041 0.511959
Si Si4 0.399758 0.720124 0.426957
Si Si5 0.241364 0.527178 0.173354
Si Si6 0.142958 0.622041 0.988041
Si Si7 0.732752 0.480303 0.373877
Si Si8 0.899756 0.279876 0.926957
O O1 0.449563 0.046485 0.133100
O O2 0.029520 0.991984 0.277598
O O3 0.782746 0.145384 0.156309
O O4 0.646682 0.927153 0.114099
O O5 0.243157 0.653519 0.892758
O O6 0.571940 0.466283 0.950253
O O7 0.050435 0.453515 0.866900
O O8 0.417729 0.641024 0.475441
O O9 0.249998 0.750000 0.500000
O O10 0.071941 0.533716 0.450254
O O11 0.750001 0.750000 0.500000
O O12 0.529521 0.491984 0.277598
O O13 0.282749 0.645384 0.156309
O O14 0.146683 0.427153 0.114099
O O15 0.082273 0.641023 0.024560
O O16 0.743157 0.346481 0.392757
#
# Coordination Sequence:
#
# PCOD9252727 Si02
#       8
#     4   4   4   4   4   4   4   4
#     4  11  25  45  69 103 135 180 227 283 340 407
#     4  11  26  46  67 103 141 174 230 282 342 407
#     4  12  24  45  73  97 139 183 223 283 345 398
#     4  12  25  46  70  98 138 181 231 279 338 410
#     4  11  25  45  69 103 135 180 227 283 340 407
#     4  12  24  45  73  97 139 183 223 283 345 398
#     4  11  26  46  67 103 141 174 230 282 342 407
#     4  12  25  46  70  98 138 181 231 279 338 410
#
# _framework density 21.803380000000001
#
# number of rings (size 3 to 8) (size 9 to 14) (size 15 to 20)
#    0.000    0.500    5.000    3.000    3.500    1.000 
#    0.000    0.000    0.000    0.000    0.000    0.000 
#    0.000    0.000    0.000    0.000    0.000    0.000 
#
# Total GULP energy -179122.962467 kJ/mol
# GULP energy per Si atom -5597.592577 kJ/mol
# Density = 2.175375 g / cm^3
# Si number density = 21.803380 Si / 1000 Ang^3
#
#
#
# Elastic Constant Matrix: (Units=GPa)
#
#
# Indices 1 2 3 4 5 6 
#
# 1 69.1316 16.6619 25.8884 0.0000 -28.8331 0.0000
# 2 16.6619 107.4796 19.3634 0.0000 -16.3595 0.0000
# 3 25.8884 19.3634 106.5350 0.0000 -33.8308 0.0000
# 4 0.0000 0.0000 0.0000 29.3220 0.0000 -14.7598
# 5 -28.8331 -16.3595 -33.8308 0.0000 33.7076 0.0000
# 6 0.0000 0.0000 0.0000 -14.7598 0.0000 35.0736
#
#
#
# Elastic Compliance Matrix: (Units=1/GPa)
#
#
# Indices 1 2 3 4 5 6 
#
# 1 0.022593 -0.000634 0.000975 0.000000 0.019997 0.000000
# 2 -0.000634 0.010076 -0.000435 0.000000 0.003911 0.000000
# 3 0.000975 -0.000435 0.013836 0.000000 0.014510 0.000000
# 4 0.000000 0.000000 0.000000 0.043270 0.000000 0.018209
# 5 0.019997 0.003911 0.014510 0.000000 0.063233 0.000000
# 6 0.000000 0.000000 0.000000 0.018209 0.000000 0.036174
#
#
# Mechanical properties :
#
#
# Convention : Reuss Voigt Hill
#
# Bulk Modulus (GPa) = 21.59070 45.21928 33.40499
# Shear Modulus (GPa) = 24.41285 34.36949 29.39117
#
# Velocity S-wave (km/s) = 3.34979 3.97462 3.67551
# Velocity P-wave (km/s) = 4.98853 6.46901 5.77640
#
# Compressibility (1/GPa) = 0.04631624
#
# Stress axis : x y z
#
# Youngs Moduli (GPa) = 44.26153 99.24455 72.27296
#
# Poissons Ratio (x) = 0.06296 -0.07048
# Poissons Ratio (y) = 0.02808 0.03147
# Poissons Ratio (z) = -0.04316 0.04321
#
# Static dielectric constant tensor:
#      x y z
#    x 1.820430 0.000000 -0.009630 
#    y 0.000000 1.788970 0.000000 
#    z -0.009630 0.000000 1.771370 
# 
# From -- ./inp_files/79622.got.cif
#   From: 2010.05.17/outbox.cif.g08.bks.cpg/sg14_40_cif.got.tgz:79622.got - 2010.06.03 17:49:19.
