data_PCOD9252215
_publ_section_title
;
Structure prediction by ZEFSAII (Michael W. Deem and Ramdas Pophale) SiO2 
 PCOD9252215
Probable space group: P 21/C
;
_chemical_formula_sum "Si O2"
_cell_formula_units_Z 32
_cell_length_a 14.439330
_cell_length_b 8.880194
_cell_length_c 12.236374
_cell_angle_alpha 90.000000
_cell_angle_beta 75.389209
_cell_angle_gamma 90.000000
_cell_volume 1518.258708
_symmetry_space_group_name_H-M "P 21/C"
_symmetry_group_IT_number 14
_symmetry_cell_setting 'monoclinic'
loop_
_space_group_symop_operation_xyz
x,y,z
-x,1/2+y,1/2-z
-x,-y,-z
x,1/2-y,1/2+z
loop_
_atom_site_type_symbol
_atom_site_label
_atom_site_fract_x
_atom_site_fract_y
_atom_site_fract_z
Si Si1 0.774036 0.089926 0.251815
Si Si2 0.134207 0.898436 0.199901
Si Si3 0.698850 0.911105 0.916308
Si Si4 0.604271 0.512517 0.657879
Si Si5 0.902820 0.571894 0.071136
Si Si6 0.405092 0.135498 0.278804
Si Si7 0.719659 0.567563 0.983789
Si Si8 0.951580 0.901204 0.109261
O O1 0.814918 0.255054 0.261433
O O2 0.697711 0.069837 0.178211
O O3 0.718757 0.034427 0.376970
O O4 0.866246 0.986936 0.196847
O O5 0.036879 0.857616 0.166816
O O6 0.209419 0.982138 0.099657
O O7 0.111439 0.016091 0.301958
O O8 0.662310 0.910523 0.802703
O O9 0.724195 0.740599 0.942017
O O10 0.618486 0.968943 0.023958
O O11 0.599772 0.683486 0.706059
O O12 0.510541 0.421982 0.719881
O O13 0.909368 0.751133 0.069241
O O14 0.814896 0.525223 0.021645
O O15 0.000000 0.500000 0.000000
O O16 0.366025 0.063037 0.402974
O O17 0.000000 0.000000 0.000000
#
# Coordination Sequence:
#
# PCOD9252215 Si02
#       8
#     4   4   4   4   4   4   4   4
#     4  12  26  45  66 105 141 179 233 281 349 410
#     4  12  25  41  69 100 137 181 227 285 339 413
#     4  11  23  47  69 100 132 181 231 279 348 403
#     4  11  26  45  73 101 138 180 227 292 342 416
#     4  12  24  41  66  99 136 181 231 279 340 405
#     4  11  24  46  71 101 134 180 231 283 353 405
#     4  11  23  45  70  93 139 180 225 283 343 411
#     4  12  24  44  67 100 141 183 231 281 344 412
#
# _framework density 21.076777
#
# number of rings (size 3 to 8) (size 9 to 14) (size 15 to 20)
#    0.000    0.500    2.500    7.125    1.750    2.500 
#    0.000    0.000    0.000    0.000    0.000    0.000 
#    0.000    0.000    0.000    0.000    0.000    0.000 
#
# Total GULP energy -179136.616759 kJ/mol
# GULP energy per Si atom -5598.019274 kJ/mol
# Density = 2.102881 g / cm^3
# Si number density = 21.076777 Si / 1000 Ang^3
#
#
#
# Elastic Constant Matrix: (Units=GPa)
#
#
# Indices 1 2 3 4 5 6 
#
# 1 74.7898 -6.1196 8.4504 0.0000 -14.9101 0.0000
# 2 -6.1196 45.4201 10.3772 0.0000 -14.4610 0.0000
# 3 8.4504 10.3772 100.3577 0.0000 -13.1693 0.0000
# 4 0.0000 0.0000 0.0000 20.7644 0.0000 -6.0412
# 5 -14.9101 -14.4610 -13.1693 0.0000 39.3423 0.0000
# 6 0.0000 0.0000 0.0000 -6.0412 0.0000 38.3666
#
#
#
# Elastic Compliance Matrix: (Units=1/GPa)
#
#
# Indices 1 2 3 4 5 6 
#
# 1 0.015264 0.004527 -0.000812 0.000000 0.007177 0.000000
# 2 0.004527 0.026478 -0.001691 0.000000 0.010882 0.000000
# 3 -0.000812 -0.001691 0.010549 0.000000 0.002602 0.000000
# 4 0.000000 0.000000 0.000000 0.050472 0.000000 0.007947
# 5 0.007177 0.010882 0.002602 0.000000 0.033009 0.000000
# 6 0.000000 0.000000 0.000000 0.007947 0.000000 0.027316
#
#
# Mechanical properties :
#
#
# Convention : Reuss Voigt Hill
#
# Bulk Modulus (GPa) = 17.74964 27.33151 22.54058
# Shear Modulus (GPa) = 28.11873 33.55196 30.83535
#
# Velocity S-wave (km/s) = 3.65651 3.99418 3.82907
# Velocity P-wave (km/s) = 5.12508 5.85381 5.50152
#
# Compressibility (1/GPa) = 0.05633916
#
# Stress axis : x y z
#
# Youngs Moduli (GPa) = 65.51477 37.76771 94.79580
#
# Poissons Ratio (x) = -0.17097 0.07693
# Poissons Ratio (y) = -0.29659 0.16030
# Poissons Ratio (z) = 0.05317 0.06387
#
# Static dielectric constant tensor:
#      x y z
#    x 1.727720 0.000000 -0.009710 
#    y 0.000000 1.730310 0.000000 
#    z -0.009710 0.000000 1.769270 
# 
# From -- ./inp_files/31787.got.cif
#   From: 2010.05.17/outbox.cif.g08.bks.cpg/sg14_16_cif.got.tgz:31787.got - 2010.06.03 17:49:19.
