data_PCOD9252755
_publ_section_title
;
Structure prediction by ZEFSAII (Michael W. Deem and Ramdas Pophale) SiO2 
 PCOD9252755
Probable space group: P 21/C
;
_chemical_formula_sum "Si O2"
_cell_formula_units_Z 20
_cell_length_a 6.373796
_cell_length_b 16.877722
_cell_length_c 10.299114
_cell_angle_alpha 90.000000
_cell_angle_beta 54.073124
_cell_angle_gamma 90.000000
_cell_volume 897.163630
_symmetry_space_group_name_H-M "P 21/C"
_symmetry_group_IT_number 14
_symmetry_cell_setting 'monoclinic'
loop_
_space_group_symop_operation_xyz
x,y,z
-x,1/2+y,1/2-z
-x,-y,-z
x,1/2-y,1/2+z
loop_
_atom_site_type_symbol
_atom_site_label
_atom_site_fract_x
_atom_site_fract_y
_atom_site_fract_z
Si Si1 0.757683 0.057204 0.616521
Si Si2 0.890282 0.217360 0.439378
Si Si3 0.613092 0.128589 0.929309
Si Si4 0.064527 0.320891 0.611613
Si Si5 0.267269 0.959112 0.857019
O O1 0.784087 0.089774 0.754685
O O2 0.762011 0.134218 0.523182
O O3 0.483982 0.011135 0.707825
O O4 0.000000 0.000000 0.500000
O O5 0.005368 0.252263 0.530585
O O6 0.095947 0.203726 0.249582
O O7 0.711524 0.285831 0.441810
O O8 0.329631 0.138511 0.972756
O O9 0.604287 0.073171 0.057636
O O10 0.828997 0.383045 0.688954
O O11 0.000000 0.000000 0.000000
#
# Coordination Sequence:
#
# PCOD9252755 Si02
#       5
#     4   4   4   4   4
#     4  12  26  47  75 111 149 193 250 311 369 445
#     4  11  26  46  72 109 145 200 246 307 369 451
#     4  11  25  47  73 104 153 195 249 307 374 445
#     4  11  25  46  75 104 150 198 249 302 374 448
#     4  11  25  45  74 107 146 197 242 308 379 432
#
# _framework density 22.292477999999999
#
# number of rings (size 3 to 8) (size 9 to 14) (size 15 to 20)
#    0.000    0.800    4.000    1.800    5.600    2.400 
#    0.000    0.000    0.000    0.000    0.000    0.000 
#    0.000    0.000    0.000    0.000    0.000    0.000 
#
# Total GULP energy -111832.136672 kJ/mol
# GULP energy per Si atom -5591.606834 kJ/mol
# Density = 2.224174 g / cm^3
# Si number density = 22.292478 Si / 1000 Ang^3
#
#
#
# Elastic Constant Matrix: (Units=GPa)
#
#
# Indices 1 2 3 4 5 6 
#
# 1 49.7925 43.8554 39.1171 0.0000 -8.6509 0.0000
# 2 43.8554 133.7480 75.9977 0.0000 -6.6794 0.0000
# 3 39.1171 75.9977 142.7149 0.0000 -0.7377 0.0000
# 4 0.0000 0.0000 0.0000 47.2675 0.0000 4.8647
# 5 -8.6509 -6.6794 -0.7377 0.0000 43.1270 0.0000
# 6 0.0000 0.0000 0.0000 4.8647 0.0000 15.5119
#
#
#
# Elastic Compliance Matrix: (Units=1/GPa)
#
#
# Indices 1 2 3 4 5 6 
#
# 1 0.030985 -0.007311 -0.004574 0.000000 0.005005 0.000000
# 2 -0.007311 0.012552 -0.004678 0.000000 0.000397 0.000000
# 3 -0.004574 -0.004678 0.010744 0.000000 -0.001458 0.000000
# 4 0.000000 0.000000 0.000000 0.021862 0.000000 -0.006856
# 5 0.005005 0.000397 -0.001458 0.000000 0.024228 0.000000
# 6 0.000000 0.000000 0.000000 -0.006856 0.000000 0.066617
#
#
# Mechanical properties :
#
#
# Convention : Reuss Voigt Hill
#
# Bulk Modulus (GPa) = 47.26870 71.57731 59.42300
# Shear Modulus (GPa) = 24.13519 32.33361 28.23440
#
# Velocity S-wave (km/s) = 3.29395 3.81258 3.56271
# Velocity P-wave (km/s) = 5.97635 7.18046 6.60590
#
# Compressibility (1/GPa) = 0.02115565
#
# Stress axis : x y z
#
# Youngs Moduli (GPa) = 32.27323 79.66776 93.07308
#
# Poissons Ratio (x) = 0.58247 0.42569
# Poissons Ratio (y) = 0.23596 0.43541
# Poissons Ratio (z) = 0.14761 0.37270
#
# Static dielectric constant tensor:
#      x y z
#    x 1.789790 0.000000 -0.001920 
#    y 0.000000 1.873490 0.000000 
#    z -0.001920 0.000000 1.829420 
# 
# From -- ./inp_files/21016.got.cif
#   From: 2010.05.17/outbox.cif.g08.bks.cpg/sg14_11_cif.got.tgz:21016.got - 2010.06.03 17:49:19.
