data_PCOD9252664
_publ_section_title
;
Structure prediction by ZEFSAII (Michael W. Deem and Ramdas Pophale) SiO2 
 PCOD9252664
Probable space group: P 21/C
;
_chemical_formula_sum "Si O2"
_cell_formula_units_Z 20
_cell_length_a 9.162427
_cell_length_b 9.165959
_cell_length_c 10.464299
_cell_angle_alpha 90.000000
_cell_angle_beta 56.883216
_cell_angle_gamma 90.000000
_cell_volume 736.061049
_symmetry_space_group_name_H-M "P 21/C"
_symmetry_group_IT_number 14
_symmetry_cell_setting 'monoclinic'
loop_
_space_group_symop_operation_xyz
x,y,z
-x,1/2+y,1/2-z
-x,-y,-z
x,1/2-y,1/2+z
loop_
_atom_site_type_symbol
_atom_site_label
_atom_site_fract_x
_atom_site_fract_y
_atom_site_fract_z
Si Si1 0.919258 0.779951 0.552676
Si Si2 0.434989 0.429681 0.774973
Si Si3 0.305898 0.402205 0.509370
Si Si4 0.138483 0.809094 0.192588
Si Si5 0.513494 0.175020 0.565414
O O1 0.227838 0.093818 0.376416
O O2 0.053808 0.800948 0.372310
O O3 0.009382 0.749943 0.643749
O O4 0.805081 0.641495 0.561833
O O5 0.513703 0.527803 0.624531
O O6 0.519706 0.275740 0.693191
O O7 0.490240 0.511728 0.877412
O O8 0.192543 0.526098 0.631253
O O9 0.356160 0.255977 0.564506
O O10 0.309687 0.710741 0.093330
#
# Coordination Sequence:
#
# PCOD9252664 Si02
#       5
#     4   4   4   4   4
#     4  12  27  49  79 123 162 212 275 344 414 479
#     4  11  24  49  77 112 158 215 273 323 407 488
#     4  11  26  53  76 114 165 219 277 332 404 498
#     4  11  28  47  81 118 168 207 271 347 416 479
#     4  11  26  48  81 111 164 216 274 335 404 500
#
# _framework density 27.171658999999998
#
# number of rings (size 3 to 8) (size 9 to 14) (size 15 to 20)
#    0.000    0.800    2.000    4.200    8.400    1.600 
#    0.000    0.000    0.000    0.000    0.000    0.000 
#    0.000    0.000    0.000    0.000    0.000    0.000 
#
# Total GULP energy -112132.274764 kJ/mol
# GULP energy per Si atom -5606.613738 kJ/mol
# Density = 2.710982 g / cm^3
# Si number density = 27.171659 Si / 1000 Ang^3
#
#
#
# Elastic Constant Matrix: (Units=GPa)
#
#
# Indices 1 2 3 4 5 6 
#
# 1 153.0060 52.7715 57.4532 0.0000 0.0878 0.0000
# 2 52.7715 113.9163 32.1890 0.0000 -14.0381 0.0000
# 3 57.4532 32.1890 204.6662 0.0000 -24.5678 0.0000
# 4 0.0000 0.0000 0.0000 38.9832 0.0000 -6.2013
# 5 0.0878 -14.0381 -24.5678 0.0000 49.3410 0.0000
# 6 0.0000 0.0000 0.0000 -6.2013 0.0000 50.7374
#
#
#
# Elastic Compliance Matrix: (Units=1/GPa)
#
#
# Indices 1 2 3 4 5 6 
#
# 1 0.008576 -0.003641 -0.002086 0.000000 -0.002090 0.000000
# 2 -0.003641 0.010925 -0.000343 0.000000 0.002944 0.000000
# 3 -0.002086 -0.000343 0.005865 0.000000 0.002826 0.000000
# 4 0.000000 0.000000 0.000000 0.026161 0.000000 0.003197
# 5 -0.002090 0.002944 0.002826 0.000000 0.022516 0.000000
# 6 0.000000 0.000000 0.000000 0.003197 0.000000 0.020100
#
#
# Mechanical properties :
#
#
# Convention : Reuss Voigt Hill
#
# Bulk Modulus (GPa) = 75.60486 84.04623 79.82555
# Shear Modulus (GPa) = 45.17170 49.75732 47.46451
#
# Velocity S-wave (km/s) = 4.08175 4.28392 4.18405
# Velocity P-wave (km/s) = 7.07810 7.44769 7.26524
#
# Compressibility (1/GPa) = 0.01322666
#
# Stress axis : x y z
#
# Youngs Moduli (GPa) = 116.60799 91.53616 170.51393
#
# Poissons Ratio (x) = 0.33327 0.35562
# Poissons Ratio (y) = 0.42456 0.05844
# Poissons Ratio (z) = 0.24319 0.03137
#
# Static dielectric constant tensor:
#      x y z
#    x 2.123350 0.000000 0.088360 
#    y 0.000000 2.214170 0.000000 
#    z 0.088360 0.000000 2.192050 
# 
# From -- ./inp_files/23419.got.cif
#   From: 2010.05.17/outbox.cif.g08.bks.cpg/sg14_12_cif.got.tgz:23419.got - 2010.06.03 17:49:19.
