data_PCOD9252684
_publ_section_title
;
Structure prediction by ZEFSAII (Michael W. Deem and Ramdas Pophale) SiO2 
 PCOD9252684
Probable space group: P 21/C
;
_chemical_formula_sum "Si O2"
_cell_formula_units_Z 16
_cell_length_a 5.089962
_cell_length_b 19.951154
_cell_length_c 6.938098
_cell_angle_alpha 90.000000
_cell_angle_beta 69.926421
_cell_angle_gamma 90.000000
_cell_volume 661.767460
_symmetry_space_group_name_H-M "P 21/C"
_symmetry_group_IT_number 14
_symmetry_cell_setting 'monoclinic'
loop_
_space_group_symop_operation_xyz
x,y,z
-x,1/2+y,1/2-z
-x,-y,-z
x,1/2-y,1/2+z
loop_
_atom_site_type_symbol
_atom_site_label
_atom_site_fract_x
_atom_site_fract_y
_atom_site_fract_z
Si Si1 0.562697 0.874659 0.457352
Si Si2 0.105384 0.653048 0.365882
Si Si3 0.136472 0.692771 0.794479
Si Si4 0.281660 0.457457 0.436036
O O1 0.348938 0.883458 0.685602
O O2 0.405162 0.820892 0.358200
O O3 0.862246 0.845402 0.443985
O O4 0.611100 0.937284 0.303457
O O5 0.178921 0.661886 0.572512
O O6 0.075804 0.728582 0.295889
O O7 0.820673 0.611001 0.435613
O O8 0.500000 0.500000 0.500000
O O9 0.000000 0.500000 0.500000
#
# Coordination Sequence:
#
# PCOD9252684 Si02
#       4
#     4   4   4   4
#     4  11  26  44  71 101 138 182 220 288 345 405
#     4  11  25  44  74 101 142 181 222 293 351 409
#     4  11  25  41  68 109 137 168 229 281 354 417
#     4  11  26  47  67 100 139 184 241 276 325 417
#
# _framework density 24.177676000000002
#
# number of rings (size 3 to 8) (size 9 to 14) (size 15 to 20)
#    0.000    1.000    2.500    3.000    7.000   10.000 
#    0.000    0.000    0.000    0.000    0.000    0.000 
#    0.000    0.000    0.000    0.000    0.000    0.000 
#
# Total GULP energy -89685.125942 kJ/mol
# GULP energy per Si atom -5605.320371 kJ/mol
# Density = 2.412265 g / cm^3
# Si number density = 24.177676 Si / 1000 Ang^3
#
#
#
# Elastic Constant Matrix: (Units=GPa)
#
#
# Indices 1 2 3 4 5 6 
#
# 1 97.2541 26.6072 5.0435 0.0000 -14.8370 0.0000
# 2 26.6072 86.0472 14.7273 0.0000 -4.6623 0.0000
# 3 5.0435 14.7273 161.5303 0.0000 -24.9217 0.0000
# 4 0.0000 0.0000 0.0000 42.6892 0.0000 -5.7868
# 5 -14.8370 -4.6623 -24.9217 0.0000 31.1165 0.0000
# 6 0.0000 0.0000 0.0000 -5.7868 0.0000 32.5823
#
#
#
# Elastic Compliance Matrix: (Units=1/GPa)
#
#
# Indices 1 2 3 4 5 6 
#
# 1 0.012121 -0.003574 0.000863 0.000000 0.005935 0.000000
# 2 -0.003574 0.012889 -0.001174 0.000000 -0.000713 0.000000
# 3 0.000863 -0.001174 0.007196 0.000000 0.005999 0.000000
# 4 0.000000 0.000000 0.000000 0.024003 0.000000 0.004263
# 5 0.005935 -0.000713 0.005999 0.000000 0.039666 0.000000
# 6 0.000000 0.000000 0.000000 0.004263 0.000000 0.031449
#
#
# Mechanical properties :
#
#
# Convention : Reuss Voigt Hill
#
# Bulk Modulus (GPa) = 40.92113 48.62084 44.77098
# Shear Modulus (GPa) = 34.90689 41.17451 38.04070
#
# Velocity S-wave (km/s) = 3.80381 4.13122 3.97089
# Velocity P-wave (km/s) = 6.02112 6.55053 6.29139
#
# Compressibility (1/GPa) = 0.02443726
#
# Stress axis : x y z
#
# Youngs Moduli (GPa) = 82.50232 77.58602 138.95717
#
# Poissons Ratio (x) = 0.27730 -0.11994
# Poissons Ratio (y) = 0.29487 0.16307
# Poissons Ratio (z) = -0.07121 0.09105
#
# Static dielectric constant tensor:
#      x y z
#    x 1.856650 0.000000 0.027040 
#    y 0.000000 1.900140 0.000000 
#    z 0.027040 0.000000 1.935340 
# 
# From -- ./inp_files/5246.got.cif
#   From: 2010.05.17/outbox.cif.g08.bks.cpg/sg14_3_cif.got.tgz:5246.got - 2010.06.03 17:49:19.
