data_PCOD9252952
_publ_section_title
;
Structure prediction by ZEFSAII (Michael W. Deem and Ramdas Pophale) SiO2 
 PCOD9252952
Probable space group: P 21/C
;
_chemical_formula_sum "Si O2"
_cell_formula_units_Z 22
_cell_length_a 10.380256
_cell_length_b 10.913267
_cell_length_c 8.892960
_cell_angle_alpha 90.000000
_cell_angle_beta 123.585114
_cell_angle_gamma 90.000000
_cell_volume 839.243655
_symmetry_space_group_name_H-M "P 21/C"
_symmetry_group_IT_number 14
_symmetry_cell_setting 'monoclinic'
loop_
_space_group_symop_operation_xyz
x,y,z
-x,1/2+y,1/2-z
-x,-y,-z
x,1/2-y,1/2+z
loop_
_atom_site_type_symbol
_atom_site_label
_atom_site_fract_x
_atom_site_fract_y
_atom_site_fract_z
Si Si1 0.281887 0.196283 0.949173
Si Si2 0.232136 0.970501 0.129804
Si Si3 0.265581 0.603060 0.975206
Si Si4 0.506953 0.697238 0.686466
Si Si5 0.000000 0.000000 0.500000
Si Si6 0.973090 0.318214 0.695551
O O1 0.361925 0.298079 0.102898
O O2 0.411477 0.157773 0.914038
O O3 0.128175 0.241063 0.766241
O O4 0.231742 0.092100 0.031849
O O5 0.081149 0.892844 0.985360
O O6 0.374003 0.890963 0.157004
O O7 0.738641 0.017513 0.674486
O O8 0.159346 0.719083 0.856125
O O9 0.429853 0.666794 0.117773
O O10 0.173938 0.548089 0.056331
O O11 0.008887 0.910353 0.654743
#
# Coordination Sequence:
#
# PCOD9252952 Si02
#       6
#     4   4   4   4   2   4
#     4  12  28  46  79 113 151 206 257 323 386 466
#     4  11  26  50  77 107 158 207 251 319 397 460
#     4  11  26  50  73 109 154 207 251 328 382 466
#     4  11  26  51  73 113 157 194 259 320 391 465
#     4  12  28  44  80 106 148 204 262 312 386 452
#     4  11  27  47  74 112 152 201 263 318 383 466
#
# _framework density 26.214078000000001
#
# number of rings (size 3 to 8) (size 9 to 14) (size 15 to 20)
#    0.000    0.727    1.818    3.818   12.727    3.636 
#    0.000    0.000    0.000    0.000    0.000    0.000 
#    0.000    0.000    0.000    0.000    0.000    0.000 
#
# Total GULP energy -123010.623746 kJ/mol
# GULP energy per Si atom -5591.391988 kJ/mol
# Density = 2.615441 g / cm^3
# Si number density = 26.214078 Si / 1000 Ang^3
#
#
#
# Elastic Constant Matrix: (Units=GPa)
#
#
# Indices 1 2 3 4 5 6 
#
# 1 177.2088 25.9543 39.8743 0.0000 -22.8552 0.0000
# 2 25.9543 59.1483 27.4346 0.0000 5.0280 0.0000
# 3 39.8743 27.4346 97.5455 0.0000 14.3811 0.0000
# 4 0.0000 0.0000 0.0000 37.8428 0.0000 -2.1346
# 5 -22.8552 5.0280 14.3811 0.0000 45.1277 0.0000
# 6 0.0000 0.0000 0.0000 -2.1346 0.0000 42.2696
#
#
#
# Elastic Compliance Matrix: (Units=1/GPa)
#
#
# Indices 1 2 3 4 5 6 
#
# 1 0.007294 -0.002184 -0.003093 0.000000 0.004923 0.000000
# 2 -0.002184 0.020106 -0.004479 0.000000 -0.001919 0.000000
# 3 -0.003093 -0.004479 0.013571 0.000000 -0.005392 0.000000
# 4 0.000000 0.000000 0.000000 0.026501 0.000000 0.001338
# 5 0.004923 -0.001919 -0.005392 0.000000 0.026585 0.000000
# 6 0.000000 0.000000 0.000000 0.001338 0.000000 0.023725
#
#
# Mechanical properties :
#
#
# Convention : Reuss Voigt Hill
#
# Bulk Modulus (GPa) = 46.60338 57.82545 52.21441
# Shear Modulus (GPa) = 34.61500 41.09065 37.85282
#
# Velocity S-wave (km/s) = 3.63777 3.96347 3.80411
# Velocity P-wave (km/s) = 5.95492 6.56142 6.26551
#
# Compressibility (1/GPa) = 0.02145767
#
# Stress axis : x y z
#
# Youngs Moduli (GPa) = 137.10061 49.73703 73.68877
#
# Poissons Ratio (x) = 0.10865 0.22792
# Poissons Ratio (y) = 0.29949 0.33004
# Poissons Ratio (z) = 0.42405 0.22276
#
# Static dielectric constant tensor:
#      x y z
#    x 1.961270 0.000000 0.045700 
#    y 0.000000 2.145370 0.000000 
#    z 0.045700 0.000000 2.009270 
# 
# From -- ./inp_files/23963.got.cif
#   From: 2010.05.17/outbox.cif.g08.bks.cpg/sg14_12_cif.got.tgz:23963.got - 2010.06.03 17:49:19.
