data_PCOD9252938
_publ_section_title
;
Structure prediction by ZEFSAII (Michael W. Deem and Ramdas Pophale) SiO2 
 PCOD9252938
Probable space group: P 21/C
;
_chemical_formula_sum "Si O2"
_cell_formula_units_Z 20
_cell_length_a 9.314492
_cell_length_b 4.861856
_cell_length_c 18.536052
_cell_angle_alpha 90.000000
_cell_angle_beta 61.987828
_cell_angle_gamma 90.000000
_cell_volume 741.078754
_symmetry_space_group_name_H-M "P 21/C"
_symmetry_group_IT_number 14
_symmetry_cell_setting 'monoclinic'
loop_
_space_group_symop_operation_xyz
x,y,z
-x,1/2+y,1/2-z
-x,-y,-z
x,1/2-y,1/2+z
loop_
_atom_site_type_symbol
_atom_site_label
_atom_site_fract_x
_atom_site_fract_y
_atom_site_fract_z
Si Si1 0.743692 0.367041 0.944879
Si Si2 0.955464 0.657288 0.805546
Si Si3 0.059928 0.466192 0.404528
Si Si4 0.440935 0.295137 0.469800
Si Si5 0.564193 0.695891 0.692650
O O1 0.627809 0.083971 0.973613
O O2 0.921047 0.237823 0.909289
O O3 0.500000 0.500000 0.000000
O O4 0.722936 0.608977 0.008406
O O5 0.775139 0.536303 0.863242
O O6 0.057492 0.425437 0.741231
O O7 0.039450 0.769726 0.857883
O O8 0.244619 0.371682 0.352829
O O9 0.000000 0.500000 0.500000
O O10 0.497064 0.357747 0.375188
O O11 0.474151 0.501186 0.771527
#
# Coordination Sequence:
#
# PCOD9252938 Si02
#       5
#     4   4   4   4   4
#     4  11  26  48  82 113 156 210 279 324 397 491
#     4  12  27  47  76 118 151 203 263 334 392 474
#     4  12  29  53  84 119 163 215 280 331 411 500
#     4  11  27  50  79 114 159 214 268 325 403 488
#     4  12  33  52  78 118 169 208 261 347 418 469
#
# _framework density 26.987684999999999
#
# number of rings (size 3 to 8) (size 9 to 14) (size 15 to 20)
#    0.000    0.400    2.000    3.600   14.000    3.200 
#    0.000    0.000    0.000    0.000    0.000    0.000 
#    0.000    0.000    0.000    0.000    0.000    0.000 
#
# Total GULP energy -111673.294089 kJ/mol
# GULP energy per Si atom -5583.664704 kJ/mol
# Density = 2.692626 g / cm^3
# Si number density = 26.987685 Si / 1000 Ang^3
#
#
#
# Elastic Constant Matrix: (Units=GPa)
#
#
# Indices 1 2 3 4 5 6 
#
# 1 143.5412 65.4213 50.2250 0.0000 -19.7134 0.0000
# 2 65.4213 188.5645 53.6919 0.0000 -3.2899 0.0000
# 3 50.2250 53.6919 165.8576 0.0000 7.7012 0.0000
# 4 0.0000 0.0000 0.0000 70.3422 0.0000 -21.3684
# 5 -19.7134 -3.2899 7.7012 0.0000 44.8236 0.0000
# 6 0.0000 0.0000 0.0000 -21.3684 0.0000 43.9572
#
#
#
# Elastic Compliance Matrix: (Units=1/GPa)
#
#
# Indices 1 2 3 4 5 6 
#
# 1 0.009540 -0.002591 -0.002254 0.000000 0.004393 0.000000
# 2 -0.002591 0.006571 -0.001323 0.000000 -0.000430 0.000000
# 3 -0.002254 -0.001323 0.007248 0.000000 -0.002334 0.000000
# 4 0.000000 0.000000 0.000000 0.016679 0.000000 0.008108
# 5 0.004393 -0.000430 -0.002334 0.000000 0.024611 0.000000
# 6 0.000000 0.000000 0.000000 0.008108 0.000000 0.026691
#
#
# Mechanical properties :
#
#
# Convention : Reuss Voigt Hill
#
# Bulk Modulus (GPa) = 90.71410 92.95995 91.83702
# Shear Modulus (GPa) = 46.57645 53.73295 50.15470
#
# Velocity S-wave (km/s) = 4.15883 4.46692 4.31563
# Velocity P-wave (km/s) = 7.53308 7.81822 7.67698
#
# Compressibility (1/GPa) = 0.01102364
#
# Stress axis : x y z
#
# Youngs Moduli (GPa) = 104.82697 152.17560 137.96328
#
# Poissons Ratio (x) = 0.39433 0.31095
# Poissons Ratio (y) = 0.27164 0.18248
# Poissons Ratio (z) = 0.23627 0.20127
#
# Static dielectric constant tensor:
#      x y z
#    x 0.160680 0.000000 0.984370 
#    y 0.000000 1.946280 0.000000 
#    z 0.984370 0.000000 1.998860 
# 
# From -- ./inp_files/53975.got.cif
#   From: 2010.05.17/outbox.cif.g08.bks.cpg/sg14_27_cif.got.tgz:53975.got - 2010.06.03 17:49:19.
