data_PCOD9252029
_publ_section_title
;
Structure prediction by ZEFSAII (Michael W. Deem and Ramdas Pophale) SiO2 
 PCOD9252029
Probable space group: P 21/C
;
_chemical_formula_sum "Si O2"
_cell_formula_units_Z 32
_cell_length_a 11.249551
_cell_length_b 9.337570
_cell_length_c 14.234612
_cell_angle_alpha 90.000000
_cell_angle_beta 96.286146
_cell_angle_gamma 90.000000
_cell_volume 1486.262769
_symmetry_space_group_name_H-M "P 21/C"
_symmetry_group_IT_number 14
_symmetry_cell_setting 'monoclinic'
loop_
_space_group_symop_operation_xyz
x,y,z
-x,1/2+y,1/2-z
-x,-y,-z
x,1/2-y,1/2+z
loop_
_atom_site_type_symbol
_atom_site_label
_atom_site_fract_x
_atom_site_fract_y
_atom_site_fract_z
Si Si1 0.217526 0.734697 0.007126
Si Si2 0.293638 0.954142 0.154530
Si Si3 0.745262 0.584042 0.764686
Si Si4 0.638266 0.957090 0.522965
Si Si5 0.694200 0.223299 0.178477
Si Si6 0.423536 0.236538 0.120888
Si Si7 0.814331 0.620542 0.199864
Si Si8 0.952158 0.063626 0.399404
O O1 0.276663 0.877081 0.053462
O O2 0.292266 0.586355 0.022984
O O3 0.107491 0.709997 0.068247
O O4 0.206177 0.747020 0.893301
O O5 0.307346 0.824075 0.229924
O O6 0.394539 0.074777 0.148307
O O7 0.192015 0.050563 0.196977
O O8 0.707487 0.439481 0.710743
O O9 0.630612 0.656698 0.805132
O O10 0.796607 0.710270 0.705109
O O11 0.852719 0.536791 0.843228
O O12 0.644266 0.800136 0.475756
O O13 0.701901 0.941393 0.629478
O O14 0.500000 0.000000 0.500000
O O15 0.565008 0.248539 0.120746
O O16 0.937159 0.584560 0.159778
O O17 0.000000 0.000000 0.500000
#
# Coordination Sequence:
#
# PCOD9252029 Si02
#       8
#     4   4   4   4   4   4   4   4
#     4  12  25  41  70 103 134 185 238 286 353 428
#     4  11  24  43  64 102 139 176 243 286 353 415
#     4  11  26  44  70 103 139 188 240 292 363 427
#     4  12  22  45  69 101 144 185 231 290 362 422
#     4  12  23  45  67 103 144 188 232 295 362 417
#     4  11  23  41  71 102 142 187 234 293 351 436
#     4  11  26  45  70 101 140 188 236 299 354 428
#     4  12  23  46  74  96 137 184 238 287 355 428
#
# _framework density 21.530512999999999
#
# number of rings (size 3 to 8) (size 9 to 14) (size 15 to 20)
#    0.000    0.500    6.250    0.750    3.500    5.500 
#    0.000    0.625    0.000    0.000    0.000    0.000 
#    0.000    0.000    0.000    0.000    0.000    0.000 
#
# Total GULP energy -178505.136965 kJ/mol
# GULP energy per Si atom -5578.285530 kJ/mol
# Density = 2.148151 g / cm^3
# Si number density = 21.530513 Si / 1000 Ang^3
#
#
#
# Elastic Constant Matrix: (Units=GPa)
#
#
# Indices 1 2 3 4 5 6 
#
# 1 73.7911 14.1751 15.0697 0.0000 -4.6172 0.0000
# 2 14.1751 135.0388 24.8575 0.0000 8.7749 0.0000
# 3 15.0697 24.8575 63.1232 0.0000 2.1691 0.0000
# 4 0.0000 0.0000 0.0000 34.4112 0.0000 -4.8972
# 5 -4.6172 8.7749 2.1691 0.0000 23.5768 0.0000
# 6 0.0000 0.0000 0.0000 -4.8972 0.0000 17.7354
#
#
#
# Elastic Compliance Matrix: (Units=1/GPa)
#
#
# Indices 1 2 3 4 5 6 
#
# 1 0.014650 -0.001192 -0.003152 0.000000 0.003602 0.000000
# 2 -0.001192 0.008255 -0.002862 0.000000 -0.003042 0.000000
# 3 -0.003152 -0.002862 0.017762 0.000000 -0.001186 0.000000
# 4 0.000000 0.000000 0.000000 0.030249 0.000000 0.008352
# 5 0.003602 -0.003042 -0.001186 0.000000 0.044362 0.000000
# 6 0.000000 0.000000 0.000000 0.008352 0.000000 0.058691
#
#
# Mechanical properties :
#
#
# Convention : Reuss Voigt Hill
#
# Bulk Modulus (GPa) = 38.08617 42.23976 40.16296
# Shear Modulus (GPa) = 25.36389 29.66808 27.51598
#
# Velocity S-wave (km/s) = 3.43599 3.71611 3.57879
# Velocity P-wave (km/s) = 5.78525 6.17039 5.98092
#
# Compressibility (1/GPa) = 0.02625625
#
# Stress axis : x y z
#
# Youngs Moduli (GPa) = 68.26040 121.14109 56.29941
#
# Poissons Ratio (x) = 0.14436 0.17745
# Poissons Ratio (y) = 0.08135 0.16111
# Poissons Ratio (z) = 0.21515 0.34666
#
# Static dielectric constant tensor:
#      x y z
#    x 2.047560 0.000000 0.021350 
#    y 0.000000 1.800550 0.000000 
#    z 0.021350 0.000000 1.812860 
# 
# From -- ./inp_files/43748.got.cif
#   From: 2010.05.17/outbox.cif.g08.bks.cpg/sg14_22_cif.got.tgz:43748.got - 2010.06.03 17:49:19.
