data_PCOD9252334
_publ_section_title
;
Structure prediction by ZEFSAII (Michael W. Deem and Ramdas Pophale) SiO2 
 PCOD9252334
Probable space group: P 21/C
;
_chemical_formula_sum "Si O2"
_cell_formula_units_Z 28
_cell_length_a 10.774469
_cell_length_b 9.588842
_cell_length_c 23.191103
_cell_angle_alpha 90.000000
_cell_angle_beta 32.553966
_cell_angle_gamma 90.000000
_cell_volume 1289.262613
_symmetry_space_group_name_H-M "P 21/C"
_symmetry_group_IT_number 14
_symmetry_cell_setting 'monoclinic'
loop_
_space_group_symop_operation_xyz
x,y,z
-x,1/2+y,1/2-z
-x,-y,-z
x,1/2-y,1/2+z
loop_
_atom_site_type_symbol
_atom_site_label
_atom_site_fract_x
_atom_site_fract_y
_atom_site_fract_z
Si Si1 0.709238 0.916578 0.754492
Si Si2 0.258555 0.443188 0.384851
Si Si3 0.618968 0.879129 0.295470
Si Si4 0.229860 0.853710 0.172302
Si Si5 0.981048 0.416504 0.696738
Si Si6 0.118322 0.968365 0.513931
Si Si7 0.275069 0.266282 0.490088
O O1 0.689756 0.769351 0.793509
O O2 0.465246 0.947450 0.818295
O O3 0.763088 0.047356 0.773991
O O4 0.922852 0.897850 0.628281
O O5 0.301125 0.394165 0.302616
O O6 0.300346 0.319616 0.414573
O O7 0.000000 0.500000 0.500000
O O8 0.346572 0.885031 0.409501
O O9 0.738701 0.007360 0.280742
O O10 0.489663 0.794462 0.066888
O O11 0.066258 0.719835 0.245791
O O12 0.146142 0.961727 0.156519
O O13 0.082634 0.358187 0.597388
O O14 0.197513 0.107640 0.516167
O O15 0.000000 0.000000 0.500000
#
# Coordination Sequence:
#
# PCOD9252334 Si02
#       7
#     4   4   4   4   4   4   4
#     4  11  26  43  67 104 144 184 239 296 357 434
#     4  11  24  40  67 103 145 186 235 286 362 439
#     4  12  26  42  69 106 143 191 235 295 363 433
#     4  11  25  47  71 104 137 190 245 300 358 415
#     4  12  24  47  73  98 144 187 245 301 355 422
#     4  12  24  43  71 106 149 188 236 298 368 436
#     4  11  24  44  71 104 144 188 235 299 358 432
#
# _framework density 21.717839999999999
#
# number of rings (size 3 to 8) (size 9 to 14) (size 15 to 20)
#    0.000    0.571    5.714    2.143    4.000    0.000 
#    0.000    5.714    0.000    0.000    0.000    0.000 
#    0.000    0.000    0.000    0.000    0.000    0.000 
#
# Total GULP energy -156466.000087 kJ/mol
# GULP energy per Si atom -5588.071432 kJ/mol
# Density = 2.166841 g / cm^3
# Si number density = 21.717840 Si / 1000 Ang^3
#
#
#
# Elastic Constant Matrix: (Units=GPa)
#
#
# Indices 1 2 3 4 5 6 
#
# 1 51.3764 23.7776 15.2831 0.0000 -19.3711 0.0000
# 2 23.7776 129.3148 34.9435 0.0000 -6.6900 0.0000
# 3 15.2831 34.9435 127.5834 0.0000 -27.7446 0.0000
# 4 0.0000 0.0000 0.0000 27.6306 0.0000 -7.4739
# 5 -19.3711 -6.6900 -27.7446 0.0000 20.5871 0.0000
# 6 0.0000 0.0000 0.0000 -7.4739 0.0000 25.6825
#
#
#
# Elastic Compliance Matrix: (Units=1/GPa)
#
#
# Indices 1 2 3 4 5 6 
#
# 1 0.035327 -0.006078 0.005986 0.000000 0.039332 0.000000
# 2 -0.006078 0.009401 -0.003432 0.000000 -0.007289 0.000000
# 3 0.005986 -0.003432 0.012792 0.000000 0.021757 0.000000
# 4 0.000000 0.000000 0.000000 0.039284 0.000000 0.011432
# 5 0.039332 -0.007289 0.021757 0.000000 0.112536 0.000000
# 6 0.000000 0.000000 0.000000 0.011432 0.000000 0.042264
#
#
# Mechanical properties :
#
#
# Convention : Reuss Voigt Hill
#
# Bulk Modulus (GPa) = 19.81299 50.69813 35.25556
# Shear Modulus (GPa) = 18.15040 30.39806 24.27423
#
# Velocity S-wave (km/s) = 2.89405 3.74529 3.34684
# Velocity P-wave (km/s) = 4.50667 6.48827 5.58604
#
# Compressibility (1/GPa) = 0.05047195
#
# Stress axis : x y z
#
# Youngs Moduli (GPa) = 28.30727 106.37188 78.17243
#
# Poissons Ratio (x) = 0.64658 -0.46797
# Poissons Ratio (y) = 0.17206 0.26828
# Poissons Ratio (z) = -0.16946 0.36505
#
# Static dielectric constant tensor:
#      x y z
#    x 1.799530 0.000000 -0.018120 
#    y 0.000000 1.771230 0.000000 
#    z -0.018120 0.000000 1.734570 
# 
# From -- ./inp_files/77101.got.cif
#   From: 2010.05.17/outbox.cif.g08.bks.cpg/sg14_39_cif.got.tgz:77101.got - 2010.06.03 17:49:19.
