data_PCOD9252377
_publ_section_title
;
Structure prediction by ZEFSAII (Michael W. Deem and Ramdas Pophale) SiO2 
 PCOD9252377
Probable space group: P 21/C
;
_chemical_formula_sum "Si O2"
_cell_formula_units_Z 32
_cell_length_a 14.289321
_cell_length_b 10.865819
_cell_length_c 9.465975
_cell_angle_alpha 90.000000
_cell_angle_beta 102.065590
_cell_angle_gamma 90.000000
_cell_volume 1437.268254
_symmetry_space_group_name_H-M "P 21/C"
_symmetry_group_IT_number 14
_symmetry_cell_setting 'monoclinic'
loop_
_space_group_symop_operation_xyz
x,y,z
-x,1/2+y,1/2-z
-x,-y,-z
x,1/2-y,1/2+z
loop_
_atom_site_type_symbol
_atom_site_label
_atom_site_fract_x
_atom_site_fract_y
_atom_site_fract_z
Si Si1 0.726336 0.728901 0.933810
Si Si2 0.244186 0.991985 0.978707
Si Si3 0.240807 0.520844 0.142472
Si Si4 0.040370 0.880128 0.929511
Si Si5 0.415214 0.284478 0.855012
Si Si6 0.960928 0.125465 0.413611
Si Si7 0.548884 0.096497 0.911609
Si Si8 0.542480 0.015786 0.359258
O O1 0.766395 0.865443 0.975733
O O2 0.792571 0.609137 0.937527
O O3 0.669919 0.735039 0.769808
O O4 0.649470 0.690162 0.027765
O O5 0.340841 0.931825 0.069888
O O6 0.256507 0.995755 0.814199
O O7 0.153771 0.906632 0.979406
O O8 0.154563 0.615692 0.101128
O O9 0.346657 0.551128 0.116465
O O10 0.019122 0.875589 0.751642
O O11 0.010429 0.753022 0.998512
O O12 0.000000 0.000000 0.000000
O O13 0.512134 0.226678 0.954761
O O14 0.466211 0.385999 0.773850
O O15 0.000000 0.000000 0.500000
O O16 0.485881 0.097140 0.749375
O O17 0.500000 0.000000 0.000000
O O18 0.500000 0.000000 0.500000
#
# Coordination Sequence:
#
# PCOD9252377 Si02
#       8
#     4   4   4   4   4   4   4   4
#     4  12  20  40  60  95 130 185 241 283 341 419
#     4  11  24  42  68  99 136 186 238 289 366 435
#     4  11  24  43  65 100 142 178 239 296 364 428
#     4  11  27  55  81 114 147 187 246 308 384 457
#     4  12  22  34  58  87 132 185 236 282 336 407
#     4  11  27  55  82 112 147 190 242 313 382 453
#     4  12  20  39  60  84 133 185 230 278 340 412
#     4  12  22  37  54  94 135 179 231 290 334 408
#
# _framework density 22.26446
#
# number of rings (size 3 to 8) (size 9 to 14) (size 15 to 20)
#    0.000    0.500    7.500    0.750    3.500    0.000 
#    9.000    0.000    0.000    0.000    0.000    0.000 
#    0.000    0.000    0.000    0.000    0.000    0.000 
#
# Total GULP energy -178179.001738 kJ/mol
# GULP energy per Si atom -5568.093804 kJ/mol
# Density = 2.221378 g / cm^3
# Si number density = 22.264460 Si / 1000 Ang^3
#
#
#
# Elastic Constant Matrix: (Units=GPa)
#
#
# Indices 1 2 3 4 5 6 
#
# 1 79.8077 17.7908 43.1744 0.0000 -8.4909 0.0000
# 2 17.7908 105.8346 39.2145 0.0000 -3.2505 0.0000
# 3 43.1744 39.2145 132.1036 0.0000 -11.8816 0.0000
# 4 0.0000 0.0000 0.0000 24.6916 0.0000 3.2306
# 5 -8.4909 -3.2505 -11.8816 0.0000 24.8061 0.0000
# 6 0.0000 0.0000 0.0000 3.2306 0.0000 39.9887
#
#
#
# Elastic Compliance Matrix: (Units=1/GPa)
#
#
# Indices 1 2 3 4 5 6 
#
# 1 0.015496 -0.000827 -0.004547 0.000000 0.003018 0.000000
# 2 -0.000827 0.010661 -0.002920 0.000000 -0.000285 0.000000
# 3 -0.004547 -0.002920 0.010187 0.000000 0.002940 0.000000
# 4 0.000000 0.000000 0.000000 0.040932 0.000000 -0.003307
# 5 0.003018 -0.000285 0.002940 0.000000 0.042717 0.000000
# 6 0.000000 0.000000 0.000000 -0.003307 0.000000 0.025274
#
#
# Mechanical properties :
#
#
# Convention : Reuss Voigt Hill
#
# Bulk Modulus (GPa) = 50.62073 57.56726 54.09400
# Shear Modulus (GPa) = 29.68406 32.40170 31.04288
#
# Velocity S-wave (km/s) = 3.65533 3.81899 3.73806
# Velocity P-wave (km/s) = 6.37187 6.73487 6.55588
#
# Compressibility (1/GPa) = 0.01975475
#
# Stress axis : x y z
#
# Youngs Moduli (GPa) = 64.53452 93.80060 98.16232
#
# Poissons Ratio (x) = 0.07759 0.44638
# Poissons Ratio (y) = 0.05338 0.28662
# Poissons Ratio (z) = 0.29346 0.27389
#
# Static dielectric constant tensor:
#      x y z
#    x 1.810910 0.000000 0.084050 
#    y 0.000000 2.026360 0.000000 
#    z 0.084050 0.000000 1.758960 
# 
# From -- ./inp_files/15801.got.cif
#   From: 2010.05.17/outbox.cif.g08.bks.cpg/sg14_8_cif.got.tgz:15801.got - 2010.06.03 17:49:19.
