data_PCOD9252366
_publ_section_title
;
Structure prediction by ZEFSAII (Michael W. Deem and Ramdas Pophale) SiO2 
 PCOD9252366
Probable space group: P 21/C
;
_chemical_formula_sum "Si O2"
_cell_formula_units_Z 16
_cell_length_a 7.383791
_cell_length_b 12.173249
_cell_length_c 6.974987
_cell_angle_alpha 90.000000
_cell_angle_beta 61.815305
_cell_angle_gamma 90.000000
_cell_volume 552.607734
_symmetry_space_group_name_H-M "P 21/C"
_symmetry_group_IT_number 14
_symmetry_cell_setting 'monoclinic'
loop_
_space_group_symop_operation_xyz
x,y,z
-x,1/2+y,1/2-z
-x,-y,-z
x,1/2-y,1/2+z
loop_
_atom_site_type_symbol
_atom_site_label
_atom_site_fract_x
_atom_site_fract_y
_atom_site_fract_z
Si Si1 0.276797 0.849408 0.050681
Si Si2 0.723203 0.849408 0.827475
Si Si3 0.817252 0.898334 0.207200
Si Si4 0.182747 0.601666 0.024453
O O1 0.499999 0.870808 0.851207
O O2 0.251554 0.717562 0.080999
O O3 0.272285 0.898497 0.266665
O O4 0.065428 0.888985 0.060483
O O5 0.727719 0.898497 0.038945
O O6 0.748444 0.717561 0.832552
O O7 0.934571 0.888985 0.625909
O O8 0.763415 0.000000 0.368292
#
# Coordination Sequence:
#
# PCOD9252366 Si02
#       4
#     4   4   4   4
#     4  11  24  42  66  96 131 172 218 267 321 384
#     4  11  24  42  66  96 131 172 218 267 321 384
#     4  11  24  45  68  96 134 171 216 271 322 384
#     4  11  24  45  68  96 134 171 216 271 322 384
#
# _framework density 28.953627000000001
#
# number of rings (size 3 to 8) (size 9 to 14) (size 15 to 20)
#    0.000    1.000    0.000    9.000    0.000    5.000 
#    0.000    2.500    0.000    0.000    0.000    0.000 
#    0.000    0.000    0.000    0.000    0.000    0.000 
#
# Total GULP energy -90032.581600 kJ/mol
# GULP energy per Si atom -5627.036350 kJ/mol
# Density = 2.888773 g / cm^3
# Si number density = 28.953627 Si / 1000 Ang^3
#
#
#
# Elastic Constant Matrix: (Units=GPa)
#
#
# Indices 1 2 3 4 5 6 
#
# 1 189.1325 31.8877 68.6988 0.0000 -48.6578 0.0000
# 2 31.8877 168.9040 22.2096 0.0000 -13.5829 0.0000
# 3 68.6988 22.2096 131.3351 0.0000 -32.4680 0.0000
# 4 0.0000 0.0000 0.0000 38.2917 0.0000 16.5780
# 5 -48.6578 -13.5829 -32.4680 0.0000 65.6115 0.0000
# 6 0.0000 0.0000 0.0000 16.5780 0.0000 26.4815
#
#
#
# Elastic Compliance Matrix: (Units=1/GPa)
#
#
# Indices 1 2 3 4 5 6 
#
# 1 0.007449 -0.000718 -0.002787 0.000000 0.003996 0.000000
# 2 -0.000718 0.006166 -0.000550 0.000000 0.000471 0.000000
# 3 -0.002787 -0.000550 0.009828 0.000000 0.002683 0.000000
# 4 0.000000 0.000000 0.000000 0.035825 0.000000 -0.022427
# 5 0.003996 0.000471 0.002683 0.000000 0.019630 0.000000
# 6 0.000000 0.000000 0.000000 -0.022427 0.000000 0.051802
#
#
# Mechanical properties :
#
#
# Convention : Reuss Voigt Hill
#
# Bulk Modulus (GPa) = 65.22364 81.66264 73.44314
# Shear Modulus (GPa) = 34.74084 50.51531 42.62808
#
# Velocity S-wave (km/s) = 3.46768 4.18149 3.84120
# Velocity P-wave (km/s) = 6.21361 7.18185 6.71520
#
# Compressibility (1/GPa) = 0.01533186
#
# Stress axis : x y z
#
# Youngs Moduli (GPa) = 134.24930 162.16796 101.74813
#
# Poissons Ratio (x) = 0.11651 0.28356
# Poissons Ratio (y) = 0.09645 0.05601
# Poissons Ratio (z) = 0.37414 0.08926
#
# Static dielectric constant tensor:
#      x y z
#    x 2.151600 0.000000 0.022190 
#    y 0.000000 2.311180 0.000000 
#    z 0.022190 0.000000 2.167410 
# 
# From -- ./inp_files/7778.got.cif
#   From: 2010.05.17/outbox.cif.g08.bks.cpg/sg14_4_cif.got.tgz:7778.got - 2010.06.03 17:49:19.
