data_PCOD9252494
_publ_section_title
;
Structure prediction by ZEFSAII (Michael W. Deem and Ramdas Pophale) SiO2 
 PCOD9252494
Probable space group: P 21/C
;
_chemical_formula_sum "Si O2"
_cell_formula_units_Z 32
_cell_length_a 6.760345
_cell_length_b 26.251586
_cell_length_c 11.825349
_cell_angle_alpha 90.000000
_cell_angle_beta 55.132776
_cell_angle_gamma 90.000000
_cell_volume 1721.891820
_symmetry_space_group_name_H-M "P 21/C"
_symmetry_group_IT_number 14
_symmetry_cell_setting 'monoclinic'
loop_
_space_group_symop_operation_xyz
x,y,z
-x,1/2+y,1/2-z
-x,-y,-z
x,1/2-y,1/2+z
loop_
_atom_site_type_symbol
_atom_site_label
_atom_site_fract_x
_atom_site_fract_y
_atom_site_fract_z
Si Si1 0.438005 0.390356 0.258706
Si Si2 0.762365 0.310022 0.707016
Si Si3 0.823669 0.310019 0.207018
Si Si4 0.488243 0.059810 0.982340
Si Si5 0.878622 0.139332 0.929596
Si Si6 0.547155 0.059807 0.482336
Si Si7 0.955358 0.890360 0.741277
Si Si8 0.262250 0.360664 0.929606
O O1 0.485449 0.426723 0.350483
O O2 0.157272 0.376360 0.344803
O O3 0.518356 0.416797 0.116698
O O4 0.596236 0.339853 0.228381
O O5 0.494058 0.324859 0.834778
O O6 0.802806 0.250002 0.697235
O O7 0.801839 0.332468 0.569016
O O8 0.947032 0.339858 0.728409
O O9 0.836405 0.324862 0.334795
O O10 0.060217 0.332463 0.069029
O O11 0.248344 0.083210 0.116709
O O12 0.713206 0.089643 0.964134
O O13 0.500000 0.000000 0.000000
O O14 0.358622 0.089651 0.464136
O O15 0.813670 0.073265 0.350475
O O16 0.500000 0.000000 0.500000
O O17 0.846857 0.876363 0.655161
#
# Coordination Sequence:
#
# PCOD9252494 Si02
#       8
#     4   4   4   4   4   4   4   4
#     4  11  24  45  62  98 135 163 222 268 316 395
#     4  11  26  42  68  94 128 176 212 270 328 379
#     4  11  26  42  68  94 128 176 212 270 328 379
#     4  11  26  42  70  96 131 177 212 269 329 381
#     4  11  24  46  63  96 136 164 223 268 314 396
#     4  11  26  42  70  96 131 177 212 269 329 381
#     4  11  24  45  62  98 135 163 222 268 316 395
#     4  11  24  46  63  96 136 164 223 268 314 396
#
# _framework density 18.584212000000001
#
# number of rings (size 3 to 8) (size 9 to 14) (size 15 to 20)
#    0.000    1.000    5.000    0.000    7.000    1.000 
#    0.000    0.000    0.000    0.000    0.000    0.000 
#    0.000    0.000    0.000    0.000    0.000    0.000 
#
# Total GULP energy -178983.023348 kJ/mol
# GULP energy per Si atom -5593.219480 kJ/mol
# Density = 1.854191 g / cm^3
# Si number density = 18.584212 Si / 1000 Ang^3
#
#
#
# Elastic Constant Matrix: (Units=GPa)
#
#
# Indices 1 2 3 4 5 6 
#
# 1 141.1415 79.1782 58.2720 0.0000 -0.0187 0.0000
# 2 79.1782 132.5241 39.5590 0.0000 -0.0171 0.0000
# 3 58.2720 39.5590 109.4666 0.0000 -0.0067 0.0000
# 4 0.0000 0.0000 0.0000 9.8652 0.0000 0.0064
# 5 -0.0187 -0.0171 -0.0067 0.0000 50.5713 0.0000
# 6 0.0000 0.0000 0.0000 0.0064 0.0000 9.4973
#
#
#
# Elastic Compliance Matrix: (Units=1/GPa)
#
#
# Indices 1 2 3 4 5 6 
#
# 1 0.012262 -0.006028 -0.004349 0.000000 0.000002 0.000000
# 2 -0.006028 0.011422 -0.000919 0.000000 0.000002 0.000000
# 3 -0.004349 -0.000919 0.011782 0.000000 0.000000 0.000000
# 4 0.000000 0.000000 0.000000 0.101366 0.000000 -0.000068
# 5 0.000002 0.000002 0.000000 0.000000 0.019774 0.000000
# 6 0.000000 0.000000 0.000000 -0.000068 0.000000 0.105293
#
#
# Mechanical properties :
#
#
# Convention : Reuss Voigt Hill
#
# Bulk Modulus (GPa) = 77.67246 81.90563 79.78905
# Shear Modulus (GPa) = 17.31406 27.72830 22.52118
#
# Velocity S-wave (km/s) = 3.05561 3.86688 3.48493
# Velocity P-wave (km/s) = 7.37120 8.00658 7.69545
#
# Compressibility (1/GPa) = 0.01287458
#
# Stress axis : x y z
#
# Youngs Moduli (GPa) = 81.55063 87.55393 84.87274
#
# Poissons Ratio (x) = 0.52778 0.36912
# Poissons Ratio (y) = 0.49159 0.07797
# Poissons Ratio (z) = 0.35468 0.08043
#
# Static dielectric constant tensor:
#      x y z
#    x 1.628360 0.000000 0.000000 
#    y 0.000000 1.584920 0.000000 
#    z 0.000000 0.000000 1.628130 
# 
# From -- ./inp_files/22289.got.cif
#   From: 2010.05.17/outbox.cif.g08.bks.cpg/sg14_12_cif.got.tgz:22289.got - 2010.06.03 17:49:19.
