data_PCOD9252416
_publ_section_title
;
Structure prediction by ZEFSAII (Michael W. Deem and Ramdas Pophale) SiO2 
 PCOD9252416
Probable space group: P 21/C
;
_chemical_formula_sum "Si O2"
_cell_formula_units_Z 20
_cell_length_a 6.550381
_cell_length_b 25.560738
_cell_length_c 5.153303
_cell_angle_alpha 90.000000
_cell_angle_beta 74.085818
_cell_angle_gamma 90.000000
_cell_volume 829.761468
_symmetry_space_group_name_H-M "P 21/C"
_symmetry_group_IT_number 14
_symmetry_cell_setting 'monoclinic'
loop_
_space_group_symop_operation_xyz
x,y,z
-x,1/2+y,1/2-z
-x,-y,-z
x,1/2-y,1/2+z
loop_
_atom_site_type_symbol
_atom_site_label
_atom_site_fract_x
_atom_site_fract_y
_atom_site_fract_z
Si Si1 0.722477 0.024399 0.998717
Si Si2 0.057541 0.717044 0.960770
Si Si3 0.010228 0.551583 0.170411
Si Si4 0.398331 0.628161 0.702380
Si Si5 0.309478 0.360181 0.904611
O O1 0.734831 0.074264 0.798155
O O2 0.857232 0.970462 0.956818
O O3 0.767083 0.052886 0.256365
O O4 0.500000 0.000000 0.000000
O O5 0.084396 0.763784 0.745747
O O6 0.232198 0.673605 0.828365
O O7 0.821419 0.693311 0.012854
O O8 0.876764 0.598836 0.103751
O O9 0.000000 0.500000 0.000000
O O10 0.527245 0.640338 0.393137
O O11 0.567526 0.625224 0.876270
#
# Coordination Sequence:
#
# PCOD9252416 Si02
#       5
#     4   4   4   4   4
#     4  11  24  43  70 108 149 194 243 294 362 445
#     4  12  29  51  79 107 147 193 250 318 378 437
#     4  11  25  41  71 105 151 199 241 296 365 437
#     4  12  28  47  78 112 150 196 251 302 377 445
#     4  12  28  47  77 111 149 194 250 308 368 447
#
# _framework density 24.103314999999998
#
# number of rings (size 3 to 8) (size 9 to 14) (size 15 to 20)
#    0.000    0.400    2.000    4.800   14.000    6.400 
#    0.000    0.000    0.000    0.000    0.000    0.000 
#    0.000    0.000    0.000    0.000    0.000    0.000 
#
# Total GULP energy -111721.540614 kJ/mol
# GULP energy per Si atom -5586.077031 kJ/mol
# Density = 2.404845 g / cm^3
# Si number density = 24.103315 Si / 1000 Ang^3
#
#
#
# Elastic Constant Matrix: (Units=GPa)
#
#
# Indices 1 2 3 4 5 6 
#
# 1 76.0337 17.7604 22.0201 0.0000 20.5957 0.0000
# 2 17.7604 78.2403 7.1480 0.0000 -8.0877 0.0000
# 3 22.0201 7.1480 114.7998 0.0000 21.9413 0.0000
# 4 0.0000 0.0000 0.0000 49.3360 0.0000 -12.3766
# 5 20.5957 -8.0877 21.9413 0.0000 59.5183 0.0000
# 6 0.0000 0.0000 0.0000 -12.3766 0.0000 58.7190
#
#
#
# Elastic Compliance Matrix: (Units=1/GPa)
#
#
# Indices 1 2 3 4 5 6 
#
# 1 0.016097 -0.004055 -0.001791 0.000000 -0.005461 0.000000
# 2 -0.004055 0.014148 -0.000795 0.000000 0.003619 0.000000
# 3 -0.001791 -0.000795 0.009689 0.000000 -0.003060 0.000000
# 4 0.000000 0.000000 0.000000 0.021401 0.000000 0.004511
# 5 -0.005461 0.003619 -0.003060 0.000000 0.020311 0.000000
# 6 0.000000 0.000000 0.000000 0.004511 0.000000 0.017981
#
#
# Mechanical properties :
#
#
# Convention : Reuss Voigt Hill
#
# Bulk Modulus (GPa) = 37.52063 40.32564 38.92313
# Shear Modulus (GPa) = 41.05317 48.32435 44.68876
#
# Velocity S-wave (km/s) = 4.13148 4.48245 4.31054
# Velocity P-wave (km/s) = 6.19348 6.59973 6.39983
#
# Compressibility (1/GPa) = 0.02665201
#
# Stress axis : x y z
#
# Youngs Moduli (GPa) = 62.12236 70.68005 103.21248
#
# Poissons Ratio (x) = 0.28660 0.18490
# Poissons Ratio (y) = 0.25190 0.08203
# Poissons Ratio (z) = 0.11129 0.05618
#
# Static dielectric constant tensor:
#      x y z
#    x 2.118600 0.000000 0.244670 
#    y 0.000000 1.913380 0.000000 
#    z 0.244670 0.000000 2.305920 
# 
# From -- ./inp_files/570.got.cif
#   From: 2010.05.17/outbox.cif.g08.bks.cpg/sg14_1_cif.got.tgz:570.got - 2010.06.03 17:49:19.
