data_PCOD9252230
_publ_section_title
;
Structure prediction by ZEFSAII (Michael W. Deem and Ramdas Pophale) SiO2 
 PCOD9252230
Probable space group: P 21/C
;
_chemical_formula_sum "Si O2"
_cell_formula_units_Z 20
_cell_length_a 5.910493
_cell_length_b 22.338620
_cell_length_c 6.224887
_cell_angle_alpha 90.000000
_cell_angle_beta 106.736945
_cell_angle_gamma 90.000000
_cell_volume 787.068331
_symmetry_space_group_name_H-M "P 21/C"
_symmetry_group_IT_number 14
_symmetry_cell_setting 'monoclinic'
loop_
_space_group_symop_operation_xyz
x,y,z
-x,1/2+y,1/2-z
-x,-y,-z
x,1/2-y,1/2+z
loop_
_atom_site_type_symbol
_atom_site_label
_atom_site_fract_x
_atom_site_fract_y
_atom_site_fract_z
Si Si1 0.287555 0.349254 0.164644
Si Si2 0.850661 0.132122 0.274731
Si Si3 0.469762 0.934501 0.576958
Si Si4 0.087401 0.069089 0.988934
Si Si5 0.640623 0.243759 0.315278
O O1 0.166589 0.395146 0.298388
O O2 0.415101 0.287656 0.269964
O O3 0.486635 0.388642 0.103152
O O4 0.080595 0.336355 0.934872
O O5 0.785270 0.072385 0.384805
O O6 0.625645 0.173053 0.267036
O O7 0.895087 0.112976 0.046362
O O8 0.677810 0.928134 0.804553
O O9 0.500000 0.000000 0.500000
O O10 0.000000 0.000000 0.000000
O O11 0.744459 0.243365 0.594688
#
# Coordination Sequence:
#
# PCOD9252230 Si02
#       5
#     4   4   4   4   4
#     4  11  26  47  72 110 151 199 262 319 392 467
#     4  11  26  47  72 111 149 204 257 322 395 458
#     4  11  23  45  72 107 150 196 261 323 390 468
#     4  11  25  45  75 113 150 199 262 328 394 468
#     4  12  28  50  75 109 156 206 260 315 381 471
#
# _framework density 25.410755999999999
#
# number of rings (size 3 to 8) (size 9 to 14) (size 15 to 20)
#    0.000    0.800    2.000    3.600    5.600   11.200 
#    0.000    0.000    0.000    0.000    0.000    0.000 
#    0.000    0.000    0.000    0.000    0.000    0.000 
#
# Total GULP energy -111368.488677 kJ/mol
# GULP energy per Si atom -5568.424434 kJ/mol
# Density = 2.535292 g / cm^3
# Si number density = 25.410756 Si / 1000 Ang^3
#
#
#
# Elastic Constant Matrix: (Units=GPa)
#
#
# Indices 1 2 3 4 5 6 
#
# 1 57.2463 20.4053 56.3960 0.0000 -6.1586 0.0000
# 2 20.4053 101.6459 34.4577 0.0000 -5.9502 0.0000
# 3 56.3960 34.4577 153.9395 0.0000 -13.9771 0.0000
# 4 0.0000 0.0000 0.0000 35.5504 0.0000 -8.1472
# 5 -6.1586 -5.9502 -13.9771 0.0000 64.5001 0.0000
# 6 0.0000 0.0000 0.0000 -8.1472 0.0000 44.5631
#
#
#
# Elastic Compliance Matrix: (Units=1/GPa)
#
#
# Indices 1 2 3 4 5 6 
#
# 1 0.027831 -0.002295 -0.009650 0.000000 0.000354 0.000000
# 2 -0.002295 0.010849 -0.001547 0.000000 0.000446 0.000000
# 3 -0.009650 -0.001547 0.010487 0.000000 0.001208 0.000000
# 4 0.000000 0.000000 0.000000 0.029359 0.000000 0.005368
# 5 0.000354 0.000446 0.001208 0.000000 0.015841 0.000000
# 6 0.000000 0.000000 0.000000 0.005368 0.000000 0.023421
#
#
# Mechanical properties :
#
#
# Convention : Reuss Voigt Hill
#
# Bulk Modulus (GPa) = 45.07847 59.48328 52.28087
# Shear Modulus (GPa) = 32.85819 42.36088 37.60954
#
# Velocity S-wave (km/s) = 3.59985 4.08738 3.85133
# Velocity P-wave (km/s) = 5.92089 6.76277 6.35578
#
# Compressibility (1/GPa) = 0.02218354
#
# Stress axis : x y z
#
# Youngs Moduli (GPa) = 35.93060 92.17080 95.35181
#
# Poissons Ratio (x) = 0.21153 0.92016
# Poissons Ratio (y) = 0.08246 0.14753
# Poissons Ratio (z) = 0.34674 0.14261
#
# Static dielectric constant tensor:
#      x y z
#    x 1.977760 0.000000 -0.143290 
#    y 0.000000 2.216390 0.000000 
#    z -0.143290 0.000000 1.955050 
# 
# From -- ./inp_files/549.got.cif
#   From: 2010.05.17/outbox.cif.g08.bks.cpg/sg14_1_cif.got.tgz:549.got - 2010.06.03 17:49:19.
