data_PCOD9252402
_publ_section_title
;
Structure prediction by ZEFSAII (Michael W. Deem and Ramdas Pophale) SiO2 
 PCOD9252402
Probable space group: P 21/C
;
_chemical_formula_sum "Si O2"
_cell_formula_units_Z 20
_cell_length_a 13.278811
_cell_length_b 10.435256
_cell_length_c 10.317808
_cell_angle_alpha 90.000000
_cell_angle_beta 143.277695
_cell_angle_gamma 90.000000
_cell_volume 854.880349
_symmetry_space_group_name_H-M "P 21/C"
_symmetry_group_IT_number 14
_symmetry_cell_setting 'monoclinic'
loop_
_space_group_symop_operation_xyz
x,y,z
-x,1/2+y,1/2-z
-x,-y,-z
x,1/2-y,1/2+z
loop_
_atom_site_type_symbol
_atom_site_label
_atom_site_fract_x
_atom_site_fract_y
_atom_site_fract_z
Si Si1 0.410974 0.258791 0.501154
Si Si2 0.926622 0.865550 0.380616
Si Si3 0.164627 0.018335 0.261782
Si Si4 0.029293 0.809490 0.752826
Si Si5 0.367467 0.744909 0.017882
O O1 0.270752 0.368389 0.348465
O O2 0.305429 0.126166 0.369988
O O3 0.549222 0.277971 0.532869
O O4 0.492382 0.261378 0.726705
O O5 0.955031 0.776184 0.536277
O O6 0.011782 0.798766 0.344784
O O7 0.000000 0.000000 0.500000
O O8 0.080385 0.074764 0.304763
O O9 0.266568 0.888078 0.391254
O O10 0.000000 0.000000 0.000000
O O11 0.223823 0.838493 0.926390
#
# Coordination Sequence:
#
# PCOD9252402 Si02
#       5
#     4   4   4   4   4
#     4  11  25  43  68 106 137 174 235 294 349 418
#     4  11  24  45  70  99 141 189 233 286 353 431
#     4  11  24  45  71  97 136 193 235 277 353 440
#     4  11  24  43  67  99 135 184 238 280 348 442
#     4  12  24  44  69 101 139 174 227 303 352 403
#
# _framework density 23.395085000000002
#
# number of rings (size 3 to 8) (size 9 to 14) (size 15 to 20)
#    0.000    0.800    0.000    9.000    0.000    3.200 
#    0.000    6.000    0.000    0.000    0.000    0.000 
#    0.000    0.000    0.000    0.000    0.000    0.000 
#
# Total GULP energy -111868.620724 kJ/mol
# GULP energy per Si atom -5593.431036 kJ/mol
# Density = 2.334184 g / cm^3
# Si number density = 23.395085 Si / 1000 Ang^3
#
#
#
# Elastic Constant Matrix: (Units=GPa)
#
#
# Indices 1 2 3 4 5 6 
#
# 1 131.0801 30.1214 -3.7039 0.0000 -3.7369 0.0000
# 2 30.1214 76.1935 23.6333 0.0000 1.5900 0.0000
# 3 -3.7039 23.6333 117.3651 0.0000 -12.0234 0.0000
# 4 0.0000 0.0000 0.0000 49.5683 0.0000 7.1657
# 5 -3.7369 1.5900 -12.0234 0.0000 52.4110 0.0000
# 6 0.0000 0.0000 0.0000 7.1657 0.0000 29.2063
#
#
#
# Elastic Compliance Matrix: (Units=1/GPa)
#
#
# Indices 1 2 3 4 5 6 
#
# 1 0.008550 -0.003750 0.001125 0.000000 0.000982 0.000000
# 2 -0.003750 0.015705 -0.003438 0.000000 -0.001532 0.000000
# 3 0.001125 -0.003438 0.009490 0.000000 0.002362 0.000000
# 4 0.000000 0.000000 0.000000 0.020916 0.000000 -0.005132
# 5 0.000982 -0.001532 0.002362 0.000000 0.019738 0.000000
# 6 0.000000 0.000000 0.000000 -0.005132 0.000000 0.035498
#
#
# Mechanical properties :
#
#
# Convention : Reuss Voigt Hill
#
# Bulk Modulus (GPa) = 46.25036 47.19337 46.72186
# Shear Modulus (GPa) = 38.69082 44.54297 41.61690
#
# Velocity S-wave (km/s) = 4.07111 4.36816 4.22224
# Velocity P-wave (km/s) = 6.47385 6.75701 6.61694
#
# Compressibility (1/GPa) = 0.02162145
#
# Stress axis : x y z
#
# Youngs Moduli (GPa) = 116.95379 63.67326 105.37259
#
# Poissons Ratio (x) = 0.23876 -0.11859
# Poissons Ratio (y) = 0.43855 0.36225
# Poissons Ratio (z) = -0.13163 0.21890
#
# Static dielectric constant tensor:
#      x y z
#    x 1.873150 0.000000 -0.009160 
#    y 0.000000 2.014930 0.000000 
#    z -0.009160 0.000000 1.904010 
# 
# From -- ./inp_files/32269.got.cif
#   From: 2010.05.17/outbox.cif.g08.bks.cpg/sg14_17_cif.got.tgz:32269.got - 2010.06.03 17:49:19.
