data_PCOD9252003
_publ_section_title
;
Structure prediction by ZEFSAII (Michael W. Deem and Ramdas Pophale) SiO2 
 PCOD9252003
Probable space group: P 21/C
;
_chemical_formula_sum "Si O2"
_cell_formula_units_Z 28
_cell_length_a 11.718368
_cell_length_b 22.552773
_cell_length_c 7.855580
_cell_angle_alpha 90.000000
_cell_angle_beta 48.222417
_cell_angle_gamma 90.000000
_cell_volume 1548.213561
_symmetry_space_group_name_H-M "P 21/C"
_symmetry_group_IT_number 14
_symmetry_cell_setting 'monoclinic'
loop_
_space_group_symop_operation_xyz
x,y,z
-x,1/2+y,1/2-z
-x,-y,-z
x,1/2-y,1/2+z
loop_
_atom_site_type_symbol
_atom_site_label
_atom_site_fract_x
_atom_site_fract_y
_atom_site_fract_z
Si Si1 0.829456 0.782273 0.958264
Si Si2 0.883423 0.430651 0.955986
Si Si3 0.999423 0.130204 0.998057
Si Si4 0.881877 0.930978 0.459566
Si Si5 0.317159 0.827049 0.221404
Si Si6 0.329222 0.171539 0.218601
Si Si7 0.840538 0.276222 0.448542
O O1 0.724348 0.727370 0.115334
O O2 0.861120 0.827376 0.081473
O O3 0.755196 0.817036 0.876777
O O4 0.996661 0.756691 0.740264
O O5 0.953960 0.407667 0.708085
O O6 0.843126 0.499779 0.983994
O O7 0.741791 0.388032 0.139683
O O8 0.003976 0.424037 0.992167
O O9 0.866894 0.175975 0.071436
O O10 0.040428 0.091728 0.792181
O O11 0.738047 0.888536 0.636209
O O12 0.207420 0.810758 0.172264
O O13 0.285148 0.772784 0.381576
O O14 0.490541 0.829973 0.988840
#
# Coordination Sequence:
#
# PCOD9252003 Si02
#       7
#     4   4   4   4   4   4   4
#     4  12  20  37  64  91 123 159 203 251 305 368
#     4  11  23  41  64  89 119 166 217 254 295 359
#     4  12  21  38  68  90 121 148 214 264 294 350
#     4  11  23  41  64  89 119 166 217 254 295 359
#     4  12  23  38  60  94 132 161 196 254 322 369
#     4  12  23  38  60  94 132 161 196 254 322 369
#     4  12  20  37  64  91 123 159 203 251 305 368
#
# _framework density 18.085360000000001
#
# number of rings (size 3 to 8) (size 9 to 14) (size 15 to 20)
#    0.000    0.286    8.571    1.286    0.000    0.571 
#    0.000    0.000    0.000    1.714    0.000    0.000 
#    0.000    0.000    0.000    0.000    0.000    0.000 
#
# Total GULP energy -156485.944394 kJ/mol
# GULP energy per Si atom -5588.783728 kJ/mol
# Density = 1.804420 g / cm^3
# Si number density = 18.085360 Si / 1000 Ang^3
#
#
#
# Elastic Constant Matrix: (Units=GPa)
#
#
# Indices 1 2 3 4 5 6 
#
# 1 50.4561 19.4082 11.1919 0.0000 18.7816 0.0000
# 2 19.4082 152.3757 59.8613 0.0000 5.7177 0.0000
# 3 11.1919 59.8613 93.7837 0.0000 1.8574 0.0000
# 4 0.0000 0.0000 0.0000 20.8119 0.0000 10.3325
# 5 18.7816 5.7177 1.8574 0.0000 35.5857 0.0000
# 6 0.0000 0.0000 0.0000 10.3325 0.0000 25.2637
#
#
#
# Elastic Compliance Matrix: (Units=1/GPa)
#
#
# Indices 1 2 3 4 5 6 
#
# 1 0.025928 -0.002259 -0.001390 0.000000 -0.013249 0.000000
# 2 -0.002259 0.009001 -0.005476 0.000000 0.000032 0.000000
# 3 -0.001390 -0.005476 0.014307 0.000000 0.000867 0.000000
# 4 0.000000 0.000000 0.000000 0.060292 0.000000 -0.024659
# 5 -0.013249 0.000032 0.000867 0.000000 0.035043 0.000000
# 6 0.000000 0.000000 0.000000 -0.024659 0.000000 0.049668
#
#
# Mechanical properties :
#
#
# Convention : Reuss Voigt Hill
#
# Bulk Modulus (GPa) = 32.27309 53.05982 42.66646
# Shear Modulus (GPa) = 22.43994 30.07585 26.25790
#
# Velocity S-wave (km/s) = 3.52629 4.08241 3.81450
# Velocity P-wave (km/s) = 5.87054 7.18496 6.56075
#
# Compressibility (1/GPa) = 0.03098556
#
# Stress axis : x y z
#
# Youngs Moduli (GPa) = 38.56780 111.10409 69.89686
#
# Poissons Ratio (x) = 0.25103 0.09713
# Poissons Ratio (y) = 0.08714 0.38275
# Poissons Ratio (z) = 0.05360 0.60840
#
# Static dielectric constant tensor:
#      x y z
#    x 1.626440 0.000000 0.041130 
#    y 0.000000 1.621480 0.000000 
#    z 0.041130 0.000000 1.620560 
# 
# From -- ./inp_files/14264.got.cif
#   From: 2010.05.17/outbox.cif.g08.bks.cpg/sg14_8_cif.got.tgz:14264.got - 2010.06.03 17:49:19.
