data_PCOD9252467
_publ_section_title
;
Structure prediction by ZEFSAII (Michael W. Deem and Ramdas Pophale) SiO2 
 PCOD9252467
Probable space group: P 21/C
;
_chemical_formula_sum "Si O2"
_cell_formula_units_Z 22
_cell_length_a 7.109316
_cell_length_b 7.430843
_cell_length_c 18.963089
_cell_angle_alpha 90.000000
_cell_angle_beta 54.359803
_cell_angle_gamma 90.000000
_cell_volume 814.143684
_symmetry_space_group_name_H-M "P 21/C"
_symmetry_group_IT_number 14
_symmetry_cell_setting 'monoclinic'
loop_
_space_group_symop_operation_xyz
x,y,z
-x,1/2+y,1/2-z
-x,-y,-z
x,1/2-y,1/2+z
loop_
_atom_site_type_symbol
_atom_site_label
_atom_site_fract_x
_atom_site_fract_y
_atom_site_fract_z
Si Si1 0.810279 0.621738 0.423443
Si Si2 0.070074 0.773487 0.603152
Si Si3 0.303382 0.782477 0.276459
Si Si4 0.500000 0.500000 0.000000
Si Si5 0.295070 0.321444 0.713115
Si Si6 0.345659 0.134411 0.412007
O O1 0.815973 0.415030 0.445354
O O2 0.676214 0.745982 0.509725
O O3 0.702843 0.644510 0.369863
O O4 0.069950 0.694327 0.355833
O O5 0.253143 0.923223 0.585864
O O6 0.927172 0.720174 0.705692
O O7 0.884592 0.836034 0.583835
O O8 0.484775 0.770372 0.300092
O O9 0.441133 0.687219 0.183076
O O10 0.271356 0.983678 0.256139
O O11 0.606815 0.046244 0.556150
#
# Coordination Sequence:
#
# PCOD9252467 Si02
#       6
#     4   4   4   2   4   4
#     4  12  25  46  72 101 140 187 239 290 348 421
#     4  11  26  46  70 104 143 184 233 287 351 420
#     4  11  25  46  71 102 142 185 232 297 353 408
#     4  12  24  42  68  98 136 176 222 280 342 410
#     4  11  24  44  70 102 139 187 238 286 351 420
#     4  11  26  45  71 106 140 183 237 290 350 418
#
# _framework density 27.022258000000001
#
# number of rings (size 3 to 8) (size 9 to 14) (size 15 to 20)
#    0.000    0.727    0.000    7.636    0.000   10.182 
#    0.000    1.818    0.000    0.000    0.000    0.000 
#    0.000    0.000    0.000    0.000    0.000    0.000 
#
# Total GULP energy -122967.076725 kJ/mol
# GULP energy per Si atom -5589.412578 kJ/mol
# Density = 2.696075 g / cm^3
# Si number density = 27.022258 Si / 1000 Ang^3
#
#
#
# Elastic Constant Matrix: (Units=GPa)
#
#
# Indices 1 2 3 4 5 6 
#
# 1 161.0787 12.4025 73.8708 0.0000 27.9599 0.0000
# 2 12.4025 62.5873 4.6368 0.0000 -6.9136 0.0000
# 3 73.8708 4.6368 151.5545 0.0000 6.1156 0.0000
# 4 0.0000 0.0000 0.0000 46.3933 0.0000 15.4256
# 5 27.9599 -6.9136 6.1156 0.0000 63.2217 0.0000
# 6 0.0000 0.0000 0.0000 15.4256 0.0000 31.9693
#
#
#
# Elastic Compliance Matrix: (Units=1/GPa)
#
#
# Indices 1 2 3 4 5 6 
#
# 1 0.008894 -0.001870 -0.004127 0.000000 -0.003738 0.000000
# 2 -0.001870 0.016615 0.000297 0.000000 0.002615 0.000000
# 3 -0.004127 0.000297 0.008559 0.000000 0.001030 0.000000
# 4 0.000000 0.000000 0.000000 0.025674 0.000000 -0.012388
# 5 -0.003738 0.002615 0.001030 0.000000 0.017657 0.000000
# 6 0.000000 0.000000 0.000000 -0.012388 0.000000 0.037257
#
#
# Mechanical properties :
#
#
# Convention : Reuss Voigt Hill
#
# Bulk Modulus (GPa) = 44.11182 61.89342 53.00262
# Shear Modulus (GPa) = 37.42217 47.27086 42.34652
#
# Velocity S-wave (km/s) = 3.72541 4.18704 3.96295
# Velocity P-wave (km/s) = 5.90463 6.80657 6.37158
#
# Compressibility (1/GPa) = 0.02266966
#
# Stress axis : x y z
#
# Youngs Moduli (GPa) = 112.44033 60.18654 116.83393
#
# Poissons Ratio (x) = 0.11253 0.48216
# Poissons Ratio (y) = 0.21022 -0.03475
# Poissons Ratio (z) = 0.46403 -0.01790
#
# Static dielectric constant tensor:
#      x y z
#    x 1.848520 0.000000 -0.001010 
#    y 0.000000 1.318200 0.000000 
#    z -0.001010 0.000000 2.220700 
# 
# From -- ./inp_files/76156.got.cif
#   From: 2010.05.17/outbox.cif.g08.bks.cpg/sg14_39_cif.got.tgz:76156.got - 2010.06.03 17:49:19.
