data_PCOD9252188
_publ_section_title
;
Structure prediction by ZEFSAII (Michael W. Deem and Ramdas Pophale) SiO2 
 PCOD9252188
Probable space group: P 21/C
;
_chemical_formula_sum "Si O2"
_cell_formula_units_Z 32
_cell_length_a 6.974542
_cell_length_b 13.360511
_cell_length_c 19.889330
_cell_angle_alpha 90.000000
_cell_angle_beta 123.494646
_cell_angle_gamma 90.000000
_cell_volume 1545.583115
_symmetry_space_group_name_H-M "P 21/C"
_symmetry_group_IT_number 14
_symmetry_cell_setting 'monoclinic'
loop_
_space_group_symop_operation_xyz
x,y,z
-x,1/2+y,1/2-z
-x,-y,-z
x,1/2-y,1/2+z
loop_
_atom_site_type_symbol
_atom_site_label
_atom_site_fract_x
_atom_site_fract_y
_atom_site_fract_z
Si Si1 0.020377 0.132515 0.340026
Si Si2 0.565680 0.537235 0.617321
Si Si3 0.628683 0.032024 0.647155
Si Si4 0.148947 0.242082 0.140755
Si Si5 0.497880 0.438510 0.735461
Si Si6 0.039422 0.167870 0.755206
Si Si7 0.279434 0.328330 0.021059
Si Si8 0.632829 0.158920 0.040929
O O1 0.762934 0.093578 0.281181
O O2 0.050739 0.228272 0.297497
O O3 0.076864 0.160267 0.427921
O O4 0.202057 0.047107 0.354824
O O5 0.450889 0.517495 0.666921
O O6 0.815515 0.585438 0.676749
O O7 0.425000 0.611721 0.542646
O O8 0.591750 0.430695 0.585787
O O9 0.418977 0.069218 0.560939
O O10 0.781309 0.129522 0.694818
O O11 0.544234 0.984029 0.699888
O O12 0.334696 0.156291 0.191226
O O13 0.152586 0.318826 0.203697
O O14 0.195535 0.291076 0.077650
O O15 0.893697 0.195616 0.093588
O O16 0.458088 0.247909 0.024791
#
# Coordination Sequence:
#
# PCOD9252188 Si02
#       8
#     4   4   4   4   4   4   4   4
#     4  12  27  47  70 104 142 181 238 288 350 421
#     4  11  23  44  73 103 139 183 233 285 359 412
#     4  12  26  46  73  98 142 185 231 292 350 417
#     4  12  25  44  71 102 145 180 232 293 348 419
#     4  12  25  45  72 106 138 181 239 291 343 422
#     4  12  23  45  74  98 137 189 226 287 354 412
#     4  12  26  45  71 103 139 190 232 285 356 421
#     4  11  24  46  70 103 146 179 228 299 354 417
#
# _framework density 20.704160000000002
#
# number of rings (size 3 to 8) (size 9 to 14) (size 15 to 20)
#    0.000    0.250    6.250    3.375    0.000    4.000 
#    0.000    0.000    0.000    0.000    0.000    0.000 
#    0.000    0.000    0.000    0.000    0.000    0.000 
#
# Total GULP energy -179172.706054 kJ/mol
# GULP energy per Si atom -5599.147064 kJ/mol
# Density = 2.065704 g / cm^3
# Si number density = 20.704160 Si / 1000 Ang^3
#
#
#
# Elastic Constant Matrix: (Units=GPa)
#
#
# Indices 1 2 3 4 5 6 
#
# 1 40.8005 2.7838 10.3061 0.0000 -21.0483 0.0000
# 2 2.7838 49.4393 25.0642 0.0000 -15.9724 0.0000
# 3 10.3061 25.0642 105.0685 0.0000 -18.4918 0.0000
# 4 0.0000 0.0000 0.0000 34.4731 0.0000 -2.8561
# 5 -21.0483 -15.9724 -18.4918 0.0000 29.4503 0.0000
# 6 0.0000 0.0000 0.0000 -2.8561 0.0000 35.1559
#
#
#
# Elastic Compliance Matrix: (Units=1/GPa)
#
#
# Indices 1 2 3 4 5 6 
#
# 1 0.041790 0.008894 -0.000130 0.000000 0.034610 0.000000
# 2 0.008894 0.027963 -0.004222 0.000000 0.018872 0.000000
# 3 -0.000130 -0.004222 0.011375 0.000000 0.004760 0.000000
# 4 0.000000 0.000000 0.000000 0.029205 0.000000 0.002373
# 5 0.034610 0.018872 0.004760 0.000000 0.071915 0.000000
# 6 0.000000 0.000000 0.000000 0.002373 0.000000 0.028638
#
#
# Mechanical properties :
#
#
# Convention : Reuss Voigt Hill
#
# Bulk Modulus (GPa) = 11.08474 30.17963 20.63218
# Shear Modulus (GPa) = 21.56363 30.29282 25.92822
#
# Velocity S-wave (km/s) = 3.23075 3.82923 3.54265
# Velocity P-wave (km/s) = 4.39118 5.84457 5.16921
#
# Compressibility (1/GPa) = 0.09021414
#
# Stress axis : x y z
#
# Youngs Moduli (GPa) = 23.92911 35.76127 87.91069
#
# Poissons Ratio (x) = -0.31806 0.01139
# Poissons Ratio (y) = -0.21283 0.37113
# Poissons Ratio (z) = 0.00310 0.15097
#
# Static dielectric constant tensor:
#      x y z
#    x 1.697590 0.000000 -0.005220 
#    y 0.000000 1.727530 0.000000 
#    z -0.005220 0.000000 1.728000 
# 
# From -- ./inp_files/53509.got.cif
#   From: 2010.05.17/outbox.cif.g08.bks.cpg/sg14_27_cif.got.tgz:53509.got - 2010.06.03 17:49:19.
