data_PCOD9252969
_publ_section_title
;
Structure prediction by ZEFSAII (Michael W. Deem and Ramdas Pophale) SiO2 
 PCOD9252969
Probable space group: P 21/C
;
_chemical_formula_sum "Si O2"
_cell_formula_units_Z 24
_cell_length_a 22.727625
_cell_length_b 4.704284
_cell_length_c 23.177630
_cell_angle_alpha 90.000000
_cell_angle_beta 158.162673
_cell_angle_gamma 90.000000
_cell_volume 921.780713
_symmetry_space_group_name_H-M "P 21/C"
_symmetry_group_IT_number 14
_symmetry_cell_setting 'monoclinic'
loop_
_space_group_symop_operation_xyz
x,y,z
-x,1/2+y,1/2-z
-x,-y,-z
x,1/2-y,1/2+z
loop_
_atom_site_type_symbol
_atom_site_label
_atom_site_fract_x
_atom_site_fract_y
_atom_site_fract_z
Si Si1 0.939490 0.021654 0.847482
Si Si2 0.930448 0.547389 0.652511
Si Si3 0.368392 0.140209 0.490914
Si Si4 0.597599 0.219086 0.361088
Si Si5 0.534680 0.629972 0.594445
Si Si6 0.848831 0.318613 0.877128
O O1 0.803428 0.835173 0.694158
O O2 0.833816 0.160555 0.802211
O O3 0.014509 0.170415 0.859578
O O4 0.089120 0.880889 0.015385
O O5 0.760224 0.389927 0.494825
O O6 0.949954 0.805293 0.714739
O O7 0.376124 0.968334 0.557318
O O8 0.490482 0.956815 0.562103
O O9 0.429491 0.458228 0.544530
O O10 0.463008 0.466942 0.237088
O O11 0.500000 0.500000 0.500000
O O12 0.712033 0.534353 0.768331
O O13 0.000000 0.500000 0.000000
#
# Coordination Sequence:
#
# PCOD9252969 Si02
#       6
#     4   4   4   4   4   4
#     4  11  27  47  74 108 151 196 254 308 380 450
#     4  12  28  50  80 111 149 206 262 314 387 462
#     4  12  27  48  75 107 149 199 246 313 375 462
#     4  12  28  50  74 112 152 198 257 321 385 454
#     4  12  26  46  76 108 149 195 249 300 384 449
#     4  11  27  46  74 111 153 197 249 319 373 460
#
# _framework density 26.036563000000001
#
# number of rings (size 3 to 8) (size 9 to 14) (size 15 to 20)
#    0.000    0.333    3.333    3.500   14.000    0.000 
#    0.000    0.000    0.000    0.000    0.000    0.000 
#    0.000    0.000    0.000    0.000    0.000    0.000 
#
# Total GULP energy -134205.369592 kJ/mol
# GULP energy per Si atom -5591.890400 kJ/mol
# Density = 2.597730 g / cm^3
# Si number density = 26.036563 Si / 1000 Ang^3
#
#
#
# Elastic Constant Matrix: (Units=GPa)
#
#
# Indices 1 2 3 4 5 6 
#
# 1 113.6452 14.9487 36.5655 0.0000 -26.1347 0.0000
# 2 14.9487 109.2624 20.7525 0.0000 -16.4281 0.0000
# 3 36.5655 20.7525 109.6784 0.0000 -0.9300 0.0000
# 4 0.0000 0.0000 0.0000 39.3302 0.0000 11.9168
# 5 -26.1347 -16.4281 -0.9300 0.0000 39.8304 0.0000
# 6 0.0000 0.0000 0.0000 11.9168 0.0000 34.5618
#
#
#
# Elastic Compliance Matrix: (Units=1/GPa)
#
#
# Indices 1 2 3 4 5 6 
#
# 1 0.011814 0.000300 -0.003930 0.000000 0.007784 0.000000
# 2 0.000300 0.010139 -0.001982 0.000000 0.004333 0.000000
# 3 -0.003930 -0.001982 0.010776 0.000000 -0.003144 0.000000
# 4 0.000000 0.000000 0.000000 0.028392 0.000000 -0.009789
# 5 0.007784 0.004333 -0.003144 0.000000 0.031928 0.000000
# 6 0.000000 0.000000 0.000000 -0.009789 0.000000 0.032309
#
#
# Mechanical properties :
#
#
# Convention : Reuss Voigt Hill
#
# Bulk Modulus (GPa) = 46.49614 53.01328 49.75471
# Shear Modulus (GPa) = 34.78287 40.09909 37.44098
#
# Velocity S-wave (km/s) = 3.65899 3.92868 3.79623
# Velocity P-wave (km/s) = 5.97894 6.40192 6.19405
#
# Compressibility (1/GPa) = 0.02150716
#
# Stress axis : x y z
#
# Youngs Moduli (GPa) = 84.64368 98.62876 92.79916
#
# Poissons Ratio (x) = -0.02962 0.36466
# Poissons Ratio (y) = -0.02542 0.18391
# Poissons Ratio (z) = 0.33261 0.19546
#
# Static dielectric constant tensor:
#      x y z
#    x 1.847730 0.000000 0.215140 
#    y 0.000000 2.089100 0.000000 
#    z 0.215140 0.000000 1.889480 
# 
# From -- ./inp_files/74823.got.cif
#   From: 2010.05.17/outbox.cif.g08.bks.cpg/sg14_38_cif.got.tgz:74823.got - 2010.06.03 17:49:19.
