data_PCOD9252540
_publ_section_title
;
Structure prediction by ZEFSAII (Michael W. Deem and Ramdas Pophale) SiO2 
 PCOD9252540
Probable space group: P 21/C
;
_chemical_formula_sum "Si O2"
_cell_formula_units_Z 26
_cell_length_a 5.179229
_cell_length_b 20.368348
_cell_length_c 10.731489
_cell_angle_alpha 90.000000
_cell_angle_beta 66.001977
_cell_angle_gamma 90.000000
_cell_volume 1034.231448
_symmetry_space_group_name_H-M "P 21/C"
_symmetry_group_IT_number 14
_symmetry_cell_setting 'monoclinic'
loop_
_space_group_symop_operation_xyz
x,y,z
-x,1/2+y,1/2-z
-x,-y,-z
x,1/2-y,1/2+z
loop_
_atom_site_type_symbol
_atom_site_label
_atom_site_fract_x
_atom_site_fract_y
_atom_site_fract_z
Si Si1 0.726924 0.043416 0.529831
Si Si2 0.294456 0.419878 0.305960
Si Si3 0.045261 0.860461 0.709656
Si Si4 0.527029 0.901848 0.946676
Si Si5 0.000000 0.500000 0.500000
Si Si6 0.742324 0.209848 0.112908
Si Si7 0.794283 0.725603 0.669316
O O1 0.589437 0.068599 0.684456
O O2 0.795132 0.107333 0.434728
O O3 0.500000 0.000000 0.500000
O O4 0.000000 0.000000 0.500000
O O5 0.307461 0.420130 0.456552
O O6 0.168466 0.349700 0.295026
O O7 0.108561 0.484369 0.331350
O O8 0.764984 0.900938 0.794983
O O9 0.954006 0.785264 0.703425
O O10 0.223199 0.850744 0.799006
O O11 0.271729 0.950039 0.974094
O O12 0.415596 0.826240 0.972245
O O13 0.533766 0.259171 0.227575
O O14 0.049868 0.229571 0.997851
#
# Coordination Sequence:
#
# PCOD9252540 Si02
#       7
#     4   4   4   4   2   4   4
#     4  12  32  52  79 117 166 214 263 338 416 493
#     4  12  27  47  76 113 152 204 276 322 407 488
#     4  11  26  51  75 109 158 201 263 328 406 476
#     4  11  24  45  75 108 145 198 259 326 394 475
#     4  12  24  42  78 108 146 194 256 330 382 484
#     4  11  25  45  76 108 152 197 257 325 403 478
#     4  11  25  45  74 113 150 203 260 331 405 485
#
# _framework density 25.13944
#
# number of rings (size 3 to 8) (size 9 to 14) (size 15 to 20)
#    0.000    0.615    3.077    2.308   12.923    1.231 
#    0.000    0.000    0.000    0.000    0.000    0.000 
#    0.000    0.000    0.000    0.000    0.000    0.000 
#
# Total GULP energy -144839.436442 kJ/mol
# GULP energy per Si atom -5570.747555 kJ/mol
# Density = 2.508222 g / cm^3
# Si number density = 25.139440 Si / 1000 Ang^3
#
#
#
# Elastic Constant Matrix: (Units=GPa)
#
#
# Indices 1 2 3 4 5 6 
#
# 1 86.1182 35.2700 6.2494 0.0000 -15.1761 0.0000
# 2 35.2700 88.7249 30.6236 0.0000 -6.0736 0.0000
# 3 6.2494 30.6236 143.5184 0.0000 -43.5041 0.0000
# 4 0.0000 0.0000 0.0000 43.6495 0.0000 -14.8699
# 5 -15.1761 -6.0736 -43.5041 0.0000 38.0310 0.0000
# 6 0.0000 0.0000 0.0000 -14.8699 0.0000 40.4834
#
#
#
# Elastic Compliance Matrix: (Units=1/GPa)
#
#
# Indices 1 2 3 4 5 6 
#
# 1 0.015822 -0.006898 0.003617 0.000000 0.009350 0.000000
# 2 -0.006898 0.015236 -0.004665 0.000000 -0.005656 0.000000
# 3 0.003617 -0.004665 0.012273 0.000000 0.014738 0.000000
# 4 0.000000 0.000000 0.000000 0.026187 0.000000 0.009619
# 5 0.009350 -0.005656 0.014738 0.000000 0.045981 0.000000
# 6 0.000000 0.000000 0.000000 0.009619 0.000000 0.028235
#
#
# Mechanical properties :
#
#
# Convention : Reuss Voigt Hill
#
# Bulk Modulus (GPa) = 36.44443 51.40527 43.92485
# Shear Modulus (GPa) = 29.62591 40.84734 35.23662
#
# Velocity S-wave (km/s) = 3.43660 4.03529 3.74792
# Velocity P-wave (km/s) = 5.50230 6.49645 6.01993
#
# Compressibility (1/GPa) = 0.02743904
#
# Stress axis : x y z
#
# Youngs Moduli (GPa) = 63.20217 65.63446 81.47966
#
# Poissons Ratio (x) = 0.45275 -0.29472
# Poissons Ratio (y) = 0.43597 0.38011
# Poissons Ratio (z) = -0.22861 0.30619
#
# Static dielectric constant tensor:
#      x y z
#    x 1.867250 0.000000 0.138240 
#    y 0.000000 1.494930 0.000000 
#    z 0.138240 0.000000 1.949870 
# 
# From -- ./inp_files/21484.got.cif
#   From: 2010.05.17/outbox.cif.g08.bks.cpg/sg14_11_cif.got.tgz:21484.got - 2010.06.03 17:49:19.
