data_PCOD9252889
_publ_section_title
;
Structure prediction by ZEFSAII (Michael W. Deem and Ramdas Pophale) SiO2 
 PCOD9252889
Probable space group: P 21/C
;
_chemical_formula_sum "Si O2"
_cell_formula_units_Z 16
_cell_length_a 5.118083
_cell_length_b 26.246198
_cell_length_c 4.916022
_cell_angle_alpha 90.000000
_cell_angle_beta 93.399530
_cell_angle_gamma 90.000000
_cell_volume 659.208272
_symmetry_space_group_name_H-M "P 21/C"
_symmetry_group_IT_number 14
_symmetry_cell_setting 'monoclinic'
loop_
_space_group_symop_operation_xyz
x,y,z
-x,1/2+y,1/2-z
-x,-y,-z
x,1/2-y,1/2+z
loop_
_atom_site_type_symbol
_atom_site_label
_atom_site_fract_x
_atom_site_fract_y
_atom_site_fract_z
Si Si1 0.727250 0.783623 0.546340
Si Si2 0.898307 0.415932 0.578079
Si Si3 0.755222 0.507271 0.192318
Si Si4 0.223041 0.651133 0.934200
O O1 0.694654 0.734320 0.353046
O O2 0.507403 0.823963 0.446637
O O3 0.012558 0.807193 0.517944
O O4 0.763914 0.464652 0.427791
O O5 0.781343 0.394340 0.847755
O O6 0.186423 0.437810 0.668176
O O7 0.876023 0.371467 0.356416
O O8 0.500000 0.500000 0.000000
O O9 0.000000 0.500000 0.000000
#
# Coordination Sequence:
#
# PCOD9252889 Si02
#       4
#     4   4   4   4
#     4  12  26  48  72 103 140 181 230 296 364 416
#     4  11  26  47  70 111 142 191 236 287 346 411
#     4  11  26  46  71 101 153 188 232 288 345 411
#     4  12  26  44  76 103 142 181 240 288 344 432
#
# _framework density 24.271536000000001
#
# number of rings (size 3 to 8) (size 9 to 14) (size 15 to 20)
#    0.000    0.500    2.500    4.500    3.500    8.000 
#    0.000    0.000    0.000    0.000    0.000    0.000 
#    0.000    0.000    0.000    0.000    0.000    0.000 
#
# Total GULP energy -89735.945986 kJ/mol
# GULP energy per Si atom -5608.496624 kJ/mol
# Density = 2.421629 g / cm^3
# Si number density = 24.271536 Si / 1000 Ang^3
#
#
#
# Elastic Constant Matrix: (Units=GPa)
#
#
# Indices 1 2 3 4 5 6 
#
# 1 96.3592 -4.7515 22.9076 0.0000 24.8590 0.0000
# 2 -4.7515 49.5369 2.6047 0.0000 8.4366 0.0000
# 3 22.9076 2.6047 106.4722 0.0000 18.2942 0.0000
# 4 0.0000 0.0000 0.0000 64.6362 0.0000 4.0666
# 5 24.8590 8.4366 18.2942 0.0000 38.4167 0.0000
# 6 0.0000 0.0000 0.0000 4.0666 0.0000 31.9220
#
#
#
# Elastic Compliance Matrix: (Units=1/GPa)
#
#
# Indices 1 2 3 4 5 6 
#
# 1 0.013004 0.002742 -0.001433 0.000000 -0.008334 0.000000
# 2 0.002742 0.021559 0.000001 0.000000 -0.006509 0.000000
# 3 -0.001433 0.000001 0.010391 0.000000 -0.004021 0.000000
# 4 0.000000 0.000000 0.000000 0.015596 0.000000 -0.001987
# 5 -0.008334 -0.006509 -0.004021 0.000000 0.034768 0.000000
# 6 0.000000 0.000000 0.000000 -0.001987 0.000000 0.031579
#
#
# Mechanical properties :
#
#
# Convention : Reuss Voigt Hill
#
# Bulk Modulus (GPa) = 21.01974 32.65444 26.83709
# Shear Modulus (GPa) = 35.67991 42.43547 39.05769
#
# Velocity S-wave (km/s) = 3.83826 4.18588 4.01583
# Velocity P-wave (km/s) = 5.32184 6.07002 5.70820
#
# Compressibility (1/GPa) = 0.04757433
#
# Stress axis : x y z
#
# Youngs Moduli (GPa) = 76.90043 46.38538 96.23395
#
# Poissons Ratio (x) = -0.12719 0.13789
# Poissons Ratio (y) = -0.21087 -0.00010
# Poissons Ratio (z) = 0.11019 -0.00005
#
# Static dielectric constant tensor:
#      x y z
#    x 1.917690 0.000000 -0.011350 
#    y 0.000000 1.959920 0.000000 
#    z -0.011350 0.000000 1.897760 
# 
# From -- ./inp_files/355.got.cif
#   From: 2010.05.17/outbox.cif.g08.bks.cpg/sg14_1_cif.got.tgz:355.got - 2010.06.03 17:49:19.
