data_PCOD9252835
_publ_section_title
;
Structure prediction by ZEFSAII (Michael W. Deem and Ramdas Pophale) SiO2 
 PCOD9252835
Probable space group: P 21/C
;
_chemical_formula_sum "Si O2"
_cell_formula_units_Z 30
_cell_length_a 14.112409
_cell_length_b 4.975260
_cell_length_c 18.220656
_cell_angle_alpha 90.000000
_cell_angle_beta 121.494365
_cell_angle_gamma 90.000000
_cell_volume 1090.869760
_symmetry_space_group_name_H-M "P 21/C"
_symmetry_group_IT_number 14
_symmetry_cell_setting 'monoclinic'
loop_
_space_group_symop_operation_xyz
x,y,z
-x,1/2+y,1/2-z
-x,-y,-z
x,1/2-y,1/2+z
loop_
_atom_site_type_symbol
_atom_site_label
_atom_site_fract_x
_atom_site_fract_y
_atom_site_fract_z
Si Si1 0.172529 0.668796 0.641469
Si Si2 0.000000 0.000000 0.000000
Si Si3 0.559962 0.788588 0.599853
Si Si4 0.937137 0.555695 0.201274
Si Si5 0.567587 0.102067 0.747924
Si Si6 0.138043 0.029685 0.491671
Si Si7 0.226546 0.506596 0.307160
Si Si8 0.669886 0.144931 0.523969
O O1 0.184843 0.866362 0.714388
O O2 0.299979 0.585362 0.677760
O O3 0.070509 0.466683 0.610353
O O4 0.108347 0.812154 0.543738
O O5 0.104487 0.181002 0.005808
O O6 0.435944 0.679446 0.541657
O O7 0.648800 0.579926 0.663776
O O8 0.558953 0.024258 0.659151
O O9 0.611486 0.907378 0.545955
O O10 0.922753 0.505857 0.109765
O O11 0.963261 0.265515 0.244866
O O12 0.836709 0.733985 0.193891
O O13 0.508425 0.380558 0.742469
O O14 0.264110 0.968835 0.518995
O O15 0.250115 0.693890 0.388194
#
# Coordination Sequence:
#
# PCOD9252835 Si02
#       8
#     4   2   4   4   4   4   4   4
#     4  12  30  52  85 119 179 228 301 365 461 538
#     4  12  32  50  80 118 172 224 296 366 444 540
#     4  11  25  47  81 121 170 222 291 364 451 536
#     4  12  29  51  83 117 167 227 300 360 434 528
#     4  12  28  53  85 131 176 233 296 377 465 552
#     4  12  29  53  80 125 163 234 290 365 449 532
#     4  12  26  52  82 121 171 230 292 377 443 541
#     4  11  25  49  79 124 167 226 292 365 446 542
#
# _framework density 27.500993000000001
#
# number of rings (size 3 to 8) (size 9 to 14) (size 15 to 20)
#    0.000    0.267    2.667    4.000   11.200    0.000 
#    2.400    0.000    0.000    0.000    0.000    0.000 
#    0.000    0.000    0.000    0.000    0.000    0.000 
#
# Total GULP energy -167772.276346 kJ/mol
# GULP energy per Si atom -5592.409212 kJ/mol
# Density = 2.743840 g / cm^3
# Si number density = 27.500993 Si / 1000 Ang^3
#
#
#
# Elastic Constant Matrix: (Units=GPa)
#
#
# Indices 1 2 3 4 5 6 
#
# 1 175.0375 5.2758 35.5446 0.0000 23.9769 0.0000
# 2 5.2758 67.4089 35.9225 0.0000 -9.2594 0.0000
# 3 35.5446 35.9225 134.9344 0.0000 18.5766 0.0000
# 4 0.0000 0.0000 0.0000 55.0462 0.0000 -5.5012
# 5 23.9769 -9.2594 18.5766 0.0000 73.5934 0.0000
# 6 0.0000 0.0000 0.0000 -5.5012 0.0000 49.8821
#
#
#
# Elastic Compliance Matrix: (Units=1/GPa)
#
#
# Indices 1 2 3 4 5 6 
#
# 1 0.006229 0.000042 -0.001423 0.000000 -0.001665 0.000000
# 2 0.000042 0.018180 -0.005350 0.000000 0.003624 0.000000
# 3 -0.001423 -0.005350 0.009572 0.000000 -0.002626 0.000000
# 4 0.000000 0.000000 0.000000 0.018369 0.000000 0.002026
# 5 -0.001665 0.003624 -0.002626 0.000000 0.015249 0.000000
# 6 0.000000 0.000000 0.000000 0.002026 0.000000 0.020271
#
#
# Mechanical properties :
#
#
# Convention : Reuss Voigt Hill
#
# Bulk Modulus (GPa) = 48.73492 58.98519 53.86005
# Shear Modulus (GPa) = 46.22304 55.74687 50.98495
#
# Velocity S-wave (km/s) = 4.10418 4.50720 4.31040
# Velocity P-wave (km/s) = 6.34182 6.97004 6.66333
#
# Compressibility (1/GPa) = 0.02051917
#
# Stress axis : x y z
#
# Youngs Moduli (GPa) = 160.54512 55.00422 104.47606
#
# Poissons Ratio (x) = -0.00231 0.14864
# Poissons Ratio (y) = -0.00674 0.55895
# Poissons Ratio (z) = 0.22842 0.29427
#
# Static dielectric constant tensor:
#      x y z
#    x 0.000000 0.000000 0.000000 
#    y 0.000000 0.000000 0.000000 
#    z 0.000000 0.000000 0.000000 
# 
# From -- ./inp_files/59816.got.cif
#   From: 2010.05.17/outbox.cif.g08.bks.cpg/sg14_30_cif.got.tgz:59816.got - 2010.06.03 17:49:19.
