data_PCOD9252785
_publ_section_title
;
Structure prediction by ZEFSAII (Michael W. Deem and Ramdas Pophale) SiO2 
 PCOD9252785
Probable space group: P 21/C
;
_chemical_formula_sum "Si O2"
_cell_formula_units_Z 20
_cell_length_a 10.345168
_cell_length_b 11.912432
_cell_length_c 11.144557
_cell_angle_alpha 90.000000
_cell_angle_beta 140.665513
_cell_angle_gamma 90.000000
_cell_volume 870.532355
_symmetry_space_group_name_H-M "P 21/C"
_symmetry_group_IT_number 14
_symmetry_cell_setting 'monoclinic'
loop_
_space_group_symop_operation_xyz
x,y,z
-x,1/2+y,1/2-z
-x,-y,-z
x,1/2-y,1/2+z
loop_
_atom_site_type_symbol
_atom_site_label
_atom_site_fract_x
_atom_site_fract_y
_atom_site_fract_z
Si Si1 0.805742 0.957098 0.991858
Si Si2 0.524135 0.799607 0.643202
Si Si3 0.264497 0.420983 0.287048
Si Si4 0.186569 0.650698 0.097373
Si Si5 0.242199 0.621262 0.751399
O O1 0.715626 0.854606 0.848746
O O2 0.743259 0.064929 0.868889
O O3 0.715694 0.953482 0.059692
O O4 0.051422 0.944222 0.173768
O O5 0.579827 0.675031 0.641604
O O6 0.338320 0.809409 0.602490
O O7 0.449363 0.873459 0.476080
O O8 0.260444 0.532229 0.203575
O O9 0.040323 0.366518 0.113424
O O10 0.184469 0.748217 0.194870
#
# Coordination Sequence:
#
# PCOD9252785 Si02
#       5
#     4   4   4   4   4
#     4  11  25  47  73 109 148 193 242 308 369 436
#     4  12  25  47  76 108 144 197 246 301 375 441
#     4  11  26  50  76 107 151 196 247 310 372 448
#     4  11  26  48  76 108 147 198 248 306 377 442
#     4  11  25  46  73 108 148 190 248 305 369 436
#
# _framework density 22.974447999999999
#
# number of rings (size 3 to 8) (size 9 to 14) (size 15 to 20)
#    0.000    0.800    4.000    1.800    5.600    1.600 
#    3.600    0.000    0.000    0.000    0.000    0.000 
#    0.000    0.000    0.000    0.000    0.000    0.000 
#
# Total GULP energy -111985.153338 kJ/mol
# GULP energy per Si atom -5599.257667 kJ/mol
# Density = 2.292216 g / cm^3
# Si number density = 22.974448 Si / 1000 Ang^3
#
#
#
# Elastic Constant Matrix: (Units=GPa)
#
#
# Indices 1 2 3 4 5 6 
#
# 1 122.0779 63.5531 46.1772 0.0000 -0.2972 0.0000
# 2 63.5531 122.8873 25.2067 0.0000 -8.3220 0.0000
# 3 46.1772 25.2067 106.9647 0.0000 -3.2537 0.0000
# 4 0.0000 0.0000 0.0000 41.1866 0.0000 -1.3998
# 5 -0.2972 -8.3220 -3.2537 0.0000 28.7533 0.0000
# 6 0.0000 0.0000 0.0000 -1.3998 0.0000 36.6852
#
#
#
# Elastic Compliance Matrix: (Units=1/GPa)
#
#
# Indices 1 2 3 4 5 6 
#
# 1 0.012870 -0.005930 -0.004221 0.000000 -0.002061 0.000000
# 2 -0.005930 0.011431 -0.000035 0.000000 0.003243 0.000000
# 3 -0.004221 -0.000035 0.011217 0.000000 0.001215 0.000000
# 4 0.000000 0.000000 0.000000 0.024311 0.000000 0.000928
# 5 -0.002061 0.003243 0.001215 0.000000 0.035833 0.000000
# 6 0.000000 0.000000 0.000000 0.000928 0.000000 0.027294
#
#
# Mechanical properties :
#
#
# Convention : Reuss Voigt Hill
#
# Bulk Modulus (GPa) = 66.02827 69.08932 67.55879
# Shear Modulus (GPa) = 33.69768 35.79123 34.74446
#
# Velocity S-wave (km/s) = 3.83397 3.95127 3.89306
# Velocity P-wave (km/s) = 6.95711 7.13822 7.04825
#
# Compressibility (1/GPa) = 0.01514503
#
# Stress axis : x y z
#
# Youngs Moduli (GPa) = 77.69848 87.48111 89.15370
#
# Poissons Ratio (x) = 0.51874 0.37636
# Poissons Ratio (y) = 0.46073 0.00314
# Poissons Ratio (z) = 0.32800 0.00308
#
# Static dielectric constant tensor:
#      x y z
#    x 1.841960 0.000000 0.003010 
#    y 0.000000 1.821750 0.000000 
#    z 0.003010 0.000000 1.871820 
# 
# From -- ./inp_files/29264.got.cif
#   From: 2010.05.17/outbox.cif.g08.bks.cpg/sg14_15_cif.got.tgz:29264.got - 2010.06.03 17:49:19.
