data_PCOD9252831
_publ_section_title
;
Structure prediction by ZEFSAII (Michael W. Deem and Ramdas Pophale) SiO2 
 PCOD9252831
Probable space group: P 21/C
;
_chemical_formula_sum "Si O2"
_cell_formula_units_Z 12
_cell_length_a 8.569543
_cell_length_b 5.056308
_cell_length_c 17.908292
_cell_angle_alpha 90.000000
_cell_angle_beta 35.939151
_cell_angle_gamma 90.000000
_cell_volume 455.437200
_symmetry_space_group_name_H-M "P 21/C"
_symmetry_group_IT_number 14
_symmetry_cell_setting 'monoclinic'
loop_
_space_group_symop_operation_xyz
x,y,z
-x,1/2+y,1/2-z
-x,-y,-z
x,1/2-y,1/2+z
loop_
_atom_site_type_symbol
_atom_site_label
_atom_site_fract_x
_atom_site_fract_y
_atom_site_fract_z
Si Si1 0.835659 0.387470 0.156125
Si Si2 0.852758 0.745380 0.775336
Si Si3 0.606606 0.546237 0.089948
O O1 0.855897 0.677916 0.186078
O O2 0.732669 0.392079 0.111677
O O3 0.619792 0.232961 0.288011
O O4 0.142308 0.297156 0.040092
O O5 0.550972 0.647632 0.904346
O O6 0.047787 0.510278 0.723276
#
# Coordination Sequence:
#
# PCOD9252831 Si02
#       3
#     4   4   4
#     4  11  25  47  77 110 149 198 256 310 366 445
#     4  12  26  48  72 116 156 194 240 312 382 444
#     4  11  25  47  77 110 149 198 256 310 366 445
#
# _framework density 26.348310000000001
#
# number of rings (size 3 to 8) (size 9 to 14) (size 15 to 20)
#    0.000    0.667    6.667    0.000    0.000    6.667 
#    0.000    0.000    0.000    0.000    0.000    0.000 
#    0.000    0.000    0.000    0.000    0.000    0.000 
#
# Total GULP energy -67170.786135 kJ/mol
# GULP energy per Si atom -5597.565511 kJ/mol
# Density = 2.628834 g / cm^3
# Si number density = 26.348310 Si / 1000 Ang^3
#
#
#
# Elastic Constant Matrix: (Units=GPa)
#
#
# Indices 1 2 3 4 5 6 
#
# 1 114.5538 33.3037 12.5232 0.0000 -35.3488 0.0000
# 2 33.3037 113.5626 41.8538 0.0000 -19.0831 0.0000
# 3 12.5232 41.8538 188.7857 0.0000 -43.3862 0.0000
# 4 0.0000 0.0000 0.0000 38.9736 0.0000 4.6921
# 5 -35.3488 -19.0831 -43.3862 0.0000 54.1463 0.0000
# 6 0.0000 0.0000 0.0000 4.6921 0.0000 49.7807
#
#
#
# Elastic Compliance Matrix: (Units=1/GPa)
#
#
# Indices 1 2 3 4 5 6 
#
# 1 0.011845 -0.002730 0.001686 0.000000 0.008122 0.000000
# 2 -0.002730 0.010409 -0.002075 0.000000 0.000223 0.000000
# 3 0.001686 -0.002075 0.007023 0.000000 0.005997 0.000000
# 4 0.000000 0.000000 0.000000 0.025953 0.000000 -0.002446
# 5 0.008122 0.000223 0.005997 0.000000 0.028655 0.000000
# 6 0.000000 0.000000 0.000000 -0.002446 0.000000 0.020319
#
#
# Mechanical properties :
#
#
# Convention : Reuss Voigt Hill
#
# Bulk Modulus (GPa) = 43.40586 65.80703 54.60644
# Shear Modulus (GPa) = 42.32907 50.52822 46.42864
#
# Velocity S-wave (km/s) = 4.01249 4.38391 4.20230
# Velocity P-wave (km/s) = 6.16250 7.11723 6.65700
#
# Compressibility (1/GPa) = 0.02303836
#
# Stress axis : x y z
#
# Youngs Moduli (GPa) = 84.42250 96.07297 142.37945
#
# Poissons Ratio (x) = 0.26232 -0.24006
# Poissons Ratio (y) = 0.23051 0.29547
# Poissons Ratio (z) = -0.14234 0.19937
#
# Static dielectric constant tensor:
#      x y z
#    x 2.096580 0.000000 0.045560 
#    y 0.000000 2.101370 0.000000 
#    z 0.045560 0.000000 2.117110 
# 
# From -- ./inp_files/7071.got.cif
#   From: 2010.05.17/outbox.cif.g08.bks.cpg/sg14_4_cif.got.tgz:7071.got - 2010.06.03 17:49:19.
