data_PCOD9252406
_publ_section_title
;
Structure prediction by ZEFSAII (Michael W. Deem and Ramdas Pophale) SiO2 
 PCOD9252406
Probable space group: P 21/C
;
_chemical_formula_sum "Si O2"
_cell_formula_units_Z 32
_cell_length_a 18.411495
_cell_length_b 15.107147
_cell_length_c 11.814448
_cell_angle_alpha 90.000000
_cell_angle_beta 150.934767
_cell_angle_gamma 90.000000
_cell_volume 1596.419422
_symmetry_space_group_name_H-M "P 21/C"
_symmetry_group_IT_number 14
_symmetry_cell_setting 'monoclinic'
loop_
_space_group_symop_operation_xyz
x,y,z
-x,1/2+y,1/2-z
-x,-y,-z
x,1/2-y,1/2+z
loop_
_atom_site_type_symbol
_atom_site_label
_atom_site_fract_x
_atom_site_fract_y
_atom_site_fract_z
Si Si1 0.770070 0.678048 0.449780
Si Si2 0.123789 0.672897 0.932900
Si Si3 0.135564 0.571317 0.184271
Si Si4 0.667480 0.915184 0.039442
Si Si5 0.671773 0.047117 0.431562
Si Si6 0.882840 0.369517 0.596579
Si Si7 0.669390 0.987862 0.688467
Si Si8 0.231713 0.122622 0.572985
O O1 0.733315 0.633155 0.519776
O O2 0.705399 0.614447 0.264669
O O3 0.714208 0.778600 0.380988
O O4 0.947293 0.680368 0.669702
O O5 0.176504 0.773847 0.022056
O O6 0.140207 0.619781 0.071846
O O7 0.206764 0.617282 0.948815
O O8 0.287886 0.517728 0.410432
O O9 0.115465 0.632762 0.264891
O O10 0.000000 0.500000 0.000000
O O11 0.490121 0.908408 0.803662
O O12 0.745332 0.885274 0.261196
O O13 0.687556 0.017041 0.583187
O O14 0.685426 0.958636 0.373999
O O15 0.782111 0.449694 0.413769
O O16 0.056458 0.384406 0.800341
O O17 0.500000 0.000000 0.500000
#
# Coordination Sequence:
#
# PCOD9252406 Si02
#       8
#     4   4   4   4   4   4   4   4
#     4  11  24  45  69  96 136 182 222 271 340 408
#     4  11  25  41  69 106 132 170 232 284 327 399
#     4  12  19  42  72  90 131 181 223 270 333 397
#     4  12  23  46  69  95 134 179 224 276 336 403
#     4  12  26  45  66 103 138 170 224 282 337 390
#     4  11  24  43  69 101 135 179 226 274 338 402
#     4  12  25  47  65  95 143 183 215 271 351 410
#     4  11  25  42  71 103 128 175 233 282 328 389
#
# _framework density 20.044857
#
# number of rings (size 3 to 8) (size 9 to 14) (size 15 to 20)
#    0.000    0.500    6.250    1.125    3.500    3.000 
#    2.250    0.000    0.000    0.000    0.000    0.000 
#    0.000    0.000    0.000    0.000    0.000    0.000 
#
# Total GULP energy -178837.855358 kJ/mol
# GULP energy per Si atom -5588.682980 kJ/mol
# Density = 1.999923 g / cm^3
# Si number density = 20.044857 Si / 1000 Ang^3
#
#
#
# Elastic Constant Matrix: (Units=GPa)
#
#
# Indices 1 2 3 4 5 6 
#
# 1 73.9602 8.9532 13.2438 0.0000 -5.1596 0.0000
# 2 8.9532 81.5079 12.8552 0.0000 7.3819 0.0000
# 3 13.2438 12.8552 55.8457 0.0000 6.1238 0.0000
# 4 0.0000 0.0000 0.0000 17.7467 0.0000 -9.9799
# 5 -5.1596 7.3819 6.1238 0.0000 33.3818 0.0000
# 6 0.0000 0.0000 0.0000 -9.9799 0.0000 17.7436
#
#
#
# Elastic Compliance Matrix: (Units=1/GPa)
#
#
# Indices 1 2 3 4 5 6 
#
# 1 0.014529 -0.001334 -0.003487 0.000000 0.003180 0.000000
# 2 -0.001334 0.013033 -0.002393 0.000000 -0.002649 0.000000
# 3 -0.003487 -0.002393 0.019681 0.000000 -0.003620 0.000000
# 4 0.000000 0.000000 0.000000 0.082417 0.000000 0.046356
# 5 0.003180 -0.002649 -0.003620 0.000000 0.031698 0.000000
# 6 0.000000 0.000000 0.000000 0.046356 0.000000 0.082432
#
#
# Mechanical properties :
#
#
# Convention : Reuss Voigt Hill
#
# Bulk Modulus (GPa) = 30.47470 31.26867 30.87168
# Shear Modulus (GPa) = 18.57663 25.52519 22.05091
#
# Velocity S-wave (km/s) = 3.04756 3.57235 3.32034
# Velocity P-wave (km/s) = 5.25545 5.71391 5.48947
#
# Compressibility (1/GPa) = 0.03281411
#
# Stress axis : x y z
#
# Youngs Moduli (GPa) = 68.83002 76.73047 50.80962
#
# Poissons Ratio (x) = 0.10235 0.17718
# Poissons Ratio (y) = 0.09181 0.12160
# Poissons Ratio (z) = 0.24002 0.18363
#
# Static dielectric constant tensor:
#      x y z
#    x 1.713370 0.000000 0.006390 
#    y 0.000000 1.723720 0.000000 
#    z 0.006390 0.000000 1.711540 
# 
# From -- ./inp_files/34179.got.cif
#   From: 2010.05.17/outbox.cif.g08.bks.cpg/sg14_18_cif.got.tgz:34179.got - 2010.06.03 17:49:19.
