data_PCOD9252401
_publ_section_title
;
Structure prediction by ZEFSAII (Michael W. Deem and Ramdas Pophale) SiO2 
 PCOD9252401
Probable space group: P 21/C
;
_chemical_formula_sum "Si O2"
_cell_formula_units_Z 16
_cell_length_a 9.643471
_cell_length_b 7.674685
_cell_length_c 9.350818
_cell_angle_alpha 90.000000
_cell_angle_beta 118.804976
_cell_angle_gamma 90.000000
_cell_volume 606.427556
_symmetry_space_group_name_H-M "P 21/C"
_symmetry_group_IT_number 14
_symmetry_cell_setting 'monoclinic'
loop_
_space_group_symop_operation_xyz
x,y,z
-x,1/2+y,1/2-z
-x,-y,-z
x,1/2-y,1/2+z
loop_
_atom_site_type_symbol
_atom_site_label
_atom_site_fract_x
_atom_site_fract_y
_atom_site_fract_z
Si Si1 0.905746 0.734302 0.910743
Si Si2 0.090083 0.590344 0.757794
Si Si3 0.397742 0.333453 0.597699
Si Si4 0.612589 0.267464 0.447993
O O1 0.738954 0.712048 0.906855
O O2 0.968109 0.590947 0.831162
O O3 0.888363 0.901520 0.798324
O O4 0.027033 0.792758 0.094763
O O5 0.248505 0.669453 0.902656
O O6 0.460039 0.277168 0.475181
O O7 0.338726 0.532846 0.560586
O O8 0.550505 0.324685 0.775314
#
# Coordination Sequence:
#
# PCOD9252401 Si02
#       4
#     4   4   4   4
#     4  11  24  43  67  95 131 172 217 267 325 386
#     4  11  24  44  67  96 132 169 216 271 324 387
#     4  11  24  43  68  99 133 173 217 267 325 386
#     4  11  24  43  68  98 134 172 216 268 324 387
#
# _framework density 26.384024
#
# number of rings (size 3 to 8) (size 9 to 14) (size 15 to 20)
#    0.000    1.000    0.000    7.500    0.000    9.000 
#    0.000    0.000    0.000    0.000    0.000    0.000 
#    0.000    0.000    0.000    0.000    0.000    0.000 
#
# Total GULP energy -89906.643032 kJ/mol
# GULP energy per Si atom -5619.165190 kJ/mol
# Density = 2.632397 g / cm^3
# Si number density = 26.384024 Si / 1000 Ang^3
#
#
#
# Elastic Constant Matrix: (Units=GPa)
#
#
# Indices 1 2 3 4 5 6 
#
# 1 117.7332 22.1947 -17.2564 0.0000 -21.8856 0.0000
# 2 22.1947 83.4450 12.4283 0.0000 -2.3774 0.0000
# 3 -17.2564 12.4283 126.5670 0.0000 3.5428 0.0000
# 4 0.0000 0.0000 0.0000 21.0250 0.0000 -9.5817
# 5 -21.8856 -2.3774 3.5428 0.0000 53.5949 0.0000
# 6 0.0000 0.0000 0.0000 -9.5817 0.0000 28.4489
#
#
#
# Elastic Compliance Matrix: (Units=1/GPa)
#
#
# Indices 1 2 3 4 5 6 
#
# 1 0.009952 -0.002764 0.001521 0.000000 0.003841 0.000000
# 2 -0.002764 0.012950 -0.001636 0.000000 -0.000446 0.000000
# 3 0.001521 -0.001636 0.008269 0.000000 0.000002 0.000000
# 4 0.000000 0.000000 0.000000 0.056187 0.000000 0.018924
# 5 0.003841 -0.000446 0.000002 0.000000 0.020207 0.000000
# 6 0.000000 0.000000 0.000000 0.018924 0.000000 0.041524
#
#
# Mechanical properties :
#
#
# Convention : Reuss Voigt Hill
#
# Bulk Modulus (GPa) = 39.35135 40.27537 39.81336
# Shear Modulus (GPa) = 30.61517 41.30568 35.96042
#
# Velocity S-wave (km/s) = 3.41011 3.96100 3.69584
# Velocity P-wave (km/s) = 5.51837 6.01811 5.77365
#
# Compressibility (1/GPa) = 0.02541209
#
# Stress axis : x y z
#
# Youngs Moduli (GPa) = 100.48541 77.21960 120.93520
#
# Poissons Ratio (x) = 0.21344 -0.18391
# Poissons Ratio (y) = 0.27774 0.19785
# Poissons Ratio (z) = -0.15281 0.12633
#
# Static dielectric constant tensor:
#      x y z
#    x 2.084630 0.000000 0.003610 
#    y 0.000000 2.051440 0.000000 
#    z 0.003610 0.000000 1.990560 
# 
# From -- ./inp_files/7347.got.cif
#   From: 2010.05.17/outbox.cif.g08.bks.cpg/sg14_4_cif.got.tgz:7347.got - 2010.06.03 17:49:19.
