data_PCOD9252753
_publ_section_title
;
Structure prediction by ZEFSAII (Michael W. Deem and Ramdas Pophale) SiO2 
 PCOD9252753
Probable space group: P 21/C
;
_chemical_formula_sum "Si O2"
_cell_formula_units_Z 20
_cell_length_a 8.524712
_cell_length_b 9.017691
_cell_length_c 20.659700
_cell_angle_alpha 90.000000
_cell_angle_beta 26.422550
_cell_angle_gamma 90.000000
_cell_volume 706.719468
_symmetry_space_group_name_H-M "P 21/C"
_symmetry_group_IT_number 14
_symmetry_cell_setting 'monoclinic'
loop_
_space_group_symop_operation_xyz
x,y,z
-x,1/2+y,1/2-z
-x,-y,-z
x,1/2-y,1/2+z
loop_
_atom_site_type_symbol
_atom_site_label
_atom_site_fract_x
_atom_site_fract_y
_atom_site_fract_z
Si Si1 0.188129 0.438131 0.305064
Si Si2 0.688131 0.561869 0.305064
Si Si3 0.750000 0.554961 0.000000
Si Si4 0.251981 0.718751 0.629282
Si Si5 0.751981 0.281249 0.629282
O O1 0.171563 0.596736 0.344724
O O2 0.402374 0.319498 0.268690
O O3 0.835180 0.373723 0.403190
O O4 0.452940 0.461978 0.145876
O O5 0.671564 0.403265 0.344723
O O6 0.335181 0.626277 0.403189
O O7 0.952941 0.538022 0.145875
O O8 0.902374 0.680502 0.268690
O O9 0.938204 0.661659 0.982568
O O10 0.561797 0.661660 0.017432
#
# Coordination Sequence:
#
# PCOD9252753 Si02
#       5
#     4   4   4   4   4
#     4  11  25  48  70 104 142 180 232 287 341 412
#     4  11  25  48  70 104 142 180 232 287 341 412
#     4  12  24  46  78  98 138 192 220 290 352 398
#     4  11  25  45  74 102 140 181 234 284 340 416
#     4  11  25  45  74 102 140 181 234 284 340 416
#
# _framework density 28.299772999999998
#
# number of rings (size 3 to 8) (size 9 to 14) (size 15 to 20)
#    0.000    0.800    4.000    2.400    0.000    1.600 
#    0.000    0.000    0.000    0.000    0.000    0.000 
#    0.000    0.000    0.000    0.000    0.000    0.000 
#
# Total GULP energy -112345.277312 kJ/mol
# GULP energy per Si atom -5617.263866 kJ/mol
# Density = 2.823536 g / cm^3
# Si number density = 28.299773 Si / 1000 Ang^3
#
#
#
# Elastic Constant Matrix: (Units=GPa)
#
#
# Indices 1 2 3 4 5 6 
#
# 1 111.0397 36.4872 42.7104 0.0000 -27.8398 0.0000
# 2 36.4872 167.5562 38.1174 0.0000 -13.3069 0.0000
# 3 42.7104 38.1174 82.6117 0.0000 -20.2455 0.0000
# 4 0.0000 0.0000 0.0000 56.0247 0.0000 -20.0903
# 5 -27.8398 -13.3069 -20.2455 0.0000 50.9499 0.0000
# 6 0.0000 0.0000 0.0000 -20.0903 0.0000 85.0916
#
#
#
# Elastic Compliance Matrix: (Units=1/GPa)
#
#
# Indices 1 2 3 4 5 6 
#
# 1 0.012371 -0.001264 -0.004694 0.000000 0.004564 0.000000
# 2 -0.001264 0.006812 -0.002463 0.000000 0.000110 0.000000
# 3 -0.004694 -0.002463 0.016488 0.000000 0.003343 0.000000
# 4 0.000000 0.000000 0.000000 0.019500 0.000000 0.004604
# 5 0.004564 0.000110 0.003343 0.000000 0.023478 0.000000
# 6 0.000000 0.000000 0.000000 0.004604 0.000000 0.012839
#
#
# Mechanical properties :
#
#
# Convention : Reuss Voigt Hill
#
# Bulk Modulus (GPa) = 53.10880 66.20418 59.65649
# Shear Modulus (GPa) = 43.62755 54.67274 49.15014
#
# Velocity S-wave (km/s) = 3.93061 4.40012 4.17198
# Velocity P-wave (km/s) = 6.27749 7.01851 6.65831
#
# Compressibility (1/GPa) = 0.01882927
#
# Stress axis : x y z
#
# Youngs Moduli (GPa) = 80.83461 146.79214 60.65199
#
# Poissons Ratio (x) = 0.18548 0.28471
# Poissons Ratio (y) = 0.10214 0.14939
# Poissons Ratio (z) = 0.37945 0.36155
#
# Static dielectric constant tensor:
#      x y z
#    x 2.192460 0.000000 0.031780 
#    y 0.000000 2.110240 0.000000 
#    z 0.031780 0.000000 2.190510 
# 
# From -- ./inp_files/11814.got.cif
#   From: 2010.05.17/outbox.cif.g08.bks.cpg/sg14_6_cif.got.tgz:11814.got - 2010.06.03 17:49:19.
