data_PCOD9252882
_publ_section_title
;
Structure prediction by ZEFSAII (Michael W. Deem and Ramdas Pophale) SiO2 
 PCOD9252882
Probable space group: P 21/C
;
_chemical_formula_sum "Si O2"
_cell_formula_units_Z 22
_cell_length_a 17.179030
_cell_length_b 4.877889
_cell_length_c 28.413633
_cell_angle_alpha 90.000000
_cell_angle_beta 21.969349
_cell_angle_gamma 90.000000
_cell_volume 890.752918
_symmetry_space_group_name_H-M "P 21/C"
_symmetry_group_IT_number 14
_symmetry_cell_setting 'monoclinic'
loop_
_space_group_symop_operation_xyz
x,y,z
-x,1/2+y,1/2-z
-x,-y,-z
x,1/2-y,1/2+z
loop_
_atom_site_type_symbol
_atom_site_label
_atom_site_fract_x
_atom_site_fract_y
_atom_site_fract_z
Si Si1 0.190672 0.662286 0.527857
Si Si2 0.221943 0.131908 0.792817
Si Si3 0.542379 0.356252 0.379788
Si Si4 0.534980 0.768671 0.761760
Si Si5 0.942518 0.816199 0.753078
Si Si6 0.500000 0.500000 0.000000
O O1 0.314022 0.433897 0.488734
O O2 0.360803 0.796651 0.398739
O O3 0.007185 0.568876 0.596727
O O4 0.080198 0.847424 0.629125
O O5 0.329352 0.362002 0.698981
O O6 0.250509 0.237105 0.830008
O O7 0.348801 0.854588 0.715889
O O8 0.542978 0.210620 0.430053
O O9 0.509514 0.569347 0.732308
O O10 0.074877 0.610747 0.712683
O O11 0.727071 0.657423 0.865664
#
# Coordination Sequence:
#
# PCOD9252882 Si02
#       6
#     4   4   4   4   4   2
#     4  11  26  49  75 108 151 195 249 305 374 441
#     4  11  26  47  76 108 148 194 244 308 382 433
#     4  11  26  45  73 110 150 197 246 305 356 443
#     4  11  26  48  75 108 147 190 250 316 378 448
#     4  12  29  44  72 110 149 200 245 294 361 442
#     4  12  26  48  74 106 158 194 254 300 360 428
#
# _framework density 24.698205000000002
#
# number of rings (size 3 to 8) (size 9 to 14) (size 15 to 20)
#    0.000    0.727    3.636    2.182    7.636    8.727 
#    0.000    0.000    0.000    0.000    0.000    0.000 
#    0.000    0.000    0.000    0.000    0.000    0.000 
#
# Total GULP energy -122636.045713 kJ/mol
# GULP energy per Si atom -5574.365714 kJ/mol
# Density = 2.464199 g / cm^3
# Si number density = 24.698205 Si / 1000 Ang^3
#
#
#
# Elastic Constant Matrix: (Units=GPa)
#
#
# Indices 1 2 3 4 5 6 
#
# 1 124.3526 17.8220 10.9742 0.0000 -22.7929 0.0000
# 2 17.8220 83.1217 -2.3459 0.0000 -14.5071 0.0000
# 3 10.9742 -2.3459 64.5003 0.0000 -2.4358 0.0000
# 4 0.0000 0.0000 0.0000 -6.7930 0.0000 6.6237
# 5 -22.7929 -14.5071 -2.4358 0.0000 32.8297 0.0000
# 6 0.0000 0.0000 0.0000 6.6237 0.0000 45.0082
#
#
#
# Elastic Compliance Matrix: (Units=1/GPa)
#
#
# Indices 1 2 3 4 5 6 
#
# 1 0.009407 -0.001013 -0.001412 0.000000 0.005979 0.000000
# 2 -0.001013 0.013176 0.000847 0.000000 0.005182 0.000000
# 3 -0.001412 0.000847 0.015796 0.000000 0.000566 0.000000
# 4 0.000000 0.000000 0.000000 -0.128737 0.000000 0.018946
# 5 0.005979 0.005182 0.000566 0.000000 0.036943 0.000000
# 6 0.000000 0.000000 0.000000 0.018946 0.000000 0.019430
#
#
# Mechanical properties :
#
#
# Convention : Reuss Voigt Hill
#
# Bulk Modulus (GPa) = 28.38961 36.09724 32.24342
# Shear Modulus (GPa) = -261.94458 30.57727 -115.68366
#
# Velocity S-wave (km/s) = -10.30963 3.52239 -6.85132
# Velocity P-wave (km/s) = 11.41045 5.58480 7.03592
#
# Compressibility (1/GPa) = 0.03522416
#
# Stress axis : x y z
#
# Youngs Moduli (GPa) = 106.30017 75.89503 63.30639
#
# Poissons Ratio (x) = 0.07691 0.08937
# Poissons Ratio (y) = 0.10772 -0.05364
# Poissons Ratio (z) = 0.15006 -0.06431
#
# Static dielectric constant tensor:
#      x y z
#    x 2.026190 0.000000 -0.026590 
#    y 0.000000 1.919040 0.000000 
#    z -0.026590 0.000000 1.912950 
# 
# From -- ./inp_files/80273.got.cif
#   From: 2010.05.17/outbox.cif.g08.bks.cpg/sg14_41_cif.got.tgz:80273.got - 2010.06.03 17:49:19.
