data_PCOD9252742
_publ_section_title
;
Structure prediction by ZEFSAII (Michael W. Deem and Ramdas Pophale) SiO2 
 PCOD9252742
Probable space group: P 21/C
;
_chemical_formula_sum "Si O2"
_cell_formula_units_Z 20
_cell_length_a 16.375745
_cell_length_b 7.139021
_cell_length_c 13.933364
_cell_angle_alpha 90.000000
_cell_angle_beta 155.121197
_cell_angle_gamma 90.000000
_cell_volume 685.280613
_symmetry_space_group_name_H-M "P 21/C"
_symmetry_group_IT_number 14
_symmetry_cell_setting 'monoclinic'
loop_
_space_group_symop_operation_xyz
x,y,z
-x,1/2+y,1/2-z
-x,-y,-z
x,1/2-y,1/2+z
loop_
_atom_site_type_symbol
_atom_site_label
_atom_site_fract_x
_atom_site_fract_y
_atom_site_fract_z
Si Si1 0.500000 0.500000 0.000000
Si Si2 0.000000 0.500000 0.500000
Si Si3 0.099760 0.817741 0.467766
Si Si4 0.542244 0.744996 0.387026
Si Si5 0.599762 0.182259 0.967767
Si Si6 0.957755 0.744996 0.112973
O O1 0.620730 0.582750 0.033066
O O2 0.525816 0.287910 0.982657
O O3 0.974185 0.287911 0.517345
O O4 0.120732 0.417250 0.533069
O O5 0.312459 0.747417 0.665775
O O6 0.955556 0.777824 0.224982
O O7 0.116323 0.041150 0.493495
O O8 0.544443 0.777824 0.275017
O O9 0.616324 0.541150 0.493496
O O10 0.812460 0.252585 0.165776
#
# Coordination Sequence:
#
# PCOD9252742 Si02
#       6
#     2   2   4   4   4   4
#     4  12  24  44  70 102 140 184 228 288 348 422
#     4  12  24  44  70 102 140 184 228 288 348 422
#     4  11  25  45  71 104 140 184 236 290 348 415
#     4  11  25  45  71 104 140 184 236 290 348 415
#     4  11  25  45  71 104 140 184 236 290 348 415
#     4  11  25  45  71 104 140 184 236 290 348 415
#
# _framework density 29.185124999999999
#
# number of rings (size 3 to 8) (size 9 to 14) (size 15 to 20)
#    0.000    0.800    4.000    2.400    0.000    8.000 
#    0.000    0.000    0.000    0.000    0.000    0.000 
#    0.000    0.000    0.000    0.000    0.000    0.000 
#
# Total GULP energy -111560.376015 kJ/mol
# GULP energy per Si atom -5578.018801 kJ/mol
# Density = 2.911870 g / cm^3
# Si number density = 29.185125 Si / 1000 Ang^3
#
#
#
# Elastic Constant Matrix: (Units=GPa)
#
#
# Indices 1 2 3 4 5 6 
#
# 1 105.4361 31.1918 32.0030 0.0000 -33.8374 0.0000
# 2 31.1918 229.5224 16.0381 0.0000 -39.8202 0.0000
# 3 32.0030 16.0381 116.3163 0.0000 -26.3683 0.0000
# 4 0.0000 0.0000 0.0000 -97.0788 0.0000 -126.6272
# 5 -33.8374 -39.8202 -26.3683 0.0000 84.0125 0.0000
# 6 0.0000 0.0000 0.0000 -126.6272 0.0000 -29.8758
#
#
#
# Elastic Compliance Matrix: (Units=1/GPa)
#
#
# Indices 1 2 3 4 5 6 
#
# 1 0.011550 -0.000793 -0.002260 0.000000 0.003567 0.000000
# 2 -0.000793 0.004804 0.000000 0.000000 0.001958 0.000000
# 3 -0.002260 0.000000 0.009703 0.000000 0.002135 0.000000
# 4 0.000000 0.000000 0.000000 0.002275 0.000000 -0.009641
# 5 0.003567 0.001958 0.002135 0.000000 0.014937 0.000000
# 6 0.000000 0.000000 0.000000 -0.009641 0.000000 0.007391
#
#
# Mechanical properties :
#
#
# Convention : Reuss Voigt Hill
#
# Bulk Modulus (GPa) = 50.12407 67.74894 58.93650
# Shear Modulus (GPa) = 78.84319 16.21437 47.52878
#
# Velocity S-wave (km/s) = 5.20322 2.35961 4.03988
# Velocity P-wave (km/s) = 7.30136 5.53964 6.48064
#
# Compressibility (1/GPa) = 0.01995050
#
# Stress axis : x y z
#
# Youngs Moduli (GPa) = 86.58338 208.14721 103.06011
#
# Poissons Ratio (x) = 0.16503 0.23290
# Poissons Ratio (y) = 0.06865 0.00005
# Poissons Ratio (z) = 0.19567 0.00010
#
# Static dielectric constant tensor:
#      x y z
#    x 2.145440 0.000000 0.032400 
#    y 0.000000 1.902140 0.000000 
#    z 0.032400 0.000000 3.093520 
# 
# From -- ./inp_files/29932.got.cif
#   From: 2010.05.17/outbox.cif.g08.bks.cpg/sg14_15_cif.got.tgz:29932.got - 2010.06.03 17:49:19.
