data_PCOD9252697
_publ_section_title
;
Structure prediction by ZEFSAII (Michael W. Deem and Ramdas Pophale) SiO2 
 PCOD9252697
Probable space group: P 21/C
;
_chemical_formula_sum "Si O2"
_cell_formula_units_Z 28
_cell_length_a 13.975499
_cell_length_b 10.269212
_cell_length_c 9.333511
_cell_angle_alpha 90.000000
_cell_angle_beta 117.446547
_cell_angle_gamma 90.000000
_cell_volume 1188.746050
_symmetry_space_group_name_H-M "P 21/C"
_symmetry_group_IT_number 14
_symmetry_cell_setting 'monoclinic'
loop_
_space_group_symop_operation_xyz
x,y,z
-x,1/2+y,1/2-z
-x,-y,-z
x,1/2-y,1/2+z
loop_
_atom_site_type_symbol
_atom_site_label
_atom_site_fract_x
_atom_site_fract_y
_atom_site_fract_z
Si Si1 0.222948 0.155591 0.170902
Si Si2 0.325505 0.544137 0.929344
Si Si3 0.895478 0.667406 0.702222
Si Si4 0.440485 0.682994 0.440723
Si Si5 0.142097 0.799058 0.454719
Si Si6 0.208046 0.595518 0.286734
Si Si7 0.421269 0.180005 0.691202
O O1 0.283820 0.024035 0.256061
O O2 0.165269 0.208270 0.273817
O O3 0.313903 0.256340 0.181792
O O4 0.136238 0.147909 0.984568
O O5 0.393219 0.673021 0.943372
O O6 0.221877 0.591272 0.947335
O O7 0.391485 0.437472 0.064698
O O8 0.846652 0.543887 0.752367
O O9 0.021292 0.679490 0.818628
O O10 0.335164 0.595527 0.342470
O O11 0.504240 0.638039 0.624931
O O12 0.517393 0.708755 0.359126
O O13 0.186787 0.663730 0.424134
O O14 0.152084 0.811402 0.631514
#
# Coordination Sequence:
#
# PCOD9252697 Si02
#       7
#     4   4   4   4   4   4   4
#     4  12  26  45  69 106 141 183 246 289 353 430
#     4  11  25  45  70 100 147 179 236 303 345 432
#     4  12  27  46  75 103 145 191 236 296 359 423
#     4  11  25  43  71 101 138 185 236 283 360 419
#     4  11  26  47  74 102 145 184 240 296 363 412
#     4  11  26  46  71 108 140 186 242 295 348 435
#     4  12  23  44  68 101 134 188 225 290 358 414
#
# _framework density 23.554231999999999
#
# number of rings (size 3 to 8) (size 9 to 14) (size 15 to 20)
#    0.000    0.571    2.857    4.286    8.000    0.571 
#    0.000    2.857    0.000    0.000    0.000    0.000 
#    0.000    0.000    0.000    0.000    0.000    0.000 
#
# Total GULP energy -157026.017806 kJ/mol
# GULP energy per Si atom -5608.072065 kJ/mol
# Density = 2.350062 g / cm^3
# Si number density = 23.554232 Si / 1000 Ang^3
#
#
#
# Elastic Constant Matrix: (Units=GPa)
#
#
# Indices 1 2 3 4 5 6 
#
# 1 86.5225 26.1969 19.7387 0.0000 21.8627 0.0000
# 2 26.1969 57.1377 -1.0715 0.0000 2.5370 0.0000
# 3 19.7387 -1.0715 138.5544 0.0000 16.3165 0.0000
# 4 0.0000 0.0000 0.0000 31.7849 0.0000 1.3484
# 5 21.8627 2.5370 16.3165 0.0000 39.3303 0.0000
# 6 0.0000 0.0000 0.0000 1.3484 0.0000 16.1564
#
#
#
# Elastic Compliance Matrix: (Units=1/GPa)
#
#
# Indices 1 2 3 4 5 6 
#
# 1 0.015983 -0.007006 -0.001407 0.000000 -0.007849 0.000000
# 2 -0.007006 0.020633 0.000900 0.000000 0.002190 0.000000
# 3 -0.001407 0.000900 0.007716 0.000000 -0.002477 0.000000
# 4 0.000000 0.000000 0.000000 0.031573 0.000000 -0.002635
# 5 -0.007849 0.002190 -0.002477 0.000000 0.030675 0.000000
# 6 0.000000 0.000000 0.000000 -0.002635 0.000000 0.062115
#
#
# Mechanical properties :
#
#
# Convention : Reuss Voigt Hill
#
# Bulk Modulus (GPa) = 34.12172 41.32698 37.72435
# Shear Modulus (GPa) = 25.84096 33.27770 29.55933
#
# Velocity S-wave (km/s) = 3.31582 3.76282 3.54637
# Velocity P-wave (km/s) = 5.40161 6.03837 5.72885
#
# Compressibility (1/GPa) = 0.02930685
#
# Stress axis : x y z
#
# Youngs Moduli (GPa) = 62.56577 48.46525 129.59261
#
# Poissons Ratio (x) = 0.33955 0.18232
# Poissons Ratio (y) = 0.43833 -0.11660
# Poissons Ratio (z) = 0.08802 -0.04361
#
# Static dielectric constant tensor:
#      x y z
#    x 1.858960 0.000000 -0.028880 
#    y 0.000000 1.894790 0.000000 
#    z -0.028880 0.000000 1.877590 
# 
# From -- ./inp_files/15881.got.cif
#   From: 2010.05.17/outbox.cif.g08.bks.cpg/sg14_8_cif.got.tgz:15881.got - 2010.06.03 17:49:19.
