data_PCOD9252862
_publ_section_title
;
Structure prediction by ZEFSAII (Michael W. Deem and Ramdas Pophale) SiO2 
 PCOD9252862
Probable space group: P 21/C
;
_chemical_formula_sum "Si O2"
_cell_formula_units_Z 28
_cell_length_a 13.868851
_cell_length_b 7.395112
_cell_length_c 13.616833
_cell_angle_alpha 90.000000
_cell_angle_beta 130.316142
_cell_angle_gamma 90.000000
_cell_volume 1064.861850
_symmetry_space_group_name_H-M "P 21/C"
_symmetry_group_IT_number 14
_symmetry_cell_setting 'monoclinic'
loop_
_space_group_symop_operation_xyz
x,y,z
-x,1/2+y,1/2-z
-x,-y,-z
x,1/2-y,1/2+z
loop_
_atom_site_type_symbol
_atom_site_label
_atom_site_fract_x
_atom_site_fract_y
_atom_site_fract_z
Si Si1 0.901332 0.699076 0.446433
Si Si2 0.799477 0.558815 0.024023
Si Si3 0.468270 0.107243 0.866938
Si Si4 0.734021 0.260370 0.577861
Si Si5 0.464252 0.284446 0.139585
Si Si6 0.666471 0.546065 0.190800
Si Si7 0.983639 0.067246 0.167698
O O1 0.853006 0.888822 0.453827
O O2 0.778671 0.574498 0.342905
O O3 0.967219 0.608064 0.585676
O O4 0.976545 0.706635 0.393461
O O5 0.737103 0.362343 0.981750
O O6 0.909033 0.557777 0.178507
O O7 0.686856 0.697908 0.976936
O O8 0.470761 0.191886 0.760257
O O9 0.374220 0.245743 0.860978
O O10 0.608329 0.125979 0.002417
O O11 0.539245 0.106028 0.156568
O O12 0.721877 0.102039 0.651570
O O13 0.857803 0.381080 0.644390
O O14 0.537265 0.453262 0.140468
#
# Coordination Sequence:
#
# PCOD9252862 Si02
#       7
#     4   4   4   4   4   4   4
#     4  11  25  50  78 107 155 206 265 324 396 469
#     4  12  23  45  75 111 152 204 261 326 381 472
#     4  12  24  46  73 115 152 205 260 322 394 466
#     4  12  26  45  73 110 156 198 262 326 388 464
#     4  12  24  44  79 111 156 202 261 322 399 466
#     4  12  25  49  76 115 158 203 260 333 396 465
#     4  11  26  47  76 108 149 211 260 319 392 462
#
# _framework density 26.294488000000001
#
# number of rings (size 3 to 8) (size 9 to 14) (size 15 to 20)
#    0.000    0.286    5.714    3.000    2.000    1.143 
#    2.571    0.000    0.000    0.000    0.000    0.000 
#    0.000    0.000    0.000    0.000    0.000    0.000 
#
# Total GULP energy -156542.193378 kJ/mol
# GULP energy per Si atom -5590.792621 kJ/mol
# Density = 2.623464 g / cm^3
# Si number density = 26.294488 Si / 1000 Ang^3
#
#
#
# Elastic Constant Matrix: (Units=GPa)
#
#
# Indices 1 2 3 4 5 6 
#
# 1 93.1015 -17.9534 35.1225 0.0000 10.8238 0.0000
# 2 -17.9534 85.9002 16.5478 0.0000 3.1185 0.0000
# 3 35.1225 16.5478 112.4252 0.0000 21.8347 0.0000
# 4 0.0000 0.0000 0.0000 32.9387 0.0000 -4.3662
# 5 10.8238 3.1185 21.8347 0.0000 36.4640 0.0000
# 6 0.0000 0.0000 0.0000 -4.3662 0.0000 41.5094
#
#
#
# Elastic Compliance Matrix: (Units=1/GPa)
#
#
# Indices 1 2 3 4 5 6 
#
# 1 0.013292 0.003681 -0.004376 0.000000 -0.001640 0.000000
# 2 0.003681 0.013000 -0.002982 0.000000 -0.000419 0.000000
# 3 -0.004376 -0.002982 0.011767 0.000000 -0.005492 0.000000
# 4 0.000000 0.000000 0.000000 0.030789 0.000000 0.003239
# 5 -0.001640 -0.000419 -0.005492 0.000000 0.031236 0.000000
# 6 0.000000 0.000000 0.000000 0.003239 0.000000 0.024432
#
#
# Mechanical properties :
#
#
# Convention : Reuss Voigt Hill
#
# Bulk Modulus (GPa) = 32.56742 39.87342 36.22042
# Shear Modulus (GPa) = 35.18506 39.36308 37.27407
#
# Velocity S-wave (km/s) = 3.66199 3.87332 3.76914
# Velocity P-wave (km/s) = 5.50389 5.93300 5.72247
#
# Compressibility (1/GPa) = 0.03070553
#
# Stress axis : x y z
#
# Youngs Moduli (GPa) = 75.23231 76.92108 84.97996
#
# Poissons Ratio (x) = -0.28312 0.37185
# Poissons Ratio (y) = -0.27690 0.25341
# Poissons Ratio (z) = 0.32920 0.22938
#
# Static dielectric constant tensor:
#      x y z
#    x 2.107230 0.000000 -0.033450 
#    y 0.000000 2.129330 0.000000 
#    z -0.033450 0.000000 2.101970 
# 
# From -- ./inp_files/31664.got.cif
#   From: 2010.05.17/outbox.cif.g08.bks.cpg/sg14_16_cif.got.tgz:31664.got - 2010.06.03 17:49:19.
