data_PCOD9252776
_publ_section_title
;
Structure prediction by ZEFSAII (Michael W. Deem and Ramdas Pophale) SiO2 
 PCOD9252776
Probable space group: P 21/C
;
_chemical_formula_sum "Si O2"
_cell_formula_units_Z 20
_cell_length_a 10.339254
_cell_length_b 7.630387
_cell_length_c 10.605207
_cell_angle_alpha 90.000000
_cell_angle_beta 117.216889
_cell_angle_gamma 90.000000
_cell_volume 744.036471
_symmetry_space_group_name_H-M "P 21/C"
_symmetry_group_IT_number 14
_symmetry_cell_setting 'monoclinic'
loop_
_space_group_symop_operation_xyz
x,y,z
-x,1/2+y,1/2-z
-x,-y,-z
x,1/2-y,1/2+z
loop_
_atom_site_type_symbol
_atom_site_label
_atom_site_fract_x
_atom_site_fract_y
_atom_site_fract_z
Si Si1 0.068717 0.696660 0.428497
Si Si2 0.261656 0.459544 0.965693
Si Si3 0.178108 0.371753 0.321141
Si Si4 0.432206 0.977342 0.786911
Si Si5 0.699326 0.407138 0.287889
O O1 0.169380 0.866970 0.450938
O O2 0.103344 0.548930 0.338348
O O3 0.135244 0.618930 0.588371
O O4 0.912193 0.782245 0.333492
O O5 0.177533 0.276762 0.927416
O O6 0.311485 0.482969 0.843889
O O7 0.382626 0.459652 0.126020
O O8 0.340718 0.412505 0.346253
O O9 0.604011 0.007800 0.857717
O O10 0.371857 0.781671 0.771358
#
# Coordination Sequence:
#
# PCOD9252776 Si02
#       5
#     4   4   4   4   4
#     4  11  26  46  74 104 141 191 243 293 355 419
#     4  11  25  46  70 107 145 187 236 297 348 426
#     4  12  25  47  75 102 145 190 240 297 356 415
#     4  11  26  45  73 106 146 189 239 291 357 427
#     4  11  25  47  71 107 148 187 237 294 355 426
#
# _framework density 26.880400999999999
#
# number of rings (size 3 to 8) (size 9 to 14) (size 15 to 20)
#    0.000    0.800    4.000    1.800    5.600    8.000 
#    0.000    0.000    0.000    0.000    0.000    0.000 
#    0.000    0.000    0.000    0.000    0.000    0.000 
#
# Total GULP energy -112129.713427 kJ/mol
# GULP energy per Si atom -5606.485671 kJ/mol
# Density = 2.681922 g / cm^3
# Si number density = 26.880401 Si / 1000 Ang^3
#
#
#
# Elastic Constant Matrix: (Units=GPa)
#
#
# Indices 1 2 3 4 5 6 
#
# 1 65.4551 -11.3141 23.5371 0.0000 -7.0939 0.0000
# 2 -11.3141 131.1312 35.1487 0.0000 -0.8903 0.0000
# 3 23.5371 35.1487 107.7180 0.0000 -14.0794 0.0000
# 4 0.0000 0.0000 0.0000 32.9627 0.0000 15.5161
# 5 -7.0939 -0.8903 -14.0794 0.0000 35.0846 0.0000
# 6 0.0000 0.0000 0.0000 15.5161 0.0000 25.0535
#
#
#
# Elastic Compliance Matrix: (Units=1/GPa)
#
#
# Indices 1 2 3 4 5 6 
#
# 1 0.017562 0.002731 -0.004491 0.000000 0.001818 0.000000
# 2 0.002731 0.008811 -0.003557 0.000000 -0.000652 0.000000
# 3 -0.004491 -0.003557 0.011920 0.000000 0.003785 0.000000
# 4 0.000000 0.000000 0.000000 0.042820 0.000000 -0.026519
# 5 0.001818 -0.000652 0.003785 0.000000 0.030373 0.000000
# 6 0.000000 0.000000 0.000000 -0.026519 0.000000 0.056338
#
#
# Mechanical properties :
#
#
# Convention : Reuss Voigt Hill
#
# Bulk Modulus (GPa) = 36.15401 44.33863 40.24632
# Shear Modulus (GPa) = 26.64155 35.74901 31.19528
#
# Velocity S-wave (km/s) = 3.15161 3.65077 3.41034
# Velocity P-wave (km/s) = 5.16940 5.85674 5.52377
#
# Compressibility (1/GPa) = 0.02765945
#
# Stress axis : x y z
#
# Youngs Moduli (GPa) = 56.94202 113.49981 83.89129
#
# Poissons Ratio (x) = -0.31001 0.37675
# Poissons Ratio (y) = -0.15553 0.29839
# Poissons Ratio (z) = 0.25573 0.40371
#
# Static dielectric constant tensor:
#      x y z
#    x 2.104230 0.000000 0.030090 
#    y 0.000000 2.040460 0.000000 
#    z 0.030090 0.000000 2.113700 
# 
# From -- ./inp_files/27733.got.cif
#   From: 2010.05.17/outbox.cif.g08.bks.cpg/sg14_14_cif.got.tgz:27733.got - 2010.06.03 17:49:19.
