data_PCOD9252099
_publ_section_title
;
Structure prediction by ZEFSAII (Michael W. Deem and Ramdas Pophale) SiO2 
 PCOD9252099
Probable space group: P 21/C
;
_chemical_formula_sum "Si O2"
_cell_formula_units_Z 28
_cell_length_a 6.759973
_cell_length_b 29.065092
_cell_length_c 8.866790
_cell_angle_alpha 90.000000
_cell_angle_beta 130.119481
_cell_angle_gamma 90.000000
_cell_volume 1332.218655
_symmetry_space_group_name_H-M "P 21/C"
_symmetry_group_IT_number 14
_symmetry_cell_setting 'monoclinic'
loop_
_space_group_symop_operation_xyz
x,y,z
-x,1/2+y,1/2-z
-x,-y,-z
x,1/2-y,1/2+z
loop_
_atom_site_type_symbol
_atom_site_label
_atom_site_fract_x
_atom_site_fract_y
_atom_site_fract_z
Si Si1 0.096130 0.483561 0.884940
Si Si2 0.445866 0.651502 0.030851
Si Si3 0.664265 0.441943 0.191462
Si Si4 0.995061 0.308287 0.697317
Si Si5 0.992306 0.291101 0.338257
Si Si6 0.389562 0.551357 0.481366
Si Si7 0.512485 0.855106 0.921806
O O1 0.120292 0.525332 0.777706
O O2 0.886741 0.446563 0.734491
O O3 0.380305 0.463186 0.027375
O O4 0.000000 0.500000 0.000000
O O5 0.746016 0.662313 0.145636
O O6 0.444093 0.645608 0.210535
O O7 0.342006 0.606546 0.894714
O O8 0.258720 0.691276 0.876216
O O9 0.676253 0.440505 0.376822
O O10 0.967765 0.296059 0.506721
O O11 0.028803 0.261455 0.808050
O O12 0.737435 0.334999 0.617344
O O13 0.241005 0.322918 0.423446
O O14 0.500000 0.500000 0.500000
O O15 0.561010 0.592706 0.500902
#
# Coordination Sequence:
#
# PCOD9252099 Si02
#       7
#     4   4   4   4   4   4   4
#     4  11  23  43  64  91 127 172 223 272 330 390
#     4  11  25  43  69  98 136 177 225 278 338 399
#     4  11  25  41  66  94 129 176 222 278 328 393
#     4  11  24  46  69 102 136 173 222 275 345 408
#     4  11  25  43  72 101 134 176 220 279 340 410
#     4  12  25  42  66  95 134 180 223 276 334 391
#     4  11  26  44  67 100 139 176 227 278 335 407
#
# _framework density 21.017572000000001
#
# number of rings (size 3 to 8) (size 9 to 14) (size 15 to 20)
#    0.000    0.857    1.429    4.714    4.000    9.143 
#    0.000    0.000    0.000    0.000    0.000    0.000 
#    0.000    0.000    0.000    0.000    0.000    0.000 
#
# Total GULP energy -156584.446813 kJ/mol
# GULP energy per Si atom -5592.301672 kJ/mol
# Density = 2.096974 g / cm^3
# Si number density = 21.017572 Si / 1000 Ang^3
#
#
#
# Elastic Constant Matrix: (Units=GPa)
#
#
# Indices 1 2 3 4 5 6 
#
# 1 95.7460 27.8345 11.8234 0.0000 5.1719 0.0000
# 2 27.8345 90.8658 -3.2544 0.0000 -5.0231 0.0000
# 3 11.8234 -3.2544 68.0676 0.0000 -6.1325 0.0000
# 4 0.0000 0.0000 0.0000 39.6318 0.0000 2.5512
# 5 5.1719 -5.0231 -6.1325 0.0000 30.5967 0.0000
# 6 0.0000 0.0000 0.0000 2.5512 0.0000 36.0434
#
#
#
# Elastic Compliance Matrix: (Units=1/GPa)
#
#
# Indices 1 2 3 4 5 6 
#
# 1 0.012092 -0.003974 -0.002580 0.000000 -0.003213 0.000000
# 2 -0.003974 0.012446 0.001558 0.000000 0.003027 0.000000
# 3 -0.002580 0.001558 0.015557 0.000000 0.003810 0.000000
# 4 0.000000 0.000000 0.000000 0.025348 0.000000 -0.001794
# 5 -0.003213 0.003027 0.003810 0.000000 0.034487 0.000000
# 6 0.000000 0.000000 0.000000 -0.001794 0.000000 0.027871
#
#
# Mechanical properties :
#
#
# Convention : Reuss Voigt Hill
#
# Bulk Modulus (GPa) = 33.21928 36.38738 34.80333
# Shear Modulus (GPa) = 33.82335 35.80610 34.81472
#
# Velocity S-wave (km/s) = 4.01595 4.13198 4.07438
# Velocity P-wave (km/s) = 6.11094 6.33362 6.22328
#
# Compressibility (1/GPa) = 0.03010300
#
# Stress axis : x y z
#
# Youngs Moduli (GPa) = 82.70087 80.34867 64.27907
#
# Poissons Ratio (x) = 0.31931 0.16583
# Poissons Ratio (y) = 0.32866 -0.10015
# Poissons Ratio (z) = 0.21336 -0.12519
#
# Static dielectric constant tensor:
#      x y z
#    x 1.723360 0.000000 -0.005860 
#    y 0.000000 1.755320 0.000000 
#    z -0.005860 0.000000 1.728650 
# 
# From -- ./inp_files/7019.got.cif
#   From: 2010.05.17/outbox.cif.g08.bks.cpg/sg14_4_cif.got.tgz:7019.got - 2010.06.03 17:49:19.
