data_PCOD9252041
_publ_section_title
;
Structure prediction by ZEFSAII (Michael W. Deem and Ramdas Pophale) SiO2 
 PCOD9252041
Probable space group: P 21/C
;
_chemical_formula_sum "Si O2"
_cell_formula_units_Z 26
_cell_length_a 7.415282
_cell_length_b 11.362531
_cell_length_c 15.664403
_cell_angle_alpha 90.000000
_cell_angle_beta 62.073420
_cell_angle_gamma 90.000000
_cell_volume 1166.130016
_symmetry_space_group_name_H-M "P 21/C"
_symmetry_group_IT_number 14
_symmetry_cell_setting 'monoclinic'
loop_
_space_group_symop_operation_xyz
x,y,z
-x,1/2+y,1/2-z
-x,-y,-z
x,1/2-y,1/2+z
loop_
_atom_site_type_symbol
_atom_site_label
_atom_site_fract_x
_atom_site_fract_y
_atom_site_fract_z
Si Si1 0.863282 0.063894 0.352687
Si Si2 0.666342 0.313052 0.042950
Si Si3 0.148993 0.419448 0.631132
Si Si4 0.430325 0.563056 0.375117
Si Si5 0.768474 0.825311 0.459832
Si Si6 0.568391 0.949773 0.651241
Si Si7 0.000000 0.500000 0.500000
O O1 0.833771 0.158357 0.434401
O O2 0.649482 0.059176 0.348536
O O3 0.035579 0.090263 0.246489
O O4 0.883763 0.937105 0.393679
O O5 0.684172 0.187566 0.082812
O O6 0.448029 0.316719 0.042512
O O7 0.658056 0.421315 0.110313
O O8 0.382165 0.447403 0.601682
O O9 0.123346 0.296548 0.585377
O O10 0.043552 0.512880 0.593301
O O11 0.524896 0.565020 0.259938
O O12 0.248172 0.472740 0.429921
O O13 0.713269 0.857204 0.569528
#
# Coordination Sequence:
#
# PCOD9252041 Si02
#       7
#     4   4   4   4   4   4   2
#     4   9  17  39  65  91 126 170 212 258 311 370
#     4   8  18  37  65  91 127 169 213 257 308 375
#     4  11  23  42  63  95 128 163 209 259 319 370
#     4  11  23  42  63  95 128 163 209 259 319 370
#     4   8  18  37  65  91 127 169 213 257 308 375
#     4   9  17  39  65  91 126 170 212 258 311 370
#     4  12  26  44  60  86 128 162 202 254 324 374
#
# _framework density 22.295970000000001
#
# number of rings (size 3 to 8) (size 9 to 14) (size 15 to 20)
#    0.000    2.462    1.538    2.308    0.000    2.462 
#   11.077    4.615    0.000    0.000    0.000    0.000 
#    0.000    0.000    0.000    0.000    0.000    0.000 
#
# Total GULP energy -144759.703539 kJ/mol
# GULP energy per Si atom -5567.680905 kJ/mol
# Density = 2.224522 g / cm^3
# Si number density = 22.295970 Si / 1000 Ang^3
#
#
#
# Elastic Constant Matrix: (Units=GPa)
#
#
# Indices 1 2 3 4 5 6 
#
# 1 89.7577 0.7575 -9.5110 0.0000 -1.6339 0.0000
# 2 0.7575 54.5003 40.3797 0.0000 -2.8372 0.0000
# 3 -9.5110 40.3797 156.5277 0.0000 -8.8980 0.0000
# 4 0.0000 0.0000 0.0000 16.9365 0.0000 15.1008
# 5 -1.6339 -2.8372 -8.8980 0.0000 32.7384 0.0000
# 6 0.0000 0.0000 0.0000 15.1008 0.0000 -64.2527
#
#
#
# Elastic Compliance Matrix: (Units=1/GPa)
#
#
# Indices 1 2 3 4 5 6 
#
# 1 0.011261 -0.000811 0.000936 0.000000 0.000746 0.000000
# 2 -0.000811 0.022747 -0.005899 0.000000 0.000328 0.000000
# 3 0.000936 -0.005899 0.008065 0.000000 0.001728 0.000000
# 4 0.000000 0.000000 0.000000 0.048815 0.000000 0.011473
# 5 0.000746 0.000328 0.001728 0.000000 0.031080 0.000000
# 6 0.000000 0.000000 0.000000 0.011473 0.000000 -0.012867
#
#
# Mechanical properties :
#
#
# Convention : Reuss Voigt Hill
#
# Bulk Modulus (GPa) = 32.75956 40.44867 36.60412
# Shear Modulus (GPa) = 38.21907 15.02841 26.62374
#
# Velocity S-wave (km/s) = 4.14474 2.59905 3.45933
# Velocity P-wave (km/s) = 6.13434 5.21419 5.69289
#
# Compressibility (1/GPa) = 0.03052544
#
# Stress axis : x y z
#
# Youngs Moduli (GPa) = 88.80446 43.96120 123.98569
#
# Poissons Ratio (x) = 0.03566 -0.11603
# Poissons Ratio (y) = 0.07203 0.73137
# Poissons Ratio (z) = -0.08311 0.25932
#
# Static dielectric constant tensor:
#      x y z
#    x 1.900700 0.000000 -0.004020 
#    y 0.000000 1.943760 0.000000 
#    z -0.004020 0.000000 1.808880 
# 
# From -- ./inp_files/39950.got.cif
#   From: 2010.05.17/outbox.cif.g08.bks.cpg/sg14_20_cif.got.tgz:39950.got - 2010.06.03 17:49:19.
