data_PCOD9252192
_publ_section_title
;
Structure prediction by ZEFSAII (Michael W. Deem and Ramdas Pophale) SiO2 
 PCOD9252192
Probable space group: P 21/C
;
_chemical_formula_sum "Si O2"
_cell_formula_units_Z 24
_cell_length_a 16.585869
_cell_length_b 6.396947
_cell_length_c 9.793237
_cell_angle_alpha 90.000000
_cell_angle_beta 103.080321
_cell_angle_gamma 90.000000
_cell_volume 1012.092423
_symmetry_space_group_name_H-M "P 21/C"
_symmetry_group_IT_number 14
_symmetry_cell_setting 'monoclinic'
loop_
_space_group_symop_operation_xyz
x,y,z
-x,1/2+y,1/2-z
-x,-y,-z
x,1/2-y,1/2+z
loop_
_atom_site_type_symbol
_atom_site_label
_atom_site_fract_x
_atom_site_fract_y
_atom_site_fract_z
Si Si1 0.703502 0.831548 0.072694
Si Si2 0.215423 0.794954 0.057588
Si Si3 0.613503 0.059605 0.424241
Si Si4 0.085444 0.064235 0.465120
Si Si5 0.149904 0.383380 0.715523
Si Si6 0.436122 0.617114 0.377322
O O1 0.764250 0.696305 0.187807
O O2 0.645302 0.975595 0.140417
O O3 0.644557 0.676861 0.962148
O O4 0.761312 0.993735 0.013955
O O5 0.304335 0.683547 0.093385
O O6 0.150117 0.627320 0.978941
O O7 0.171125 0.882695 0.175777
O O8 0.547338 0.107431 0.278357
O O9 0.582929 0.162103 0.555648
O O10 0.123225 0.238614 0.579572
O O11 0.081055 0.138188 0.306984
O O12 0.000000 0.000000 0.500000
O O13 0.500000 0.500000 0.500000
#
# Coordination Sequence:
#
# PCOD9252192 Si02
#       6
#     4   4   4   4   4   4
#     4  11  23  45  76 102 135 188 245 294 351 429
#     4  11  23  44  75 100 138 184 242 289 359 425
#     4  11  24  47  72 104 140 187 247 293 359 429
#     4  12  30  45  73 108 145 187 234 302 365 435
#     4  12  25  48  71 104 142 186 241 295 360 431
#     4  11  27  43  71 105 146 190 235 301 366 423
#
# _framework density 23.713248
#
# number of rings (size 3 to 8) (size 9 to 14) (size 15 to 20)
#    0.000    0.667    3.333    3.000    9.333    2.667 
#    0.000    0.000    0.000    0.000    0.000    0.000 
#    0.000    0.000    0.000    0.000    0.000    0.000 
#
# Total GULP energy -134192.166173 kJ/mol
# GULP energy per Si atom -5591.340257 kJ/mol
# Density = 2.365928 g / cm^3
# Si number density = 23.713248 Si / 1000 Ang^3
#
#
#
# Elastic Constant Matrix: (Units=GPa)
#
#
# Indices 1 2 3 4 5 6 
#
# 1 47.4938 14.7101 -0.2821 0.0000 -9.8805 0.0000
# 2 14.7101 101.6679 33.1938 0.0000 -15.2386 0.0000
# 3 -0.2821 33.1938 73.3267 0.0000 -31.7026 0.0000
# 4 0.0000 0.0000 0.0000 34.1944 0.0000 -10.0885
# 5 -9.8805 -15.2386 -31.7026 0.0000 35.3671 0.0000
# 6 0.0000 0.0000 0.0000 -10.0885 0.0000 34.8589
#
#
#
# Elastic Compliance Matrix: (Units=1/GPa)
#
#
# Indices 1 2 3 4 5 6 
#
# 1 0.024710 -0.004117 0.006819 0.000000 0.011242 0.000000
# 2 -0.004117 0.012232 -0.006158 0.000000 -0.001400 0.000000
# 3 0.006819 -0.006158 0.026334 0.000000 0.022857 0.000000
# 4 0.000000 0.000000 0.000000 0.031975 0.000000 0.009254
# 5 0.011242 -0.001400 0.022857 0.000000 0.051301 0.000000
# 6 0.000000 0.000000 0.000000 0.009254 0.000000 0.031365
#
#
# Mechanical properties :
#
#
# Convention : Reuss Voigt Hill
#
# Bulk Modulus (GPa) = 17.74191 35.30353 26.52272
# Shear Modulus (GPa) = 24.55595 32.54184 28.54890
#
# Velocity S-wave (km/s) = 3.22147 3.70848 3.47352
# Velocity P-wave (km/s) = 4.61901 5.76690 5.22458
#
# Compressibility (1/GPa) = 0.05636371
#
# Stress axis : x y z
#
# Youngs Moduli (GPa) = 40.47003 81.74983 37.97413
#
# Poissons Ratio (x) = 0.33652 -0.25894
# Poissons Ratio (y) = 0.16660 0.23386
# Poissons Ratio (z) = -0.27596 0.50345
#
# Static dielectric constant tensor:
#      x y z
#    x 2.228310 0.000000 0.003890 
#    y 0.000000 1.902980 0.000000 
#    z 0.003890 0.000000 2.060890 
# 
# From -- ./inp_files/33406.got.cif
#   From: 2010.05.17/outbox.cif.g08.bks.cpg/sg14_17_cif.got.tgz:33406.got - 2010.06.03 17:49:19.
