data_PCOD9252110
_publ_section_title
;
Structure prediction by ZEFSAII (Michael W. Deem and Ramdas Pophale) SiO2 
 PCOD9252110
Probable space group: P 21/C
;
_chemical_formula_sum "Si O2"
_cell_formula_units_Z 24
_cell_length_a 9.875438
_cell_length_b 9.843749
_cell_length_c 13.480867
_cell_angle_alpha 90.000000
_cell_angle_beta 130.560239
_cell_angle_gamma 90.000000
_cell_volume 995.611366
_symmetry_space_group_name_H-M "P 21/C"
_symmetry_group_IT_number 14
_symmetry_cell_setting 'monoclinic'
loop_
_space_group_symop_operation_xyz
x,y,z
-x,1/2+y,1/2-z
-x,-y,-z
x,1/2-y,1/2+z
loop_
_atom_site_type_symbol
_atom_site_label
_atom_site_fract_x
_atom_site_fract_y
_atom_site_fract_z
Si Si1 0.095196 0.383931 0.374072
Si Si2 0.762639 0.387760 0.071953
Si Si3 0.670761 0.552991 0.694897
Si Si4 0.394057 0.738217 0.824190
Si Si5 0.734076 0.377056 0.434106
Si Si6 0.767514 0.845994 0.445649
O O1 0.260314 0.384631 0.374549
O O2 0.136903 0.503158 0.470930
O O3 0.085425 0.242631 0.428616
O O4 0.928412 0.410770 0.224026
O O5 0.606914 0.340812 0.072405
O O6 0.795394 0.260669 0.015975
O O7 0.730113 0.517800 0.989301
O O8 0.681403 0.389360 0.696491
O O9 0.465970 0.589185 0.621596
O O10 0.788588 0.610967 0.841986
O O11 0.285365 0.651001 0.691501
O O12 0.590180 0.746332 0.870119
#
# Coordination Sequence:
#
# PCOD9252110 Si02
#       6
#     4   4   4   4   4   4
#     4  12  25  42  67  96 133 173 209 262 329 386
#     4  12  25  41  65  99 132 168 212 266 320 382
#     4  11  23  44  72  91 128 176 212 266 324 376
#     4  11  23  43  71  94 127 172 217 269 315 374
#     4  11  23  43  69  95 126 170 223 257 316 388
#     4  11  25  42  66 103 124 165 227 265 311 381
#
# _framework density 24.105791
#
# number of rings (size 3 to 8) (size 9 to 14) (size 15 to 20)
#    0.000    0.667    5.000    3.000    0.000    4.000 
#    0.000    0.000    0.000    0.000    0.000    0.000 
#    0.000    0.000    0.000    0.000    0.000    0.000 
#
# Total GULP energy -134497.191509 kJ/mol
# GULP energy per Si atom -5604.049646 kJ/mol
# Density = 2.405092 g / cm^3
# Si number density = 24.105791 Si / 1000 Ang^3
#
#
#
# Elastic Constant Matrix: (Units=GPa)
#
#
# Indices 1 2 3 4 5 6 
#
# 1 56.6589 7.6409 6.1606 0.0000 -6.7889 0.0000
# 2 7.6409 119.9777 35.7002 0.0000 -14.7789 0.0000
# 3 6.1606 35.7002 111.8522 0.0000 -31.4390 0.0000
# 4 0.0000 0.0000 0.0000 56.7429 0.0000 -4.3616
# 5 -6.7889 -14.7789 -31.4390 0.0000 37.5262 0.0000
# 6 0.0000 0.0000 0.0000 -4.3616 0.0000 4.9737
#
#
#
# Elastic Compliance Matrix: (Units=1/GPa)
#
#
# Indices 1 2 3 4 5 6 
#
# 1 0.018112 -0.000813 0.000121 0.000000 0.003058 0.000000
# 2 -0.000813 0.009313 -0.002535 0.000000 0.001397 0.000000
# 3 0.000121 -0.002535 0.012385 0.000000 0.009399 0.000000
# 4 0.000000 0.000000 0.000000 0.018897 0.000000 0.016571
# 5 0.003058 0.001397 0.009399 0.000000 0.035626 0.000000
# 6 0.000000 0.000000 0.000000 0.016571 0.000000 0.215588
#
#
# Mechanical properties :
#
#
# Convention : Reuss Voigt Hill
#
# Bulk Modulus (GPa) = 29.97862 43.05468 36.51665
# Shear Modulus (GPa) = 15.26748 35.78104 25.52426
#
# Velocity S-wave (km/s) = 2.51938 3.85689 3.25752
# Velocity P-wave (km/s) = 4.57453 6.14277 5.41571
#
# Compressibility (1/GPa) = 0.03335710
#
# Stress axis : x y z
#
# Youngs Moduli (GPa) = 55.21096 107.37626 80.74444
#
# Poissons Ratio (x) = 0.08729 -0.00981
# Poissons Ratio (y) = 0.04488 0.20469
# Poissons Ratio (z) = -0.00671 0.27221
#
# Static dielectric constant tensor:
#      x y z
#    x 1.982140 0.000000 0.051920 
#    y 0.000000 1.851380 0.000000 
#    z 0.051920 0.000000 1.893490 
# 
# From -- ./inp_files/28770.got.cif
#   From: 2010.05.17/outbox.cif.g08.bks.cpg/sg14_15_cif.got.tgz:28770.got - 2010.06.03 17:49:19.
