data_PCOD9252893
_publ_section_title
;
Structure prediction by ZEFSAII (Michael W. Deem and Ramdas Pophale) SiO2 
 PCOD9252893
Probable space group: P 21/C
;
_chemical_formula_sum "Si O2"
_cell_formula_units_Z 30
_cell_length_a 13.463560
_cell_length_b 12.223589
_cell_length_c 8.480969
_cell_angle_alpha 90.000000
_cell_angle_beta 110.328400
_cell_angle_gamma 90.000000
_cell_volume 1308.807714
_symmetry_space_group_name_H-M "P 21/C"
_symmetry_group_IT_number 14
_symmetry_cell_setting 'monoclinic'
loop_
_space_group_symop_operation_xyz
x,y,z
-x,1/2+y,1/2-z
-x,-y,-z
x,1/2-y,1/2+z
loop_
_atom_site_type_symbol
_atom_site_label
_atom_site_fract_x
_atom_site_fract_y
_atom_site_fract_z
Si Si1 0.907285 0.764984 0.490436
Si Si2 0.040405 0.572310 0.670569
Si Si3 0.607721 0.894608 0.132514
Si Si4 0.273715 0.822401 0.292965
Si Si5 0.360157 0.880237 0.997893
Si Si6 0.000000 0.500000 0.000000
Si Si7 0.245494 0.314248 0.840185
Si Si8 0.385733 0.498124 0.013938
O O1 0.801565 0.812479 0.511472
O O2 0.857610 0.694476 0.322589
O O3 0.964285 0.677694 0.631207
O O4 0.980402 0.866438 0.487762
O O5 0.157144 0.625672 0.715242
O O6 0.000000 0.500000 0.500000
O O7 0.031631 0.505572 0.827685
O O8 0.678776 0.788606 0.146948
O O9 0.609344 0.946998 0.309071
O O10 0.652020 0.990897 0.044610
O O11 0.485361 0.863116 0.030375
O O12 0.286062 0.694711 0.345012
O O13 0.333470 0.883247 0.470771
O O14 0.333727 0.849751 0.163152
O O15 0.313152 0.422570 0.862737
O O16 0.500000 0.500000 0.000000
#
# Coordination Sequence:
#
# PCOD9252893 Si02
#       8
#     4   4   4   4   4   2   4   4
#     4  12  26  49  75 113 149 202 263 321 391 468
#     4  12  30  51  81 113 160 207 267 336 399 474
#     4  11  26  46  74 108 154 198 246 317 381 475
#     4  12  27  47  76 109 152 199 258 319 382 470
#     4  11  27  47  72 111 150 200 250 311 390 460
#     4  12  28  52  80 110 160 204 264 332 398 472
#     4  12  26  45  77 110 147 195 253 318 382 463
#     4  12  24  46  74 108 147 198 253 314 385 465
#
# _framework density 22.921626
#
# number of rings (size 3 to 8) (size 9 to 14) (size 15 to 20)
#    0.000    0.267    4.000    4.000    5.600    1.067 
#    0.000    0.000    0.000    0.000    0.000    0.000 
#    0.000    0.000    0.000    0.000    0.000    0.000 
#
# Total GULP energy -167278.287260 kJ/mol
# GULP energy per Si atom -5575.942909 kJ/mol
# Density = 2.286946 g / cm^3
# Si number density = 22.921626 Si / 1000 Ang^3
#
#
#
# Elastic Constant Matrix: (Units=GPa)
#
#
# Indices 1 2 3 4 5 6 
#
# 1 56.5459 26.6442 26.3100 0.0000 4.0959 0.0000
# 2 26.6442 94.0330 31.6839 0.0000 4.9264 0.0000
# 3 26.3100 31.6839 77.2631 0.0000 -11.4040 0.0000
# 4 0.0000 0.0000 0.0000 38.3685 0.0000 5.3150
# 5 4.0959 4.9264 -11.4040 0.0000 38.9077 0.0000
# 6 0.0000 0.0000 0.0000 5.3150 0.0000 44.7566
#
#
#
# Elastic Compliance Matrix: (Units=1/GPa)
#
#
# Indices 1 2 3 4 5 6 
#
# 1 0.023013 -0.004041 -0.006753 0.000000 -0.003890 0.000000
# 2 -0.004041 0.013438 -0.004518 0.000000 -0.002600 0.000000
# 3 -0.006753 -0.004518 0.018066 0.000000 0.006578 0.000000
# 4 0.000000 0.000000 0.000000 0.026499 0.000000 -0.003147
# 5 -0.003890 -0.002600 0.006578 0.000000 0.028369 0.000000
# 6 0.000000 0.000000 0.000000 -0.003147 0.000000 0.022717
#
#
# Mechanical properties :
#
#
# Convention : Reuss Voigt Hill
#
# Bulk Modulus (GPa) = 41.85617 44.12423 42.99020
# Shear Modulus (GPa) = 29.29238 33.95348 31.62293
#
# Velocity S-wave (km/s) = 3.57870 3.85292 3.71834
# Velocity P-wave (km/s) = 5.94780 6.25181 6.10170
#
# Compressibility (1/GPa) = 0.02389134
#
# Stress axis : x y z
#
# Youngs Moduli (GPa) = 43.45345 74.41369 55.35137
#
# Poissons Ratio (x) = 0.30073 0.37381
# Poissons Ratio (y) = 0.17561 0.25010
# Poissons Ratio (z) = 0.29346 0.33623
#
# Static dielectric constant tensor:
#      x y z
#    x 1.909880 0.000000 -0.025770 
#    y 0.000000 1.825240 0.000000 
#    z -0.025770 0.000000 1.918700 
# 
# From -- ./inp_files/15940.got.cif
#   From: 2010.05.17/outbox.cif.g08.bks.cpg/sg14_8_cif.got.tgz:15940.got - 2010.06.03 17:49:19.
