data_PCOD9252948
_publ_section_title
;
Structure prediction by ZEFSAII (Michael W. Deem and Ramdas Pophale) SiO2 
 PCOD9252948
Probable space group: P 21/C
;
_chemical_formula_sum "Si O2"
_cell_formula_units_Z 32
_cell_length_a 7.071131
_cell_length_b 7.420247
_cell_length_c 24.467675
_cell_angle_alpha 90.000000
_cell_angle_beta 116.627719
_cell_angle_gamma 90.000000
_cell_volume 1147.643787
_symmetry_space_group_name_H-M "P 21/C"
_symmetry_group_IT_number 14
_symmetry_cell_setting 'monoclinic'
loop_
_space_group_symop_operation_xyz
x,y,z
-x,1/2+y,1/2-z
-x,-y,-z
x,1/2-y,1/2+z
loop_
_atom_site_type_symbol
_atom_site_label
_atom_site_fract_x
_atom_site_fract_y
_atom_site_fract_z
Si Si1 0.794386 0.854405 0.828809
Si Si2 0.252256 0.342473 0.371831
Si Si3 0.894332 0.200390 0.542458
Si Si4 0.055200 0.723543 0.762226
Si Si5 0.616581 0.248465 0.781514
Si Si6 0.498148 0.311443 0.562827
Si Si7 0.935159 0.766540 0.547605
Si Si8 0.564823 0.987461 0.646557
O O1 0.597046 0.733855 0.782364
O O2 0.788365 0.061428 0.699297
O O3 0.915657 0.797326 0.899413
O O4 0.976131 0.822582 0.806225
O O5 0.148189 0.336079 0.298650
O O6 0.686119 0.449178 0.310895
O O7 0.066937 0.322836 0.393000
O O8 0.380919 0.157314 0.392793
O O9 0.678230 0.248208 0.544235
O O10 0.898634 0.261048 0.479675
O O11 0.923515 0.983920 0.550416
O O12 0.203786 0.821270 0.736597
O O13 0.408524 0.992555 0.899718
O O14 0.568823 0.378136 0.826182
O O15 0.720302 0.679075 0.496642
O O16 0.469333 0.159637 0.605024
#
# Coordination Sequence:
#
# PCOD9252948 Si02
#       8
#     4   4   4   4   4   4   4   4
#     4  12  27  50  82 121 172 221 284 355 428 518
#     4  12  27  51  84 122 165 219 284 347 425 510
#     4  11  26  49  81 116 160 221 286 338 428 500
#     4  12  26  53  81 122 173 221 274 351 438 511
#     4  12  28  49  80 128 163 225 277 347 440 516
#     4  12  27  52  85 113 164 222 278 350 418 498
#     4  11  27  51  79 120 161 222 280 359 409 501
#     4  12  28  53  81 124 169 219 273 351 426 510
#
# _framework density 27.883219
#
# number of rings (size 3 to 8) (size 9 to 14) (size 15 to 20)
#    0.000    0.250    5.000    1.500    5.250    5.500 
#    0.000    0.000    0.000    0.000    0.000    0.000 
#    0.000    0.000    0.000    0.000    0.000    0.000 
#
# Total GULP energy -179750.368468 kJ/mol
# GULP energy per Si atom -5617.199015 kJ/mol
# Density = 2.781976 g / cm^3
# Si number density = 27.883219 Si / 1000 Ang^3
#
#
#
# Elastic Constant Matrix: (Units=GPa)
#
#
# Indices 1 2 3 4 5 6 
#
# 1 141.8221 46.7010 25.7764 0.0000 -28.5041 0.0000
# 2 46.7010 169.1726 31.3747 0.0000 -21.5986 0.0000
# 3 25.7764 31.3747 109.0498 0.0000 -21.6970 0.0000
# 4 0.0000 0.0000 0.0000 43.8348 0.0000 -6.0772
# 5 -28.5041 -21.5986 -21.6970 0.0000 55.4148 0.0000
# 6 0.0000 0.0000 0.0000 -6.0772 0.0000 47.1431
#
#
#
# Elastic Compliance Matrix: (Units=1/GPa)
#
#
# Indices 1 2 3 4 5 6 
#
# 1 0.008450 -0.001753 -0.000829 0.000000 0.003339 0.000000
# 2 -0.001753 0.006793 -0.001294 0.000000 0.001240 0.000000
# 3 -0.000829 -0.001294 0.010360 0.000000 0.003126 0.000000
# 4 0.000000 0.000000 0.000000 0.023228 0.000000 0.002994
# 5 0.003339 0.001240 0.003126 0.000000 0.021470 0.000000
# 6 0.000000 0.000000 0.000000 0.002994 0.000000 0.021598
#
#
# Mechanical properties :
#
#
# Convention : Reuss Voigt Hill
#
# Bulk Modulus (GPa) = 56.01215 69.74987 62.88101
# Shear Modulus (GPa) = 47.34831 50.35805 48.85318
#
# Velocity S-wave (km/s) = 4.12526 4.25436 4.19031
# Velocity P-wave (km/s) = 6.54386 7.01442 6.78322
#
# Compressibility (1/GPa) = 0.01785327
#
# Stress axis : x y z
#
# Youngs Moduli (GPa) = 118.34452 147.20766 96.52402
#
# Poissons Ratio (x) = 0.25801 0.08000
# Poissons Ratio (y) = 0.20742 0.12485
# Poissons Ratio (z) = 0.09808 0.19041
#
# Static dielectric constant tensor:
#      x y z
#    x 2.157690 0.000000 0.003580 
#    y 0.000000 2.209520 0.000000 
#    z 0.003580 0.000000 2.191420 
# 
# From -- ./inp_files/65697.got.cif
#   From: 2010.05.17/outbox.cif.g08.bks.cpg/sg14_33_cif.got.tgz:65697.got - 2010.06.03 17:49:19.
