data_PCOD9252345
_publ_section_title
;
Structure prediction by ZEFSAII (Michael W. Deem and Ramdas Pophale) SiO2 
 PCOD9252345
Probable space group: P 21/C
;
_chemical_formula_sum "Si O2"
_cell_formula_units_Z 26
_cell_length_a 21.279339
_cell_length_b 7.633598
_cell_length_c 11.504270
_cell_angle_alpha 90.000000
_cell_angle_beta 149.984112
_cell_angle_gamma 90.000000
_cell_volume 934.813577
_symmetry_space_group_name_H-M "P 21/C"
_symmetry_group_IT_number 14
_symmetry_cell_setting 'monoclinic'
loop_
_space_group_symop_operation_xyz
x,y,z
-x,1/2+y,1/2-z
-x,-y,-z
x,1/2-y,1/2+z
loop_
_atom_site_type_symbol
_atom_site_label
_atom_site_fract_x
_atom_site_fract_y
_atom_site_fract_z
Si Si1 0.719371 0.938796 0.024827
Si Si2 0.500000 0.500000 0.000000
Si Si3 0.381355 0.065581 0.670253
Si Si4 0.997147 0.125609 0.852151
Si Si5 0.281418 0.505812 0.789160
Si Si6 0.676503 0.108390 0.188704
Si Si7 0.034261 0.232467 0.656014
O O1 0.848724 0.900864 0.164155
O O2 0.746069 0.030528 0.189420
O O3 0.674241 0.740882 0.973400
O O4 0.598009 0.020996 0.767881
O O5 0.386148 0.396345 0.887397
O O6 0.343108 0.930953 0.509344
O O7 0.318720 0.005392 0.688311
O O8 0.527110 0.102343 0.922857
O O9 0.968389 0.187789 0.674518
O O10 0.976421 0.252914 0.931062
O O11 0.933780 0.938511 0.775847
O O12 0.146343 0.077906 0.087859
O O13 0.286538 0.691268 0.729088
#
# Coordination Sequence:
#
# PCOD9252345 Si02
#       7
#     4   2   4   4   4   4   4
#     4  12  25  43  73 104 151 197 246 309 378 450
#     4  12  24  40  76 108 150 198 244 302 386 458
#     4  11  24  41  67 102 149 197 250 295 376 459
#     4  11  27  53  78 112 149 198 259 318 385 456
#     4  12  25  44  72 107 154 190 250 311 377 462
#     4  11  26  40  66 107 148 197 245 302 376 457
#     4  11  27  51  79 110 147 202 259 321 381 456
#
# _framework density 27.813033000000001
#
# number of rings (size 3 to 8) (size 9 to 14) (size 15 to 20)
#    0.000    0.615    6.154    0.000    6.462    1.846 
#    5.538    0.000    0.000    0.000    0.000    0.000 
#    0.000    0.000    0.000    0.000    0.000    0.000 
#
# Total GULP energy -145008.643587 kJ/mol
# GULP energy per Si atom -5577.255523 kJ/mol
# Density = 2.774973 g / cm^3
# Si number density = 27.813033 Si / 1000 Ang^3
#
#
#
# Elastic Constant Matrix: (Units=GPa)
#
#
# Indices 1 2 3 4 5 6 
#
# 1 160.5952 24.8327 43.3797 0.0000 -39.6131 0.0000
# 2 24.8327 83.0378 32.6936 0.0000 0.0991 0.0000
# 3 43.3797 32.6936 138.7024 0.0000 -0.7893 0.0000
# 4 0.0000 0.0000 0.0000 24.4857 0.0000 -0.6899
# 5 -39.6131 0.0991 -0.7893 0.0000 34.0648 0.0000
# 6 0.0000 0.0000 0.0000 -0.6899 0.0000 45.2560
#
#
#
# Elastic Compliance Matrix: (Units=1/GPa)
#
#
# Indices 1 2 3 4 5 6 
#
# 1 0.010145 -0.002012 -0.002632 0.000000 0.011743 0.000000
# 2 -0.002012 0.013674 -0.002608 0.000000 -0.002440 0.000000
# 3 -0.002632 -0.002608 0.008631 0.000000 -0.002853 0.000000
# 4 0.000000 0.000000 0.000000 0.040858 0.000000 0.000623
# 5 0.011743 -0.002440 -0.002853 0.000000 0.042952 0.000000
# 6 0.000000 0.000000 0.000000 0.000623 0.000000 0.022106
#
#
# Mechanical properties :
#
#
# Convention : Reuss Voigt Hill
#
# Bulk Modulus (GPa) = 55.71790 64.90528 60.31159
# Shear Modulus (GPa) = 31.47582 39.52326 35.49954
#
# Velocity S-wave (km/s) = 3.36771 3.77375 3.57650
# Velocity P-wave (km/s) = 5.93283 6.50962 6.22791
#
# Compressibility (1/GPa) = 0.01794755
#
# Stress axis : x y z
#
# Youngs Moduli (GPa) = 98.56721 73.13159 115.85741
#
# Poissons Ratio (x) = 0.14712 0.30494
# Poissons Ratio (y) = 0.19829 0.30213
# Poissons Ratio (z) = 0.25943 0.19071
#
# Static dielectric constant tensor:
#      x y z
#    x 2.304760 0.000000 -0.071650 
#    y 0.000000 2.530200 0.000000 
#    z -0.071650 0.000000 4.227950 
# 
# From -- ./inp_files/35822.got.cif
#   From: 2010.05.17/outbox.cif.g08.bks.cpg/sg14_18_cif.got.tgz:35822.got - 2010.06.03 17:49:19.
