data_PCOD9252311
_publ_section_title
;
Structure prediction by ZEFSAII (Michael W. Deem and Ramdas Pophale) SiO2 
 PCOD9252311
Probable space group: P 21/C
;
_chemical_formula_sum "Si O2"
_cell_formula_units_Z 16
_cell_length_a 7.167553
_cell_length_b 6.635371
_cell_length_c 18.745853
_cell_angle_alpha 90.000000
_cell_angle_beta 133.634058
_cell_angle_gamma 90.000000
_cell_volume 645.263340
_symmetry_space_group_name_H-M "P 21/C"
_symmetry_group_IT_number 14
_symmetry_cell_setting 'monoclinic'
loop_
_space_group_symop_operation_xyz
x,y,z
-x,1/2+y,1/2-z
-x,-y,-z
x,1/2-y,1/2+z
loop_
_atom_site_type_symbol
_atom_site_label
_atom_site_fract_x
_atom_site_fract_y
_atom_site_fract_z
Si Si1 0.104274 0.028022 0.860140
Si Si2 0.709599 0.797902 0.238431
Si Si3 0.729927 0.023822 0.387825
Si Si4 0.547503 0.800903 0.465855
O O1 0.141583 0.130903 0.792892
O O2 0.317844 0.851994 0.920164
O O3 0.188855 0.193021 0.939989
O O4 0.839224 0.910751 0.799093
O O5 0.741438 0.959083 0.309047
O O6 0.415975 0.737283 0.142669
O O7 0.557967 0.862799 0.386652
O O8 0.000000 0.000000 0.500000
O O9 0.500000 0.000000 0.500000
#
# Coordination Sequence:
#
# PCOD9252311 Si02
#       4
#     4   4   4   4
#     4  11  26  45  79 103 145 200 253 301 376 452
#     4  12  27  47  74 111 151 201 249 311 376 448
#     4  12  28  45  74 109 156 189 250 313 374 443
#     4  11  23  48  75 108 145 198 248 311 376 445
#
# _framework density 24.79608
#
# number of rings (size 3 to 8) (size 9 to 14) (size 15 to 20)
#    0.000    0.500    2.500    4.500   10.500    1.000 
#    0.000    0.000    0.000    0.000    0.000    0.000 
#    0.000    0.000    0.000    0.000    0.000    0.000 
#
# Total GULP energy -89701.827150 kJ/mol
# GULP energy per Si atom -5606.364197 kJ/mol
# Density = 2.473964 g / cm^3
# Si number density = 24.796080 Si / 1000 Ang^3
#
#
#
# Elastic Constant Matrix: (Units=GPa)
#
#
# Indices 1 2 3 4 5 6 
#
# 1 29.7524 -9.6065 4.4488 0.0000 2.8839 0.0000
# 2 -9.6065 75.4148 14.0699 0.0000 10.5510 0.0000
# 3 4.4488 14.0699 76.5587 0.0000 9.9562 0.0000
# 4 0.0000 0.0000 0.0000 65.3070 0.0000 1.0739
# 5 2.8839 10.5510 9.9562 0.0000 52.2127 0.0000
# 6 0.0000 0.0000 0.0000 1.0739 0.0000 36.7118
#
#
#
# Elastic Compliance Matrix: (Units=1/GPa)
#
#
# Indices 1 2 3 4 5 6 
#
# 1 0.036038 0.005466 -0.002765 0.000000 -0.002568 0.000000
# 2 0.005466 0.014847 -0.002683 0.000000 -0.002791 0.000000
# 3 -0.002765 -0.002683 0.013972 0.000000 -0.001969 0.000000
# 4 0.000000 0.000000 0.000000 0.015320 0.000000 -0.000448
# 5 -0.002568 -0.002791 -0.001969 0.000000 0.020234 0.000000
# 6 0.000000 0.000000 0.000000 -0.000448 0.000000 0.027252
#
#
# Mechanical properties :
#
#
# Convention : Reuss Voigt Hill
#
# Bulk Modulus (GPa) = 15.41021 22.17226 18.79123
# Shear Modulus (GPa) = 33.49905 42.36720 37.93313
#
# Velocity S-wave (km/s) = 3.67956 4.13804 3.91551
# Velocity P-wave (km/s) = 4.92752 5.63847 5.29494
#
# Compressibility (1/GPa) = 0.06489204
#
# Stress axis : x y z
#
# Youngs Moduli (GPa) = 27.74864 67.35255 71.57289
#
# Poissons Ratio (x) = -0.36812 0.19788
# Poissons Ratio (y) = -0.15166 0.19205
# Poissons Ratio (z) = 0.07672 0.18073
#
# Static dielectric constant tensor:
#      x y z
#    x 1.978420 0.000000 0.081370 
#    y 0.000000 1.958070 0.000000 
#    z 0.081370 0.000000 1.993620 
# 
# From -- ./inp_files/47780.got.cif
#   From: 2010.05.17/outbox.cif.g08.bks.cpg/sg14_24_cif.got.tgz:47780.got - 2010.06.03 17:49:19.
