data_PCOD9252474
_publ_section_title
;
Structure prediction by ZEFSAII (Michael W. Deem and Ramdas Pophale) SiO2 
 PCOD9252474
Probable space group: P 21/C
;
_chemical_formula_sum "Si O2"
_cell_formula_units_Z 32
_cell_length_a 11.819445
_cell_length_b 20.830226
_cell_length_c 12.154036
_cell_angle_alpha 90.000000
_cell_angle_beta 153.345301
_cell_angle_gamma 90.000000
_cell_volume 1342.403164
_symmetry_space_group_name_H-M "P 21/C"
_symmetry_group_IT_number 14
_symmetry_cell_setting 'monoclinic'
loop_
_space_group_symop_operation_xyz
x,y,z
-x,1/2+y,1/2-z
-x,-y,-z
x,1/2-y,1/2+z
loop_
_atom_site_type_symbol
_atom_site_label
_atom_site_fract_x
_atom_site_fract_y
_atom_site_fract_z
Si Si1 0.335620 0.700524 0.190001
Si Si2 0.055780 0.122940 0.319794
Si Si3 0.746114 0.975560 0.336968
Si Si4 0.573179 0.131466 0.003151
Si Si5 0.987259 0.440222 0.405534
Si Si6 0.011493 0.321723 0.557363
Si Si7 0.725065 0.738463 0.888805
Si Si8 0.413520 0.923834 0.632223
O O1 0.334863 0.661556 0.302706
O O2 0.151339 0.761737 0.038923
O O3 0.604497 0.731262 0.392552
O O4 0.307443 0.647731 0.069211
O O5 0.215695 0.073425 0.527489
O O6 0.054247 0.191863 0.379836
O O7 0.773878 0.099519 0.094434
O O8 0.130730 0.139222 0.262202
O O9 0.613098 0.034718 0.279826
O O10 0.613397 0.927601 0.136111
O O11 0.000000 0.000000 0.500000
O O12 0.458096 0.189861 0.833813
O O13 0.285362 0.426087 0.634944
O O14 0.000000 0.500000 0.500000
O O15 0.874173 0.377514 0.369660
O O16 0.788224 0.451024 0.132916
O O17 0.198672 0.290183 0.633641
#
# Coordination Sequence:
#
# PCOD9252474 Si02
#       8
#     4   4   4   4   4   4   4   4
#     4  12  26  45  77 113 153 204 254 332 394 487
#     4  11  24  45  72 109 144 199 253 317 394 469
#     4  11  28  47  75 108 152 203 262 327 390 470
#     4  11  25  45  74 106 149 192 260 308 401 458
#     4  12  30  54  82 115 156 215 268 329 400 475
#     4  12  26  45  78 108 159 195 260 326 397 479
#     4  11  24  44  71 110 147 199 245 316 392 469
#     4  12  30  51  79 114 160 203 272 325 399 473
#
# _framework density 23.837845000000002
#
# number of rings (size 3 to 8) (size 9 to 14) (size 15 to 20)
#    0.000    0.500    3.750    2.625   10.500    2.000 
#    0.000    0.000    0.000    0.000    0.000    0.000 
#    0.000    0.000    0.000    0.000    0.000    0.000 
#
# Total GULP energy -178668.022293 kJ/mol
# GULP energy per Si atom -5583.375697 kJ/mol
# Density = 2.378359 g / cm^3
# Si number density = 23.837845 Si / 1000 Ang^3
#
#
#
# Elastic Constant Matrix: (Units=GPa)
#
#
# Indices 1 2 3 4 5 6 
#
# 1 96.7513 32.1550 17.3013 0.0000 1.2006 0.0000
# 2 32.1550 126.9659 16.6475 0.0000 -0.7830 0.0000
# 3 17.3013 16.6475 78.7707 0.0000 -13.5132 0.0000
# 4 0.0000 0.0000 0.0000 34.8482 0.0000 -5.0010
# 5 1.2006 -0.7830 -13.5132 0.0000 41.2649 0.0000
# 6 0.0000 0.0000 0.0000 -5.0010 0.0000 38.7591
#
#
#
# Elastic Compliance Matrix: (Units=1/GPa)
#
#
# Indices 1 2 3 4 5 6 
#
# 1 0.011625 -0.002665 -0.002179 0.000000 -0.001102 0.000000
# 2 -0.002665 0.008719 -0.001288 0.000000 -0.000179 0.000000
# 3 -0.002179 -0.001288 0.014253 0.000000 0.004707 0.000000
# 4 0.000000 0.000000 0.000000 0.029237 0.000000 0.003772
# 5 -0.001102 -0.000179 0.004707 0.000000 0.025804 0.000000
# 6 0.000000 0.000000 0.000000 0.003772 0.000000 0.026287
#
#
# Mechanical properties :
#
#
# Convention : Reuss Voigt Hill
#
# Bulk Modulus (GPa) = 44.77771 48.29948 46.53860
# Shear Modulus (GPa) = 36.86395 38.73337 37.79866
#
# Velocity S-wave (km/s) = 3.93675 4.03534 3.98635
# Velocity P-wave (km/s) = 6.28404 6.48210 6.38384
#
# Compressibility (1/GPa) = 0.02233254
#
# Stress axis : x y z
#
# Youngs Moduli (GPa) = 86.02221 114.69372 70.15912
#
# Poissons Ratio (x) = 0.30568 0.15289
# Poissons Ratio (y) = 0.22926 0.09036
# Poissons Ratio (z) = 0.18746 0.14772
#
# Static dielectric constant tensor:
#      x y z
#    x 1.777320 0.000000 0.237080 
#    y 0.000000 3.176820 0.000000 
#    z 0.237080 0.000000 1.660840 
# 
# From -- ./inp_files/30749.got.cif
#   From: 2010.05.17/outbox.cif.g08.bks.cpg/sg14_16_cif.got.tgz:30749.got - 2010.06.03 17:49:19.
