data_PCOD9252205
_publ_section_title
;
Structure prediction by ZEFSAII (Michael W. Deem and Ramdas Pophale) SiO2 
 PCOD9252205
Probable space group: P 21/C
;
_chemical_formula_sum "Si O2"
_cell_formula_units_Z 24
_cell_length_a 9.209660
_cell_length_b 14.154084
_cell_length_c 9.894355
_cell_angle_alpha 90.000000
_cell_angle_beta 104.716274
_cell_angle_gamma 90.000000
_cell_volume 1247.461593
_symmetry_space_group_name_H-M "P 21/C"
_symmetry_group_IT_number 14
_symmetry_cell_setting 'monoclinic'
loop_
_space_group_symop_operation_xyz
x,y,z
-x,1/2+y,1/2-z
-x,-y,-z
x,1/2-y,1/2+z
loop_
_atom_site_type_symbol
_atom_site_label
_atom_site_fract_x
_atom_site_fract_y
_atom_site_fract_z
Si Si1 0.112287 0.051587 0.629357
Si Si2 0.419902 0.579414 0.570602
Si Si3 0.640847 0.757323 0.033792
Si Si4 0.450362 0.062294 0.613621
Si Si5 0.081006 0.558504 0.401644
Si Si6 0.850220 0.774467 0.839081
O O1 0.284174 0.034271 0.624939
O O2 0.095936 0.165735 0.628248
O O3 0.089329 0.006700 0.770929
O O4 0.000000 0.000000 0.500000
O O5 0.500000 0.500000 0.500000
O O6 0.516333 0.672752 0.562097
O O7 0.439486 0.555409 0.732992
O O8 0.247993 0.585775 0.487317
O O9 0.743576 0.724276 0.182803
O O10 0.564127 0.669412 0.941392
O O11 0.751182 0.802129 0.947162
O O12 0.500000 0.000000 0.500000
O O13 0.000000 0.500000 0.500000
O O14 0.984274 0.652408 0.352029
#
# Coordination Sequence:
#
# PCOD9252205 Si02
#       6
#     4   4   4   4   4   4
#     4  11  24  46  67 100 138 178 229 286 342 411
#     4  12  24  46  69 100 138 175 232 286 339 407
#     4  11  23  46  69  96 138 178 226 284 343 408
#     4  11  26  44  70 100 133 182 226 284 345 409
#     4  12  26  42  73 101 136 183 225 283 347 412
#     4  11  23  45  68  97 139 181 224 284 350 406
#
# _framework density 19.239069000000001
#
# number of rings (size 3 to 8) (size 9 to 14) (size 15 to 20)
#    0.000    0.667    5.000    4.000    7.000    1.333 
#    6.000    0.000    0.000    0.000    0.000    0.000 
#    0.000    0.000    0.000    0.000    0.000    0.000 
#
# Total GULP energy -134275.198234 kJ/mol
# GULP energy per Si atom -5594.799926 kJ/mol
# Density = 1.919528 g / cm^3
# Si number density = 19.239069 Si / 1000 Ang^3
#
#
#
# Elastic Constant Matrix: (Units=GPa)
#
#
# Indices 1 2 3 4 5 6 
#
# 1 131.1218 59.9770 62.7243 0.0000 3.5791 0.0000
# 2 59.9770 88.5003 42.2407 0.0000 -0.4790 0.0000
# 3 62.7243 42.2407 163.5226 0.0000 -0.2449 0.0000
# 4 0.0000 0.0000 0.0000 35.2758 0.0000 -4.6198
# 5 3.5791 -0.4790 -0.2449 0.0000 47.5348 0.0000
# 6 0.0000 0.0000 0.0000 -4.6198 0.0000 41.0485
#
#
#
# Elastic Compliance Matrix: (Units=1/GPa)
#
#
# Indices 1 2 3 4 5 6 
#
# 1 0.012189 -0.006882 -0.002899 0.000000 -0.001002 0.000000
# 2 -0.006882 0.016775 -0.001692 0.000000 0.000678 0.000000
# 3 -0.002899 -0.001692 0.007665 0.000000 0.000241 0.000000
# 4 0.000000 0.000000 0.000000 0.028772 0.000000 0.003238
# 5 -0.001002 0.000678 0.000241 0.000000 0.021121 0.000000
# 6 0.000000 0.000000 0.000000 0.003238 0.000000 0.024726
#
#
# Mechanical properties :
#
#
# Convention : Reuss Voigt Hill
#
# Bulk Modulus (GPa) = 73.09199 79.22542 76.15870
# Shear Modulus (GPa) = 36.03490 39.31867 37.67679
#
# Velocity S-wave (km/s) = 4.33252 4.52562 4.43012
# Velocity P-wave (km/s) = 7.94365 8.28113 8.11415
#
# Compressibility (1/GPa) = 0.01368139
#
# Stress axis : x y z
#
# Youngs Moduli (GPa) = 82.04400 59.61335 130.46417
#
# Poissons Ratio (x) = 0.41026 0.37823
# Poissons Ratio (y) = 0.56462 0.22080
# Poissons Ratio (z) = 0.23785 0.10089
#
# Static dielectric constant tensor:
#      x y z
#    x 1.644020 0.000000 -0.009900 
#    y 0.000000 1.661840 0.000000 
#    z -0.009900 0.000000 1.655160 
# 
# From -- ./inp_files/8609.got.cif
#   From: 2010.05.17/outbox.cif.g08.bks.cpg/sg14_5_cif.got.tgz:8609.got - 2010.06.03 17:49:19.
