data_PCOD9252322
_publ_section_title
;
Structure prediction by ZEFSAII (Michael W. Deem and Ramdas Pophale) SiO2 
 PCOD9252322
Probable space group: P 21/C
;
_chemical_formula_sum "Si O2"
_cell_formula_units_Z 24
_cell_length_a 14.019007
_cell_length_b 8.679121
_cell_length_c 8.848450
_cell_angle_alpha 90.000000
_cell_angle_beta 92.333507
_cell_angle_gamma 90.000000
_cell_volume 1075.721654
_symmetry_space_group_name_H-M "P 21/C"
_symmetry_group_IT_number 14
_symmetry_cell_setting 'monoclinic'
loop_
_space_group_symop_operation_xyz
x,y,z
-x,1/2+y,1/2-z
-x,-y,-z
x,1/2-y,1/2+z
loop_
_atom_site_type_symbol
_atom_site_label
_atom_site_fract_x
_atom_site_fract_y
_atom_site_fract_z
Si Si1 0.801889 0.746832 0.244868
Si Si2 0.446160 0.879670 0.103091
Si Si3 0.740505 0.200469 0.101966
Si Si4 0.890490 0.546936 0.498916
Si Si5 0.401948 0.391506 0.869353
Si Si6 0.719646 0.030212 0.412852
O O1 0.852531 0.610464 0.337495
O O2 0.866790 0.819011 0.118308
O O3 0.697440 0.695077 0.179434
O O4 0.781091 0.887205 0.359243
O O5 0.514548 0.733780 0.132910
O O6 0.419425 0.969671 0.254100
O O7 0.353079 0.836507 0.001777
O O8 0.500000 0.000000 0.000000
O O9 0.718417 0.147010 0.270785
O O10 0.826696 0.096741 0.047811
O O11 0.760315 0.377384 0.060026
O O12 0.000000 0.500000 0.500000
O O13 0.380819 0.460793 0.034593
#
# Coordination Sequence:
#
# PCOD9252322 Si02
#       6
#     4   4   4   4   4   4
#     4  11  23  50  74 108 147 193 240 309 369 442
#     4  12  27  44  69 107 144 192 249 301 362 446
#     4  11  26  47  70 106 149 189 248 309 364 434
#     4  11  25  47  78 110 146 191 247 304 377 440
#     4  12  26  47  74 103 150 198 249 296 373 440
#     4  11  25  47  72 100 144 199 238 302 370 429
#
# _framework density 22.310601999999999
#
# number of rings (size 3 to 8) (size 9 to 14) (size 15 to 20)
#    0.000    0.667    3.333    4.000    7.000    3.333 
#    0.000    1.667    0.000    0.000    0.000    0.000 
#    0.000    0.000    0.000    0.000    0.000    0.000 
#
# Total GULP energy -134413.425363 kJ/mol
# GULP energy per Si atom -5600.559390 kJ/mol
# Density = 2.225982 g / cm^3
# Si number density = 22.310602 Si / 1000 Ang^3
#
#
#
# Elastic Constant Matrix: (Units=GPa)
#
#
# Indices 1 2 3 4 5 6 
#
# 1 150.7645 46.8787 69.5988 0.0000 -15.8294 0.0000
# 2 46.8787 109.3327 60.2439 0.0000 -10.1489 0.0000
# 3 69.5988 60.2439 116.7405 0.0000 -17.0336 0.0000
# 4 0.0000 0.0000 0.0000 54.5675 0.0000 -1.1227
# 5 -15.8294 -10.1489 -17.0336 0.0000 24.4329 0.0000
# 6 0.0000 0.0000 0.0000 -1.1227 0.0000 28.8307
#
#
#
# Elastic Compliance Matrix: (Units=1/GPa)
#
#
# Indices 1 2 3 4 5 6 
#
# 1 0.009402 -0.001276 -0.004603 0.000000 0.002352 0.000000
# 2 -0.001276 0.012968 -0.005862 0.000000 0.000473 0.000000
# 3 -0.004603 -0.005862 0.015079 0.000000 0.005095 0.000000
# 4 0.000000 0.000000 0.000000 0.018341 0.000000 0.000714
# 5 0.002352 0.000473 0.005095 0.000000 0.046200 0.000000
# 6 0.000000 0.000000 0.000000 0.000714 0.000000 0.034713
#
#
# Mechanical properties :
#
#
# Convention : Reuss Voigt Hill
#
# Bulk Modulus (GPa) = 71.60840 81.14229 76.37535
# Shear Modulus (GPa) = 30.33229 34.90730 32.61979
#
# Velocity S-wave (km/s) = 3.69120 3.95980 3.82786
# Velocity P-wave (km/s) = 7.09454 7.57331 7.33783
#
# Compressibility (1/GPa) = 0.01396484
#
# Stress axis : x y z
#
# Youngs Moduli (GPa) = 106.36324 77.11526 66.31756
#
# Poissons Ratio (x) = 0.09843 0.30528
# Poissons Ratio (y) = 0.13576 0.38875
# Poissons Ratio (z) = 0.48963 0.45205
#
# Static dielectric constant tensor:
#      x y z
#    x 1.791360 0.000000 -0.017600 
#    y 0.000000 1.881630 0.000000 
#    z -0.017600 0.000000 1.862140 
# 
# From -- ./inp_files/15093.got.cif
#   From: 2010.05.17/outbox.cif.g08.bks.cpg/sg14_8_cif.got.tgz:15093.got - 2010.06.03 17:49:19.
