data_PCOD9252856
_publ_section_title
;
Structure prediction by ZEFSAII (Michael W. Deem and Ramdas Pophale) SiO2 
 PCOD9252856
Probable space group: P 21/C
;
_chemical_formula_sum "Si O2"
_cell_formula_units_Z 20
_cell_length_a 9.225520
_cell_length_b 13.638920
_cell_length_c 9.219828
_cell_angle_alpha 90.000000
_cell_angle_beta 137.666577
_cell_angle_gamma 90.000000
_cell_volume 781.259032
_symmetry_space_group_name_H-M "P 21/C"
_symmetry_group_IT_number 14
_symmetry_cell_setting 'monoclinic'
loop_
_space_group_symop_operation_xyz
x,y,z
-x,1/2+y,1/2-z
-x,-y,-z
x,1/2-y,1/2+z
loop_
_atom_site_type_symbol
_atom_site_label
_atom_site_fract_x
_atom_site_fract_y
_atom_site_fract_z
Si Si1 0.881975 0.601601 0.461312
Si Si2 0.224202 0.536774 0.096280
Si Si3 0.447347 0.879207 0.483617
Si Si4 0.346680 0.944607 0.080474
Si Si5 0.172261 0.789273 0.755604
O O1 0.299898 0.554896 0.984549
O O2 0.748781 0.554833 0.495770
O O3 0.000981 0.702286 0.595547
O O4 0.697208 0.618167 0.206023
O O5 0.408903 0.462908 0.291891
O O6 0.225185 0.648328 0.153527
O O7 0.000000 0.500000 0.000000
O O8 0.387178 0.904893 0.274158
O O9 0.380906 0.768703 0.459564
O O10 0.168540 0.874041 0.875400
O O11 0.000000 0.000000 0.000000
#
# Coordination Sequence:
#
# PCOD9252856 Si02
#       5
#     4   4   4   4   4
#     4  11  25  49  81 116 162 217 269 331 426 495
#     4  11  27  51  78 121 164 214 273 347 415 486
#     4  11  26  54  79 115 165 216 272 338 412 508
#     4  11  26  53  82 120 167 213 283 346 411 507
#     4  12  27  48  80 124 159 217 279 336 417 489
#
# _framework density 25.599703999999999
#
# number of rings (size 3 to 8) (size 9 to 14) (size 15 to 20)
#    0.000    0.800    2.000    4.200    5.600    0.000 
#    7.200    0.000    0.000    0.000    0.000    0.000 
#    0.000    0.000    0.000    0.000    0.000    0.000 
#
# Total GULP energy -111348.022850 kJ/mol
# GULP energy per Si atom -5567.401142 kJ/mol
# Density = 2.554144 g / cm^3
# Si number density = 25.599704 Si / 1000 Ang^3
#
#
#
# Elastic Constant Matrix: (Units=GPa)
#
#
# Indices 1 2 3 4 5 6 
#
# 1 113.8805 28.3973 73.9867 0.0000 0.8088 0.0000
# 2 28.3973 144.1235 72.9256 0.0000 -3.5776 0.0000
# 3 73.9867 72.9256 167.8696 0.0000 -3.2641 0.0000
# 4 0.0000 0.0000 0.0000 66.9064 0.0000 3.9286
# 5 0.8088 -3.5776 -3.2641 0.0000 53.1912 0.0000
# 6 0.0000 0.0000 0.0000 3.9286 0.0000 40.6026
#
#
#
# Elastic Compliance Matrix: (Units=1/GPa)
#
#
# Indices 1 2 3 4 5 6 
#
# 1 0.012337 0.000401 -0.005621 0.000000 -0.000506 0.000000
# 2 0.000401 0.008913 -0.004042 0.000000 0.000345 0.000000
# 3 -0.005621 -0.004042 0.010199 0.000000 0.000439 0.000000
# 4 0.000000 0.000000 0.000000 0.015032 0.000000 -0.001454
# 5 -0.000506 0.000345 0.000439 0.000000 0.018858 0.000000
# 6 0.000000 0.000000 0.000000 -0.001454 0.000000 0.024770
#
#
# Mechanical properties :
#
#
# Convention : Reuss Voigt Hill
#
# Bulk Modulus (GPa) = 77.37352 86.27697 81.82525
# Shear Modulus (GPa) = 44.27057 48.84429 46.55743
#
# Velocity S-wave (km/s) = 4.16304 4.37281 4.26921
# Velocity P-wave (km/s) = 7.30739 7.69875 7.50562
#
# Compressibility (1/GPa) = 0.01292432
#
# Stress axis : x y z
#
# Youngs Moduli (GPa) = 81.05783 112.19109 98.04768
#
# Poissons Ratio (x) = -0.04500 0.55117
# Poissons Ratio (y) = -0.03251 0.39633
# Poissons Ratio (z) = 0.45566 0.45350
#
# Static dielectric constant tensor:
#      x y z
#    x 2.285510 0.000000 0.027500 
#    y 0.000000 1.907170 0.000000 
#    z 0.027500 0.000000 2.171180 
# 
# From -- ./inp_files/30073.got.cif
#   From: 2010.05.17/outbox.cif.g08.bks.cpg/sg14_16_cif.got.tgz:30073.got - 2010.06.03 17:49:19.
