data_PCOD9252190
_publ_section_title
;
Structure prediction by ZEFSAII (Michael W. Deem and Ramdas Pophale) SiO2 
 PCOD9252190
Probable space group: P 21/C
;
_chemical_formula_sum "Si O2"
_cell_formula_units_Z 30
_cell_length_a 7.727870
_cell_length_b 14.234098
_cell_length_c 11.333704
_cell_angle_alpha 90.000000
_cell_angle_beta 109.072403
_cell_angle_gamma 90.000000
_cell_volume 1178.263255
_symmetry_space_group_name_H-M "P 21/C"
_symmetry_group_IT_number 14
_symmetry_cell_setting 'monoclinic'
loop_
_space_group_symop_operation_xyz
x,y,z
-x,1/2+y,1/2-z
-x,-y,-z
x,1/2-y,1/2+z
loop_
_atom_site_type_symbol
_atom_site_label
_atom_site_fract_x
_atom_site_fract_y
_atom_site_fract_z
Si Si1 0.720885 0.181553 0.445498
Si Si2 0.991278 0.646684 0.800281
Si Si3 0.500000 0.500000 0.500000
Si Si4 0.222706 0.545975 0.241765
Si Si5 0.341880 0.867368 0.209583
Si Si6 0.575994 0.599716 0.971615
Si Si7 0.205483 0.039817 0.064354
Si Si8 0.134040 0.346225 0.782436
O O1 0.720698 0.085931 0.371888
O O2 0.683531 0.266140 0.349675
O O3 0.556018 0.177921 0.499977
O O4 0.909041 0.185401 0.559435
O O5 0.880354 0.552427 0.797017
O O6 0.874145 0.734329 0.727921
O O7 0.161341 0.617955 0.751120
O O8 0.388484 0.550775 0.368046
O O9 0.686604 0.576657 0.523668
O O10 0.072662 0.618308 0.258161
O O11 0.524579 0.887552 0.323620
O O12 0.331899 0.944072 0.102282
O O13 0.768206 0.617352 0.076945
O O14 0.500000 0.500000 0.000000
O O15 0.215952 0.103009 0.183476
O O16 0.000000 0.000000 0.000000
#
# Coordination Sequence:
#
# PCOD9252190 Si02
#       8
#     4   4   2   4   4   4   4   4
#     4  11  25  45  71 103 145 192 248 305 364 446
#     4  11  24  45  71 107 145 195 248 303 373 443
#     4  12  28  44  78 106 148 188 252 300 384 434
#     4  12  25  47  72 106 145 194 243 305 368 443
#     4  11  23  44  74 102 144 194 242 303 373 438
#     4  11  24  47  73 101 148 197 242 301 375 447
#     4  12  23  46  74 104 149 193 237 310 371 435
#     4  12  23  46  74 107 145 191 250 299 372 444
#
# _framework density 25.461203999999999
#
# number of rings (size 3 to 8) (size 9 to 14) (size 15 to 20)
#    0.000    0.533    5.333    2.800    0.000    2.133 
#    2.400    0.000    0.000    0.000    0.000    0.000 
#    0.000    0.000    0.000    0.000    0.000    0.000 
#
# Total GULP energy -167684.630390 kJ/mol
# GULP energy per Si atom -5589.487680 kJ/mol
# Density = 2.540325 g / cm^3
# Si number density = 25.461204 Si / 1000 Ang^3
#
#
#
# Elastic Constant Matrix: (Units=GPa)
#
#
# Indices 1 2 3 4 5 6 
#
# 1 71.4245 7.3113 7.9855 0.0000 8.3804 0.0000
# 2 7.3113 138.9859 35.9642 0.0000 19.2960 0.0000
# 3 7.9855 35.9642 141.2350 0.0000 34.6011 0.0000
# 4 0.0000 0.0000 0.0000 41.7800 0.0000 -0.7472
# 5 8.3804 19.2960 34.6011 0.0000 43.3935 0.0000
# 6 0.0000 0.0000 0.0000 -0.7472 0.0000 31.7464
#
#
#
# Elastic Compliance Matrix: (Units=1/GPa)
#
#
# Indices 1 2 3 4 5 6 
#
# 1 0.014347 -0.000379 -0.000096 0.000000 -0.002526 0.000000
# 2 -0.000379 0.007904 -0.001427 0.000000 -0.002304 0.000000
# 3 -0.000096 -0.001427 0.009059 0.000000 -0.006570 0.000000
# 4 0.000000 0.000000 0.000000 0.023945 0.000000 0.000564
# 5 -0.002526 -0.002304 -0.006570 0.000000 0.029796 0.000000
# 6 0.000000 0.000000 0.000000 0.000564 0.000000 0.031513
#
#
# Mechanical properties :
#
#
# Convention : Reuss Voigt Hill
#
# Bulk Modulus (GPa) = 36.35625 50.46306 43.40965
# Shear Modulus (GPa) = 38.59935 43.40961 41.00448
#
# Velocity S-wave (km/s) = 3.89782 4.13356 4.01742
# Velocity P-wave (km/s) = 5.87940 6.53027 6.21336
#
# Compressibility (1/GPa) = 0.02750559
#
# Stress axis : x y z
#
# Youngs Moduli (GPa) = 69.70257 126.51866 110.38970
#
# Poissons Ratio (x) = 0.04798 0.01058
# Poissons Ratio (y) = 0.02644 0.15751
# Poissons Ratio (z) = 0.00668 0.18052
#
# Static dielectric constant tensor:
#      x y z
#    x 1.759910 0.000000 0.112370 
#    y 0.000000 1.881140 0.000000 
#    z 0.112370 0.000000 1.974120 
# 
# From -- ./inp_files/25614.got.cif
#   From: 2010.05.17/outbox.cif.g08.bks.cpg/sg14_13_cif.got.tgz:25614.got - 2010.06.03 17:49:19.
