data_PCOD9252136
_publ_section_title
;
Structure prediction by ZEFSAII (Michael W. Deem and Ramdas Pophale) SiO2 
 PCOD9252136
Probable space group: P 21/C
;
_chemical_formula_sum "Si O2"
_cell_formula_units_Z 26
_cell_length_a 20.288446
_cell_length_b 8.480478
_cell_length_c 11.800359
_cell_angle_alpha 90.000000
_cell_angle_beta 28.368373
_cell_angle_gamma 90.000000
_cell_volume 964.683001
_symmetry_space_group_name_H-M "P 21/C"
_symmetry_group_IT_number 14
_symmetry_cell_setting 'monoclinic'
loop_
_space_group_symop_operation_xyz
x,y,z
-x,1/2+y,1/2-z
-x,-y,-z
x,1/2-y,1/2+z
loop_
_atom_site_type_symbol
_atom_site_label
_atom_site_fract_x
_atom_site_fract_y
_atom_site_fract_z
Si Si1 0.569574 0.124099 0.753166
Si Si2 0.841447 0.649863 0.442290
Si Si3 0.355839 0.877804 0.018231
Si Si4 0.184635 0.506620 0.969651
Si Si5 0.540474 0.671078 0.900325
Si Si6 0.028189 0.139267 0.046006
Si Si7 0.000000 0.500000 0.000000
O O1 0.663502 0.261308 0.556591
O O2 0.668927 0.025791 0.685350
O O3 0.479087 0.004408 0.814689
O O4 0.453146 0.219131 0.998273
O O5 0.688919 0.657183 0.618365
O O6 0.836153 0.597403 0.583101
O O7 0.874117 0.835426 0.410941
O O8 0.928308 0.532263 0.234083
O O9 0.422277 0.755308 0.006983
O O10 0.219469 0.954314 0.283538
O O11 0.085469 0.630250 0.181097
O O12 0.500000 0.500000 0.000000
O O13 0.025732 0.307326 0.990099
O O14 0.000000 0.000000 0.000000
#
# Coordination Sequence:
#
# PCOD9252136 Si02
#       7
#     4   4   4   4   4   4   2
#     4  11  23  43  74 112 150 200 258 318 405 479
#     4  12  26  53  82 109 164 209 273 329 400 488
#     4  11  23  45  74 112 154 199 254 323 407 473
#     4  11  24  52  74 106 159 204 263 336 389 480
#     4  11  24  45  73 111 150 197 257 328 394 474
#     4  12  29  53  79 115 158 212 275 336 398 471
#     4  12  30  50  82 116 148 220 268 322 412 470
#
# _framework density 26.951857
#
# number of rings (size 3 to 8) (size 9 to 14) (size 15 to 20)
#    0.000    0.615    4.615    2.769    4.308    6.154 
#    2.769    0.000    0.000    0.000    0.000    0.000 
#    0.000    0.000    0.000    0.000    0.000    0.000 
#
# Total GULP energy -145144.042929 kJ/mol
# GULP energy per Si atom -5582.463190 kJ/mol
# Density = 2.689051 g / cm^3
# Si number density = 26.951857 Si / 1000 Ang^3
#
#
#
# Elastic Constant Matrix: (Units=GPa)
#
#
# Indices 1 2 3 4 5 6 
#
# 1 59.8789 47.9563 6.2183 0.0000 21.1100 0.0000
# 2 47.9563 202.5786 53.3376 0.0000 12.8035 0.0000
# 3 6.2183 53.3376 97.8834 0.0000 0.2662 0.0000
# 4 0.0000 0.0000 0.0000 65.9852 0.0000 10.3430
# 5 21.1100 12.8035 0.2662 0.0000 40.8855 0.0000
# 6 0.0000 0.0000 0.0000 10.3430 0.0000 55.3061
#
#
#
# Elastic Compliance Matrix: (Units=1/GPa)
#
#
# Indices 1 2 3 4 5 6 
#
# 1 0.024956 -0.005597 0.001495 0.000000 -0.011142 0.000000
# 2 -0.005597 0.007152 -0.003543 0.000000 0.000673 0.000000
# 3 0.001495 -0.003543 0.012051 0.000000 0.000259 0.000000
# 4 0.000000 0.000000 0.000000 0.015613 0.000000 -0.002920
# 5 -0.011142 0.000673 0.000259 0.000000 0.029999 0.000000
# 6 0.000000 0.000000 0.000000 -0.002920 0.000000 0.018627
#
#
# Mechanical properties :
#
#
# Convention : Reuss Voigt Hill
#
# Bulk Modulus (GPa) = 34.64060 63.92947 49.28504
# Shear Modulus (GPa) = 37.50607 49.29060 43.39834
#
# Velocity S-wave (km/s) = 3.73446 4.28113 4.01710
# Velocity P-wave (km/s) = 5.61031 6.94326 6.31207
#
# Compressibility (1/GPa) = 0.02886786
#
# Stress axis : x y z
#
# Youngs Moduli (GPa) = 40.07052 139.82596 82.97825
#
# Poissons Ratio (x) = 0.78263 -0.12404
# Poissons Ratio (y) = 0.22428 0.29402
# Poissons Ratio (z) = -0.05990 0.49545
#
# Static dielectric constant tensor:
#      x y z
#    x 2.251520 0.000000 -0.033340 
#    y 0.000000 2.030920 0.000000 
#    z -0.033340 0.000000 2.164310 
# 
# From -- ./inp_files/35701.got.cif
#   From: 2010.05.17/outbox.cif.g08.bks.cpg/sg14_18_cif.got.tgz:35701.got - 2010.06.03 17:49:19.
