data_PCOD9252900
_publ_section_title
;
Structure prediction by ZEFSAII (Michael W. Deem and Ramdas Pophale) SiO2 
 PCOD9252900
Probable space group: P 21/C
;
_chemical_formula_sum "Si O2"
_cell_formula_units_Z 24
_cell_length_a 7.952837
_cell_length_b 9.333689
_cell_length_c 13.810380
_cell_angle_alpha 90.000000
_cell_angle_beta 86.574964
_cell_angle_gamma 90.000000
_cell_volume 1023.303862
_symmetry_space_group_name_H-M "P 21/C"
_symmetry_group_IT_number 14
_symmetry_cell_setting 'monoclinic'
loop_
_space_group_symop_operation_xyz
x,y,z
-x,1/2+y,1/2-z
-x,-y,-z
x,1/2-y,1/2+z
loop_
_atom_site_type_symbol
_atom_site_label
_atom_site_fract_x
_atom_site_fract_y
_atom_site_fract_z
Si Si1 0.851978 0.952554 0.721810
Si Si2 0.139741 0.378789 0.992378
Si Si3 0.669441 0.165985 0.038743
Si Si4 0.643273 0.068107 0.427224
Si Si5 0.726513 0.879800 0.930480
Si Si6 0.206319 0.797274 0.753082
O O1 0.834691 0.126274 0.735311
O O2 0.786329 0.901765 0.618414
O O3 0.753068 0.884611 0.815175
O O4 0.039629 0.884262 0.725614
O O5 0.244943 0.426620 0.084411
O O6 0.133561 0.211871 0.015919
O O7 0.000000 0.500000 0.000000
O O8 0.465193 0.168230 0.039055
O O9 0.731931 0.150119 0.144998
O O10 0.729552 0.316316 0.994895
O O11 0.735822 0.040479 0.969561
O O12 0.645639 0.156278 0.327759
O O13 0.500000 0.000000 0.500000
#
# Coordination Sequence:
#
# PCOD9252900 Si02
#       6
#     4   4   4   4   4   4
#     4  12  27  46  72 108 145 191 244 305 375 442
#     4  12  25  46  72 105 146 190 247 302 369 442
#     4  11  26  47  71 107 144 194 243 303 369 440
#     4  12  25  47  70 104 145 191 243 300 362 442
#     4  11  27  47  72 107 149 191 246 305 375 441
#     4  12  28  45  74 108 146 193 248 301 375 441
#
# _framework density 23.453444000000001
#
# number of rings (size 3 to 8) (size 9 to 14) (size 15 to 20)
#    0.000    0.333    6.667    1.000    4.667    0.667 
#    0.000    0.000    0.000    0.000    0.000    0.000 
#    0.000    0.000    0.000    0.000    0.000    0.000 
#
# Total GULP energy -133744.849763 kJ/mol
# GULP energy per Si atom -5572.702073 kJ/mol
# Density = 2.340006 g / cm^3
# Si number density = 23.453444 Si / 1000 Ang^3
#
#
#
# Elastic Constant Matrix: (Units=GPa)
#
#
# Indices 1 2 3 4 5 6 
#
# 1 33.9410 27.2823 -1.2187 0.0000 -1.3489 0.0000
# 2 27.2823 131.9353 40.6733 0.0000 -7.9213 0.0000
# 3 -1.2187 40.6733 169.7220 0.0000 -3.5566 0.0000
# 4 0.0000 0.0000 0.0000 46.2881 0.0000 -1.9964
# 5 -1.3489 -7.9213 -3.5566 0.0000 36.1382 0.0000
# 6 0.0000 0.0000 0.0000 -1.9964 0.0000 41.3849
#
#
#
# Elastic Compliance Matrix: (Units=1/GPa)
#
#
# Indices 1 2 3 4 5 6 
#
# 1 0.036091 -0.008158 0.002209 0.000000 -0.000224 0.000000
# 2 -0.008158 0.010122 -0.002449 0.000000 0.001673 0.000000
# 3 0.002209 -0.002449 0.006499 0.000000 0.000185 0.000000
# 4 0.000000 0.000000 0.000000 0.021649 0.000000 0.001044
# 5 -0.000224 0.001673 0.000185 0.000000 0.028048 0.000000
# 6 0.000000 0.000000 0.000000 0.001044 0.000000 0.024214
#
#
# Mechanical properties :
#
#
# Convention : Reuss Voigt Hill
#
# Bulk Modulus (GPa) = 27.84247 52.11913 39.98080
# Shear Modulus (GPa) = 32.17741 42.68634 37.43187
#
# Velocity S-wave (km/s) = 3.70803 4.27083 3.99934
# Velocity P-wave (km/s) = 5.49816 6.82573 6.19759
#
# Compressibility (1/GPa) = 0.03591636
#
# Stress axis : x y z
#
# Youngs Moduli (GPa) = 27.70812 98.79647 153.87770
#
# Poissons Ratio (x) = 0.80593 -0.33997
# Poissons Ratio (y) = 0.22603 0.37687
# Poissons Ratio (z) = -0.06122 0.24197
#
# Static dielectric constant tensor:
#      x y z
#    x 2.377030 0.000000 -0.236510 
#    y 0.000000 1.840560 0.000000 
#    z -0.236510 0.000000 1.968610 
# 
# From -- ./inp_files/38897.got.cif
#   From: 2010.05.17/outbox.cif.g08.bks.cpg/sg14_20_cif.got.tgz:38897.got - 2010.06.03 17:49:19.
