data_PCOD9252860
_publ_section_title
;
Structure prediction by ZEFSAII (Michael W. Deem and Ramdas Pophale) SiO2 
 PCOD9252860
Probable space group: P 21/C
;
_chemical_formula_sum "Si O2"
_cell_formula_units_Z 20
_cell_length_a 4.957203
_cell_length_b 9.923342
_cell_length_c 16.477211
_cell_angle_alpha 90.000000
_cell_angle_beta 58.290409
_cell_angle_gamma 90.000000
_cell_volume 689.551346
_symmetry_space_group_name_H-M "P 21/C"
_symmetry_group_IT_number 14
_symmetry_cell_setting 'monoclinic'
loop_
_space_group_symop_operation_xyz
x,y,z
-x,1/2+y,1/2-z
-x,-y,-z
x,1/2-y,1/2+z
loop_
_atom_site_type_symbol
_atom_site_label
_atom_site_fract_x
_atom_site_fract_y
_atom_site_fract_z
Si Si1 0.587320 0.915216 0.064936
Si Si2 0.957105 0.052882 0.414674
Si Si3 0.520037 0.706600 0.275201
Si Si4 0.639149 0.786948 0.433540
Si Si5 0.121207 0.467706 0.314768
O O1 0.822708 0.955801 0.097917
O O2 0.220908 0.909681 0.157711
O O3 0.764426 0.791264 0.992441
O O4 0.500000 0.000000 0.000000
O O5 0.676288 0.156289 0.474452
O O6 0.217178 0.131633 0.321466
O O7 0.845678 0.919904 0.383050
O O8 0.000000 0.000000 0.500000
O O9 0.556946 0.698350 0.367226
O O10 0.211080 0.626807 0.289150
O O11 0.596354 0.865604 0.256539
#
# Coordination Sequence:
#
# PCOD9252860 Si02
#       5
#     4   4   4   4   4
#     4  12  26  50  77 110 156 207 265 338 403 473
#     4  11  25  50  76 113 163 213 263 337 414 486
#     4  12  27  48  81 120 161 216 276 338 411 496
#     4  11  26  46  79 112 158 209 270 332 411 485
#     4  12  29  49  78 117 160 209 272 334 409 487
#
# _framework density 29.004369000000001
#
# number of rings (size 3 to 8) (size 9 to 14) (size 15 to 20)
#    0.000    0.400    4.000    3.000    2.800    4.800 
#    0.000    0.000    0.000    0.000    0.000    0.000 
#    0.000    0.000    0.000    0.000    0.000    0.000 
#
# Total GULP energy -111786.386696 kJ/mol
# GULP energy per Si atom -5589.319335 kJ/mol
# Density = 2.893835 g / cm^3
# Si number density = 29.004369 Si / 1000 Ang^3
#
#
#
# Elastic Constant Matrix: (Units=GPa)
#
#
# Indices 1 2 3 4 5 6 
#
# 1 130.4335 20.2828 35.4964 0.0000 -12.5000 0.0000
# 2 20.2828 112.3384 20.5075 0.0000 7.6941 0.0000
# 3 35.4964 20.5075 124.7109 0.0000 -1.4729 0.0000
# 4 0.0000 0.0000 0.0000 54.4688 0.0000 4.8723
# 5 -12.5000 7.6941 -1.4729 0.0000 56.8105 0.0000
# 6 0.0000 0.0000 0.0000 4.8723 0.0000 50.9316
#
#
#
# Elastic Compliance Matrix: (Units=1/GPa)
#
#
# Indices 1 2 3 4 5 6 
#
# 1 0.008669 -0.001297 -0.002230 0.000000 0.002025 0.000000
# 2 -0.001297 0.009466 -0.001206 0.000000 -0.001599 0.000000
# 3 -0.002230 -0.001206 0.008851 0.000000 -0.000098 0.000000
# 4 0.000000 0.000000 0.000000 0.018518 0.000000 -0.001771
# 5 0.002025 -0.001599 -0.000098 0.000000 0.018262 0.000000
# 6 0.000000 0.000000 0.000000 -0.001771 0.000000 0.019804
#
#
# Mechanical properties :
#
#
# Convention : Reuss Voigt Hill
#
# Bulk Modulus (GPa) = 57.08239 57.78402 57.43320
# Shear Modulus (GPa) = 50.56869 51.85524 51.21196
#
# Velocity S-wave (km/s) = 4.18004 4.23288 4.20654
# Velocity P-wave (km/s) = 6.55898 6.62234 6.59074
#
# Compressibility (1/GPa) = 0.01751854
#
# Stress axis : x y z
#
# Youngs Moduli (GPa) = 115.34701 105.64664 112.98676
#
# Poissons Ratio (x) = 0.13701 0.25201
# Poissons Ratio (y) = 0.14959 0.13629
# Poissons Ratio (z) = 0.25727 0.12744
#
# Static dielectric constant tensor:
#      x y z
#    x 2.260140 0.000000 -0.045730 
#    y 0.000000 2.916510 0.000000 
#    z -0.045730 0.000000 2.465950 
# 
# From -- ./inp_files/52928.got.cif
#   From: 2010.05.17/outbox.cif.g08.bks.cpg/sg14_27_cif.got.tgz:52928.got - 2010.06.03 17:49:19.
