data_PCOD9252073
_publ_section_title
;
Structure prediction by ZEFSAII (Michael W. Deem and Ramdas Pophale) SiO2 
 PCOD9252073
Probable space group: P 21/C
;
_chemical_formula_sum "Si O2"
_cell_formula_units_Z 20
_cell_length_a 8.017120
_cell_length_b 16.994814
_cell_length_c 8.915003
_cell_angle_alpha 90.000000
_cell_angle_beta 53.189955
_cell_angle_gamma 90.000000
_cell_volume 972.492290
_symmetry_space_group_name_H-M "P 21/C"
_symmetry_group_IT_number 14
_symmetry_cell_setting 'monoclinic'
loop_
_space_group_symop_operation_xyz
x,y,z
-x,1/2+y,1/2-z
-x,-y,-z
x,1/2-y,1/2+z
loop_
_atom_site_type_symbol
_atom_site_label
_atom_site_fract_x
_atom_site_fract_y
_atom_site_fract_z
Si Si1 0.788620 0.187147 0.583425
Si Si2 0.178542 0.491865 0.527916
Si Si3 0.345233 0.838266 0.014896
Si Si4 0.581645 0.032484 0.613104
Si Si5 0.795961 0.601344 0.184950
O O1 0.767090 0.271541 0.520755
O O2 0.670697 0.187199 0.804860
O O3 0.680080 0.118373 0.544638
O O4 0.025806 0.158100 0.473205
O O5 0.230560 0.578201 0.562384
O O6 0.388216 0.463197 0.332183
O O7 0.134680 0.435868 0.692689
O O8 0.000000 0.500000 0.500000
O O9 0.580035 0.852853 0.831687
O O10 0.500000 0.000000 0.500000
O O11 0.742521 0.970641 0.601392
#
# Coordination Sequence:
#
# PCOD9252073 Si02
#       5
#     4   4   4   4   4
#     4  12  26  44  69  98 138 176 222 276 340 390
#     4  11  23  44  71  97 134 180 228 274 333 397
#     4  11  27  45  63 102 139 172 222 279 332 400
#     4  11  23  42  71 102 130 176 232 274 328 405
#     4  11  24  48  69  93 138 179 224 284 325 394
#
# _framework density 20.565715999999998
#
# number of rings (size 3 to 8) (size 9 to 14) (size 15 to 20)
#    0.000    0.800    4.000    3.000   11.200    3.200 
#    0.000    0.000    0.000    0.000    0.000    0.000 
#    0.000    0.000    0.000    0.000    0.000    0.000 
#
# Total GULP energy -111931.219059 kJ/mol
# GULP energy per Si atom -5596.560953 kJ/mol
# Density = 2.051891 g / cm^3
# Si number density = 20.565716 Si / 1000 Ang^3
#
#
#
# Elastic Constant Matrix: (Units=GPa)
#
#
# Indices 1 2 3 4 5 6 
#
# 1 61.3751 -5.7581 -6.8942 0.0000 -0.1773 0.0000
# 2 -5.7581 49.8011 16.3652 0.0000 -18.1803 0.0000
# 3 -6.8942 16.3652 52.8504 0.0000 2.4141 0.0000
# 4 0.0000 0.0000 0.0000 20.2618 0.0000 0.6581
# 5 -0.1773 -18.1803 2.4141 0.0000 38.5990 0.0000
# 6 0.0000 0.0000 0.0000 0.6581 0.0000 29.7031
#
#
#
# Elastic Compliance Matrix: (Units=1/GPa)
#
#
# Indices 1 2 3 4 5 6 
#
# 1 0.016634 0.001670 0.001618 0.000000 0.000762 0.000000
# 2 0.001670 0.028396 -0.009213 0.000000 0.013959 0.000000
# 3 0.001618 -0.009213 0.022247 0.000000 -0.005723 0.000000
# 4 0.000000 0.000000 0.000000 0.049390 0.000000 -0.001094
# 5 0.000762 0.013959 -0.005723 0.000000 0.032843 0.000000
# 6 0.000000 0.000000 0.000000 -0.001094 0.000000 0.033691
#
#
# Mechanical properties :
#
#
# Convention : Reuss Voigt Hill
#
# Bulk Modulus (GPa) = 18.04198 19.05025 18.54611
# Shear Modulus (GPa) = 23.41640 28.40036 25.90838
#
# Velocity S-wave (km/s) = 3.37800 3.72015 3.55320
# Velocity P-wave (km/s) = 4.89963 5.26649 5.08637
#
# Compressibility (1/GPa) = 0.05542629
#
# Stress axis : x y z
#
# Youngs Moduli (GPa) = 60.11841 35.21626 44.95078
#
# Poissons Ratio (x) = -0.05880 -0.07273
# Poissons Ratio (y) = -0.10037 0.41412
# Poissons Ratio (z) = -0.09728 0.32444
#
# Static dielectric constant tensor:
#      x y z
#    x 1.731500 0.000000 -0.012230 
#    y 0.000000 1.703170 0.000000 
#    z -0.012230 0.000000 1.743270 
# 
# From -- ./inp_files/8963.got.cif
#   From: 2010.05.17/outbox.cif.g08.bks.cpg/sg14_5_cif.got.tgz:8963.got - 2010.06.03 17:49:19.
