data_PCOD9252639
_publ_section_title
;
Structure prediction by ZEFSAII (Michael W. Deem and Ramdas Pophale) SiO2 
 PCOD9252639
Probable space group: P 21/C
;
_chemical_formula_sum "Si O2"
_cell_formula_units_Z 16
_cell_length_a 11.592500
_cell_length_b 10.195045
_cell_length_c 10.593695
_cell_angle_alpha 90.000000
_cell_angle_beta 146.981881
_cell_angle_gamma 90.000000
_cell_volume 682.234838
_symmetry_space_group_name_H-M "P 21/C"
_symmetry_group_IT_number 14
_symmetry_cell_setting 'monoclinic'
loop_
_space_group_symop_operation_xyz
x,y,z
-x,1/2+y,1/2-z
-x,-y,-z
x,1/2-y,1/2+z
loop_
_atom_site_type_symbol
_atom_site_label
_atom_site_fract_x
_atom_site_fract_y
_atom_site_fract_z
Si Si1 0.586429 0.287816 0.820255
Si Si2 0.983323 0.288734 0.535047
Si Si3 0.286009 0.973494 0.379607
Si Si4 0.614266 0.859193 0.122561
O O1 0.448810 0.289229 0.567721
O O2 0.478155 0.214002 0.838400
O O3 0.812379 0.233234 0.986473
O O4 0.634662 0.436313 0.909311
O O5 0.847883 0.348517 0.294834
O O6 0.134847 0.405027 0.719676
O O7 0.131154 0.163890 0.638380
O O8 0.500000 0.000000 0.500000
O O9 0.500000 0.000000 0.000000
#
# Coordination Sequence:
#
# PCOD9252639 Si02
#       4
#     4   4   4   4
#     4  12  27  48  71 114 151 198 257 321 380 469
#     4  11  26  46  77 109 151 203 253 316 402 450
#     4  11  24  48  77 107 150 204 255 318 388 467
#     4  12  31  47  77 112 159 199 262 321 387 471
#
# _framework density 23.452332999999999
#
# number of rings (size 3 to 8) (size 9 to 14) (size 15 to 20)
#    0.000    0.500    5.000    0.000   14.000    1.000 
#    0.000    0.000    0.000    0.000    0.000    0.000 
#    0.000    0.000    0.000    0.000    0.000    0.000 
#
# Total GULP energy -89422.382827 kJ/mol
# GULP energy per Si atom -5588.898927 kJ/mol
# Density = 2.339895 g / cm^3
# Si number density = 23.452333 Si / 1000 Ang^3
#
#
#
# Elastic Constant Matrix: (Units=GPa)
#
#
# Indices 1 2 3 4 5 6 
#
# 1 125.4839 11.8101 61.6212 0.0000 -11.9259 0.0000
# 2 11.8101 59.2257 40.8038 0.0000 -18.6937 0.0000
# 3 61.6212 40.8038 129.9620 0.0000 9.7896 0.0000
# 4 0.0000 0.0000 0.0000 50.1266 0.0000 0.7050
# 5 -11.9259 -18.6937 9.7896 0.0000 33.3536 0.0000
# 6 0.0000 0.0000 0.0000 0.7050 0.0000 47.1730
#
#
#
# Elastic Compliance Matrix: (Units=1/GPa)
#
#
# Indices 1 2 3 4 5 6 
#
# 1 0.012986 0.007572 -0.009412 0.000000 0.011649 0.000000
# 2 0.007572 0.035775 -0.016911 0.000000 0.027722 0.000000
# 3 -0.009412 -0.016911 0.018851 0.000000 -0.018376 0.000000
# 4 0.000000 0.000000 0.000000 0.019954 0.000000 -0.000298
# 5 0.011649 0.027722 -0.018376 0.000000 0.055078 0.000000
# 6 0.000000 0.000000 0.000000 -0.000298 0.000000 0.021203
#
#
# Mechanical properties :
#
#
# Convention : Reuss Voigt Hill
#
# Bulk Modulus (GPa) = 33.21126 60.34910 46.78018
# Shear Modulus (GPa) = 23.65359 39.49306 31.57333
#
# Velocity S-wave (km/s) = 3.17926 4.10807 3.67314
# Velocity P-wave (km/s) = 5.26012 6.94912 6.16275
#
# Compressibility (1/GPa) = 0.03011027
#
# Stress axis : x y z
#
# Youngs Moduli (GPa) = 77.00861 27.95229 53.04813
#
# Poissons Ratio (x) = -0.21165 0.49928
# Poissons Ratio (y) = -0.58310 0.89708
# Poissons Ratio (z) = 0.72480 0.47269
#
# Static dielectric constant tensor:
#      x y z
#    x 2.081420 0.000000 -0.045860 
#    y 0.000000 2.007770 0.000000 
#    z -0.045860 0.000000 1.897520 
# 
# From -- ./inp_files/20304.got.cif
#   From: 2010.05.17/outbox.cif.g08.bks.cpg/sg14_11_cif.got.tgz:20304.got - 2010.06.03 17:49:19.
