data_PCOD9252575
_publ_section_title
;
Structure prediction by ZEFSAII (Michael W. Deem and Ramdas Pophale) SiO2 
 PCOD9252575
Probable space group: P 21/C
;
_chemical_formula_sum "Si O2"
_cell_formula_units_Z 32
_cell_length_a 22.475043
_cell_length_b 9.221391
_cell_length_c 14.082637
_cell_angle_alpha 90.000000
_cell_angle_beta 27.597738
_cell_angle_gamma 90.000000
_cell_volume 1352.093542
_symmetry_space_group_name_H-M "P 21/C"
_symmetry_group_IT_number 14
_symmetry_cell_setting 'monoclinic'
loop_
_space_group_symop_operation_xyz
x,y,z
-x,1/2+y,1/2-z
-x,-y,-z
x,1/2-y,1/2+z
loop_
_atom_site_type_symbol
_atom_site_label
_atom_site_fract_x
_atom_site_fract_y
_atom_site_fract_z
Si Si1 0.131055 0.691083 0.426625
Si Si2 0.808998 0.035789 0.782529
Si Si3 0.327114 0.429548 0.133345
Si Si4 0.093546 0.278631 0.393576
Si Si5 0.564597 0.724870 0.360791
Si Si6 0.640571 0.097175 0.714382
Si Si7 0.532138 0.917560 0.227136
Si Si8 0.097371 0.746291 0.685370
O O1 0.178982 0.846651 0.318774
O O2 0.246697 0.576929 0.261042
O O3 0.076737 0.696763 0.608455
O O4 0.011232 0.654691 0.528314
O O5 0.853822 0.118895 0.814057
O O6 0.891892 0.892074 0.647043
O O7 0.664286 0.981947 0.001700
O O8 0.235343 0.340967 0.192561
O O9 0.356529 0.339332 0.186723
O O10 0.459699 0.465556 0.895122
O O11 0.967460 0.696794 0.416404
O O12 0.429849 0.694988 0.605985
O O13 0.631756 0.568435 0.261437
O O14 0.549943 0.785200 0.275357
O O15 0.557625 0.115343 0.735729
O O16 0.785135 0.141715 0.486982
#
# Coordination Sequence:
#
# PCOD9252575 Si02
#       8
#     4   4   4   4   4   4   4   4
#     4  11  25  46  76 105 153 195 255 309 370 457
#     4  11  26  48  76 109 146 200 254 312 376 465
#     4  12  26  47  72 115 149 197 255 319 380 461
#     4  11  27  49  73 110 152 195 257 309 370 460
#     4  11  27  48  74 113 155 197 260 321 385 468
#     4  11  27  45  75 115 151 199 259 320 386 465
#     4  12  26  47  77 108 151 200 245 316 396 450
#     4  11  24  46  73 105 149 200 247 307 383 436
#
# _framework density 23.667002
#
# number of rings (size 3 to 8) (size 9 to 14) (size 15 to 20)
#    0.000    0.750    0.000    6.750   12.250    3.000 
#    0.000    0.000    0.000    0.000    0.000    0.000 
#    0.000    0.000    0.000    0.000    0.000    0.000 
#
# Total GULP energy -179408.908829 kJ/mol
# GULP energy per Si atom -5606.528401 kJ/mol
# Density = 2.361313 g / cm^3
# Si number density = 23.667002 Si / 1000 Ang^3
#
#
#
# Elastic Constant Matrix: (Units=GPa)
#
#
# Indices 1 2 3 4 5 6 
#
# 1 73.9414 32.4721 19.9183 0.0000 14.3240 0.0000
# 2 32.4721 121.8950 37.9012 0.0000 -4.3482 0.0000
# 3 19.9183 37.9012 106.8692 0.0000 -0.9293 0.0000
# 4 0.0000 0.0000 0.0000 34.0708 0.0000 -0.1539
# 5 14.3240 -4.3482 -0.9293 0.0000 36.6235 0.0000
# 6 0.0000 0.0000 0.0000 -0.1539 0.0000 30.2223
#
#
#
# Elastic Compliance Matrix: (Units=1/GPa)
#
#
# Indices 1 2 3 4 5 6 
#
# 1 0.017319 -0.004329 -0.001756 0.000000 -0.007332 0.000000
# 2 -0.004329 0.010340 -0.002836 0.000000 0.002849 0.000000
# 3 -0.001756 -0.002836 0.010696 0.000000 0.000622 0.000000
# 4 0.000000 0.000000 0.000000 0.029351 0.000000 0.000149
# 5 -0.007332 0.002849 0.000622 0.000000 0.030527 0.000000
# 6 0.000000 0.000000 0.000000 0.000149 0.000000 0.033089
#
#
# Mechanical properties :
#
#
# Convention : Reuss Voigt Hill
#
# Bulk Modulus (GPa) = 48.74994 53.69875 51.22435
# Shear Modulus (GPa) = 32.05099 34.34426 33.19763
#
# Velocity S-wave (km/s) = 3.68400 3.81352 3.74932
# Velocity P-wave (km/s) = 6.22405 6.49070 6.35877
#
# Compressibility (1/GPa) = 0.02051284
#
# Stress axis : x y z
#
# Youngs Moduli (GPa) = 57.74028 96.70874 93.49620
#
# Poissons Ratio (x) = 0.41866 0.16421
# Poissons Ratio (y) = 0.24996 0.26511
# Poissons Ratio (z) = 0.10141 0.27422
#
# Static dielectric constant tensor:
#      x y z
#    x 1.863720 0.000000 -0.011030 
#    y 0.000000 1.941570 0.000000 
#    z -0.011030 0.000000 1.875810 
# 
# From -- ./inp_files/51365.got.cif
#   From: 2010.05.17/outbox.cif.g08.bks.cpg/sg14_26_cif.got.tgz:51365.got - 2010.06.03 17:49:19.
