data_PCOD9252331
_publ_section_title
;
Structure prediction by ZEFSAII (Michael W. Deem and Ramdas Pophale) SiO2 
 PCOD9252331
Probable space group: P 21/C
;
_chemical_formula_sum "Si O2"
_cell_formula_units_Z 32
_cell_length_a 5.447867
_cell_length_b 9.973027
_cell_length_c 26.593498
_cell_angle_alpha 90.000000
_cell_angle_beta 99.308129
_cell_angle_gamma 90.000000
_cell_volume 1425.845680
_symmetry_space_group_name_H-M "P 21/C"
_symmetry_group_IT_number 14
_symmetry_cell_setting 'monoclinic'
loop_
_space_group_symop_operation_xyz
x,y,z
-x,1/2+y,1/2-z
-x,-y,-z
x,1/2-y,1/2+z
loop_
_atom_site_type_symbol
_atom_site_label
_atom_site_fract_x
_atom_site_fract_y
_atom_site_fract_z
Si Si1 0.536491 0.455732 0.662469
Si Si2 0.182177 0.338075 0.718013
Si Si3 0.969493 0.299509 0.958168
Si Si4 0.672682 0.333155 0.134537
Si Si5 0.443325 0.200643 0.909344
Si Si6 0.163423 0.462539 0.234983
Si Si7 0.119418 0.389227 0.072813
Si Si8 0.510708 0.906160 0.681188
O O1 0.265165 0.397622 0.667622
O O2 0.680723 0.316181 0.657978
O O3 0.562512 0.554583 0.616674
O O4 0.615873 0.537357 0.715418
O O5 0.093514 0.186554 0.717366
O O6 0.414341 0.333616 0.764688
O O7 0.021374 0.447629 0.740098
O O8 0.707478 0.220215 0.946325
O O9 0.906163 0.450435 0.936991
O O10 0.195490 0.235482 0.933006
O O11 0.063227 0.317029 0.018073
O O12 0.399632 0.351635 0.099035
O O13 0.658834 0.457074 0.173280
O O14 0.898530 0.350881 0.103597
O O15 0.457681 0.307095 0.863829
O O16 0.238855 0.540010 0.186700
#
# Coordination Sequence:
#
# PCOD9252331 Si02
#       8
#     4   4   4   4   4   4   4   4
#     4  11  28  44  63 102 144 184 229 284 342 405
#     4  11  26  42  64  94 141 181 229 284 337 400
#     4  11  24  45  73 106 136 175 229 293 346 406
#     4  12  25  44  73 102 137 182 229 282 341 418
#     4  12  25  44  73 102 137 182 229 282 341 418
#     4  11  26  42  64  94 141 181 229 284 337 400
#     4  11  24  45  73 106 136 175 229 293 346 406
#     4  11  24  40  63  96 130 180 231 268 336 397
#
# _framework density 22.442822
#
# number of rings (size 3 to 8) (size 9 to 14) (size 15 to 20)
#    0.000    0.750    5.000    0.750   10.500    2.000 
#    0.000    3.750    0.000    0.000    0.000    0.000 
#    0.000    0.000    0.000    0.000    0.000    0.000 
#
# Total GULP energy -178751.843348 kJ/mol
# GULP energy per Si atom -5585.995105 kJ/mol
# Density = 2.239174 g / cm^3
# Si number density = 22.442822 Si / 1000 Ang^3
#
#
#
# Elastic Constant Matrix: (Units=GPa)
#
#
# Indices 1 2 3 4 5 6 
#
# 1 114.6496 29.9212 21.8897 0.0000 -10.2173 0.0000
# 2 29.9212 137.0359 17.5615 0.0000 -5.5996 0.0000
# 3 21.8897 17.5615 74.0473 0.0000 -4.3084 0.0000
# 4 0.0000 0.0000 0.0000 35.7540 0.0000 -3.3347
# 5 -10.2173 -5.5996 -4.3084 0.0000 44.4715 0.0000
# 6 0.0000 0.0000 0.0000 -3.3347 0.0000 33.3812
#
#
#
# Elastic Compliance Matrix: (Units=1/GPa)
#
#
# Indices 1 2 3 4 5 6 
#
# 1 0.009795 -0.001761 -0.002373 0.000000 0.001799 0.000000
# 2 -0.001761 0.007870 -0.001319 0.000000 0.000458 0.000000
# 3 -0.002373 -0.001319 0.014560 0.000000 0.000699 0.000000
# 4 0.000000 0.000000 0.000000 0.028232 0.000000 0.002820
# 5 0.001799 0.000458 0.000699 0.000000 0.023025 0.000000
# 6 0.000000 0.000000 0.000000 0.002820 0.000000 0.030239
#
#
# Mechanical properties :
#
#
# Convention : Reuss Voigt Hill
#
# Bulk Modulus (GPa) = 46.90905 51.60863 49.25884
# Shear Modulus (GPa) = 37.95535 39.81204 38.88369
#
# Velocity S-wave (km/s) = 4.11688 4.21638 4.16693
# Velocity P-wave (km/s) = 6.59888 6.83735 6.71917
#
# Compressibility (1/GPa) = 0.02131785
#
# Stress axis : x y z
#
# Youngs Moduli (GPa) = 102.09004 127.07012 68.68123
#
# Poissons Ratio (x) = 0.22378 0.16300
# Poissons Ratio (y) = 0.17979 0.09060
# Poissons Ratio (z) = 0.24229 0.16762
#
# Static dielectric constant tensor:
#      x y z
#    x 2.011110 0.000000 0.062970 
#    y 0.000000 1.847910 0.000000 
#    z 0.062970 0.000000 1.848750 
# 
# From -- ./inp_files/78708.got.cif
#   From: 2010.05.17/outbox.cif.g08.bks.cpg/sg14_40_cif.got.tgz:78708.got - 2010.06.03 17:49:19.
