data_PCOD9252048
_publ_section_title
;
Structure prediction by ZEFSAII (Michael W. Deem and Ramdas Pophale) SiO2 
 PCOD9252048
Probable space group: P 21/C
;
_chemical_formula_sum "Si O2"
_cell_formula_units_Z 12
_cell_length_a 11.531574
_cell_length_b 5.171718
_cell_length_c 20.873721
_cell_angle_alpha 90.000000
_cell_angle_beta 156.868004
_cell_angle_gamma 90.000000
_cell_volume 489.047283
_symmetry_space_group_name_H-M "P 21/C"
_symmetry_group_IT_number 14
_symmetry_cell_setting 'monoclinic'
loop_
_space_group_symop_operation_xyz
x,y,z
-x,1/2+y,1/2-z
-x,-y,-z
x,1/2-y,1/2+z
loop_
_atom_site_type_symbol
_atom_site_label
_atom_site_fract_x
_atom_site_fract_y
_atom_site_fract_z
Si Si1 0.708363 0.707534 0.140476
Si Si2 0.680771 0.890876 0.860726
Si Si3 0.206213 0.062706 0.941966
O O1 0.928617 0.624971 0.308505
O O2 0.496539 0.919261 0.064267
O O3 0.500000 0.500000 0.000000
O O4 0.897067 0.785527 0.173709
O O5 0.539834 0.640082 0.754398
O O6 0.722834 0.801458 0.956079
O O7 0.000000 0.000000 0.000000
#
# Coordination Sequence:
#
# PCOD9252048 Si02
#       3
#     4   4   4
#     4  11  23  42  66 104 131 178 221 299 354 412
#     4  12  29  50  75 108 148 201 246 299 359 439
#     4  11  25  41  73  97 142 175 238 286 360 422
#
# _framework density 24.537504999999999
#
# number of rings (size 3 to 8) (size 9 to 14) (size 15 to 20)
#    0.000    0.667    3.333    3.000    9.333    0.000 
#    0.000    0.000    0.000    0.000    0.000    0.000 
#    0.000    0.000    0.000    0.000    0.000    0.000 
#
# Total GULP energy -67001.554089 kJ/mol
# GULP energy per Si atom -5583.462841 kJ/mol
# Density = 2.448166 g / cm^3
# Si number density = 24.537505 Si / 1000 Ang^3
#
#
#
# Elastic Constant Matrix: (Units=GPa)
#
#
# Indices 1 2 3 4 5 6 
#
# 1 55.4445 -8.4239 17.3504 0.0000 -13.3514 0.0000
# 2 -8.4239 56.1747 11.3195 0.0000 -0.5216 0.0000
# 3 17.3504 11.3195 110.4931 0.0000 0.0465 0.0000
# 4 0.0000 0.0000 0.0000 41.3535 0.0000 4.7908
# 5 -13.3514 -0.5216 0.0465 0.0000 41.1022 0.0000
# 6 0.0000 0.0000 0.0000 4.7908 0.0000 23.9697
#
#
#
# Elastic Compliance Matrix: (Units=1/GPa)
#
#
# Indices 1 2 3 4 5 6 
#
# 1 0.021541 0.004062 -0.003802 0.000000 0.007053 0.000000
# 2 0.004062 0.018945 -0.002579 0.000000 0.001563 0.000000
# 3 -0.003802 -0.002579 0.009912 0.000000 -0.001279 0.000000
# 4 0.000000 0.000000 0.000000 0.024755 0.000000 -0.004948
# 5 0.007053 0.001563 -0.001279 0.000000 0.026642 0.000000
# 6 0.000000 0.000000 0.000000 -0.004948 0.000000 0.042708
#
#
# Mechanical properties :
#
#
# Convention : Reuss Voigt Hill
#
# Bulk Modulus (GPa) = 21.85307 29.17826 25.51566
# Shear Modulus (GPa) = 30.41454 34.74284 32.57869
#
# Velocity S-wave (km/s) = 3.52449 3.76694 3.64773
# Velocity P-wave (km/s) = 5.04857 5.55309 5.30683
#
# Compressibility (1/GPa) = 0.04576016
#
# Stress axis : x y z
#
# Youngs Moduli (GPa) = 46.42242 52.78444 100.88700
#
# Poissons Ratio (x) = -0.21440 0.38354
# Poissons Ratio (y) = -0.18856 0.26022
# Poissons Ratio (z) = 0.17648 0.13615
#
# Static dielectric constant tensor:
#      x y z
#    x 1.997200 0.000000 0.021980 
#    y 0.000000 2.459320 0.000000 
#    z 0.021980 0.000000 2.050180 
# 
# From -- ./inp_files/7061.got.cif
#   From: 2010.05.17/outbox.cif.g08.bks.cpg/sg14_4_cif.got.tgz:7061.got - 2010.06.03 17:49:19.
