data_PCOD9252328
_publ_section_title
;
Structure prediction by ZEFSAII (Michael W. Deem and Ramdas Pophale) SiO2 
 PCOD9252328
Probable space group: P 21/C
;
_chemical_formula_sum "Si O2"
_cell_formula_units_Z 22
_cell_length_a 11.153452
_cell_length_b 4.880931
_cell_length_c 22.348839
_cell_angle_alpha 90.000000
_cell_angle_beta 136.306870
_cell_angle_gamma 90.000000
_cell_volume 840.459084
_symmetry_space_group_name_H-M "P 21/C"
_symmetry_group_IT_number 14
_symmetry_cell_setting 'monoclinic'
loop_
_space_group_symop_operation_xyz
x,y,z
-x,1/2+y,1/2-z
-x,-y,-z
x,1/2-y,1/2+z
loop_
_atom_site_type_symbol
_atom_site_label
_atom_site_fract_x
_atom_site_fract_y
_atom_site_fract_z
Si Si1 0.895019 0.746174 0.732019
Si Si2 0.414897 0.603312 0.248044
Si Si3 0.041975 0.428324 0.119562
Si Si4 0.509165 0.788300 0.099549
Si Si5 0.721771 0.752351 0.486399
Si Si6 0.000000 0.000000 0.000000
O O1 0.901472 0.768031 0.806354
O O2 0.697029 0.785898 0.641140
O O3 0.041149 0.942558 0.759176
O O4 0.493399 0.899906 0.265602
O O5 0.208177 0.612401 0.162315
O O6 0.449243 0.464024 0.324793
O O7 0.985651 0.244289 0.044226
O O8 0.884690 0.624077 0.081208
O O9 0.405031 0.508148 0.070116
O O10 0.382653 0.003705 0.021114
O O11 0.817992 0.639171 0.461758
#
# Coordination Sequence:
#
# PCOD9252328 Si02
#       6
#     4   4   4   4   4   2
#     4  11  27  52  79 100 139 197 254 303 358 426
#     4  11  24  38  62  97 139 189 233 279 349 431
#     4  11  27  43  75 105 149 187 243 296 371 427
#     4  11  24  45  68 101 144 183 244 302 354 434
#     4  12  25  43  69 110 149 186 228 298 372 430
#     4  12  24  42  70 106 152 186 224 286 370 442
#
# _framework density 26.176169000000002
#
# number of rings (size 3 to 8) (size 9 to 14) (size 15 to 20)
#    0.000    0.727    1.818    4.909    7.636    2.909 
#    0.000    5.455    0.000    0.000    0.000    0.000 
#    0.000    0.000    0.000    0.000    0.000    0.000 
#
# Total GULP energy -122881.149389 kJ/mol
# GULP energy per Si atom -5585.506790 kJ/mol
# Density = 2.611659 g / cm^3
# Si number density = 26.176169 Si / 1000 Ang^3
#
#
#
# Elastic Constant Matrix: (Units=GPa)
#
#
# Indices 1 2 3 4 5 6 
#
# 1 97.4399 20.2532 53.1522 0.0000 39.5856 0.0000
# 2 20.2532 111.0003 47.4883 0.0000 15.3975 0.0000
# 3 53.1522 47.4883 97.7508 0.0000 55.2208 0.0000
# 4 0.0000 0.0000 0.0000 23.1576 0.0000 11.7852
# 5 39.5856 15.3975 55.2208 0.0000 48.7786 0.0000
# 6 0.0000 0.0000 0.0000 11.7852 0.0000 38.7646
#
#
#
# Elastic Compliance Matrix: (Units=1/GPa)
#
#
# Indices 1 2 3 4 5 6 
#
# 1 0.015789 -0.000126 -0.003628 0.000000 -0.008666 0.000000
# 2 -0.000126 0.012423 -0.010567 0.000000 0.008144 0.000000
# 3 -0.003628 -0.010567 0.038252 0.000000 -0.037023 0.000000
# 4 0.000000 0.000000 0.000000 0.051086 0.000000 -0.015531
# 5 -0.008666 0.008144 -0.037023 0.000000 0.066876 0.000000
# 6 0.000000 0.000000 0.000000 -0.015531 0.000000 0.030518
#
#
# Mechanical properties :
#
#
# Convention : Reuss Voigt Hill
#
# Bulk Modulus (GPa) = 26.44124 60.88647 43.66386
# Shear Modulus (GPa) = 19.51641 34.49332 27.00487
#
# Velocity S-wave (km/s) = 2.73349 3.63400 3.21543
# Velocity P-wave (km/s) = 4.48172 6.39678 5.52289
#
# Compressibility (1/GPa) = 0.03781970
#
# Stress axis : x y z
#
# Youngs Moduli (GPa) = 63.33628 80.49432 26.14262
#
# Poissons Ratio (x) = 0.01018 0.09486
# Poissons Ratio (y) = 0.00801 0.27625
# Poissons Ratio (z) = 0.22981 0.85060
#
# Static dielectric constant tensor:
#      x y z
#    x 2.032590 0.000000 0.020080 
#    y 0.000000 1.944710 0.000000 
#    z 0.020080 0.000000 1.985320 
# 
# From -- ./inp_files/76873.got.cif
#   From: 2010.05.17/outbox.cif.g08.bks.cpg/sg14_39_cif.got.tgz:76873.got - 2010.06.03 17:49:19.
