data_PCOD9252979
_publ_section_title
;
Structure prediction by ZEFSAII (Michael W. Deem and Ramdas Pophale) SiO2 
 PCOD9252979
Probable space group: P 21/C
;
_chemical_formula_sum "Si O2"
_cell_formula_units_Z 32
_cell_length_a 13.311302
_cell_length_b 16.124667
_cell_length_c 10.908752
_cell_angle_alpha 90.000000
_cell_angle_beta 145.213689
_cell_angle_gamma 90.000000
_cell_volume 1335.842408
_symmetry_space_group_name_H-M "P 21/C"
_symmetry_group_IT_number 14
_symmetry_cell_setting 'monoclinic'
loop_
_space_group_symop_operation_xyz
x,y,z
-x,1/2+y,1/2-z
-x,-y,-z
x,1/2-y,1/2+z
loop_
_atom_site_type_symbol
_atom_site_label
_atom_site_fract_x
_atom_site_fract_y
_atom_site_fract_z
Si Si1 0.682201 0.883233 0.643180
Si Si2 0.214933 0.948857 0.374560
Si Si3 0.710144 0.313198 0.217531
Si Si4 0.158601 0.094557 0.934208
Si Si5 0.162009 0.290659 0.911883
Si Si6 0.482624 0.927304 0.837996
Si Si7 0.785842 0.310084 0.567802
Si Si8 0.467715 0.114785 0.853392
O O1 0.490068 0.845149 0.470448
O O2 0.795122 0.814890 0.684477
O O3 0.696046 0.964100 0.570666
O O4 0.760196 0.911850 0.849321
O O5 0.185322 0.896008 0.220868
O O6 0.357616 0.900914 0.601479
O O7 0.027747 0.952109 0.254931
O O8 0.768442 0.280847 0.409184
O O9 0.742949 0.251797 0.136736
O O10 0.127789 0.193084 0.886051
O O11 0.314262 0.068903 0.998985
O O12 0.987156 0.336351 0.782198
O O13 0.325770 0.321580 0.157793
O O14 0.409088 0.018953 0.796587
O O15 0.478129 0.869017 0.951937
O O16 0.637900 0.379405 0.437524
#
# Coordination Sequence:
#
# PCOD9252979 Si02
#       8
#     4   4   4   4   4   4   4   4
#     4  12  26  46  80 103 151 190 256 311 378 443
#     4  12  25  50  74 113 145 196 253 313 380 445
#     4  12  26  48  75 113 149 201 247 315 376 455
#     4  12  28  44  76 107 147 195 250 313 375 452
#     4  12  27  48  70 112 146 195 243 312 374 450
#     4  11  27  48  73 106 146 197 248 309 373 457
#     4  12  28  46  76 107 154 194 251 310 380 449
#     4  11  27  48  73 106 148 198 248 304 381 447
#
# _framework density 23.954923000000001
#
# number of rings (size 3 to 8) (size 9 to 14) (size 15 to 20)
#    0.000    0.250    5.000    2.250    8.750    1.000 
#    0.000    2.500    0.000    0.000    0.000    0.000 
#    0.000    0.000    0.000    0.000    0.000    0.000 
#
# Total GULP energy -179083.755604 kJ/mol
# GULP energy per Si atom -5596.367363 kJ/mol
# Density = 2.390040 g / cm^3
# Si number density = 23.954923 Si / 1000 Ang^3
#
#
#
# Elastic Constant Matrix: (Units=GPa)
#
#
# Indices 1 2 3 4 5 6 
#
# 1 130.1852 10.1372 43.9422 0.0000 4.8642 0.0000
# 2 10.1372 52.7863 -2.4861 0.0000 -7.7649 0.0000
# 3 43.9422 -2.4861 73.1201 0.0000 16.3197 0.0000
# 4 0.0000 0.0000 0.0000 7.5149 0.0000 -6.1413
# 5 4.8642 -7.7649 16.3197 0.0000 57.6789 0.0000
# 6 0.0000 0.0000 0.0000 -6.1413 0.0000 38.5612
#
#
#
# Elastic Compliance Matrix: (Units=1/GPa)
#
#
# Indices 1 2 3 4 5 6 
#
# 1 0.009901 -0.002100 -0.006161 0.000000 0.000626 0.000000
# 2 -0.002100 0.019773 0.001388 0.000000 0.002446 0.000000
# 3 -0.006161 0.001388 0.018432 0.000000 -0.004509 0.000000
# 4 0.000000 0.000000 0.000000 0.152980 0.000000 0.024364
# 5 0.000626 0.002446 -0.004509 0.000000 0.018890 0.000000
# 6 0.000000 0.000000 0.000000 0.024364 0.000000 0.029813
#
#
# Mechanical properties :
#
#
# Convention : Reuss Voigt Hill
#
# Bulk Modulus (GPa) = 29.10297 39.91978 34.51138
# Shear Modulus (GPa) = 18.18266 34.38421 26.28344
#
# Velocity S-wave (km/s) = 2.75805 3.79274 3.31600
# Velocity P-wave (km/s) = 4.72418 5.99004 5.39437
#
# Compressibility (1/GPa) = 0.03436076
#
# Stress axis : x y z
#
# Youngs Moduli (GPa) = 100.99895 50.57466 54.25271
#
# Poissons Ratio (x) = 0.10619 0.33426
# Poissons Ratio (y) = 0.21206 -0.07531
# Poissons Ratio (z) = 0.62227 -0.07020
#
# Static dielectric constant tensor:
#      x y z
#    x 1.905420 0.000000 -0.031710 
#    y 0.000000 1.983000 0.000000 
#    z -0.031710 0.000000 1.925460 
# 
# From -- ./inp_files/32991.got.cif
#   From: 2010.05.17/outbox.cif.g08.bks.cpg/sg14_17_cif.got.tgz:32991.got - 2010.06.03 17:49:19.
