data_PCOD9252896
_publ_section_title
;
Structure prediction by ZEFSAII (Michael W. Deem and Ramdas Pophale) SiO2 
 PCOD9252896
Probable space group: P 21/C
;
_chemical_formula_sum "Si O2"
_cell_formula_units_Z 30
_cell_length_a 15.716986
_cell_length_b 11.466319
_cell_length_c 9.372192
_cell_angle_alpha 90.000000
_cell_angle_beta 123.333236
_cell_angle_gamma 90.000000
_cell_volume 1411.156131
_symmetry_space_group_name_H-M "P 21/C"
_symmetry_group_IT_number 14
_symmetry_cell_setting 'monoclinic'
loop_
_space_group_symop_operation_xyz
x,y,z
-x,1/2+y,1/2-z
-x,-y,-z
x,1/2-y,1/2+z
loop_
_atom_site_type_symbol
_atom_site_label
_atom_site_fract_x
_atom_site_fract_y
_atom_site_fract_z
Si Si1 0.500000 0.000000 0.500000
Si Si2 0.904380 0.873784 0.013870
Si Si3 0.214371 0.481554 0.043862
Si Si4 0.441690 0.777304 0.602794
Si Si5 0.187201 0.318070 0.263538
Si Si6 0.865908 0.395884 0.315268
Si Si7 0.692846 0.216653 0.261931
Si Si8 0.370942 0.194100 0.539315
O O1 0.442489 0.914570 0.565628
O O2 0.572741 0.888598 0.522927
O O3 0.866686 0.842815 0.136469
O O4 0.022865 0.841664 0.105448
O O5 0.844448 0.802541 0.838702
O O6 0.882366 0.008593 0.955251
O O7 0.156886 0.412693 0.116497
O O8 0.264491 0.589471 0.172021
O O9 0.291166 0.385378 0.051958
O O10 0.159103 0.537639 0.855930
O O11 0.407341 0.712771 0.428313
O O12 0.350783 0.741700 0.627103
O O13 0.544712 0.739762 0.773394
O O14 0.306997 0.299713 0.409625
O O15 0.776875 0.305561 0.276063
#
# Coordination Sequence:
#
# PCOD9252896 Si02
#       8
#     2   4   4   4   4   4   4   4
#     4  12  24  44  68  98 148 184 232 308 342 422
#     4  11  26  46  77 108 142 194 243 303 379 432
#     4  12  26  48  72 104 149 188 242 302 366 431
#     4  12  27  42  72 104 143 195 245 287 375 421
#     4  12  26  47  75 109 145 191 244 299 373 439
#     4  11  26  50  73 105 149 188 246 311 366 439
#     4  12  26  47  69 107 143 195 241 301 365 433
#     4  12  25  46  71 105 145 191 241 302 351 443
#
# _framework density 21.259163999999998
#
# number of rings (size 3 to 8) (size 9 to 14) (size 15 to 20)
#    0.000    0.267    6.667    0.800    3.733    2.133 
#    2.400    0.000    0.000    0.000    0.000    0.000 
#    0.000    0.000    0.000    0.000    0.000    0.000 
#
# Total GULP energy -167079.762831 kJ/mol
# GULP energy per Si atom -5569.325428 kJ/mol
# Density = 2.121078 g / cm^3
# Si number density = 21.259164 Si / 1000 Ang^3
#
#
#
# Elastic Constant Matrix: (Units=GPa)
#
#
# Indices 1 2 3 4 5 6 
#
# 1 90.7799 8.9068 43.9503 0.0000 -22.5178 0.0000
# 2 8.9068 26.2268 21.2229 0.0000 -9.7239 0.0000
# 3 43.9503 21.2229 70.7231 0.0000 -8.1587 0.0000
# 4 0.0000 0.0000 0.0000 21.8181 0.0000 -7.4634
# 5 -22.5178 -9.7239 -8.1587 0.0000 41.5546 0.0000
# 6 0.0000 0.0000 0.0000 -7.4634 0.0000 38.0283
#
#
#
# Elastic Compliance Matrix: (Units=1/GPa)
#
#
# Indices 1 2 3 4 5 6 
#
# 1 0.018863 0.007531 -0.012891 0.000000 0.009453 0.000000
# 2 0.007531 0.056901 -0.020206 0.000000 0.013429 0.000000
# 3 -0.012891 -0.020206 0.027486 0.000000 -0.006317 0.000000
# 4 0.000000 0.000000 0.000000 0.049132 0.000000 0.009643
# 5 0.009453 0.013429 -0.006317 0.000000 0.031089 0.000000
# 6 0.000000 0.000000 0.000000 0.009643 0.000000 0.028189
#
#
# Mechanical properties :
#
#
# Convention : Reuss Voigt Hill
#
# Bulk Modulus (GPa) = 19.18800 37.32110 28.25455
# Shear Modulus (GPa) = 17.84668 27.85685 22.85177
#
# Velocity S-wave (km/s) = 2.90052 3.62380 3.28214
# Velocity P-wave (km/s) = 4.50142 5.92475 5.26143
#
# Compressibility (1/GPa) = 0.05211592
#
# Stress axis : x y z
#
# Youngs Moduli (GPa) = 53.01442 17.57443 36.38266
#
# Poissons Ratio (x) = -0.13235 0.46903
# Poissons Ratio (y) = -0.39923 0.73514
# Poissons Ratio (z) = 0.68343 0.35510
#
# Static dielectric constant tensor:
#      x y z
#    x 1.825490 0.000000 -0.018610 
#    y 0.000000 1.771480 0.000000 
#    z -0.018610 0.000000 1.764690 
# 
# From -- ./inp_files/15933.got.cif
#   From: 2010.05.17/outbox.cif.g08.bks.cpg/sg14_8_cif.got.tgz:15933.got - 2010.06.03 17:49:19.
