data_PCOD9252720
_publ_section_title
;
Structure prediction by ZEFSAII (Michael W. Deem and Ramdas Pophale) SiO2 
 PCOD9252720
Probable space group: P 21/C
;
_chemical_formula_sum "Si O2"
_cell_formula_units_Z 32
_cell_length_a 15.293879
_cell_length_b 9.985102
_cell_length_c 9.085794
_cell_angle_alpha 90.000000
_cell_angle_beta 82.526508
_cell_angle_gamma 90.000000
_cell_volume 1375.713544
_symmetry_space_group_name_H-M "P 21/C"
_symmetry_group_IT_number 14
_symmetry_cell_setting 'monoclinic'
loop_
_space_group_symop_operation_xyz
x,y,z
-x,1/2+y,1/2-z
-x,-y,-z
x,1/2-y,1/2+z
loop_
_atom_site_type_symbol
_atom_site_label
_atom_site_fract_x
_atom_site_fract_y
_atom_site_fract_z
Si Si1 0.717169 0.746996 0.793336
Si Si2 0.858530 0.157610 0.157961
Si Si3 0.174679 0.469250 0.065798
Si Si4 0.092044 0.148196 0.325024
Si Si5 0.700821 0.323040 0.123551
Si Si6 0.590690 0.332859 0.437279
Si Si7 0.045808 0.880856 0.172189
Si Si8 0.605642 0.618306 0.557916
O O1 0.804618 0.829512 0.731136
O O2 0.671757 0.668926 0.669088
O O3 0.755988 0.641217 0.900139
O O4 0.646003 0.835343 0.893518
O O5 0.857714 0.045493 0.282673
O O6 0.758384 0.188943 0.134299
O O7 0.895579 0.290860 0.229167
O O8 0.911572 0.121459 0.999911
O O9 0.094342 0.405666 0.991664
O O10 0.228373 0.573193 0.954209
O O11 0.042006 0.289279 0.321678
O O12 0.051169 0.032746 0.230772
O O13 0.655482 0.359353 0.286386
O O14 0.627299 0.294108 0.017390
O O15 0.592656 0.459070 0.547937
O O16 0.491137 0.318212 0.402701
#
# Coordination Sequence:
#
# PCOD9252720 Si02
#       8
#     4   4   4   4   4   4   4   4
#     4  12  27  49  76 108 152 203 248 305 387 447
#     4  12  25  44  78 107 155 195 255 308 384 444
#     4  12  26  48  76 109 145 203 249 311 372 462
#     4  12  30  53  79 111 156 197 254 315 383 451
#     4  12  22  46  75 110 150 197 254 303 384 444
#     4  11  25  44  76 112 151 199 250 317 367 449
#     4  12  29  50  78 114 151 198 253 317 379 454
#     4  11  26  48  73 111 155 195 255 308 377 451
#
# _framework density 23.260656999999998
#
# number of rings (size 3 to 8) (size 9 to 14) (size 15 to 20)
#    0.000    0.250    5.000    2.250    7.000    1.500 
#    0.000    2.500    0.000    0.000    0.000    0.000 
#    0.000    0.000    0.000    0.000    0.000    0.000 
#
# Total GULP energy -179300.036317 kJ/mol
# GULP energy per Si atom -5603.126135 kJ/mol
# Density = 2.320771 g / cm^3
# Si number density = 23.260657 Si / 1000 Ang^3
#
#
#
# Elastic Constant Matrix: (Units=GPa)
#
#
# Indices 1 2 3 4 5 6 
#
# 1 122.6365 39.1297 36.6974 0.0000 7.3759 0.0000
# 2 39.1297 92.6211 30.4615 0.0000 10.8482 0.0000
# 3 36.6974 30.4615 111.3619 0.0000 7.7414 0.0000
# 4 0.0000 0.0000 0.0000 32.5133 0.0000 10.3663
# 5 7.3759 10.8482 7.7414 0.0000 36.4639 0.0000
# 6 0.0000 0.0000 0.0000 10.3663 0.0000 34.5633
#
#
#
# Elastic Compliance Matrix: (Units=1/GPa)
#
#
# Indices 1 2 3 4 5 6 
#
# 1 0.009959 -0.003384 -0.002320 0.000000 -0.000515 0.000000
# 2 -0.003384 0.013320 -0.002335 0.000000 -0.002783 0.000000
# 3 -0.002320 -0.002335 0.010456 0.000000 -0.001056 0.000000
# 4 0.000000 0.000000 0.000000 0.034009 0.000000 -0.010200
# 5 -0.000515 -0.002783 -0.001056 0.000000 0.028581 0.000000
# 6 0.000000 0.000000 0.000000 -0.010200 0.000000 0.031992
#
#
# Mechanical properties :
#
#
# Convention : Reuss Voigt Hill
#
# Bulk Modulus (GPa) = 56.63450 59.91074 58.27262
# Shear Modulus (GPa) = 33.27090 35.39681 34.33386
#
# Velocity S-wave (km/s) = 3.78610 3.90519 3.84611
# Velocity P-wave (km/s) = 6.59647 6.79310 6.69550
#
# Compressibility (1/GPa) = 0.01765708
#
# Stress axis : x y z
#
# Youngs Moduli (GPa) = 100.40904 75.07415 95.63434
#
# Poissons Ratio (x) = 0.25405 0.22191
# Poissons Ratio (y) = 0.33979 0.22330
# Poissons Ratio (z) = 0.23299 0.17530
#
# Static dielectric constant tensor:
#      x y z
#    x 1.858070 0.000000 -0.006690 
#    y 0.000000 1.899100 0.000000 
#    z -0.006690 0.000000 1.884480 
# 
# From -- ./inp_files/15821.got.cif
#   From: 2010.05.17/outbox.cif.g08.bks.cpg/sg14_8_cif.got.tgz:15821.got - 2010.06.03 17:49:19.
