data_PCOD9252734
_publ_section_title
;
Structure prediction by ZEFSAII (Michael W. Deem and Ramdas Pophale) SiO2 
 PCOD9252734
Probable space group: P 21/C
;
_chemical_formula_sum "Si O2"
_cell_formula_units_Z 20
_cell_length_a 8.851011
_cell_length_b 4.967503
_cell_length_c 19.965176
_cell_angle_alpha 90.000000
_cell_angle_beta 74.797917
_cell_angle_gamma 90.000000
_cell_volume 847.099856
_symmetry_space_group_name_H-M "P 21/C"
_symmetry_group_IT_number 14
_symmetry_cell_setting 'monoclinic'
loop_
_space_group_symop_operation_xyz
x,y,z
-x,1/2+y,1/2-z
-x,-y,-z
x,1/2-y,1/2+z
loop_
_atom_site_type_symbol
_atom_site_label
_atom_site_fract_x
_atom_site_fract_y
_atom_site_fract_z
Si Si1 0.277096 0.031020 0.641238
Si Si2 0.465145 0.517679 0.581148
Si Si3 0.780861 0.955498 0.088598
Si Si4 0.927783 0.823931 0.449094
Si Si5 0.385916 0.200440 0.766910
O O1 0.320494 0.332612 0.615019
O O2 0.135184 0.993456 0.604890
O O3 0.277799 0.066350 0.721163
O O4 0.413343 0.817293 0.607994
O O5 0.500000 0.500000 0.500000
O O6 0.617676 0.386486 0.598319
O O7 0.934377 0.122062 0.088962
O O8 0.726019 0.763662 0.155467
O O9 0.804941 0.832994 0.011446
O O10 0.000000 0.000000 0.500000
O O11 0.471758 0.482942 0.740512
#
# Coordination Sequence:
#
# PCOD9252734 Si02
#       5
#     4   4   4   4   4
#     4  12  25  45  71 106 139 185 239 297 359 428
#     4  12  23  41  75 103 133 179 247 295 348 413
#     4  11  25  45  70 101 144 186 235 300 355 428
#     4  11  27  46  70 102 146 190 239 294 367 429
#     4  12  25  46  73 107 140 184 240 300 359 428
#
# _framework density 23.609969
#
# number of rings (size 3 to 8) (size 9 to 14) (size 15 to 20)
#    0.000    0.400    6.000    1.800    8.400    0.000 
#    3.600    0.000    0.000    0.000    0.000    0.000 
#    0.000    0.000    0.000    0.000    0.000    0.000 
#
# Total GULP energy -111408.077596 kJ/mol
# GULP energy per Si atom -5570.403880 kJ/mol
# Density = 2.355623 g / cm^3
# Si number density = 23.609969 Si / 1000 Ang^3
#
#
#
# Elastic Constant Matrix: (Units=GPa)
#
#
# Indices 1 2 3 4 5 6 
#
# 1 101.8108 17.8984 39.5552 0.0000 14.0944 0.0000
# 2 17.8984 66.8288 3.5313 0.0000 2.4217 0.0000
# 3 39.5552 3.5313 91.6430 0.0000 7.2416 0.0000
# 4 0.0000 0.0000 0.0000 23.8050 0.0000 10.2878
# 5 14.0944 2.4217 7.2416 0.0000 32.7831 0.0000
# 6 0.0000 0.0000 0.0000 10.2878 0.0000 27.3408
#
#
#
# Elastic Compliance Matrix: (Units=1/GPa)
#
#
# Indices 1 2 3 4 5 6 
#
# 1 0.012932 -0.003040 -0.005133 0.000000 -0.004202 0.000000
# 2 -0.003040 0.015741 0.000707 0.000000 -0.000012 0.000000
# 3 -0.005133 0.000707 0.013160 0.000000 -0.000752 0.000000
# 4 0.000000 0.000000 0.000000 0.050166 0.000000 -0.018876
# 5 -0.004202 -0.000012 -0.000752 0.000000 0.032477 0.000000
# 6 0.000000 0.000000 0.000000 -0.018876 0.000000 0.043678
#
#
# Mechanical properties :
#
#
# Convention : Reuss Voigt Hill
#
# Bulk Modulus (GPa) = 37.17437 42.47248 39.82342
# Shear Modulus (GPa) = 26.03442 30.07229 28.05335
#
# Velocity S-wave (km/s) = 3.32428 3.57278 3.45077
# Velocity P-wave (km/s) = 5.52393 5.92013 5.72546
#
# Compressibility (1/GPa) = 0.02690025
#
# Stress axis : x y z
#
# Youngs Moduli (GPa) = 77.32504 63.52862 75.99044
#
# Poissons Ratio (x) = 0.19314 0.39004
# Poissons Ratio (y) = 0.23508 -0.05369
# Poissons Ratio (z) = 0.39689 -0.04489
#
# Static dielectric constant tensor:
#      x y z
#    x 2.091450 0.000000 0.055670 
#    y 0.000000 -0.172380 0.000000 
#    z 0.055670 0.000000 2.073200 
# 
# From -- ./inp_files/63991.got.cif
#   From: 2010.05.17/outbox.cif.g08.bks.cpg/sg14_32_cif.got.tgz:63991.got - 2010.06.03 17:49:19.
