data_PCOD9252902
_publ_section_title
;
Structure prediction by ZEFSAII (Michael W. Deem and Ramdas Pophale) SiO2 
 PCOD9252902
Probable space group: P 21/C
;
_chemical_formula_sum "Si O2"
_cell_formula_units_Z 20
_cell_length_a 17.930353
_cell_length_b 4.823320
_cell_length_c 9.595521
_cell_angle_alpha 90.000000
_cell_angle_beta 108.390513
_cell_angle_gamma 90.000000
_cell_volume 787.475150
_symmetry_space_group_name_H-M "P 21/C"
_symmetry_group_IT_number 14
_symmetry_cell_setting 'monoclinic'
loop_
_space_group_symop_operation_xyz
x,y,z
-x,1/2+y,1/2-z
-x,-y,-z
x,1/2-y,1/2+z
loop_
_atom_site_type_symbol
_atom_site_label
_atom_site_fract_x
_atom_site_fract_y
_atom_site_fract_z
Si Si1 0.157592 0.422662 0.063205
Si Si2 0.368609 0.895096 0.903023
Si Si3 0.511461 0.697039 0.157378
Si Si4 0.266268 0.574701 0.614562
Si Si5 0.053933 0.385604 0.271195
O O1 0.197613 0.705620 0.037565
O O2 0.103133 0.470760 0.164751
O O3 0.226661 0.206883 0.143473
O O4 0.108539 0.270370 0.914323
O O5 0.316872 0.725830 0.763126
O O6 0.410984 0.158996 0.858181
O O7 0.440173 0.709569 0.006289
O O8 0.316684 0.979248 0.005718
O O9 0.516294 0.409407 0.238268
O O10 0.011354 0.655602 0.307521
#
# Coordination Sequence:
#
# PCOD9252902 Si02
#       5
#     4   4   4   4   4
#     4  12  26  45  69 106 142 180 232 284 344 432
#     4  11  26  47  72 102 138 194 234 300 352 418
#     4  11  26  47  72 103 138 181 258 293 354 417
#     4  12  26  45  69 102 146 186 230 288 366 414
#     4  12  24  45  74 102 138 182 230 282 342 404
#
# _framework density 25.397628000000001
#
# number of rings (size 3 to 8) (size 9 to 14) (size 15 to 20)
#    0.000    0.400    2.000    6.000    2.800    6.400 
#    0.000    0.000    0.000    0.000    0.000    0.000 
#    0.000    0.000    0.000    0.000    0.000    0.000 
#
# Total GULP energy -112418.542113 kJ/mol
# GULP energy per Si atom -5620.927106 kJ/mol
# Density = 2.533982 g / cm^3
# Si number density = 25.397628 Si / 1000 Ang^3
#
#
#
# Elastic Constant Matrix: (Units=GPa)
#
#
# Indices 1 2 3 4 5 6 
#
# 1 137.3127 13.8950 29.9335 0.0000 -25.4978 0.0000
# 2 13.8950 93.4898 -10.1350 0.0000 0.5650 0.0000
# 3 29.9335 -10.1350 113.8098 0.0000 -7.4944 0.0000
# 4 0.0000 0.0000 0.0000 34.0987 0.0000 6.7775
# 5 -25.4978 0.5650 -7.4944 0.0000 56.6706 0.0000
# 6 0.0000 0.0000 0.0000 6.7775 0.0000 42.7733
#
#
#
# Elastic Compliance Matrix: (Units=1/GPa)
#
#
# Indices 1 2 3 4 5 6 
#
# 1 0.008573 -0.001530 -0.002155 0.000000 0.003588 0.000000
# 2 -0.001530 0.011074 0.001348 0.000000 -0.000620 0.000000
# 3 -0.002155 0.001348 0.009491 0.000000 0.000272 0.000000
# 4 0.000000 0.000000 0.000000 0.030280 0.000000 -0.004798
# 5 0.003588 -0.000620 0.000272 0.000000 0.019302 0.000000
# 6 0.000000 0.000000 0.000000 -0.004798 0.000000 0.024139
#
#
# Mechanical properties :
#
#
# Convention : Reuss Voigt Hill
#
# Bulk Modulus (GPa) = 40.87554 45.77769 43.32662
# Shear Modulus (GPa) = 43.21950 47.43643 45.32797
#
# Velocity S-wave (km/s) = 4.12966 4.32644 4.22919
# Velocity P-wave (km/s) = 6.23442 6.55903 6.39878
#
# Compressibility (1/GPa) = 0.02446451
#
# Stress axis : x y z
#
# Youngs Moduli (GPa) = 116.64009 90.30557 105.35990
#
# Poissons Ratio (x) = 0.13812 0.22704
# Poissons Ratio (y) = 0.17840 -0.14198
# Poissons Ratio (z) = 0.25134 -0.12169
#
# Static dielectric constant tensor:
#      x y z
#    x 2.026700 0.000000 0.052910 
#    y 0.000000 1.977460 0.000000 
#    z 0.052910 0.000000 1.984620 
# 
# From -- ./inp_files/17289.got.cif
#   From: 2010.05.17/outbox.cif.g08.bks.cpg/sg14_9_cif.got.tgz:17289.got - 2010.06.03 17:49:19.
