data_PCOD9252508
_publ_section_title
;
Structure prediction by ZEFSAII (Michael W. Deem and Ramdas Pophale) SiO2 
 PCOD9252508
Probable space group: P 21/C
;
_chemical_formula_sum "Si O2"
_cell_formula_units_Z 22
_cell_length_a 5.538905
_cell_length_b 23.857124
_cell_length_c 8.229198
_cell_angle_alpha 90.000000
_cell_angle_beta 121.925995
_cell_angle_gamma 90.000000
_cell_volume 922.932662
_symmetry_space_group_name_H-M "P 21/C"
_symmetry_group_IT_number 14
_symmetry_cell_setting 'monoclinic'
loop_
_space_group_symop_operation_xyz
x,y,z
-x,1/2+y,1/2-z
-x,-y,-z
x,1/2-y,1/2+z
loop_
_atom_site_type_symbol
_atom_site_label
_atom_site_fract_x
_atom_site_fract_y
_atom_site_fract_z
Si Si1 0.458454 0.289302 0.787677
Si Si2 0.536414 0.831511 0.341319
Si Si3 0.894119 0.383121 0.845839
Si Si4 0.018823 0.369799 0.517354
Si Si5 0.000000 0.000000 0.500000
Si Si6 0.808911 0.974391 0.077473
O O1 0.464773 0.223020 0.772744
O O2 0.166328 0.310066 0.600294
O O3 0.699865 0.327934 0.791131
O O4 0.483401 0.306967 0.983890
O O5 0.818290 0.868609 0.451004
O O6 0.268889 0.866873 0.186947
O O7 0.967361 0.391206 0.682080
O O8 0.804205 0.442523 0.886705
O O9 0.226318 0.409917 0.490736
O O10 0.981922 0.981006 0.304509
O O11 0.500000 0.000000 0.000000
O O12 0.000000 0.000000 0.000000
#
# Coordination Sequence:
#
# PCOD9252508 Si02
#       6
#     4   4   4   4   2   4
#     4  11  24  45  69 105 142 192 244 316 379 463
#     4  11  25  43  72 103 142 188 252 310 387 452
#     4  11  25  45  71 106 146 193 248 312 384 463
#     4  11  25  46  71 106 147 192 253 311 386 457
#     4  12  26  46  76 106 156 196 260 312 390 468
#     4  12  28  49  76 111 152 207 254 320 383 461
#
# _framework density 23.837057000000001
#
# number of rings (size 3 to 8) (size 9 to 14) (size 15 to 20)
#    0.000    0.727    1.818    4.364    2.545    9.455 
#    0.000    0.000    0.000    0.000    0.000    0.000 
#    0.000    0.000    0.000    0.000    0.000    0.000 
#
# Total GULP energy -122571.831552 kJ/mol
# GULP energy per Si atom -5571.446889 kJ/mol
# Density = 2.378280 g / cm^3
# Si number density = 23.837057 Si / 1000 Ang^3
#
#
#
# Elastic Constant Matrix: (Units=GPa)
#
#
# Indices 1 2 3 4 5 6 
#
# 1 63.9326 -0.8886 37.4481 0.0000 -3.0082 0.0000
# 2 -0.8886 44.9770 12.9152 0.0000 -9.4330 0.0000
# 3 37.4481 12.9152 148.9999 0.0000 -0.6969 0.0000
# 4 0.0000 0.0000 0.0000 34.0836 0.0000 -2.7890
# 5 -3.0082 -9.4330 -0.6969 0.0000 43.7848 0.0000
# 6 0.0000 0.0000 0.0000 -2.7890 0.0000 33.4902
#
#
#
# Elastic Compliance Matrix: (Units=1/GPa)
#
#
# Indices 1 2 3 4 5 6 
#
# 1 0.018587 0.002106 -0.004846 0.000000 0.001654 0.000000
# 2 0.002106 0.024133 -0.002596 0.000000 0.005302 0.000000
# 3 -0.004846 -0.002596 0.008151 0.000000 -0.000763 0.000000
# 4 0.000000 0.000000 0.000000 0.029541 0.000000 0.002460
# 5 0.001654 0.005302 -0.000763 0.000000 0.024083 0.000000
# 6 0.000000 0.000000 0.000000 0.002460 0.000000 0.030064
#
#
# Mechanical properties :
#
#
# Convention : Reuss Voigt Hill
#
# Bulk Modulus (GPa) = 24.87742 39.65102 32.26422
# Shear Modulus (GPa) = 31.51953 36.16737 33.84345
#
# Velocity S-wave (km/s) = 3.64028 3.89945 3.77209
# Velocity P-wave (km/s) = 5.30358 6.07820 5.70405
#
# Compressibility (1/GPa) = 0.04019709
#
# Stress axis : x y z
#
# Youngs Moduli (GPa) = 53.80042 41.43744 122.68580
#
# Poissons Ratio (x) = -0.08725 0.59457
# Poissons Ratio (y) = -0.11328 0.31852
# Poissons Ratio (z) = 0.26073 0.10758
#
# Static dielectric constant tensor:
#      x y z
#    x 1.967530 0.000000 0.028180 
#    y 0.000000 1.926650 0.000000 
#    z 0.028180 0.000000 1.861760 
# 
# From -- ./inp_files/6479.got.cif
#   From: 2010.05.17/outbox.cif.g08.bks.cpg/sg14_4_cif.got.tgz:6479.got - 2010.06.03 17:49:19.
