data_PCOD9252775
_publ_section_title
;
Structure prediction by ZEFSAII (Michael W. Deem and Ramdas Pophale) SiO2 
 PCOD9252775
Probable space group: P 21/C
;
_chemical_formula_sum "Si O2"
_cell_formula_units_Z 32
_cell_length_a 13.561951
_cell_length_b 6.651029
_cell_length_c 16.743320
_cell_angle_alpha 90.000000
_cell_angle_beta 70.897567
_cell_angle_gamma 90.000000
_cell_volume 1427.100416
_symmetry_space_group_name_H-M "P 21/C"
_symmetry_group_IT_number 14
_symmetry_cell_setting 'monoclinic'
loop_
_space_group_symop_operation_xyz
x,y,z
-x,1/2+y,1/2-z
-x,-y,-z
x,1/2-y,1/2+z
loop_
_atom_site_type_symbol
_atom_site_label
_atom_site_fract_x
_atom_site_fract_y
_atom_site_fract_z
Si Si1 0.318858 0.005710 0.955089
Si Si2 0.823390 0.145887 0.497664
Si Si3 0.305456 0.142320 0.585058
Si Si4 0.989954 0.672431 0.161283
Si Si5 0.486846 0.836787 0.372360
Si Si6 0.796293 0.084822 0.688744
Si Si7 0.852943 0.019694 0.249192
Si Si8 0.380823 0.183899 0.308471
O O1 0.325885 0.137434 0.872282
O O2 0.413147 0.841862 0.925440
O O3 0.317250 0.153234 0.031537
O O4 0.214561 0.875080 0.989634
O O5 0.813541 0.069492 0.589552
O O6 0.940264 0.131963 0.434544
O O7 0.744174 0.023179 0.461579
O O8 0.418578 0.107451 0.593854
O O9 0.221985 0.126124 0.679648
O O10 0.899273 0.511218 0.198096
O O11 0.073280 0.642730 0.209653
O O12 0.930460 0.884531 0.176224
O O13 0.532490 0.765277 0.274737
O O14 0.425352 0.037613 0.365070
O O15 0.786828 0.313620 0.719661
O O16 0.694602 0.950353 0.727117
#
# Coordination Sequence:
#
# PCOD9252775 Si02
#       8
#     4   4   4   4   4   4   4   4
#     4  12  25  48  71 107 149 192 244 301 367 433
#     4  11  27  45  72 107 147 192 244 299 366 443
#     4  11  27  46  74 108 152 190 247 303 363 438
#     4  11  25  46  70 106 141 188 240 301 363 441
#     4  12  26  46  76 107 149 197 243 309 360 438
#     4  12  25  47  72 103 146 189 244 307 362 436
#     4  11  26  44  75 107 143 189 243 297 373 435
#     4  12  27  46  74 108 145 189 254 295 371 438
#
# _framework density 22.423089999999998
#
# number of rings (size 3 to 8) (size 9 to 14) (size 15 to 20)
#    0.000    0.500    5.000    1.500    7.000    5.500 
#    0.000    0.000    0.000    0.000    0.000    0.000 
#    0.000    0.000    0.000    0.000    0.000    0.000 
#
# Total GULP energy -178957.172297 kJ/mol
# GULP energy per Si atom -5592.411634 kJ/mol
# Density = 2.237205 g / cm^3
# Si number density = 22.423090 Si / 1000 Ang^3
#
#
#
# Elastic Constant Matrix: (Units=GPa)
#
#
# Indices 1 2 3 4 5 6 
#
# 1 74.6900 21.7363 -3.7541 0.0000 6.6743 0.0000
# 2 21.7363 87.4367 11.4019 0.0000 2.5956 0.0000
# 3 -3.7541 11.4019 35.7159 0.0000 -8.0807 0.0000
# 4 0.0000 0.0000 0.0000 1.6964 0.0000 -1.3489
# 5 6.6743 2.5956 -8.0807 0.0000 29.4554 0.0000
# 6 0.0000 0.0000 0.0000 -1.3489 0.0000 35.4673
#
#
#
# Elastic Compliance Matrix: (Units=1/GPa)
#
#
# Indices 1 2 3 4 5 6 
#
# 1 0.014857 -0.003918 0.002270 0.000000 -0.002399 0.000000
# 2 -0.003918 0.013107 -0.004965 0.000000 -0.001629 0.000000
# 3 0.002270 -0.004965 0.031777 0.000000 0.008641 0.000000
# 4 0.000000 0.000000 0.000000 0.607864 0.000000 0.023119
# 5 -0.002399 -0.001629 0.008641 0.000000 0.037007 0.000000
# 6 0.000000 0.000000 0.000000 0.023119 0.000000 0.029074
#
#
# Mechanical properties :
#
#
# Convention : Reuss Voigt Hill
#
# Bulk Modulus (GPa) = 21.49836 28.51234 25.00535
# Shear Modulus (GPa) = 6.55808 24.55438 15.55623
#
# Velocity S-wave (km/s) = 1.71203 3.31274 2.63679
# Velocity P-wave (km/s) = 3.67648 5.23217 4.52173
#
# Compressibility (1/GPa) = 0.04651517
#
# Stress axis : x y z
#
# Youngs Moduli (GPa) = 67.30661 76.29710 31.46915
#
# Poissons Ratio (x) = 0.29895 -0.07143
# Poissons Ratio (y) = 0.26372 0.15623
# Poissons Ratio (z) = -0.15278 0.37878
#
# Static dielectric constant tensor:
#      x y z
#    x 1.829520 0.000000 0.016850 
#    y 0.000000 1.821890 0.000000 
#    z 0.016850 0.000000 1.834680 
# 
# From -- ./inp_files/58582.got.cif
#   From: 2010.05.17/outbox.cif.g08.bks.cpg/sg14_30_cif.got.tgz:58582.got - 2010.06.03 17:49:19.
