data_PCOD9252894
_publ_section_title
;
Structure prediction by ZEFSAII (Michael W. Deem and Ramdas Pophale) SiO2 
 PCOD9252894
Probable space group: P 21/C
;
_chemical_formula_sum "Si O2"
_cell_formula_units_Z 16
_cell_length_a 4.852936
_cell_length_b 8.395360
_cell_length_c 15.860477
_cell_angle_alpha 90.000000
_cell_angle_beta 65.222997
_cell_angle_gamma 90.000000
_cell_volume 586.705336
_symmetry_space_group_name_H-M "P 21/C"
_symmetry_group_IT_number 14
_symmetry_cell_setting 'monoclinic'
loop_
_space_group_symop_operation_xyz
x,y,z
-x,1/2+y,1/2-z
-x,-y,-z
x,1/2-y,1/2+z
loop_
_atom_site_type_symbol
_atom_site_label
_atom_site_fract_x
_atom_site_fract_y
_atom_site_fract_z
Si Si1 0.330098 0.951515 0.205118
Si Si2 0.031887 0.563341 0.400964
Si Si3 0.783341 0.381990 0.857082
Si Si4 0.738045 0.373108 0.050441
O O1 0.262690 0.765270 0.199955
O O2 0.684961 0.970619 0.176543
O O3 0.248057 0.037995 0.125861
O O4 0.115657 0.045552 0.297701
O O5 0.139323 0.743088 0.401662
O O6 0.000000 0.500000 0.500000
O O7 0.557558 0.532505 0.882443
O O8 0.704033 0.307712 0.959254
O O9 0.000000 0.500000 0.000000
#
# Coordination Sequence:
#
# PCOD9252894 Si02
#       4
#     4   4   4   4
#     4  12  28  47  76 108 147 190 248 301 364 434
#     4  12  26  48  76 104 146 192 243 300 366 436
#     4  11  27  46  72 110 145 193 243 305 364 437
#     4  11  26  46  75 103 149 191 244 299 370 433
#
# _framework density 27.270931000000001
#
# number of rings (size 3 to 8) (size 9 to 14) (size 15 to 20)
#    0.000    0.500    2.500    3.750   14.000    0.000 
#    0.000    0.000    0.000    0.000    0.000    0.000 
#    0.000    0.000    0.000    0.000    0.000    0.000 
#
# Total GULP energy -89846.187638 kJ/mol
# GULP energy per Si atom -5615.386727 kJ/mol
# Density = 2.720886 g / cm^3
# Si number density = 27.270931 Si / 1000 Ang^3
#
#
#
# Elastic Constant Matrix: (Units=GPa)
#
#
# Indices 1 2 3 4 5 6 
#
# 1 65.6873 -6.0991 18.3098 0.0000 2.9681 0.0000
# 2 -6.0991 128.8180 20.4832 0.0000 8.1046 0.0000
# 3 18.3098 20.4832 177.1327 0.0000 11.5679 0.0000
# 4 0.0000 0.0000 0.0000 40.5407 0.0000 4.7238
# 5 2.9681 8.1046 11.5679 0.0000 64.6470 0.0000
# 6 0.0000 0.0000 0.0000 4.7238 0.0000 47.2886
#
#
#
# Elastic Compliance Matrix: (Units=1/GPa)
#
#
# Indices 1 2 3 4 5 6 
#
# 1 0.015827 0.001058 -0.001722 0.000000 -0.000551 0.000000
# 2 0.001058 0.008024 -0.000980 0.000000 -0.000879 0.000000
# 3 -0.001722 -0.000980 0.005994 0.000000 -0.000871 0.000000
# 4 0.000000 0.000000 0.000000 0.024957 0.000000 -0.002493
# 5 -0.000551 -0.000879 -0.000871 0.000000 0.015760 0.000000
# 6 0.000000 0.000000 0.000000 -0.002493 0.000000 0.021396
#
#
# Mechanical properties :
#
#
# Convention : Reuss Voigt Hill
#
# Bulk Modulus (GPa) = 37.65612 48.55842 43.10727
# Shear Modulus (GPa) = 48.03171 53.09156 50.56164
#
# Velocity S-wave (km/s) = 4.20131 4.41706 4.31054
# Velocity P-wave (km/s) = 6.11333 6.62258 6.37304
#
# Compressibility (1/GPa) = 0.02655611
#
# Stress axis : x y z
#
# Youngs Moduli (GPa) = 63.18377 124.62464 166.84254
#
# Poissons Ratio (x) = -0.13184 0.28736
# Poissons Ratio (y) = -0.06684 0.16348
# Poissons Ratio (z) = 0.10882 0.12211
#
# Static dielectric constant tensor:
#      x y z
#    x 2.143640 0.000000 0.166830 
#    y 0.000000 2.095820 0.000000 
#    z 0.166830 0.000000 2.206620 
# 
# From -- ./inp_files/46329.got.cif
#   From: 2010.05.17/outbox.cif.g08.bks.cpg/sg14_24_cif.got.tgz:46329.got - 2010.06.03 17:49:19.
