data_PCOD9252987
_publ_section_title
;
Structure prediction by ZEFSAII (Michael W. Deem and Ramdas Pophale) SiO2 
 PCOD9252987
Probable space group: P 21/C
;
_chemical_formula_sum "Si O2"
_cell_formula_units_Z 20
_cell_length_a 11.671619
_cell_length_b 8.891856
_cell_length_c 7.472922
_cell_angle_alpha 90.000000
_cell_angle_beta 102.784507
_cell_angle_gamma 90.000000
_cell_volume 756.330778
_symmetry_space_group_name_H-M "P 21/C"
_symmetry_group_IT_number 14
_symmetry_cell_setting 'monoclinic'
loop_
_space_group_symop_operation_xyz
x,y,z
-x,1/2+y,1/2-z
-x,-y,-z
x,1/2-y,1/2+z
loop_
_atom_site_type_symbol
_atom_site_label
_atom_site_fract_x
_atom_site_fract_y
_atom_site_fract_z
Si Si1 0.876019 0.121934 0.859758
Si Si2 0.797642 0.574694 0.670197
Si Si3 0.913699 0.636771 0.081148
Si Si4 0.379468 0.848985 0.354124
Si Si5 0.439521 0.541034 0.264992
O O1 0.753545 0.186577 0.743908
O O2 0.973304 0.252747 0.903040
O O3 0.913722 0.989965 0.734747
O O4 0.844974 0.040697 0.036123
O O5 0.814603 0.742661 0.602475
O O6 0.663033 0.548445 0.673166
O O7 0.874580 0.566836 0.878981
O O8 0.454169 0.697613 0.371186
O O9 0.387633 0.919786 0.551229
O O10 0.438832 0.960159 0.233205
#
# Coordination Sequence:
#
# PCOD9252987 Si02
#       5
#     4   4   4   4   4
#     4  12  29  53  82 121 170 219 277 345 410 492
#     4  12  27  50  80 119 160 216 275 341 405 492
#     4  12  29  50  80 118 163 224 277 339 412 487
#     4  11  27  52  81 123 161 217 264 351 411 494
#     4  11  27  49  84 118 168 206 279 337 418 496
#
# _framework density 26.443453999999999
#
# number of rings (size 3 to 8) (size 9 to 14) (size 15 to 20)
#    0.000    0.400    4.000    1.800    5.600    7.200 
#    0.000    0.000    0.000    0.000    0.000    0.000 
#    0.000    0.000    0.000    0.000    0.000    0.000 
#
# Total GULP energy -112412.616213 kJ/mol
# GULP energy per Si atom -5620.630811 kJ/mol
# Density = 2.638327 g / cm^3
# Si number density = 26.443454 Si / 1000 Ang^3
#
#
#
# Elastic Constant Matrix: (Units=GPa)
#
#
# Indices 1 2 3 4 5 6 
#
# 1 110.2904 44.1397 51.7530 0.0000 -26.0705 0.0000
# 2 44.1397 130.3236 50.2615 0.0000 -25.7170 0.0000
# 3 51.7530 50.2615 202.9169 0.0000 -13.5675 0.0000
# 4 0.0000 0.0000 0.0000 50.1287 0.0000 -13.7477
# 5 -26.0705 -25.7170 -13.5675 0.0000 46.7966 0.0000
# 6 0.0000 0.0000 0.0000 -13.7477 0.0000 51.7311
#
#
#
# Elastic Compliance Matrix: (Units=1/GPa)
#
#
# Indices 1 2 3 4 5 6 
#
# 1 0.012181 -0.002312 -0.002208 0.000000 0.004875 0.000000
# 2 -0.002312 0.009786 -0.001592 0.000000 0.003628 0.000000
# 3 -0.002208 -0.001592 0.005858 0.000000 -0.000406 0.000000
# 4 0.000000 0.000000 0.000000 0.021517 0.000000 0.005718
# 5 0.004875 0.003628 -0.000406 0.000000 0.025961 0.000000
# 6 0.000000 0.000000 0.000000 0.005718 0.000000 0.020850
#
#
# Mechanical properties :
#
#
# Convention : Reuss Voigt Hill
#
# Bulk Modulus (GPa) = 64.09469 81.75992 72.92730
# Shear Modulus (GPa) = 44.02270 49.55638 46.78954
#
# Velocity S-wave (km/s) = 4.08461 4.33373 4.21101
# Velocity P-wave (km/s) = 6.82176 7.48515 7.16114
#
# Compressibility (1/GPa) = 0.01560192
#
# Stress axis : x y z
#
# Youngs Moduli (GPa) = 82.09669 102.18539 170.69609
#
# Poissons Ratio (x) = 0.23625 0.37690
# Poissons Ratio (y) = 0.18980 0.27170
# Poissons Ratio (z) = 0.18127 0.16265
#
# Static dielectric constant tensor:
#      x y z
#    x 2.019380 0.000000 0.019460 
#    y 0.000000 2.018210 0.000000 
#    z 0.019460 0.000000 2.078180 
# 
# From -- ./inp_files/11797.got.cif
#   From: 2010.05.17/outbox.cif.g08.bks.cpg/sg14_6_cif.got.tgz:11797.got - 2010.06.03 17:49:19.
