data_PCOD9252918
_publ_section_title
;
Structure prediction by ZEFSAII (Michael W. Deem and Ramdas Pophale) SiO2 
 PCOD9252918
Probable space group: P 21/C
;
_chemical_formula_sum "Si O2"
_cell_formula_units_Z 16
_cell_length_a 9.822096
_cell_length_b 10.371125
_cell_length_c 8.374835
_cell_angle_alpha 90.000000
_cell_angle_beta 128.110391
_cell_angle_gamma 90.000000
_cell_volume 671.248622
_symmetry_space_group_name_H-M "P 21/C"
_symmetry_group_IT_number 14
_symmetry_cell_setting 'monoclinic'
loop_
_space_group_symop_operation_xyz
x,y,z
-x,1/2+y,1/2-z
-x,-y,-z
x,1/2-y,1/2+z
loop_
_atom_site_type_symbol
_atom_site_label
_atom_site_fract_x
_atom_site_fract_y
_atom_site_fract_z
Si Si1 0.968388 0.123012 0.368865
Si Si2 0.901099 0.872789 0.873329
Si Si3 0.459269 0.399171 0.709197
Si Si4 0.413834 0.838633 0.039142
O O1 0.777348 0.119780 0.154284
O O2 0.991820 0.249478 0.491372
O O3 0.103046 0.127149 0.320375
O O4 0.000000 0.000000 0.500000
O O5 0.718697 0.872110 0.829606
O O6 0.000000 0.000000 0.000000
O O7 0.465973 0.352036 0.530225
O O8 0.481474 0.553721 0.713651
O O9 0.592041 0.305484 0.896395
#
# Coordination Sequence:
#
# PCOD9252918 Si02
#       4
#     4   4   4   4
#     4  12  27  49  74 107 150 189 245 302 363 435
#     4  12  25  48  73 110 144 194 243 296 367 428
#     4  11  26  48  72 106 145 191 242 296 359 431
#     4  11  26  50  70 109 146 190 244 295 363 427
#
# _framework density 23.836175999999998
#
# number of rings (size 3 to 8) (size 9 to 14) (size 15 to 20)
#    0.000    0.500    2.500    4.500    7.000    1.000 
#    0.000    0.000    0.000    0.000    0.000    0.000 
#    0.000    0.000    0.000    0.000    0.000    0.000 
#
# Total GULP energy -89694.126836 kJ/mol
# GULP energy per Si atom -5605.882927 kJ/mol
# Density = 2.378192 g / cm^3
# Si number density = 23.836176 Si / 1000 Ang^3
#
#
#
# Elastic Constant Matrix: (Units=GPa)
#
#
# Indices 1 2 3 4 5 6 
#
# 1 151.0619 42.8065 44.7263 0.0000 -15.5958 0.0000
# 2 42.8065 149.4237 67.6849 0.0000 -6.8655 0.0000
# 3 44.7263 67.6849 84.0663 0.0000 -1.9527 0.0000
# 4 0.0000 0.0000 0.0000 64.4005 0.0000 -10.3827
# 5 -15.5958 -6.8655 -1.9527 0.0000 38.4629 0.0000
# 6 0.0000 0.0000 0.0000 -10.3827 0.0000 28.3903
#
#
#
# Elastic Compliance Matrix: (Units=1/GPa)
#
#
# Indices 1 2 3 4 5 6 
#
# 1 0.008230 -0.000418 -0.003971 0.000000 0.003061 0.000000
# 2 -0.000418 0.010637 -0.008311 0.000000 0.001307 0.000000
# 3 -0.003971 -0.008311 0.020652 0.000000 -0.002045 0.000000
# 4 0.000000 0.000000 0.000000 0.016501 0.000000 0.006035
# 5 0.003061 0.001307 -0.002045 0.000000 0.027370 0.000000
# 6 0.000000 0.000000 0.000000 0.006035 0.000000 0.037430
#
#
# Mechanical properties :
#
#
# Convention : Reuss Voigt Hill
#
# Bulk Modulus (GPa) = 70.82963 77.22083 74.02523
# Shear Modulus (GPa) = 33.12862 41.53969 37.33416
#
# Velocity S-wave (km/s) = 3.73211 4.17911 3.96192
# Velocity P-wave (km/s) = 6.95350 7.46682 7.21473
#
# Compressibility (1/GPa) = 0.01411839
#
# Stress axis : x y z
#
# Youngs Moduli (GPa) = 121.50656 94.01031 48.42116
#
# Poissons Ratio (x) = 0.03934 0.19226
# Poissons Ratio (y) = 0.05085 0.40244
# Poissons Ratio (z) = 0.48246 0.78135
#
# Static dielectric constant tensor:
#      x y z
#    x 1.915630 0.000000 0.006220 
#    y 0.000000 1.883270 0.000000 
#    z 0.006220 0.000000 1.896100 
# 
# From -- ./inp_files/7354.got.cif
#   From: 2010.05.17/outbox.cif.g08.bks.cpg/sg14_4_cif.got.tgz:7354.got - 2010.06.03 17:49:19.
