data_PCOD9252463
_publ_section_title
;
Structure prediction by ZEFSAII (Michael W. Deem and Ramdas Pophale) SiO2 
 PCOD9252463
Probable space group: P 21/C
;
_chemical_formula_sum "Si O2"
_cell_formula_units_Z 32
_cell_length_a 5.283218
_cell_length_b 23.242185
_cell_length_c 9.643892
_cell_angle_alpha 90.000000
_cell_angle_beta 99.692039
_cell_angle_gamma 90.000000
_cell_volume 1167.305195
_symmetry_space_group_name_H-M "P 21/C"
_symmetry_group_IT_number 14
_symmetry_cell_setting 'monoclinic'
loop_
_space_group_symop_operation_xyz
x,y,z
-x,1/2+y,1/2-z
-x,-y,-z
x,1/2-y,1/2+z
loop_
_atom_site_type_symbol
_atom_site_label
_atom_site_fract_x
_atom_site_fract_y
_atom_site_fract_z
Si Si1 0.306571 0.135734 0.106263
Si Si2 0.873716 0.084847 0.509171
Si Si3 0.691855 0.971449 0.457795
Si Si4 0.078811 0.592356 0.670614
Si Si5 0.459115 0.683759 0.621629
Si Si6 0.650637 0.204660 0.492466
Si Si7 0.425211 0.009025 0.153897
Si Si8 0.187305 0.261947 0.160292
O O1 0.392509 0.076226 0.181628
O O2 0.211913 0.192584 0.176572
O O3 0.538398 0.161035 0.034394
O O4 0.103453 0.113649 0.969483
O O5 0.615994 0.040554 0.512994
O O6 0.985420 0.093840 0.674616
O O7 0.716170 0.141072 0.447779
O O8 0.158060 0.084123 0.462041
O O9 0.619686 0.983268 0.287293
O O10 0.000000 0.000000 0.500000
O O11 0.330950 0.632677 0.691240
O O12 0.165847 0.527084 0.649498
O O13 0.337900 0.746486 0.624512
O O14 0.739779 0.700454 0.699461
O O15 0.392387 0.216117 0.560076
O O16 0.899497 0.222473 0.601334
O O17 0.500000 0.000000 0.000000
#
# Coordination Sequence:
#
# PCOD9252463 Si02
#       8
#     4   4   4   4   4   4   4   4
#     4  11  25  44  67 106 146 186 253 310 377 454
#     4  11  25  44  74 100 145 199 249 308 382 458
#     4  11  26  48  67 107 145 190 254 310 370 453
#     4  12  22  45  72 104 144 197 249 312 384 462
#     4  11  24  44  69 104 146 192 248 312 383 460
#     4  11  25  43  72 105 139 192 248 306 373 450
#     4  12  25  44  75 104 146 195 244 317 379 449
#     4  11  25  44  69 105 144 190 246 305 375 453
#
# _framework density 27.413568000000001
#
# number of rings (size 3 to 8) (size 9 to 14) (size 15 to 20)
#    0.000    0.750    5.000    1.875    5.250    0.000 
#    0.000    1.250    0.000    0.000    0.000    0.000 
#    0.000    0.000    0.000    0.000    0.000    0.000 
#
# Total GULP energy -178525.093058 kJ/mol
# GULP energy per Si atom -5578.909158 kJ/mol
# Density = 2.735117 g / cm^3
# Si number density = 27.413568 Si / 1000 Ang^3
#
#
#
# Elastic Constant Matrix: (Units=GPa)
#
#
# Indices 1 2 3 4 5 6 
#
# 1 120.1377 65.3225 11.2020 0.0000 5.6852 0.0000
# 2 65.3225 209.7438 31.9668 0.0000 17.2323 0.0000
# 3 11.2020 31.9668 86.3378 0.0000 5.3864 0.0000
# 4 0.0000 0.0000 0.0000 40.8730 0.0000 16.7457
# 5 5.6852 17.2323 5.3864 0.0000 44.9824 0.0000
# 6 0.0000 0.0000 0.0000 16.7457 0.0000 48.0839
#
#
#
# Elastic Compliance Matrix: (Units=1/GPa)
#
#
# Indices 1 2 3 4 5 6 
#
# 1 0.010023 -0.003093 -0.000151 0.000000 -0.000064 0.000000
# 2 -0.003093 0.006144 -0.001764 0.000000 -0.001751 0.000000
# 3 -0.000151 -0.001764 0.012304 0.000000 -0.000778 0.000000
# 4 0.000000 0.000000 0.000000 0.028538 0.000000 -0.009939
# 5 -0.000064 -0.001751 -0.000778 0.000000 0.023003 0.000000
# 6 0.000000 0.000000 0.000000 -0.009939 0.000000 0.024258
#
#
# Mechanical properties :
#
#
# Convention : Reuss Voigt Hill
#
# Bulk Modulus (GPa) = 54.19095 70.35578 62.27337
# Shear Modulus (GPa) = 41.51520 47.30306 44.40913
#
# Velocity S-wave (km/s) = 3.89576 4.15846 4.02925
# Velocity P-wave (km/s) = 6.32825 6.98408 6.66424
#
# Compressibility (1/GPa) = 0.01845326
#
# Stress axis : x y z
#
# Youngs Moduli (GPa) = 99.77290 162.76454 81.27586
#
# Poissons Ratio (x) = 0.50347 0.01229
# Poissons Ratio (y) = 0.30862 0.14338
# Poissons Ratio (z) = 0.01508 0.28715
#
# Static dielectric constant tensor:
#      x y z
#    x 2.259910 0.000000 -0.074860 
#    y 0.000000 1.695880 0.000000 
#    z -0.074860 0.000000 2.309190 
# 
# From -- ./inp_files/22145.got.cif
#   From: 2010.05.17/outbox.cif.g08.bks.cpg/sg14_12_cif.got.tgz:22145.got - 2010.06.03 17:49:19.
