data_PCOD9252594
_publ_section_title
;
Structure prediction by ZEFSAII (Michael W. Deem and Ramdas Pophale) SiO2 
 PCOD9252594
Probable space group: P 21/C
;
_chemical_formula_sum "Si O2"
_cell_formula_units_Z 28
_cell_length_a 8.566088
_cell_length_b 15.780807
_cell_length_c 13.334743
_cell_angle_alpha 90.000000
_cell_angle_beta 45.948957
_cell_angle_gamma 90.000000
_cell_volume 1295.556992
_symmetry_space_group_name_H-M "P 21/C"
_symmetry_group_IT_number 14
_symmetry_cell_setting 'monoclinic'
loop_
_space_group_symop_operation_xyz
x,y,z
-x,1/2+y,1/2-z
-x,-y,-z
x,1/2-y,1/2+z
loop_
_atom_site_type_symbol
_atom_site_label
_atom_site_fract_x
_atom_site_fract_y
_atom_site_fract_z
Si Si1 0.451099 0.142670 0.749008
Si Si2 0.010565 0.566581 0.587232
Si Si3 0.545269 0.331791 0.637796
Si Si4 0.827622 0.469977 0.996963
Si Si5 0.437757 0.122698 0.406318
Si Si6 0.068977 0.589390 0.250020
Si Si7 0.670184 0.689165 0.478247
O O1 0.536843 0.232171 0.668796
O O2 0.622090 0.073059 0.640117
O O3 0.432477 0.146092 0.877631
O O4 0.212704 0.119625 0.813465
O O5 0.216353 0.627464 0.480821
O O6 0.000000 0.500000 0.500000
O O7 0.024601 0.501614 0.673752
O O8 0.433258 0.372147 0.786699
O O9 0.428216 0.341310 0.583109
O O10 0.727510 0.550993 0.985097
O O11 0.930365 0.407461 0.869948
O O12 0.000000 0.500000 0.000000
O O13 0.683484 0.099587 0.325378
O O14 0.372304 0.211703 0.484636
O O15 0.922059 0.662822 0.362895
#
# Coordination Sequence:
#
# PCOD9252594 Si02
#       7
#     4   4   4   4   4   4   4
#     4  11  25  47  69 100 142 183 234 291 354 426
#     4  12  23  46  73  99 139 188 234 282 354 424
#     4  11  25  43  71 105 138 181 238 296 348 417
#     4  12  27  45  69 106 143 182 235 301 357 417
#     4  11  24  47  71 102 145 184 234 291 358 424
#     4  12  25  45  74 101 136 190 233 281 359 427
#     4  11  26  43  73 105 139 183 239 291 351 417
#
# _framework density 21.612324999999998
#
# number of rings (size 3 to 8) (size 9 to 14) (size 15 to 20)
#    0.000    0.571    4.286    2.143    4.000    7.429 
#    0.000    0.000    0.000    0.000    0.000    0.000 
#    0.000    0.000    0.000    0.000    0.000    0.000 
#
# Total GULP energy -156671.426145 kJ/mol
# GULP energy per Si atom -5595.408077 kJ/mol
# Density = 2.156313 g / cm^3
# Si number density = 21.612325 Si / 1000 Ang^3
#
#
#
# Elastic Constant Matrix: (Units=GPa)
#
#
# Indices 1 2 3 4 5 6 
#
# 1 82.1306 5.1769 30.5015 0.0000 -0.9708 0.0000
# 2 5.1769 81.7583 39.0912 0.0000 -22.9991 0.0000
# 3 30.5015 39.0912 106.0690 0.0000 -9.0091 0.0000
# 4 0.0000 0.0000 0.0000 42.4495 0.0000 -12.1754
# 5 -0.9708 -22.9991 -9.0091 0.0000 43.3603 0.0000
# 6 0.0000 0.0000 0.0000 -12.1754 0.0000 22.0469
#
#
#
# Elastic Compliance Matrix: (Units=1/GPa)
#
#
# Indices 1 2 3 4 5 6 
#
# 1 0.013734 0.001253 -0.004406 0.000000 0.000057 0.000000
# 2 0.001253 0.017279 -0.006054 0.000000 0.007935 0.000000
# 3 -0.004406 -0.006054 0.012872 0.000000 -0.000635 0.000000
# 4 0.000000 0.000000 0.000000 0.027991 0.000000 0.015458
# 5 0.000057 0.007935 -0.000635 0.000000 0.027141 0.000000
# 6 0.000000 0.000000 0.000000 0.015458 0.000000 0.053895
#
#
# Mechanical properties :
#
#
# Convention : Reuss Voigt Hill
#
# Bulk Modulus (GPa) = 39.26240 46.61080 42.93660
# Shear Modulus (GPa) = 27.80612 34.58388 31.19500
#
# Velocity S-wave (km/s) = 3.59079 4.00458 3.80332
# Velocity P-wave (km/s) = 5.94961 6.55712 6.26074
#
# Compressibility (1/GPa) = 0.02546966
#
# Stress axis : x y z
#
# Youngs Moduli (GPa) = 72.81284 57.87434 77.68635
#
# Poissons Ratio (x) = -0.07252 0.34231
# Poissons Ratio (y) = -0.09124 0.47034
# Poissons Ratio (z) = 0.32084 0.35039
#
# Static dielectric constant tensor:
#      x y z
#    x 1.780380 0.000000 0.037890 
#    y 0.000000 1.815420 0.000000 
#    z 0.037890 0.000000 1.769670 
# 
# From -- ./inp_files/41397.got.cif
#   From: 2010.05.17/outbox.cif.g08.bks.cpg/sg14_21_cif.got.tgz:41397.got - 2010.06.03 17:49:19.
