data_PCOD9252145
_publ_section_title
;
Structure prediction by ZEFSAII (Michael W. Deem and Ramdas Pophale) SiO2 
 PCOD9252145
Probable space group: P 21/C
;
_chemical_formula_sum "Si O2"
_cell_formula_units_Z 20
_cell_length_a 5.648684
_cell_length_b 6.906175
_cell_length_c 23.509400
_cell_angle_alpha 90.000000
_cell_angle_beta 107.887869
_cell_angle_gamma 90.000000
_cell_volume 872.786404
_symmetry_space_group_name_H-M "P 21/C"
_symmetry_group_IT_number 14
_symmetry_cell_setting 'monoclinic'
loop_
_space_group_symop_operation_xyz
x,y,z
-x,1/2+y,1/2-z
-x,-y,-z
x,1/2-y,1/2+z
loop_
_atom_site_type_symbol
_atom_site_label
_atom_site_fract_x
_atom_site_fract_y
_atom_site_fract_z
Si Si1 0.824441 0.090456 0.601162
Si Si2 0.739654 0.115468 0.993240
Si Si3 0.190881 0.134487 0.194544
Si Si4 0.554088 0.454604 0.186823
Si Si5 0.817412 0.248128 0.877884
O O1 0.796186 0.218285 0.543339
O O2 0.581455 0.065755 0.621011
O O3 0.988081 0.208961 0.660189
O O4 0.942757 0.883370 0.594842
O O5 0.683087 0.200851 0.927111
O O6 0.500000 0.000000 0.000000
O O7 0.000000 0.000000 0.000000
O O8 0.446365 0.251013 0.200483
O O9 0.218468 0.042528 0.259443
O O10 0.138459 0.954227 0.149604
O O11 0.349166 0.622210 0.175680
#
# Coordination Sequence:
#
# PCOD9252145 Si02
#       5
#     4   4   4   4   4
#     4  11  27  43  72 105 138 190 246 299 369 433
#     4  12  27  50  78 106 148 194 246 306 366 437
#     4  11  23  44  65 104 144 185 241 297 371 433
#     4  11  25  42  69 102 143 190 237 304 363 443
#     4  11  25  46  72 102 143 188 243 300 364 435
#
# _framework density 22.915113000000002
#
# number of rings (size 3 to 8) (size 9 to 14) (size 15 to 20)
#    0.000    0.800    4.000    1.800    8.400    2.400 
#    0.000    0.000    0.000    0.000    0.000    0.000 
#    0.000    0.000    0.000    0.000    0.000    0.000 
#
# Total GULP energy -111586.955992 kJ/mol
# GULP energy per Si atom -5579.347800 kJ/mol
# Density = 2.286296 g / cm^3
# Si number density = 22.915113 Si / 1000 Ang^3
#
#
#
# Elastic Constant Matrix: (Units=GPa)
#
#
# Indices 1 2 3 4 5 6 
#
# 1 55.6427 38.5263 0.0451 0.0000 -12.6547 0.0000
# 2 38.5263 146.3069 33.5240 0.0000 -11.6110 0.0000
# 3 0.0451 33.5240 69.7606 0.0000 -11.3498 0.0000
# 4 0.0000 0.0000 0.0000 38.0178 0.0000 -17.8611
# 5 -12.6547 -11.6110 -11.3498 0.0000 33.1236 0.0000
# 6 0.0000 0.0000 0.0000 -17.8611 0.0000 28.0787
#
#
#
# Elastic Compliance Matrix: (Units=1/GPa)
#
#
# Indices 1 2 3 4 5 6 
#
# 1 0.024708 -0.006899 0.004704 0.000000 0.008633 0.000000
# 2 -0.006899 0.009679 -0.004791 0.000000 -0.000884 0.000000
# 3 0.004704 -0.004791 0.017636 0.000000 0.006161 0.000000
# 4 0.000000 0.000000 0.000000 0.037515 0.000000 0.023863
# 5 0.008633 -0.000884 0.006161 0.000000 0.035289 0.000000
# 6 0.000000 0.000000 0.000000 0.023863 0.000000 0.050794
#
#
# Mechanical properties :
#
#
# Convention : Reuss Voigt Hill
#
# Bulk Modulus (GPa) = 26.27983 46.21120 36.24552
# Shear Modulus (GPa) = 24.71857 33.15168 28.93512
#
# Velocity S-wave (km/s) = 3.28792 3.80770 3.55732
# Velocity P-wave (km/s) = 5.08991 6.28820 5.72052
#
# Compressibility (1/GPa) = 0.03805199
#
# Stress axis : x y z
#
# Youngs Moduli (GPa) = 40.47242 103.31436 56.70110
#
# Poissons Ratio (x) = 0.71277 -0.26672
# Poissons Ratio (y) = 0.27922 0.27165
# Poissons Ratio (z) = -0.19038 0.49496
#
# Static dielectric constant tensor:
#      x y z
#    x 1.986440 0.000000 0.041700 
#    y 0.000000 1.866070 0.000000 
#    z 0.041700 0.000000 1.842050 
# 
# From -- ./inp_files/75449.got.cif
#   From: 2010.05.17/outbox.cif.g08.bks.cpg/sg14_38_cif.got.tgz:75449.got - 2010.06.03 17:49:19.
