data_PCOD9252129
_publ_section_title
;
Structure prediction by ZEFSAII (Michael W. Deem and Ramdas Pophale) SiO2 
 PCOD9252129
Probable space group: P 21/C
;
_chemical_formula_sum "Si O2"
_cell_formula_units_Z 32
_cell_length_a 6.768467
_cell_length_b 17.906759
_cell_length_c 12.463347
_cell_angle_alpha 90.000000
_cell_angle_beta 96.608075
_cell_angle_gamma 90.000000
_cell_volume 1500.538539
_symmetry_space_group_name_H-M "P 21/C"
_symmetry_group_IT_number 14
_symmetry_cell_setting 'monoclinic'
loop_
_space_group_symop_operation_xyz
x,y,z
-x,1/2+y,1/2-z
-x,-y,-z
x,1/2-y,1/2+z
loop_
_atom_site_type_symbol
_atom_site_label
_atom_site_fract_x
_atom_site_fract_y
_atom_site_fract_z
Si Si1 0.570860 0.469197 0.889103
Si Si2 0.703584 0.736170 0.797413
Si Si3 0.692903 0.550512 0.507505
Si Si4 0.927563 0.164933 0.210966
Si Si5 0.444664 0.694182 0.448587
Si Si6 0.356129 0.797351 0.628630
Si Si7 0.821704 0.980472 0.777095
Si Si8 0.843233 0.569631 0.756100
O O1 0.635621 0.383214 0.907104
O O2 0.390623 0.469383 0.791437
O O3 0.738966 0.519503 0.841491
O O4 0.500000 0.500000 0.000000
O O5 0.557240 0.741105 0.889603
O O6 0.565474 0.777492 0.700369
O O7 0.768040 0.653508 0.769373
O O8 0.902113 0.783992 0.829566
O O9 0.500000 0.500000 0.500000
O O10 0.612999 0.634624 0.487539
O O11 0.805034 0.525197 0.405718
O O12 0.788679 0.545555 0.630788
O O13 0.730083 0.153251 0.127835
O O14 0.833963 0.207202 0.306202
O O15 0.032989 0.087582 0.245661
O O16 0.338927 0.734688 0.538874
O O17 0.920470 0.054880 0.733784
#
# Coordination Sequence:
#
# PCOD9252129 Si02
#       8
#     4   4   4   4   4   4   4   4
#     4  12  26  47  72  97 143 192 237 285 350 419
#     4  11  24  44  67 100 139 179 227 287 346 415
#     4  12  23  43  73 102 141 181 227 292 361 414
#     4  11  23  43  72  98 135 182 229 280 351 421
#     4  11  24  43  70 100 139 181 230 287 355 422
#     4  11  23  45  68  95 139 183 225 284 347 419
#     4  12  24  46  71 103 141 183 234 290 355 417
#     4  12  26  44  72 109 137 180 243 291 350 426
#
# _framework density 21.325676999999999
#
# number of rings (size 3 to 8) (size 9 to 14) (size 15 to 20)
#    0.000    0.500    6.250    2.625    0.000    6.500 
#    2.250    0.000    0.000    0.000    0.000    0.000 
#    0.000    0.000    0.000    0.000    0.000    0.000 
#
# Total GULP energy -178742.801616 kJ/mol
# GULP energy per Si atom -5585.712551 kJ/mol
# Density = 2.127714 g / cm^3
# Si number density = 21.325677 Si / 1000 Ang^3
#
#
#
# Elastic Constant Matrix: (Units=GPa)
#
#
# Indices 1 2 3 4 5 6 
#
# 1 53.4402 9.6848 -5.2053 0.0000 -18.0715 0.0000
# 2 9.6848 79.4842 6.2741 0.0000 -20.9679 0.0000
# 3 -5.2053 6.2741 72.9951 0.0000 -25.3905 0.0000
# 4 0.0000 0.0000 0.0000 24.9980 0.0000 -6.5643
# 5 -18.0715 -20.9679 -25.3905 0.0000 24.2298 0.0000
# 6 0.0000 0.0000 0.0000 -6.5643 0.0000 37.1774
#
#
#
# Elastic Compliance Matrix: (Units=1/GPa)
#
#
# Indices 1 2 3 4 5 6 
#
# 1 0.041952 0.010576 0.025413 0.000000 0.067072 0.000000
# 2 0.010576 0.020515 0.012446 0.000000 0.038683 0.000000
# 3 0.025413 0.012446 0.038995 0.000000 0.070587 0.000000
# 4 0.000000 0.000000 0.000000 0.041948 0.000000 0.007407
# 5 0.067072 0.038683 0.070587 0.000000 0.198740 0.000000
# 6 0.000000 0.000000 0.000000 0.007407 0.000000 0.028206
#
#
# Mechanical properties :
#
#
# Convention : Reuss Voigt Hill
#
# Bulk Modulus (GPa) = 5.04206 25.26962 15.15584
# Shear Modulus (GPa) = 14.72334 30.29212 22.50773
#
# Velocity S-wave (km/s) = 2.63041 3.77298 3.25226
# Velocity P-wave (km/s) = 3.40512 5.55478 4.60708
#
# Compressibility (1/GPa) = 0.19833177
#
# Stress axis : x y z
#
# Youngs Moduli (GPa) = 23.83663 48.74546 25.64436
#
# Poissons Ratio (x) = -0.51552 -0.65169
# Poissons Ratio (y) = -0.25209 -0.31918
# Poissons Ratio (z) = -0.60575 -0.60671
#
# Static dielectric constant tensor:
#      x y z
#    x 1.764370 0.000000 0.024720 
#    y 0.000000 1.870510 0.000000 
#    z 0.024720 0.000000 1.827790 
# 
# From -- ./inp_files/21794.got.cif
#   From: 2010.05.17/outbox.cif.g08.bks.cpg/sg14_11_cif.got.tgz:21794.got - 2010.06.03 17:49:19.
