data_PCOD9252450
_publ_section_title
;
Structure prediction by ZEFSAII (Michael W. Deem and Ramdas Pophale) SiO2 
 PCOD9252450
Probable space group: P 21/C
;
_chemical_formula_sum "Si O2"
_cell_formula_units_Z 20
_cell_length_a 12.864402
_cell_length_b 5.239237
_cell_length_c 28.518605
_cell_angle_alpha 90.000000
_cell_angle_beta 152.281655
_cell_angle_gamma 90.000000
_cell_volume 894.038214
_symmetry_space_group_name_H-M "P 21/C"
_symmetry_group_IT_number 14
_symmetry_cell_setting 'monoclinic'
loop_
_space_group_symop_operation_xyz
x,y,z
-x,1/2+y,1/2-z
-x,-y,-z
x,1/2-y,1/2+z
loop_
_atom_site_type_symbol
_atom_site_label
_atom_site_fract_x
_atom_site_fract_y
_atom_site_fract_z
Si Si1 0.526170 0.021477 0.125777
Si Si2 0.089611 0.513838 0.145791
Si Si3 0.344595 0.124298 0.477474
Si Si4 0.971752 0.468230 0.543986
Si Si5 0.856155 0.620657 0.683474
O O1 0.695389 0.055926 0.236079
O O2 0.654477 0.846199 0.139562
O O3 0.474579 0.274836 0.074674
O O4 0.289523 0.921992 0.049087
O O5 0.872538 0.469946 0.092421
O O6 0.107397 0.269809 0.119281
O O7 0.040948 0.769994 0.097235
O O8 0.237651 0.365666 0.406617
O O9 0.500000 0.000000 0.500000
O O10 0.000000 0.500000 0.500000
O O11 0.975525 0.355025 0.742157
#
# Coordination Sequence:
#
# PCOD9252450 Si02
#       5
#     4   4   4   4   4
#     4  11  26  43  72 104 141 188 234 286 348 413
#     4  11  26  44  72 103 138 179 236 286 348 423
#     4  11  24  44  67 106 148 191 233 280 346 417
#     4  11  27  50  72 101 136 177 236 299 356 415
#     4  12  25  41  68 100 148 190 228 275 340 415
#
# _framework density 22.370408999999999
#
# number of rings (size 3 to 8) (size 9 to 14) (size 15 to 20)
#    0.000    0.800    2.000    3.600    5.600    6.400 
#    0.000    0.000    0.000    0.000    0.000    0.000 
#    0.000    0.000    0.000    0.000    0.000    0.000 
#
# Total GULP energy -112001.814032 kJ/mol
# GULP energy per Si atom -5600.090702 kJ/mol
# Density = 2.231949 g / cm^3
# Si number density = 22.370409 Si / 1000 Ang^3
#
#
#
# Elastic Constant Matrix: (Units=GPa)
#
#
# Indices 1 2 3 4 5 6 
#
# 1 97.6640 14.6995 48.6502 0.0000 -16.8329 0.0000
# 2 14.6995 96.3307 53.3777 0.0000 -10.4434 0.0000
# 3 48.6502 53.3777 119.5892 0.0000 -21.1968 0.0000
# 4 0.0000 0.0000 0.0000 31.2404 0.0000 -10.5256
# 5 -16.8329 -10.4434 -21.1968 0.0000 32.8021 0.0000
# 6 0.0000 0.0000 0.0000 -10.5256 0.0000 23.4673
#
#
#
# Elastic Compliance Matrix: (Units=1/GPa)
#
#
# Indices 1 2 3 4 5 6 
#
# 1 0.013366 0.001345 -0.005360 0.000000 0.003823 0.000000
# 2 0.001345 0.013934 -0.006615 0.000000 0.000851 0.000000
# 3 -0.005360 -0.006615 0.014269 0.000000 0.004364 0.000000
# 4 0.000000 0.000000 0.000000 0.037708 0.000000 0.016913
# 5 0.003823 0.000851 0.004364 0.000000 0.035539 0.000000
# 6 0.000000 0.000000 0.000000 0.016913 0.000000 0.050198
#
#
# Mechanical properties :
#
#
# Convention : Reuss Voigt Hill
#
# Bulk Modulus (GPa) = 49.24356 60.78208 55.01282
# Shear Modulus (GPa) = 25.90094 30.62572 28.26333
#
# Velocity S-wave (km/s) = 3.40637 3.70405 3.55832
# Velocity P-wave (km/s) = 6.12631 6.74708 6.44418
#
# Compressibility (1/GPa) = 0.02030722
#
# Stress axis : x y z
#
# Youngs Moduli (GPa) = 74.81813 71.76878 70.08378
#
# Poissons Ratio (x) = -0.09653 0.37565
# Poissons Ratio (y) = -0.10063 0.46363
# Poissons Ratio (z) = 0.40102 0.47478
#
# Static dielectric constant tensor:
#      x y z
#    x 1.801350 0.000000 0.016200 
#    y 0.000000 1.876150 0.000000 
#    z 0.016200 0.000000 1.849910 
# 
# From -- ./inp_files/33319.got.cif
#   From: 2010.05.17/outbox.cif.g08.bks.cpg/sg14_17_cif.got.tgz:33319.got - 2010.06.03 17:49:19.
