data_PCOD9252338
_publ_section_title
;
Structure prediction by ZEFSAII (Michael W. Deem and Ramdas Pophale) SiO2 
 PCOD9252338
Probable space group: P 21/C
;
_chemical_formula_sum "Si O2"
_cell_formula_units_Z 24
_cell_length_a 15.863682
_cell_length_b 13.520975
_cell_length_c 8.151410
_cell_angle_alpha 90.000000
_cell_angle_beta 33.277900
_cell_angle_gamma 90.000000
_cell_volume 959.356480
_symmetry_space_group_name_H-M "P 21/C"
_symmetry_group_IT_number 14
_symmetry_cell_setting 'monoclinic'
loop_
_space_group_symop_operation_xyz
x,y,z
-x,1/2+y,1/2-z
-x,-y,-z
x,1/2-y,1/2+z
loop_
_atom_site_type_symbol
_atom_site_label
_atom_site_fract_x
_atom_site_fract_y
_atom_site_fract_z
Si Si1 0.354457 0.634787 0.914289
Si Si2 0.284221 0.072243 0.702928
Si Si3 0.967606 0.881649 0.377000
Si Si4 0.007754 0.665346 0.431833
Si Si5 0.525145 0.325192 0.619403
Si Si6 0.256925 0.512069 0.575171
O O1 0.399463 0.718269 0.973113
O O2 0.475694 0.644869 0.569455
O O3 0.332791 0.527949 0.030251
O O4 0.188768 0.658722 0.101907
O O5 0.364243 0.161186 0.474172
O O6 0.101847 0.092942 0.991965
O O7 0.329787 0.059048 0.818209
O O8 0.954847 0.776228 0.485162
O O9 0.119288 0.931831 0.205257
O O10 0.821535 0.948475 0.655524
O O11 0.987467 0.863037 0.153522
O O12 0.630126 0.406384 0.539793
#
# Coordination Sequence:
#
# PCOD9252338 Si02
#       6
#     4   4   4   4   4   4
#     4  12  25  46  70 102 138 187 231 283 347 414
#     4  12  27  45  73 104 140 182 231 290 344 412
#     4  11  24  40  72 102 136 178 236 286 339 405
#     4  12  24  45  71 104 136 182 234 289 338 413
#     4  12  27  46  71 100 144 183 230 283 354 410
#     4  11  24  44  68 104 137 182 227 286 345 408
#
# _framework density 25.016770000000001
#
# number of rings (size 3 to 8) (size 9 to 14) (size 15 to 20)
#    0.000    0.333    3.333    5.500    4.667    4.000 
#    0.000    0.000    0.000    0.000    0.000    0.000 
#    0.000    0.000    0.000    0.000    0.000    0.000 
#
# Total GULP energy -134720.796720 kJ/mol
# GULP energy per Si atom -5613.366530 kJ/mol
# Density = 2.495983 g / cm^3
# Si number density = 25.016770 Si / 1000 Ang^3
#
#
#
# Elastic Constant Matrix: (Units=GPa)
#
#
# Indices 1 2 3 4 5 6 
#
# 1 39.9500 13.5002 10.9570 0.0000 1.9219 0.0000
# 2 13.5002 106.9142 17.8718 0.0000 -16.2409 0.0000
# 3 10.9570 17.8718 82.8846 0.0000 7.1579 0.0000
# 4 0.0000 0.0000 0.0000 43.6064 0.0000 2.8636
# 5 1.9219 -16.2409 7.1579 0.0000 45.0770 0.0000
# 6 0.0000 0.0000 0.0000 2.8636 0.0000 45.2708
#
#
#
# Elastic Compliance Matrix: (Units=1/GPa)
#
#
# Indices 1 2 3 4 5 6 
#
# 1 0.026958 -0.003239 -0.002702 0.000000 -0.001887 0.000000
# 2 -0.003239 0.010812 -0.002283 0.000000 0.004396 0.000000
# 3 -0.002702 -0.002283 0.013156 0.000000 -0.002796 0.000000
# 4 0.000000 0.000000 0.000000 0.023028 0.000000 -0.001457
# 5 -0.001887 0.004396 -0.002796 0.000000 0.024293 0.000000
# 6 0.000000 0.000000 0.000000 -0.001457 0.000000 0.022181
#
#
# Mechanical properties :
#
#
# Convention : Reuss Voigt Hill
#
# Bulk Modulus (GPa) = 29.00455 34.93408 31.96932
# Shear Modulus (GPa) = 33.70006 39.28549 36.49278
#
# Velocity S-wave (km/s) = 3.67427 3.96708 3.82348
# Velocity P-wave (km/s) = 5.44238 5.91424 5.68321
#
# Compressibility (1/GPa) = 0.03447735
#
# Stress axis : x y z
#
# Youngs Moduli (GPa) = 37.09511 92.49310 76.01156
#
# Poissons Ratio (x) = 0.29958 0.20541
# Poissons Ratio (y) = 0.12015 0.17351
# Poissons Ratio (z) = 0.10024 0.21113
#
# Static dielectric constant tensor:
#      x y z
#    x 1.918820 0.000000 -0.029600 
#    y 0.000000 1.937100 0.000000 
#    z -0.029600 0.000000 2.015570 
# 
# From -- ./inp_files/17963.got.cif
#   From: 2010.05.17/outbox.cif.g08.bks.cpg/sg14_9_cif.got.tgz:17963.got - 2010.06.03 17:49:19.
