data_PCOD9252620
_publ_section_title
;
Structure prediction by ZEFSAII (Michael W. Deem and Ramdas Pophale) SiO2 
 PCOD9252620
Probable space group: P 21/C
;
_chemical_formula_sum "Si O2"
_cell_formula_units_Z 20
_cell_length_a 10.764118
_cell_length_b 11.422481
_cell_length_c 13.330545
_cell_angle_alpha 90.000000
_cell_angle_beta 35.990145
_cell_angle_gamma 90.000000
_cell_volume 963.169344
_symmetry_space_group_name_H-M "P 21/C"
_symmetry_group_IT_number 14
_symmetry_cell_setting 'monoclinic'
loop_
_space_group_symop_operation_xyz
x,y,z
-x,1/2+y,1/2-z
-x,-y,-z
x,1/2-y,1/2+z
loop_
_atom_site_type_symbol
_atom_site_label
_atom_site_fract_x
_atom_site_fract_y
_atom_site_fract_z
Si Si1 0.713061 0.333904 0.478524
Si Si2 0.015033 0.364446 0.462922
Si Si3 0.642249 0.503507 0.202921
Si Si4 0.522896 0.902889 0.397879
Si Si5 0.053015 0.648910 0.869044
O O1 0.833244 0.325891 0.505290
O O2 0.518554 0.422082 0.623858
O O3 0.631254 0.208435 0.493221
O O4 0.881728 0.376987 0.286876
O O5 0.991985 0.283604 0.575440
O O6 0.000000 0.500000 0.500000
O O7 0.241206 0.351050 0.261930
O O8 0.525269 0.460344 0.179115
O O9 0.749959 0.398390 0.194064
O O10 0.840608 0.582222 0.039352
O O11 0.500000 0.000000 0.500000
#
# Coordination Sequence:
#
# PCOD9252620 Si02
#       5
#     4   4   4   4   4
#     4  12  25  45  71 102 139 188 233 294 359 418
#     4  12  24  45  69 103 141 181 238 293 346 424
#     4  11  24  48  69  99 148 179 234 299 345 426
#     4  12  25  44  72 105 142 188 235 290 359 425
#     4  11  25  45  69 103 138 188 237 289 354 426
#
# _framework density 20.764780999999999
#
# number of rings (size 3 to 8) (size 9 to 14) (size 15 to 20)
#    0.000    0.400    6.000    3.000    0.000    0.000 
#    3.600    0.000    0.000    0.000    0.000    0.000 
#    0.000    0.000    0.000    0.000    0.000    0.000 
#
# Total GULP energy -111833.824920 kJ/mol
# GULP energy per Si atom -5591.691246 kJ/mol
# Density = 2.071752 g / cm^3
# Si number density = 20.764781 Si / 1000 Ang^3
#
#
#
# Elastic Constant Matrix: (Units=GPa)
#
#
# Indices 1 2 3 4 5 6 
#
# 1 30.2815 -1.5827 -7.8917 0.0000 -13.3888 0.0000
# 2 -1.5827 77.5115 5.1276 0.0000 -1.4617 0.0000
# 3 -7.8917 5.1276 100.0170 0.0000 -0.0350 0.0000
# 4 0.0000 0.0000 0.0000 23.0396 0.0000 6.7487
# 5 -13.3888 -1.4617 -0.0350 0.0000 37.7625 0.0000
# 6 0.0000 0.0000 0.0000 6.7487 0.0000 31.9477
#
#
#
# Elastic Compliance Matrix: (Units=1/GPa)
#
#
# Indices 1 2 3 4 5 6 
#
# 1 0.040205 0.000883 0.003132 0.000000 0.014292 0.000000
# 2 0.000883 0.012974 -0.000595 0.000000 0.000815 0.000000
# 3 0.003132 -0.000595 0.010276 0.000000 0.001097 0.000000
# 4 0.000000 0.000000 0.000000 0.046266 0.000000 -0.009773
# 5 0.014292 0.000815 0.001097 0.000000 0.031581 0.000000
# 6 0.000000 0.000000 0.000000 -0.009773 0.000000 0.033366
#
#
# Mechanical properties :
#
#
# Convention : Reuss Voigt Hill
#
# Bulk Modulus (GPa) = 14.22563 22.12406 18.17485
# Shear Modulus (GPa) = 26.14238 32.69374 29.41806
#
# Velocity S-wave (km/s) = 3.55206 3.97228 3.76803
# Velocity P-wave (km/s) = 4.86709 5.63173 5.26331
#
# Compressibility (1/GPa) = 0.07029564
#
# Stress axis : x y z
#
# Youngs Moduli (GPa) = 24.87251 77.07677 97.31105
#
# Poissons Ratio (x) = -0.06808 -0.30478
# Poissons Ratio (y) = -0.02197 0.05792
# Poissons Ratio (z) = -0.07790 0.04587
#
# Static dielectric constant tensor:
#      x y z
#    x 1.737900 0.000000 -0.015010 
#    y 0.000000 1.743260 0.000000 
#    z -0.015010 0.000000 1.744170 
# 
# From -- ./inp_files/23728.got.cif
#   From: 2010.05.17/outbox.cif.g08.bks.cpg/sg14_12_cif.got.tgz:23728.got - 2010.06.03 17:49:19.
