data_PCOD9252061
_publ_section_title
;
Structure prediction by ZEFSAII (Michael W. Deem and Ramdas Pophale) SiO2 
 PCOD9252061
Probable space group: P 21/C
;
_chemical_formula_sum "Si O2"
_cell_formula_units_Z 30
_cell_length_a 10.198065
_cell_length_b 22.221326
_cell_length_c 5.122364
_cell_angle_alpha 90.000000
_cell_angle_beta 89.828663
_cell_angle_gamma 90.000000
_cell_volume 1160.796904
_symmetry_space_group_name_H-M "P 21/C"
_symmetry_group_IT_number 14
_symmetry_cell_setting 'monoclinic'
loop_
_space_group_symop_operation_xyz
x,y,z
-x,1/2+y,1/2-z
-x,-y,-z
x,1/2-y,1/2+z
loop_
_atom_site_type_symbol
_atom_site_label
_atom_site_fract_x
_atom_site_fract_y
_atom_site_fract_z
Si Si1 0.044427 0.132273 0.197662
Si Si2 0.500000 0.000000 0.000000
Si Si3 0.763246 0.963676 0.736133
Si Si4 0.184666 0.965375 0.775027
Si Si5 0.457567 0.128572 0.744882
Si Si6 0.843778 0.286759 0.956891
Si Si7 0.612095 0.367114 0.731509
Si Si8 0.797416 0.706614 0.658866
O O1 0.081793 0.163498 0.925509
O O2 0.929754 0.082557 0.179417
O O3 0.980643 0.182616 0.381870
O O4 0.175566 0.101772 0.313286
O O5 0.389003 0.024472 0.219049
O O6 0.457422 0.058228 0.812746
O O7 0.815533 0.008092 0.512462
O O8 0.826904 0.983523 0.010543
O O9 0.330438 0.935028 0.818012
O O10 0.565261 0.154610 0.950376
O O11 0.325192 0.161846 0.816964
O O12 0.499935 0.137401 0.447332
O O13 0.831254 0.230994 0.756710
O O14 0.731280 0.331861 0.861536
O O15 0.790915 0.748770 0.910677
#
# Coordination Sequence:
#
# PCOD9252061 Si02
#       8
#     4   2   4   4   4   4   4   4
#     4  11  26  46  70 100 136 187 223 286 344 414
#     4  12  24  46  74 104 142 180 226 282 354 418
#     4  12  25  44  70 106 140 178 226 281 351 418
#     4  11  24  43  68 103 139 173 224 279 339 415
#     4  12  25  45  71 104 140 182 227 291 348 415
#     4  11  25  44  70  97 130 176 229 284 337 401
#     4  11  23  42  69  97 134 170 225 276 342 403
#     4  12  28  48  69 101 138 186 239 287 344 419
#
# _framework density 25.844315999999999
#
# number of rings (size 3 to 8) (size 9 to 14) (size 15 to 20)
#    0.000    0.533    4.000    3.200    0.000   11.733 
#    0.000    0.000    0.000    0.000    0.000    0.000 
#    0.000    0.000    0.000    0.000    0.000    0.000 
#
# Total GULP energy -167813.600782 kJ/mol
# GULP energy per Si atom -5593.786693 kJ/mol
# Density = 2.578549 g / cm^3
# Si number density = 25.844316 Si / 1000 Ang^3
#
#
#
# Elastic Constant Matrix: (Units=GPa)
#
#
# Indices 1 2 3 4 5 6 
#
# 1 99.0617 47.4761 59.2281 0.0000 -26.0842 0.0000
# 2 47.4761 59.8901 31.8401 0.0000 -11.0668 0.0000
# 3 59.2281 31.8401 129.4928 0.0000 -22.0627 0.0000
# 4 0.0000 0.0000 0.0000 25.4818 0.0000 -10.2211
# 5 -26.0842 -11.0668 -22.0627 0.0000 36.7843 0.0000
# 6 0.0000 0.0000 0.0000 -10.2211 0.0000 36.4229
#
#
#
# Elastic Compliance Matrix: (Units=1/GPa)
#
#
# Indices 1 2 3 4 5 6 
#
# 1 0.021552 -0.012729 -0.005320 0.000000 0.008262 0.000000
# 2 -0.012729 0.027089 -0.001100 0.000000 -0.001537 0.000000
# 3 -0.005320 -0.001100 0.010834 0.000000 0.002395 0.000000
# 4 0.000000 0.000000 0.000000 0.044221 0.000000 0.012409
# 5 0.008262 -0.001537 0.002395 0.000000 0.034018 0.000000
# 6 0.000000 0.000000 0.000000 0.012409 0.000000 0.030938
#
#
# Mechanical properties :
#
#
# Convention : Reuss Voigt Hill
#
# Bulk Modulus (GPa) = 47.22345 62.83702 55.03024
# Shear Modulus (GPa) = 23.36343 29.73114 26.54728
#
# Velocity S-wave (km/s) = 3.00993 3.39543 3.20847
# Velocity P-wave (km/s) = 5.51285 6.30384 5.92157
#
# Compressibility (1/GPa) = 0.02117592
#
# Stress axis : x y z
#
# Youngs Moduli (GPa) = 46.40043 36.91518 92.30035
#
# Poissons Ratio (x) = 0.46991 0.49101
# Poissons Ratio (y) = 0.59065 0.10156
# Poissons Ratio (z) = 0.24684 0.04062
#
# Static dielectric constant tensor:
#      x y z
#    x 1.893840 0.000000 0.029650 
#    y 0.000000 1.918300 0.000000 
#    z 0.029650 0.000000 1.948700 
# 
# From -- ./inp_files/2944.got.cif
#   From: 2010.05.17/outbox.cif.g08.bks.cpg/sg14_2_cif.got.tgz:2944.got - 2010.06.03 17:49:19.
