data_PCOD9252803
_publ_section_title
;
Structure prediction by ZEFSAII (Michael W. Deem and Ramdas Pophale) SiO2 
 PCOD9252803
Probable space group: P 21/C
;
_chemical_formula_sum "Si O2"
_cell_formula_units_Z 20
_cell_length_a 20.774562
_cell_length_b 6.849583
_cell_length_c 11.786115
_cell_angle_alpha 90.000000
_cell_angle_beta 147.423728
_cell_angle_gamma 90.000000
_cell_volume 903.003349
_symmetry_space_group_name_H-M "P 21/C"
_symmetry_group_IT_number 14
_symmetry_cell_setting 'monoclinic'
loop_
_space_group_symop_operation_xyz
x,y,z
-x,1/2+y,1/2-z
-x,-y,-z
x,1/2-y,1/2+z
loop_
_atom_site_type_symbol
_atom_site_label
_atom_site_fract_x
_atom_site_fract_y
_atom_site_fract_z
Si Si1 0.613629 0.952130 0.541997
Si Si2 0.425655 0.692993 0.365973
Si Si3 0.158091 0.336833 0.480526
Si Si4 0.963699 0.343442 0.851993
Si Si5 0.779422 0.480084 0.077426
O O1 0.496499 0.818639 0.376402
O O2 0.580433 0.168729 0.533649
O O3 0.683376 0.956161 0.528260
O O4 0.708286 0.873226 0.776031
O O5 0.500000 0.500000 0.500000
O O6 0.295671 0.630122 0.131512
O O7 0.102475 0.531364 0.344262
O O8 0.077238 0.260750 0.463845
O O9 0.160185 0.168401 0.388548
O O10 0.875300 0.175086 0.765785
O O11 0.000000 0.500000 0.000000
#
# Coordination Sequence:
#
# PCOD9252803 Si02
#       5
#     4   4   4   4   4
#     4  11  27  44  70 103 137 183 238 282 354 421
#     4  11  25  47  69 101 143 180 232 297 347 420
#     4  12  25  48  69 104 140 180 235 294 349 425
#     4  12  28  45  73 103 140 187 237 289 354 418
#     4  12  27  45  75 102 143 187 232 292 358 415
#
# _framework density 22.148312000000001
#
# number of rings (size 3 to 8) (size 9 to 14) (size 15 to 20)
#    0.000    0.400    6.000    1.200    8.400    3.200 
#    0.000    0.000    0.000    0.000    0.000    0.000 
#    0.000    0.000    0.000    0.000    0.000    0.000 
#
# Total GULP energy -112025.954667 kJ/mol
# GULP energy per Si atom -5601.297733 kJ/mol
# Density = 2.209790 g / cm^3
# Si number density = 22.148312 Si / 1000 Ang^3
#
#
#
# Elastic Constant Matrix: (Units=GPa)
#
#
# Indices 1 2 3 4 5 6 
#
# 1 81.2713 2.9811 -26.4794 0.0000 5.7891 0.0000
# 2 2.9811 91.4695 12.9545 0.0000 6.9786 0.0000
# 3 -26.4794 12.9545 42.2939 0.0000 9.5099 0.0000
# 4 0.0000 0.0000 0.0000 49.2549 0.0000 10.7533
# 5 5.7891 6.9786 9.5099 0.0000 29.5018 0.0000
# 6 0.0000 0.0000 0.0000 10.7533 0.0000 36.1836
#
#
#
# Elastic Compliance Matrix: (Units=1/GPa)
#
#
# Indices 1 2 3 4 5 6 
#
# 1 0.017051 -0.001834 0.012821 0.000000 -0.007045 0.000000
# 2 -0.001834 0.011705 -0.004519 0.000000 -0.000952 0.000000
# 3 0.012821 -0.004519 0.035989 0.000000 -0.013048 0.000000
# 4 0.000000 0.000000 0.000000 0.021711 0.000000 -0.006452
# 5 -0.007045 -0.000952 -0.013048 0.000000 0.039710 0.000000
# 6 0.000000 0.000000 0.000000 -0.006452 0.000000 0.029554
#
#
# Mechanical properties :
#
#
# Convention : Reuss Voigt Hill
#
# Bulk Modulus (GPa) = 12.87325 21.54966 17.21146
# Shear Modulus (GPa) = 29.64213 38.02663 33.83438
#
# Velocity S-wave (km/s) = 3.66231 4.14806 3.91273
# Velocity P-wave (km/s) = 4.86912 5.71775 5.31041
#
# Compressibility (1/GPa) = 0.07768044
#
# Stress axis : x y z
#
# Youngs Moduli (GPa) = 58.64807 85.43296 27.78610
#
# Poissons Ratio (x) = 0.15669 -0.35625
# Poissons Ratio (y) = 0.10756 0.12558
# Poissons Ratio (z) = -0.75193 0.38610
#
# Static dielectric constant tensor:
#      x y z
#    x 1.775720 0.000000 -0.014600 
#    y 0.000000 1.770960 0.000000 
#    z -0.014600 0.000000 1.809270 
# 
# From -- ./inp_files/34541.got.cif
#   From: 2010.05.17/outbox.cif.g08.bks.cpg/sg14_18_cif.got.tgz:34541.got - 2010.06.03 17:49:19.
