data_PCOD9252458
_publ_section_title
;
Structure prediction by ZEFSAII (Michael W. Deem and Ramdas Pophale) SiO2 
 PCOD9252458
Probable space group: P 21/C
;
_chemical_formula_sum "Si O2"
_cell_formula_units_Z 20
_cell_length_a 5.638588
_cell_length_b 10.120246
_cell_length_c 17.191400
_cell_angle_alpha 90.000000
_cell_angle_beta 128.554023
_cell_angle_gamma 90.000000
_cell_volume 767.168940
_symmetry_space_group_name_H-M "P 21/C"
_symmetry_group_IT_number 14
_symmetry_cell_setting 'monoclinic'
loop_
_space_group_symop_operation_xyz
x,y,z
-x,1/2+y,1/2-z
-x,-y,-z
x,1/2-y,1/2+z
loop_
_atom_site_type_symbol
_atom_site_label
_atom_site_fract_x
_atom_site_fract_y
_atom_site_fract_z
Si Si1 0.584713 0.546922 0.103494
Si Si2 0.907815 0.780825 0.126921
Si Si3 0.426526 0.340039 0.200254
Si Si4 0.850229 0.856749 0.953394
Si Si5 0.749539 0.008415 0.190293
O O1 0.612958 0.705176 0.100718
O O2 0.417024 0.457664 0.133534
O O3 0.937350 0.531934 0.200301
O O4 0.500000 0.500000 0.000000
O O5 0.840852 0.932523 0.131206
O O6 0.244373 0.768229 0.231525
O O7 0.937228 0.759892 0.041399
O O8 0.162324 0.231929 0.128348
O O9 0.409300 0.412293 0.279232
O O10 0.492670 0.886550 0.887444
O O11 0.000000 0.000000 0.000000
#
# Coordination Sequence:
#
# PCOD9252458 Si02
#       5
#     4   4   4   4   4
#     4  11  24  44  68  99 138 184 228 288 348 413
#     4  11  24  44  69  98 138 183 232 283 348 409
#     4  11  25  45  66 103 138 181 235 286 346 417
#     4  12  24  45  72 101 139 184 231 285 350 419
#     4  11  26  42  70  99 141 178 230 290 343 416
#
# _framework density 26.069877999999999
#
# number of rings (size 3 to 8) (size 9 to 14) (size 15 to 20)
#    0.000    0.800    6.000    0.600    2.800    2.400 
#    0.000    0.000    0.000    0.000    0.000    0.000 
#    0.000    0.000    0.000    0.000    0.000    0.000 
#
# Total GULP energy -111443.620330 kJ/mol
# GULP energy per Si atom -5572.181016 kJ/mol
# Density = 2.601054 g / cm^3
# Si number density = 26.069878 Si / 1000 Ang^3
#
#
#
# Elastic Constant Matrix: (Units=GPa)
#
#
# Indices 1 2 3 4 5 6 
#
# 1 33.0618 -9.9136 0.5381 0.0000 -16.4325 0.0000
# 2 -9.9136 35.3514 19.5468 0.0000 -4.4238 0.0000
# 3 0.5381 19.5468 116.7737 0.0000 -19.1302 0.0000
# 4 0.0000 0.0000 0.0000 29.3094 0.0000 -67.6310
# 5 -16.4325 -4.4238 -19.1302 0.0000 32.1083 0.0000
# 6 0.0000 0.0000 0.0000 -67.6310 0.0000 -543.5838
#
#
#
# Elastic Compliance Matrix: (Units=1/GPa)
#
#
# Indices 1 2 3 4 5 6 
#
# 1 0.049335 0.016471 0.001688 0.000000 0.028524 0.000000
# 2 0.016471 0.036722 -0.004447 0.000000 0.010839 0.000000
# 3 0.001688 -0.004447 0.010352 0.000000 0.006419 0.000000
# 4 0.000000 0.000000 0.000000 0.026508 0.000000 -0.003298
# 5 0.028524 0.010839 0.006419 0.000000 0.051061 0.000000
# 6 0.000000 0.000000 0.000000 -0.003298 0.000000 -0.001429
#
#
# Mechanical properties :
#
#
# Convention : Reuss Voigt Hill
#
# Bulk Modulus (GPa) = 8.07541 22.83662 15.45602
# Shear Modulus (GPa) = 26.82389 -84.76553 -28.97082
#
# Velocity S-wave (km/s) = 3.21116 -5.70836 -3.33720
# Velocity P-wave (km/s) = 4.10525 5.88798 2.98456
#
# Compressibility (1/GPa) = 0.12383269
#
# Stress axis : x y z
#
# Youngs Moduli (GPa) = 20.26967 27.23189 96.60183
#
# Poissons Ratio (x) = -0.44853 -0.16311
# Poissons Ratio (y) = -0.33386 0.42959
# Poissons Ratio (z) = -0.03423 0.12110
#
# Static dielectric constant tensor:
#      x y z
#    x 2.020660 0.000000 0.033050 
#    y 0.000000 2.334400 0.000000 
#    z 0.033050 0.000000 1.892920 
# 
# From -- ./inp_files/32304.got.cif
#   From: 2010.05.17/outbox.cif.g08.bks.cpg/sg14_17_cif.got.tgz:32304.got - 2010.06.03 17:49:19.
