data_PCOD9252238
_publ_section_title
;
Structure prediction by ZEFSAII (Michael W. Deem and Ramdas Pophale) SiO2 
 PCOD9252238
Probable space group: P 21/C
;
_chemical_formula_sum "Si O2"
_cell_formula_units_Z 24
_cell_length_a 12.706275
_cell_length_b 10.795238
_cell_length_c 13.932314
_cell_angle_alpha 90.000000
_cell_angle_beta 30.984200
_cell_angle_gamma 90.000000
_cell_volume 983.815549
_symmetry_space_group_name_H-M "P 21/C"
_symmetry_group_IT_number 14
_symmetry_cell_setting 'monoclinic'
loop_
_space_group_symop_operation_xyz
x,y,z
-x,1/2+y,1/2-z
-x,-y,-z
x,1/2-y,1/2+z
loop_
_atom_site_type_symbol
_atom_site_label
_atom_site_fract_x
_atom_site_fract_y
_atom_site_fract_z
Si Si1 0.393544 0.743645 0.108926
Si Si2 0.338487 0.616187 0.468610
Si Si3 0.795441 0.653234 0.359185
Si Si4 0.769778 0.026143 0.148059
Si Si5 0.260571 0.258808 0.385489
Si Si6 0.924047 0.133310 0.525111
O O1 0.344608 0.606933 0.183058
O O2 0.302518 0.833682 0.264162
O O3 0.294224 0.783499 0.086066
O O4 0.633107 0.774471 0.919560
O O5 0.292817 0.484763 0.554756
O O6 0.225013 0.603635 0.455653
O O7 0.570740 0.651820 0.257780
O O8 0.798942 0.722959 0.457222
O O9 0.009781 0.644005 0.136706
O O10 0.663751 0.894795 0.207488
O O11 0.000000 0.000000 0.000000
O O12 0.061764 0.226569 0.479909
O O13 0.000000 0.000000 0.500000
#
# Coordination Sequence:
#
# PCOD9252238 Si02
#       6
#     4   4   4   4   4   4
#     4  12  23  44  76 103 143 193 241 304 367 437
#     4  11  23  45  75 101 143 194 245 296 370 440
#     4  11  24  46  72 104 148 184 249 310 358 446
#     4  11  25  47  69 106 154 187 240 312 366 436
#     4  11  24  45  70 106 145 193 244 300 374 442
#     4  12  24  44  74 106 144 192 249 305 365 438
#
# _framework density 24.394818000000001
#
# number of rings (size 3 to 8) (size 9 to 14) (size 15 to 20)
#    0.000    0.667    6.667    1.500    0.000    2.000 
#    0.000    0.000    0.000    0.000    0.000    0.000 
#    0.000    0.000    0.000    0.000    0.000    0.000 
#
# Total GULP energy -134352.094246 kJ/mol
# GULP energy per Si atom -5598.003927 kJ/mol
# Density = 2.433929 g / cm^3
# Si number density = 24.394818 Si / 1000 Ang^3
#
#
#
# Elastic Constant Matrix: (Units=GPa)
#
#
# Indices 1 2 3 4 5 6 
#
# 1 119.1705 20.0734 15.4737 0.0000 26.8792 0.0000
# 2 20.0734 74.2059 -2.3960 0.0000 16.2534 0.0000
# 3 15.4737 -2.3960 98.4282 0.0000 22.6935 0.0000
# 4 0.0000 0.0000 0.0000 35.0804 0.0000 8.7334
# 5 26.8792 16.2534 22.6935 0.0000 40.1060 0.0000
# 6 0.0000 0.0000 0.0000 8.7334 0.0000 40.3363
#
#
#
# Elastic Compliance Matrix: (Units=1/GPa)
#
#
# Indices 1 2 3 4 5 6 
#
# 1 0.010013 -0.001397 -0.000220 0.000000 -0.006020 0.000000
# 2 -0.001397 0.015335 0.002081 0.000000 -0.006456 0.000000
# 3 -0.000220 0.002081 0.011967 0.000000 -0.007467 0.000000
# 4 0.000000 0.000000 0.000000 0.030130 0.000000 -0.006524
# 5 -0.006020 -0.006456 -0.007467 0.000000 0.035810 0.000000
# 6 0.000000 0.000000 0.000000 -0.006524 0.000000 0.026204
#
#
# Mechanical properties :
#
#
# Convention : Reuss Voigt Hill
#
# Bulk Modulus (GPa) = 26.14846 39.78965 32.96905
# Shear Modulus (GPa) = 35.39105 40.34811 37.86958
#
# Velocity S-wave (km/s) = 3.81302 4.07131 3.94428
# Velocity P-wave (km/s) = 5.48886 6.20055 5.85553
#
# Compressibility (1/GPa) = 0.03824318
#
# Stress axis : x y z
#
# Youngs Moduli (GPa) = 99.86917 65.20915 83.56609
#
# Poissons Ratio (x) = 0.09111 0.01840
# Poissons Ratio (y) = 0.13953 -0.17394
# Poissons Ratio (z) = 0.02199 -0.13573
#
# Static dielectric constant tensor:
#      x y z
#    x 1.916370 0.000000 0.025500 
#    y 0.000000 1.972110 0.000000 
#    z 0.025500 0.000000 1.953900 
# 
# From -- ./inp_files/47065.got.cif
#   From: 2010.05.17/outbox.cif.g08.bks.cpg/sg14_24_cif.got.tgz:47065.got - 2010.06.03 17:49:19.
