data_PCOD9252107
_publ_section_title
;
Structure prediction by ZEFSAII (Michael W. Deem and Ramdas Pophale) SiO2 
 PCOD9252107
Probable space group: P 21/C
;
_chemical_formula_sum "Si O2"
_cell_formula_units_Z 32
_cell_length_a 6.618409
_cell_length_b 13.416677
_cell_length_c 18.804199
_cell_angle_alpha 90.000000
_cell_angle_beta 73.115590
_cell_angle_gamma 90.000000
_cell_volume 1597.778683
_symmetry_space_group_name_H-M "P 21/C"
_symmetry_group_IT_number 14
_symmetry_cell_setting 'monoclinic'
loop_
_space_group_symop_operation_xyz
x,y,z
-x,1/2+y,1/2-z
-x,-y,-z
x,1/2-y,1/2+z
loop_
_atom_site_type_symbol
_atom_site_label
_atom_site_fract_x
_atom_site_fract_y
_atom_site_fract_z
Si Si1 0.177164 0.760947 0.004685
Si Si2 0.549763 0.082132 0.935597
Si Si3 0.131792 0.821992 0.850230
Si Si4 0.605784 0.688050 0.242979
Si Si5 0.860112 0.518760 0.294337
Si Si6 0.713908 0.739581 0.078234
Si Si7 0.855658 0.649485 0.806735
Si Si8 0.543954 0.608968 0.965738
O O1 0.123683 0.814468 0.935968
O O2 0.327165 0.667572 0.971869
O O3 0.302138 0.835724 0.042501
O O4 0.962439 0.729629 0.064580
O O5 0.348786 0.145707 0.930218
O O6 0.673840 0.032842 0.858021
O O7 0.500000 0.000000 0.000000
O O8 0.374608 0.824202 0.800565
O O9 0.002417 0.915440 0.833171
O O10 0.015273 0.725463 0.829579
O O11 0.750541 0.594139 0.249970
O O12 0.591508 0.701708 0.160032
O O13 0.721376 0.784947 0.264422
O O14 0.008693 0.437109 0.242938
O O15 0.655355 0.674612 0.015571
O O16 0.692630 0.608079 0.881785
O O17 0.500000 0.500000 0.000000
#
# Coordination Sequence:
#
# PCOD9252107 Si02
#       8
#     4   4   4   4   4   4   4   4
#     4  11  23  43  69  94 128 172 214 270 328 384
#     4  11  24  42  68  98 134 165 218 276 324 391
#     4  11  23  43  68  93 131 174 214 265 331 387
#     4  11  25  43  67  95 134 172 217 268 327 389
#     4  11  26  41  66 100 131 171 222 267 327 390
#     4  11  25  44  66  97 131 170 218 271 325 386
#     4  11  24  45  65  96 136 173 213 274 323 385
#     4  11  26  43  67  96 132 171 221 267 324 393
#
# _framework density 20.027805000000001
#
# number of rings (size 3 to 8) (size 9 to 14) (size 15 to 20)
#    0.000    1.000    2.500    3.000    7.000    9.500 
#    0.000    0.000    0.000    0.000    0.000    0.000 
#    0.000    0.000    0.000    0.000    0.000    0.000 
#
# Total GULP energy -179046.283013 kJ/mol
# GULP energy per Si atom -5595.196344 kJ/mol
# Density = 1.998222 g / cm^3
# Si number density = 20.027805 Si / 1000 Ang^3
#
#
#
# Elastic Constant Matrix: (Units=GPa)
#
#
# Indices 1 2 3 4 5 6 
#
# 1 64.2838 18.7136 -7.8905 0.0000 -17.8337 0.0000
# 2 18.7136 105.7621 34.9913 0.0000 -24.6630 0.0000
# 3 -7.8905 34.9913 89.1068 0.0000 -16.2186 0.0000
# 4 0.0000 0.0000 0.0000 33.3851 0.0000 -9.8801
# 5 -17.8337 -24.6630 -16.2186 0.0000 35.1285 0.0000
# 6 0.0000 0.0000 0.0000 -9.8801 0.0000 18.2157
#
#
#
# Elastic Compliance Matrix: (Units=1/GPa)
#
#
# Indices 1 2 3 4 5 6 
#
# 1 0.019763 -0.002629 0.004664 0.000000 0.010341 0.000000
# 2 -0.002629 0.012601 -0.004164 0.000000 0.005590 0.000000
# 3 0.004664 -0.004164 0.014378 0.000000 0.006083 0.000000
# 4 0.000000 0.000000 0.000000 0.035681 0.000000 0.019353
# 5 0.010341 0.005590 0.006083 0.000000 0.040450 0.000000
# 6 0.000000 0.000000 0.000000 0.019353 0.000000 0.065395
#
#
# Mechanical properties :
#
#
# Convention : Reuss Voigt Hill
#
# Bulk Modulus (GPa) = 23.53722 38.97573 31.25648
# Shear Modulus (GPa) = 24.19139 31.56842 27.87990
#
# Velocity S-wave (km/s) = 3.47924 3.97448 3.73508
# Velocity P-wave (km/s) = 5.28374 6.36907 5.85162
#
# Compressibility (1/GPa) = 0.04248589
#
# Stress axis : x y z
#
# Youngs Moduli (GPa) = 50.60086 79.35574 69.55214
#
# Poissons Ratio (x) = 0.20859 -0.32442
# Poissons Ratio (y) = 0.13301 0.28959
# Poissons Ratio (z) = -0.23602 0.33041
#
# Static dielectric constant tensor:
#      x y z
#    x 1.746910 0.000000 0.012440 
#    y 0.000000 1.680270 0.000000 
#    z 0.012440 0.000000 1.665320 
# 
# From -- ./inp_files/53460.got.cif
#   From: 2010.05.17/outbox.cif.g08.bks.cpg/sg14_27_cif.got.tgz:53460.got - 2010.06.03 17:49:19.
