data_PCOD9252600
_publ_section_title
;
Structure prediction by ZEFSAII (Michael W. Deem and Ramdas Pophale) SiO2 
 PCOD9252600
Probable space group: P 21/C
;
_chemical_formula_sum "Si O2"
_cell_formula_units_Z 20
_cell_length_a 18.426214
_cell_length_b 7.150719
_cell_length_c 13.275503
_cell_angle_alpha 90.000000
_cell_angle_beta 155.030361
_cell_angle_gamma 90.000000
_cell_volume 738.399179
_symmetry_space_group_name_H-M "P 21/C"
_symmetry_group_IT_number 14
_symmetry_cell_setting 'monoclinic'
loop_
_space_group_symop_operation_xyz
x,y,z
-x,1/2+y,1/2-z
-x,-y,-z
x,1/2-y,1/2+z
loop_
_atom_site_type_symbol
_atom_site_label
_atom_site_fract_x
_atom_site_fract_y
_atom_site_fract_z
Si Si1 0.518446 0.754482 0.798022
Si Si2 0.774452 0.390091 0.418262
Si Si3 0.436646 0.408633 0.318075
Si Si4 0.154171 0.144135 0.170069
Si Si5 0.080673 0.006936 0.446821
O O1 0.379847 0.688351 0.707850
O O2 0.495648 0.778515 0.647082
O O3 0.515375 0.975213 0.824506
O O4 0.707986 0.684077 0.069799
O O5 0.746393 0.547002 0.298749
O O6 0.908307 0.472282 0.667419
O O7 0.862383 0.209449 0.472510
O O8 0.500000 0.500000 0.500000
O O9 0.234237 0.414937 0.069909
O O10 0.084920 0.346909 0.044777
O O11 0.000000 0.000000 0.000000
#
# Coordination Sequence:
#
# PCOD9252600 Si02
#       5
#     4   4   4   4   4
#     4  11  27  45  77 112 152 204 259 326 396 467
#     4  11  25  46  76 111 157 203 263 321 395 468
#     4  11  25  49  75 110 155 203 259 325 396 466
#     4  12  26  47  74 112 158 203 261 326 392 472
#     4  11  24  47  72 111 156 199 258 323 385 470
#
# _framework density 27.085621
#
# number of rings (size 3 to 8) (size 9 to 14) (size 15 to 20)
#    0.000    0.800    4.000    1.800    5.600    5.600 
#    0.000    0.000    0.000    0.000    0.000    0.000 
#    0.000    0.000    0.000    0.000    0.000    0.000 
#
# Total GULP energy -111791.285709 kJ/mol
# GULP energy per Si atom -5589.564285 kJ/mol
# Density = 2.702397 g / cm^3
# Si number density = 27.085621 Si / 1000 Ang^3
#
#
#
# Elastic Constant Matrix: (Units=GPa)
#
#
# Indices 1 2 3 4 5 6 
#
# 1 127.2488 16.6483 19.4410 0.0000 -9.4831 0.0000
# 2 16.6483 82.4553 -1.6920 0.0000 -6.1320 0.0000
# 3 19.4410 -1.6920 132.1453 0.0000 -7.2940 0.0000
# 4 0.0000 0.0000 0.0000 27.1754 0.0000 -25.0989
# 5 -9.4831 -6.1320 -7.2940 0.0000 46.6334 0.0000
# 6 0.0000 0.0000 0.0000 -25.0989 0.0000 157.4249
#
#
#
# Elastic Compliance Matrix: (Units=1/GPa)
#
#
# Indices 1 2 3 4 5 6 
#
# 1 0.008346 -0.001613 -0.001177 0.000000 0.001301 0.000000
# 2 -0.001613 0.012567 0.000475 0.000000 0.001399 0.000000
# 3 -0.001177 0.000475 0.007804 0.000000 0.001044 0.000000
# 4 0.000000 0.000000 0.000000 0.043152 0.000000 0.006880
# 5 0.001301 0.001399 0.001044 0.000000 0.022056 0.000000
# 6 0.000000 0.000000 0.000000 0.006880 0.000000 0.007449
#
#
# Mechanical properties :
#
#
# Convention : Reuss Voigt Hill
#
# Bulk Modulus (GPa) = 41.51115 45.62709 43.56912
# Shear Modulus (GPa) = 43.84711 66.74355 55.29533
#
# Velocity S-wave (km/s) = 4.02784 4.96943 4.52320
# Velocity P-wave (km/s) = 6.08198 7.05755 6.58785
#
# Compressibility (1/GPa) = 0.02408991
#
# Stress axis : x y z
#
# Youngs Moduli (GPa) = 119.81291 79.57242 128.13525
#
# Poissons Ratio (x) = 0.12832 0.15078
# Poissons Ratio (y) = 0.19321 -0.06091
# Poissons Ratio (z) = 0.14099 -0.03783
#
# Static dielectric constant tensor:
#      x y z
#    x 1.916140 0.000000 0.149130 
#    y 0.000000 2.159360 0.000000 
#    z 0.149130 0.000000 1.902680 
# 
# From -- ./inp_files/33688.got.cif
#   From: 2010.05.17/outbox.cif.g08.bks.cpg/sg14_17_cif.got.tgz:33688.got - 2010.06.03 17:49:19.
