data_PCOD9252778
_publ_section_title
;
Structure prediction by ZEFSAII (Michael W. Deem and Ramdas Pophale) SiO2 
 PCOD9252778
Probable space group: P 21/C
;
_chemical_formula_sum "Si O2"
_cell_formula_units_Z 24
_cell_length_a 9.677906
_cell_length_b 11.846489
_cell_length_c 11.200604
_cell_angle_alpha 90.000000
_cell_angle_beta 114.152430
_cell_angle_gamma 90.000000
_cell_volume 1171.726900
_symmetry_space_group_name_H-M "P 21/C"
_symmetry_group_IT_number 14
_symmetry_cell_setting 'monoclinic'
loop_
_space_group_symop_operation_xyz
x,y,z
-x,1/2+y,1/2-z
-x,-y,-z
x,1/2-y,1/2+z
loop_
_atom_site_type_symbol
_atom_site_label
_atom_site_fract_x
_atom_site_fract_y
_atom_site_fract_z
Si Si1 0.393927 0.672875 0.949069
Si Si2 0.068710 0.963668 0.709597
Si Si3 0.071220 0.673232 0.971133
Si Si4 0.090203 0.410269 0.612324
Si Si5 0.599823 0.070733 0.125630
Si Si6 0.580375 0.544173 0.207911
O O1 0.234619 0.679569 0.964602
O O2 0.421723 0.795692 0.903116
O O3 0.388203 0.575092 0.846402
O O4 0.524335 0.632255 0.087225
O O5 0.085524 0.872590 0.610421
O O6 0.226478 0.961712 0.834005
O O7 0.940522 0.934123 0.758857
O O8 0.028156 0.081868 0.635394
O O9 0.983531 0.790320 0.941225
O O10 0.270968 0.417734 0.666866
O O11 0.000000 0.500000 0.500000
O O12 0.553761 0.036556 0.243361
O O13 0.500000 0.000000 0.000000
#
# Coordination Sequence:
#
# PCOD9252778 Si02
#       6
#     4   4   4   4   4   4
#     4  11  25  48  73  97 143 189 221 296 354 400
#     4  11  25  46  71 103 136 186 235 277 350 415
#     4  11  25  46  75  98 140 190 229 287 348 406
#     4  12  27  43  73 106 139 180 235 289 338 415
#     4  12  27  43  74 105 140 180 234 287 347 415
#     4  11  27  46  70 105 141 178 235 286 352 415
#
# _framework density 20.482588
#
# number of rings (size 3 to 8) (size 9 to 14) (size 15 to 20)
#    0.000    0.667    5.000    1.000    9.333    1.333 
#    0.000    0.000    0.000    0.000    0.000    0.000 
#    0.000    0.000    0.000    0.000    0.000    0.000 
#
# Total GULP energy -134255.432547 kJ/mol
# GULP energy per Si atom -5593.976356 kJ/mol
# Density = 2.043597 g / cm^3
# Si number density = 20.482588 Si / 1000 Ang^3
#
#
#
# Elastic Constant Matrix: (Units=GPa)
#
#
# Indices 1 2 3 4 5 6 
#
# 1 49.1709 17.1211 -3.3767 0.0000 -0.9405 0.0000
# 2 17.1211 108.6236 46.8741 0.0000 8.3500 0.0000
# 3 -3.3767 46.8741 68.3336 0.0000 11.1600 0.0000
# 4 0.0000 0.0000 0.0000 4.6046 0.0000 -2.4612
# 5 -0.9405 8.3500 11.1600 0.0000 48.0444 0.0000
# 6 0.0000 0.0000 0.0000 -2.4612 0.0000 27.7246
#
#
#
# Elastic Compliance Matrix: (Units=1/GPa)
#
#
# Indices 1 2 3 4 5 6 
#
# 1 0.022698 -0.005772 0.005036 0.000000 0.000278 0.000000
# 2 -0.005772 0.014547 -0.010220 0.000000 -0.000267 0.000000
# 3 0.005036 -0.010220 0.022438 0.000000 -0.003337 0.000000
# 4 0.000000 0.000000 0.000000 0.227991 0.000000 0.020240
# 5 0.000278 -0.000267 -0.003337 0.000000 0.021641 0.000000
# 6 0.000000 0.000000 0.000000 0.020240 0.000000 0.037866
#
#
# Mechanical properties :
#
#
# Convention : Reuss Voigt Hill
#
# Bulk Modulus (GPa) = 26.47567 38.59610 32.53589
# Shear Modulus (GPa) = 13.09982 27.10870 20.10426
#
# Velocity S-wave (km/s) = 2.53169 3.64194 3.13634
# Velocity P-wave (km/s) = 4.63681 6.04725 5.38838
#
# Compressibility (1/GPa) = 0.03777052
#
# Stress axis : x y z
#
# Youngs Moduli (GPa) = 44.05642 68.74453 44.56639
#
# Poissons Ratio (x) = 0.39679 -0.22442
# Poissons Ratio (y) = 0.25429 0.45547
# Poissons Ratio (z) = -0.22185 0.70257
#
# Static dielectric constant tensor:
#      x y z
#    x 1.716440 0.000000 0.019480 
#    y 0.000000 1.698180 0.000000 
#    z 0.019480 0.000000 1.751590 
# 
# From -- ./inp_files/24073.got.cif
#   From: 2010.05.17/outbox.cif.g08.bks.cpg/sg14_13_cif.got.tgz:24073.got - 2010.06.03 17:49:19.
