data_PCOD9252721
_publ_section_title
;
Structure prediction by ZEFSAII (Michael W. Deem and Ramdas Pophale) SiO2 
 PCOD9252721
Probable space group: P 21/C
;
_chemical_formula_sum "Si O2"
_cell_formula_units_Z 24
_cell_length_a 4.845563
_cell_length_b 21.947512
_cell_length_c 9.943211
_cell_angle_alpha 90.000000
_cell_angle_beta 118.662129
_cell_angle_gamma 90.000000
_cell_volume 927.865868
_symmetry_space_group_name_H-M "P 21/C"
_symmetry_group_IT_number 14
_symmetry_cell_setting 'monoclinic'
loop_
_space_group_symop_operation_xyz
x,y,z
-x,1/2+y,1/2-z
-x,-y,-z
x,1/2-y,1/2+z
loop_
_atom_site_type_symbol
_atom_site_label
_atom_site_fract_x
_atom_site_fract_y
_atom_site_fract_z
Si Si1 0.588576 0.302961 0.250306
Si Si2 0.334897 0.931308 0.309160
Si Si3 0.797621 0.112536 0.151449
Si Si4 0.177129 0.060621 0.005626
Si Si5 0.731753 0.450902 0.905268
Si Si6 0.667518 0.723686 0.539627
O O1 0.510779 0.375031 0.233758
O O2 0.406774 0.266523 0.322157
O O3 0.959059 0.291167 0.370330
O O4 0.449408 0.279032 0.078205
O O5 0.981232 0.923636 0.173561
O O6 0.355417 0.920953 0.473203
O O7 0.454642 0.999943 0.307832
O O8 0.852910 0.097493 0.322309
O O9 0.076626 0.105408 0.108462
O O10 0.576946 0.170549 0.067266
O O11 0.544278 0.059259 0.069676
O O12 0.000000 0.000000 0.000000
O O13 0.000000 0.500000 0.000000
#
# Coordination Sequence:
#
# PCOD9252721 Si02
#       6
#     4   4   4   4   4   4
#     4  12  28  50  78 105 148 187 252 305 369 432
#     4  11  25  45  67 104 146 188 234 294 363 428
#     4  12  25  44  71 102 143 183 242 284 356 429
#     4  12  23  42  73 102 136 185 232 291 342 435
#     4  11  27  42  69 108 149 193 231 294 365 433
#     4  12  27  50  75 112 137 198 244 309 366 433
#
# _framework density 25.865804000000001
#
# number of rings (size 3 to 8) (size 9 to 14) (size 15 to 20)
#    0.000    0.333    5.000    2.500    9.333    1.333 
#    0.000    0.000    0.000    0.000    0.000    0.000 
#    0.000    0.000    0.000    0.000    0.000    0.000 
#
# Total GULP energy -134030.388315 kJ/mol
# GULP energy per Si atom -5584.599513 kJ/mol
# Density = 2.580693 g / cm^3
# Si number density = 25.865804 Si / 1000 Ang^3
#
#
#
# Elastic Constant Matrix: (Units=GPa)
#
#
# Indices 1 2 3 4 5 6 
#
# 1 121.5023 0.8021 28.4101 0.0000 -15.5229 0.0000
# 2 0.8021 49.7958 17.2178 0.0000 -13.9966 0.0000
# 3 28.4101 17.2178 130.7182 0.0000 -9.9981 0.0000
# 4 0.0000 0.0000 0.0000 51.2695 0.0000 -2.8344
# 5 -15.5229 -13.9966 -9.9981 0.0000 26.0084 0.0000
# 6 0.0000 0.0000 0.0000 -2.8344 0.0000 12.2485
#
#
#
# Elastic Compliance Matrix: (Units=1/GPa)
#
#
# Indices 1 2 3 4 5 6 
#
# 1 0.009433 0.002211 -0.001875 0.000000 0.006099 0.000000
# 2 0.002211 0.024814 -0.002706 0.000000 0.013633 0.000000
# 3 -0.001875 -0.002706 0.008466 0.000000 0.000679 0.000000
# 4 0.000000 0.000000 0.000000 0.019758 0.000000 0.004572
# 5 0.006099 0.013633 0.000679 0.000000 0.049687 0.000000
# 6 0.000000 0.000000 0.000000 0.004572 0.000000 0.082701
#
#
# Mechanical properties :
#
#
# Convention : Reuss Voigt Hill
#
# Bulk Modulus (GPa) = 26.33482 43.87515 35.10499
# Shear Modulus (GPa) = 23.55636 34.94436 29.25036
#
# Velocity S-wave (km/s) = 3.02108 3.67956 3.36646
# Velocity P-wave (km/s) = 4.72997 5.92045 5.35837
#
# Compressibility (1/GPa) = 0.03797254
#
# Stress axis : x y z
#
# Youngs Moduli (GPa) = 106.00727 40.29966 118.12056
#
# Poissons Ratio (x) = -0.08909 0.22147
# Poissons Ratio (y) = -0.23435 0.31966
# Poissons Ratio (z) = 0.19875 0.10906
#
# Static dielectric constant tensor:
#      x y z
#    x 2.040170 0.000000 0.064260 
#    y 0.000000 2.121140 0.000000 
#    z 0.064260 0.000000 2.222590 
# 
# From -- ./inp_files/6318.got.cif
#   From: 2010.05.17/outbox.cif.g08.bks.cpg/sg14_4_cif.got.tgz:6318.got - 2010.06.03 17:49:19.
