data_PCOD9252757
_publ_section_title
;
Structure prediction by ZEFSAII (Michael W. Deem and Ramdas Pophale) SiO2 
 PCOD9252757
Probable space group: P 21/C
;
_chemical_formula_sum "Si O2"
_cell_formula_units_Z 32
_cell_length_a 11.480459
_cell_length_b 16.191032
_cell_length_c 13.932642
_cell_angle_alpha 90.000000
_cell_angle_beta 31.495883
_cell_angle_gamma 90.000000
_cell_volume 1353.011334
_symmetry_space_group_name_H-M "P 21/C"
_symmetry_group_IT_number 14
_symmetry_cell_setting 'monoclinic'
loop_
_space_group_symop_operation_xyz
x,y,z
-x,1/2+y,1/2-z
-x,-y,-z
x,1/2-y,1/2+z
loop_
_atom_site_type_symbol
_atom_site_label
_atom_site_fract_x
_atom_site_fract_y
_atom_site_fract_z
Si Si1 0.375429 0.676646 0.390126
Si Si2 0.748632 0.688024 0.645927
Si Si3 0.948386 0.440898 0.629753
Si Si4 0.384902 0.938184 0.368127
Si Si5 0.127512 0.273644 0.227297
Si Si6 0.370131 0.027733 0.184484
Si Si7 0.506252 0.599705 0.108309
Si Si8 0.938852 0.592873 0.248713
O O1 0.558285 0.749084 0.245697
O O2 0.504371 0.607570 0.361539
O O3 0.352473 0.637948 0.300671
O O4 0.132018 0.699128 0.603940
O O5 0.968492 0.654553 0.438911
O O6 0.614885 0.601513 0.739394
O O7 0.830764 0.723013 0.688510
O O8 0.062371 0.462394 0.653249
O O9 0.000000 0.500000 0.500000
O O10 0.681138 0.436579 0.830867
O O11 0.190948 0.882540 0.546458
O O12 0.371150 0.957301 0.264833
O O13 0.360530 0.026652 0.434499
O O14 0.181490 0.180818 0.154115
O O15 0.311683 0.336718 0.057513
O O16 0.138005 0.050758 0.296737
O O17 0.500000 0.000000 0.000000
#
# Coordination Sequence:
#
# PCOD9252757 Si02
#       8
#     4   4   4   4   4   4   4   4
#     4  11  25  49  69 106 152 191 247 311 376 453
#     4  12  23  46  73 105 151 192 245 310 375 448
#     4  12  26  44  77 111 150 200 253 317 380 456
#     4  11  25  45  75 108 149 193 250 316 375 455
#     4  12  26  46  74 108 149 201 247 315 378 455
#     4  11  26  46  72 107 146 196 247 310 380 450
#     4  11  26  44  71 112 143 194 256 304 381 446
#     4  12  26  47  70 108 151 196 256 308 384 450
#
# _framework density 23.650946999999999
#
# number of rings (size 3 to 8) (size 9 to 14) (size 15 to 20)
#    0.000    0.500    5.000    2.625    5.250    1.000 
#    0.000    0.000    0.000    0.000    0.000    0.000 
#    0.000    0.000    0.000    0.000    0.000    0.000 
#
# Total GULP energy -178559.822417 kJ/mol
# GULP energy per Si atom -5579.994451 kJ/mol
# Density = 2.359712 g / cm^3
# Si number density = 23.650947 Si / 1000 Ang^3
#
#
#
# Elastic Constant Matrix: (Units=GPa)
#
#
# Indices 1 2 3 4 5 6 
#
# 1 123.1971 11.9633 8.7058 0.0000 -8.7768 0.0000
# 2 11.9633 66.0263 8.8731 0.0000 2.5841 0.0000
# 3 8.7058 8.8731 72.8508 0.0000 -12.2582 0.0000
# 4 0.0000 0.0000 0.0000 42.1487 0.0000 0.9887
# 5 -8.7768 2.5841 -12.2582 0.0000 28.1410 0.0000
# 6 0.0000 0.0000 0.0000 0.9887 0.0000 28.1940
#
#
#
# Elastic Compliance Matrix: (Units=1/GPa)
#
#
# Indices 1 2 3 4 5 6 
#
# 1 0.008485 -0.001589 -0.000378 0.000000 0.002628 0.000000
# 2 -0.001589 0.015848 -0.002232 0.000000 -0.002923 0.000000
# 3 -0.000378 -0.002232 0.015170 0.000000 0.006695 0.000000
# 4 0.000000 0.000000 0.000000 0.023745 0.000000 -0.000833
# 5 0.002628 -0.002923 0.006695 0.000000 0.039540 0.000000
# 6 0.000000 0.000000 0.000000 -0.000833 0.000000 0.035498
#
#
# Mechanical properties :
#
#
# Convention : Reuss Voigt Hill
#
# Bulk Modulus (GPa) = 32.15053 35.68427 33.91740
# Shear Modulus (GPa) = 31.83622 35.19887 33.51755
#
# Velocity S-wave (km/s) = 3.67289 3.86199 3.76862
# Velocity P-wave (km/s) = 5.62228 5.91669 5.77136
#
# Compressibility (1/GPa) = 0.03110369
#
# Stress axis : x y z
#
# Youngs Moduli (GPa) = 117.85011 63.10003 65.91811
#
# Poissons Ratio (x) = 0.10029 0.02494
# Poissons Ratio (y) = 0.18732 0.14714
# Poissons Ratio (z) = 0.04458 0.14085
#
# Static dielectric constant tensor:
#      x y z
#    x 2.191490 0.000000 -0.226540 
#    y 0.000000 1.966940 0.000000 
#    z -0.226540 0.000000 2.120950 
# 
# From -- ./inp_files/45434.got.cif
#   From: 2010.05.17/outbox.cif.g08.bks.cpg/sg14_23_cif.got.tgz:45434.got - 2010.06.03 17:49:19.
