data_PCOD9252765
_publ_section_title
;
Structure prediction by ZEFSAII (Michael W. Deem and Ramdas Pophale) SiO2 
 PCOD9252765
Probable space group: P 21/C
;
_chemical_formula_sum "Si O2"
_cell_formula_units_Z 20
_cell_length_a 5.047489
_cell_length_b 19.600427
_cell_length_c 7.946478
_cell_angle_alpha 90.000000
_cell_angle_beta 114.684272
_cell_angle_gamma 90.000000
_cell_volume 714.330598
_symmetry_space_group_name_H-M "P 21/C"
_symmetry_group_IT_number 14
_symmetry_cell_setting 'monoclinic'
loop_
_space_group_symop_operation_xyz
x,y,z
-x,1/2+y,1/2-z
-x,-y,-z
x,1/2-y,1/2+z
loop_
_atom_site_type_symbol
_atom_site_label
_atom_site_fract_x
_atom_site_fract_y
_atom_site_fract_z
Si Si1 0.363615 0.599323 0.313489
Si Si2 0.868543 0.238554 0.295163
Si Si3 0.254458 0.186800 0.676583
Si Si4 0.894108 0.963599 0.144152
Si Si5 0.538866 0.420109 0.036935
O O1 0.182919 0.666283 0.315454
O O2 0.181537 0.528812 0.260418
O O3 0.613452 0.580171 0.514055
O O4 0.484325 0.610880 0.156528
O O5 0.966158 0.213662 0.504746
O O6 0.561916 0.276802 0.218968
O O7 0.148687 0.285137 0.326701
O O8 0.314577 0.113518 0.607227
O O9 0.146262 0.917605 0.289582
O O10 0.000000 0.000000 0.000000
O O11 0.500000 0.500000 0.000000
#
# Coordination Sequence:
#
# PCOD9252765 Si02
#       5
#     4   4   4   4   4
#     4  11  26  49  78 115 170 213 275 351 416 510
#     4  12  28  53  77 114 161 214 277 339 417 501
#     4  12  29  51  81 116 160 223 273 346 421 498
#     4  11  25  45  80 125 157 219 275 343 421 496
#     4  12  25  50  82 120 169 214 283 346 434 498
#
# _framework density 27.998242000000001
#
# number of rings (size 3 to 8) (size 9 to 14) (size 15 to 20)
#    0.000    0.400    2.000    5.400    5.600    3.200 
#    3.600    0.000    0.000    0.000    0.000    0.000 
#    0.000    0.000    0.000    0.000    0.000    0.000 
#
# Total GULP energy -112111.990936 kJ/mol
# GULP energy per Si atom -5605.599547 kJ/mol
# Density = 2.793452 g / cm^3
# Si number density = 27.998242 Si / 1000 Ang^3
#
#
#
# Elastic Constant Matrix: (Units=GPa)
#
#
# Indices 1 2 3 4 5 6 
#
# 1 129.2818 50.3236 7.1487 0.0000 0.9789 0.0000
# 2 50.3236 180.4083 4.8257 0.0000 8.1553 0.0000
# 3 7.1487 4.8257 78.8700 0.0000 10.9462 0.0000
# 4 0.0000 0.0000 0.0000 34.1978 0.0000 13.5855
# 5 0.9789 8.1553 10.9462 0.0000 53.3708 0.0000
# 6 0.0000 0.0000 0.0000 13.5855 0.0000 67.8077
#
#
#
# Elastic Compliance Matrix: (Units=1/GPa)
#
#
# Indices 1 2 3 4 5 6 
#
# 1 0.008716 -0.002429 -0.000690 0.000000 0.000353 0.000000
# 2 -0.002429 0.006262 -0.000037 0.000000 -0.000905 0.000000
# 3 -0.000690 -0.000037 0.013115 0.000000 -0.002671 0.000000
# 4 0.000000 0.000000 0.000000 0.031770 0.000000 -0.006365
# 5 0.000353 -0.000905 -0.002671 0.000000 0.019417 0.000000
# 6 0.000000 0.000000 0.000000 -0.006365 0.000000 0.016023
#
#
# Mechanical properties :
#
#
# Convention : Reuss Voigt Hill
#
# Bulk Modulus (GPa) = 45.91397 57.01736 51.46566
# Shear Modulus (GPa) = 45.92385 52.82605 49.37495
#
# Velocity S-wave (km/s) = 4.05438 4.34840 4.20396
# Velocity P-wave (km/s) = 6.19288 6.75428 6.47966
#
# Compressibility (1/GPa) = 0.02177986
#
# Stress axis : x y z
#
# Youngs Moduli (GPa) = 114.73228 159.68425 76.25019
#
# Poissons Ratio (x) = 0.38783 0.05264
# Poissons Ratio (y) = 0.27865 0.00286
# Poissons Ratio (z) = 0.07921 0.00598
#
# Static dielectric constant tensor:
#      x y z
#    x 2.238220 0.000000 -0.130860 
#    y 0.000000 2.369040 0.000000 
#    z -0.130860 0.000000 2.317220 
# 
# From -- ./inp_files/5789.got.cif
#   From: 2010.05.17/outbox.cif.g08.bks.cpg/sg14_3_cif.got.tgz:5789.got - 2010.06.03 17:49:19.
