data_PCOD9252972
_publ_section_title
;
Structure prediction by ZEFSAII (Michael W. Deem and Ramdas Pophale) SiO2 
 PCOD9252972
Probable space group: P 21/C
;
_chemical_formula_sum "Si O2"
_cell_formula_units_Z 24
_cell_length_a 9.019157
_cell_length_b 17.897807
_cell_length_c 7.817008
_cell_angle_alpha 90.000000
_cell_angle_beta 130.413730
_cell_angle_gamma 90.000000
_cell_volume 960.747991
_symmetry_space_group_name_H-M "P 21/C"
_symmetry_group_IT_number 14
_symmetry_cell_setting 'monoclinic'
loop_
_space_group_symop_operation_xyz
x,y,z
-x,1/2+y,1/2-z
-x,-y,-z
x,1/2-y,1/2+z
loop_
_atom_site_type_symbol
_atom_site_label
_atom_site_fract_x
_atom_site_fract_y
_atom_site_fract_z
Si Si1 0.677232 0.396745 0.597634
Si Si2 0.471752 0.281865 0.237765
Si Si3 0.599007 0.133913 0.512841
Si Si4 0.618556 0.957631 0.861836
Si Si5 0.983733 0.857804 0.145272
Si Si6 0.042486 0.306967 0.769866
O O1 0.526080 0.330958 0.441716
O O2 0.582486 0.440141 0.685882
O O3 0.672657 0.457633 0.441275
O O4 0.888280 0.357908 0.757870
O O5 0.527883 0.197373 0.323540
O O6 0.601495 0.317501 0.186722
O O7 0.253860 0.299794 0.014950
O O8 0.435905 0.070704 0.368182
O O9 0.814388 0.100624 0.667296
O O10 0.799526 0.907215 0.059620
O O11 0.017210 0.780078 0.271000
O O12 0.953163 0.835986 0.922103
#
# Coordination Sequence:
#
# PCOD9252972 Si02
#       6
#     4   4   4   4   4   4
#     4  11  27  47  68 101 144 184 229 286 348 409
#     4  12  23  43  71 102 136 182 232 285 342 405
#     4  12  23  43  71 102 136 182 232 285 342 405
#     4  11  27  47  68 101 144 184 229 286 348 409
#     4  12  25  43  72 104 134 181 233 286 342 411
#     4  12  25  43  72 104 134 181 233 286 342 411
#
# _framework density 24.980536000000001
#
# number of rings (size 3 to 8) (size 9 to 14) (size 15 to 20)
#    0.000    0.333    6.667    1.000    4.667    2.667 
#    0.000    3.333    0.000    0.000    0.000    0.000 
#    0.000    0.000    0.000    0.000    0.000    0.000 
#
# Total GULP energy -134224.841082 kJ/mol
# GULP energy per Si atom -5592.701712 kJ/mol
# Density = 2.492368 g / cm^3
# Si number density = 24.980536 Si / 1000 Ang^3
#
#
#
# Elastic Constant Matrix: (Units=GPa)
#
#
# Indices 1 2 3 4 5 6 
#
# 1 73.0976 26.9901 38.1452 0.0000 20.3808 0.0000
# 2 26.9901 113.5456 20.3822 0.0000 8.7265 0.0000
# 3 38.1452 20.3822 111.0187 0.0000 22.4465 0.0000
# 4 0.0000 0.0000 0.0000 39.3513 0.0000 -5.5701
# 5 20.3808 8.7265 22.4465 0.0000 53.6559 0.0000
# 6 0.0000 0.0000 0.0000 -5.5701 0.0000 29.3428
#
#
#
# Elastic Compliance Matrix: (Units=1/GPa)
#
#
# Indices 1 2 3 4 5 6 
#
# 1 0.018694 -0.003213 -0.004919 0.000000 -0.004520 0.000000
# 2 -0.003213 0.009695 -0.000660 0.000000 -0.000080 0.000000
# 3 -0.004919 -0.000660 0.011382 0.000000 -0.002786 0.000000
# 4 0.000000 0.000000 0.000000 0.026114 0.000000 0.004957
# 5 -0.004520 -0.000080 -0.002786 0.000000 0.021533 0.000000
# 6 0.000000 0.000000 0.000000 0.004957 0.000000 0.035021
#
#
# Mechanical properties :
#
#
# Convention : Reuss Voigt Hill
#
# Bulk Modulus (GPa) = 45.07101 52.07744 48.57423
# Shear Modulus (GPa) = 33.91681 38.61294 36.26487
#
# Velocity S-wave (km/s) = 3.68874 3.93583 3.81428
# Velocity P-wave (km/s) = 6.01864 6.44568 6.23582
#
# Compressibility (1/GPa) = 0.02218721
#
# Stress axis : x y z
#
# Youngs Moduli (GPa) = 53.49248 103.14145 87.85726
#
# Poissons Ratio (x) = 0.33142 0.43220
# Poissons Ratio (y) = 0.17188 0.05796
# Poissons Ratio (z) = 0.26315 0.06805
#
# Static dielectric constant tensor:
#      x y z
#    x 2.112540 0.000000 -0.075700 
#    y 0.000000 1.949480 0.000000 
#    z -0.075700 0.000000 1.994370 
# 
# From -- ./inp_files/10287.got.cif
#   From: 2010.05.17/outbox.cif.g08.bks.cpg/sg14_6_cif.got.tgz:10287.got - 2010.06.03 17:49:19.
