data_PCOD9252404
_publ_section_title
;
Structure prediction by ZEFSAII (Michael W. Deem and Ramdas Pophale) SiO2 
 PCOD9252404
Probable space group: P 21/C
;
_chemical_formula_sum "Si O2"
_cell_formula_units_Z 32
_cell_length_a 12.298441
_cell_length_b 19.778604
_cell_length_c 12.206196
_cell_angle_alpha 90.000000
_cell_angle_beta 148.788885
_cell_angle_gamma 90.000000
_cell_volume 1538.570934
_symmetry_space_group_name_H-M "P 21/C"
_symmetry_group_IT_number 14
_symmetry_cell_setting 'monoclinic'
loop_
_space_group_symop_operation_xyz
x,y,z
-x,1/2+y,1/2-z
-x,-y,-z
x,1/2-y,1/2+z
loop_
_atom_site_type_symbol
_atom_site_label
_atom_site_fract_x
_atom_site_fract_y
_atom_site_fract_z
Si Si1 0.239602 0.986717 0.182083
Si Si2 0.950486 0.312415 0.007948
Si Si3 0.493458 0.117383 0.478158
Si Si4 0.177593 0.676569 0.337014
Si Si5 0.627926 0.031156 0.956141
Si Si6 0.193670 0.450996 0.191735
Si Si7 0.431352 0.707186 0.170315
Si Si8 0.233313 0.218948 0.397455
O O1 0.299951 0.916318 0.292763
O O2 0.355310 0.051593 0.332660
O O3 0.307059 0.981540 0.112929
O O4 0.000000 0.000000 0.000000
O O5 0.096822 0.376751 0.112515
O O6 0.100545 0.256116 0.188523
O O7 0.839883 0.293000 0.799322
O O8 0.757573 0.326417 0.923628
O O9 0.519549 0.160022 0.390221
O O10 0.387988 0.165229 0.477031
O O11 0.261241 0.600450 0.408827
O O12 0.334272 0.722439 0.542483
O O13 0.943571 0.682013 0.183160
O O14 0.706370 0.972222 0.105250
O O15 0.379417 0.040335 0.763109
O O16 0.000000 0.500000 0.000000
O O17 0.632510 0.726986 0.416674
#
# Coordination Sequence:
#
# PCOD9252404 Si02
#       8
#     4   4   4   4   4   4   4   4
#     4  11  27  45  70  96 139 182 230 283 338 420
#     4  11  26  42  69 102 138 174 230 285 356 408
#     4  11  26  44  68  99 134 179 229 277 345 406
#     4  11  24  43  68 103 133 179 225 287 344 419
#     4  11  26  43  71  99 135 182 237 279 357 412
#     4  11  26  43  70 102 137 179 230 296 343 420
#     4  11  26  42  70  99 140 175 229 283 348 418
#     4  11  25  45  71 102 139 183 227 288 349 426
#
# _framework density 20.79852
#
# number of rings (size 3 to 8) (size 9 to 14) (size 15 to 20)
#    0.000    1.000    1.250    3.000   12.250    5.000 
#    0.000    0.000    0.000    0.000    0.000    0.000 
#    0.000    0.000    0.000    0.000    0.000    0.000 
#
# Total GULP energy -179015.705230 kJ/mol
# GULP energy per Si atom -5594.240788 kJ/mol
# Density = 2.075118 g / cm^3
# Si number density = 20.798520 Si / 1000 Ang^3
#
#
#
# Elastic Constant Matrix: (Units=GPa)
#
#
# Indices 1 2 3 4 5 6 
#
# 1 105.1916 32.1877 30.9275 0.0000 9.8174 0.0000
# 2 32.1877 51.2979 17.0535 0.0000 10.3729 0.0000
# 3 30.9275 17.0535 78.6755 0.0000 14.0718 0.0000
# 4 0.0000 0.0000 0.0000 16.3602 0.0000 7.8499
# 5 9.8174 10.3729 14.0718 0.0000 40.0654 0.0000
# 6 0.0000 0.0000 0.0000 7.8499 0.0000 24.6590
#
#
#
# Elastic Compliance Matrix: (Units=1/GPa)
#
#
# Indices 1 2 3 4 5 6 
#
# 1 0.012596 -0.006724 -0.003472 0.000000 -0.000126 0.000000
# 2 -0.006724 0.025247 -0.002086 0.000000 -0.004156 0.000000
# 3 -0.003472 -0.002086 0.015236 0.000000 -0.003960 0.000000
# 4 0.000000 0.000000 0.000000 0.072144 0.000000 -0.022966
# 5 -0.000126 -0.004156 -0.003960 0.000000 0.027457 0.000000
# 6 0.000000 0.000000 0.000000 -0.022966 0.000000 0.047864
#
#
# Mechanical properties :
#
#
# Convention : Reuss Voigt Hill
#
# Bulk Modulus (GPa) = 35.06817 43.94471 39.50644
# Shear Modulus (GPa) = 21.31175 26.55001 23.93088
#
# Velocity S-wave (km/s) = 3.20453 3.57674 3.39574
# Velocity P-wave (km/s) = 5.53078 6.18321 5.86607
#
# Compressibility (1/GPa) = 0.02851589
#
# Stress axis : x y z
#
# Youngs Moduli (GPa) = 79.38720 39.60865 65.63587
#
# Poissons Ratio (x) = 0.26634 0.22786
# Poissons Ratio (y) = 0.53382 0.13690
# Poissons Ratio (z) = 0.27560 0.08262
#
# Static dielectric constant tensor:
#      x y z
#    x 1.524170 0.000000 -0.327520 
#    y 0.000000 1.728950 0.000000 
#    z -0.327520 0.000000 1.316750 
# 
# From -- ./inp_files/30746.got.cif
#   From: 2010.05.17/outbox.cif.g08.bks.cpg/sg14_16_cif.got.tgz:30746.got - 2010.06.03 17:49:19.
