data_PCOD9252359
_publ_section_title
;
Structure prediction by ZEFSAII (Michael W. Deem and Ramdas Pophale) SiO2 
 PCOD9252359
Probable space group: P 21/C
;
_chemical_formula_sum "Si O2"
_cell_formula_units_Z 16
_cell_length_a 10.227764
_cell_length_b 9.228400
_cell_length_c 8.757565
_cell_angle_alpha 90.000000
_cell_angle_beta 129.682247
_cell_angle_gamma 90.000000
_cell_volume 636.142033
_symmetry_space_group_name_H-M "P 21/C"
_symmetry_group_IT_number 14
_symmetry_cell_setting 'monoclinic'
loop_
_space_group_symop_operation_xyz
x,y,z
-x,1/2+y,1/2-z
-x,-y,-z
x,1/2-y,1/2+z
loop_
_atom_site_type_symbol
_atom_site_label
_atom_site_fract_x
_atom_site_fract_y
_atom_site_fract_z
Si Si1 0.574495 0.841421 0.954149
Si Si2 0.375880 0.480669 0.050619
Si Si3 0.748479 0.122221 0.095625
Si Si4 0.126746 0.874192 0.150468
O O1 0.434541 0.816886 0.982088
O O2 0.463973 0.933636 0.751824
O O3 0.642749 0.690966 0.941492
O O4 0.728382 0.950050 0.111030
O O5 0.206770 0.552903 0.861258
O O6 0.500000 0.500000 0.000000
O O7 0.890538 0.209751 0.297706
O O8 0.766541 0.144128 0.927517
O O9 0.000000 0.000000 0.000000
#
# Coordination Sequence:
#
# PCOD9252359 Si02
#       4
#     4   4   4   4
#     4  11  24  41  78 108 136 183 247 310 349 411
#     4  12  23  43  70 107 143 180 244 296 353 421
#     4  11  24  45  72 101 139 187 239 296 357 416
#     4  12  27  47  67 103 151 189 235 294 363 444
#
# _framework density 25.151617000000002
#
# number of rings (size 3 to 8) (size 9 to 14) (size 15 to 20)
#    0.000    0.500    5.000    3.000    3.500    2.000 
#    0.000    6.250    0.000    0.000    0.000    0.000 
#    0.000    0.000    0.000    0.000    0.000    0.000 
#
# Total GULP energy -89324.330201 kJ/mol
# GULP energy per Si atom -5582.770638 kJ/mol
# Density = 2.509437 g / cm^3
# Si number density = 25.151617 Si / 1000 Ang^3
#
#
#
# Elastic Constant Matrix: (Units=GPa)
#
#
# Indices 1 2 3 4 5 6 
#
# 1 53.3313 34.2605 33.6474 0.0000 -28.5364 0.0000
# 2 34.2605 229.1992 68.0883 0.0000 -1.9730 0.0000
# 3 33.6474 68.0883 115.5204 0.0000 -11.8576 0.0000
# 4 0.0000 0.0000 0.0000 66.7021 0.0000 5.9741
# 5 -28.5364 -1.9730 -11.8576 0.0000 35.4654 0.0000
# 6 0.0000 0.0000 0.0000 5.9741 0.0000 29.0401
#
#
#
# Elastic Compliance Matrix: (Units=1/GPa)
#
#
# Indices 1 2 3 4 5 6 
#
# 1 0.042697 -0.004104 -0.006746 0.000000 0.031871 0.000000
# 2 -0.004104 0.005704 -0.002561 0.000000 -0.003841 0.000000
# 3 -0.006746 -0.002561 0.011970 0.000000 -0.001568 0.000000
# 4 0.000000 0.000000 0.000000 0.015273 0.000000 -0.003142
# 5 0.031871 -0.003841 -0.001568 0.000000 0.053103 0.000000
# 6 0.000000 0.000000 0.000000 -0.003142 0.000000 0.035082
#
#
# Mechanical properties :
#
#
# Convention : Reuss Voigt Hill
#
# Bulk Modulus (GPa) = 29.80698 74.44925 52.12811
# Shear Modulus (GPa) = 24.77289 43.71184 34.24236
#
# Velocity S-wave (km/s) = 3.14178 4.17338 3.69377
# Velocity P-wave (km/s) = 5.00377 7.27236 6.24199
#
# Compressibility (1/GPa) = 0.03354919
#
# Stress axis : x y z
#
# Youngs Moduli (GPa) = 23.42093 175.30942 83.54344
#
# Poissons Ratio (x) = 0.71946 0.56358
# Poissons Ratio (y) = 0.09612 0.21396
# Poissons Ratio (z) = 0.15800 0.44897
#
# Static dielectric constant tensor:
#      x y z
#    x 2.046220 0.000000 0.030690 
#    y 0.000000 2.180180 0.000000 
#    z 0.030690 0.000000 2.089700 
# 
# From -- ./inp_files/11954.got.cif
#   From: 2010.05.17/outbox.cif.g08.bks.cpg/sg14_6_cif.got.tgz:11954.got - 2010.06.03 17:49:19.
