data_PCOD9252388
_publ_section_title
;
Structure prediction by ZEFSAII (Michael W. Deem and Ramdas Pophale) SiO2 
 PCOD9252388
Probable space group: P 21/C
;
_chemical_formula_sum "Si O2"
_cell_formula_units_Z 28
_cell_length_a 8.964856
_cell_length_b 8.829611
_cell_length_c 20.178383
_cell_angle_alpha 90.000000
_cell_angle_beta 129.218003
_cell_angle_gamma 90.000000
_cell_volume 1237.458131
_symmetry_space_group_name_H-M "P 21/C"
_symmetry_group_IT_number 14
_symmetry_cell_setting 'monoclinic'
loop_
_space_group_symop_operation_xyz
x,y,z
-x,1/2+y,1/2-z
-x,-y,-z
x,1/2-y,1/2+z
loop_
_atom_site_type_symbol
_atom_site_label
_atom_site_fract_x
_atom_site_fract_y
_atom_site_fract_z
Si Si1 0.931753 0.831961 0.997210
Si Si2 0.373101 0.285231 0.331675
Si Si3 0.516975 0.587223 0.435820
Si Si4 0.866619 0.570200 0.165095
Si Si5 0.099845 0.374673 0.141189
Si Si6 0.762903 0.283019 0.211719
Si Si7 0.294109 0.819518 0.666884
O O1 0.726581 0.851363 0.975335
O O2 0.925207 0.735299 0.927638
O O3 0.093280 0.755953 0.088292
O O4 0.000000 0.000000 0.000000
O O5 0.445377 0.454748 0.365832
O O6 0.305024 0.191560 0.377134
O O7 0.190807 0.292976 0.230788
O O8 0.545900 0.203358 0.343166
O O9 0.500000 0.500000 0.500000
O O10 0.367675 0.723401 0.384774
O O11 0.833510 0.450510 0.215199
O O12 0.910074 0.466146 0.113001
O O13 0.059514 0.667880 0.229474
O O14 0.251528 0.504612 0.164702
O O15 0.647858 0.262187 0.248137
#
# Coordination Sequence:
#
# PCOD9252388 Si02
#       7
#     4   4   4   4   4   4   4
#     4  12  28  47  73 106 144 193 238 311 359 430
#     4  12  25  47  72 109 139 195 243 299 364 441
#     4  12  28  47  72 108 148 183 247 301 366 434
#     4  11  24  42  77  99 146 184 246 291 360 436
#     4  11  26  47  72 104 148 187 249 291 375 429
#     4  11  24  46  71 108 137 195 231 296 357 437
#     4  11  26  45  73 100 150 186 246 293 370 426
#
# _framework density 22.627030000000001
#
# number of rings (size 3 to 8) (size 9 to 14) (size 15 to 20)
#    0.000    0.571    5.714    1.286   14.000    0.000 
#    0.000    1.429    0.000    0.000    0.000    0.000 
#    0.000    0.000    0.000    0.000    0.000    0.000 
#
# Total GULP energy -156648.810178 kJ/mol
# GULP energy per Si atom -5594.600364 kJ/mol
# Density = 2.257553 g / cm^3
# Si number density = 22.627030 Si / 1000 Ang^3
#
#
#
# Elastic Constant Matrix: (Units=GPa)
#
#
# Indices 1 2 3 4 5 6 
#
# 1 130.1788 34.2085 12.5505 0.0000 14.3932 0.0000
# 2 34.2085 103.2495 12.3918 0.0000 1.2969 0.0000
# 3 12.5505 12.3918 68.6794 0.0000 -10.3679 0.0000
# 4 0.0000 0.0000 0.0000 28.3052 0.0000 -7.1186
# 5 14.3932 1.2969 -10.3679 0.0000 22.1717 0.0000
# 6 0.0000 0.0000 0.0000 -7.1186 0.0000 50.6303
#
#
#
# Elastic Compliance Matrix: (Units=1/GPa)
#
#
# Indices 1 2 3 4 5 6 
#
# 1 0.009399 -0.002753 -0.002279 0.000000 -0.007006 0.000000
# 2 -0.002753 0.010754 -0.001358 0.000000 0.000523 0.000000
# 3 -0.002279 -0.001358 0.016631 0.000000 0.009336 0.000000
# 4 0.000000 0.000000 0.000000 0.036624 0.000000 0.005149
# 5 -0.007006 0.000523 0.009336 0.000000 0.053986 0.000000
# 6 0.000000 0.000000 0.000000 0.005149 0.000000 0.020475
#
#
# Mechanical properties :
#
#
# Convention : Reuss Voigt Hill
#
# Bulk Modulus (GPa) = 41.65806 46.71215 44.18511
# Shear Modulus (GPa) = 29.64702 36.41855 33.03278
#
# Velocity S-wave (km/s) = 3.62366 4.01623 3.82498
# Velocity P-wave (km/s) = 5.99655 6.49585 6.25118
#
# Compressibility (1/GPa) = 0.02400496
#
# Stress axis : x y z
#
# Youngs Moduli (GPa) = 106.38907 92.99068 60.12780
#
# Poissons Ratio (x) = 0.25598 0.13701
# Poissons Ratio (y) = 0.29286 0.08167
# Poissons Ratio (z) = 0.24243 0.12631
#
# Static dielectric constant tensor:
#      x y z
#    x 1.871430 0.000000 -0.035110 
#    y 0.000000 1.826390 0.000000 
#    z -0.035110 0.000000 1.877280 
# 
# From -- ./inp_files/65032.got.cif
#   From: 2010.05.17/outbox.cif.g08.bks.cpg/sg14_33_cif.got.tgz:65032.got - 2010.06.03 17:49:19.
