data_PCOD9252919
_publ_section_title
;
Structure prediction by ZEFSAII (Michael W. Deem and Ramdas Pophale) SiO2 
 PCOD9252919
Probable space group: P 21/C
;
_chemical_formula_sum "Si O2"
_cell_formula_units_Z 28
_cell_length_a 8.249818
_cell_length_b 21.095236
_cell_length_c 9.257959
_cell_angle_alpha 90.000000
_cell_angle_beta 51.008287
_cell_angle_gamma 90.000000
_cell_volume 1252.268517
_symmetry_space_group_name_H-M "P 21/C"
_symmetry_group_IT_number 14
_symmetry_cell_setting 'monoclinic'
loop_
_space_group_symop_operation_xyz
x,y,z
-x,1/2+y,1/2-z
-x,-y,-z
x,1/2-y,1/2+z
loop_
_atom_site_type_symbol
_atom_site_label
_atom_site_fract_x
_atom_site_fract_y
_atom_site_fract_z
Si Si1 0.917859 0.072703 0.879626
Si Si2 0.500000 0.364012 0.500000
Si Si3 0.721047 0.664353 0.868754
Si Si4 0.917859 0.927297 0.879626
Si Si5 0.760103 0.275402 0.138233
Si Si6 0.721047 0.164353 0.368754
Si Si7 0.239897 0.275402 0.861767
O O1 0.682635 0.096410 0.979660
O O2 0.084600 0.119346 0.711959
O O3 0.934324 1.000000 0.821049
O O4 0.000000 0.074120 1.000000
O O5 0.317365 0.403590 0.520340
O O6 0.623937 0.321940 0.312766
O O7 0.376063 0.321940 0.687234
O O8 0.752575 0.704505 0.705502
O O9 0.500000 0.628771 0.000000
O O10 0.698995 0.717288 0.006069
O O11 0.084600 0.880654 0.711959
O O12 0.752575 0.204505 0.205502
O O13 0.698995 0.282712 0.006069
O O14 0.000000 0.294326 1.000000
#
# Coordination Sequence:
#
# PCOD9252919 Si02
#       7
#     4   4   4   4   4   4   4
#     4  11  26  48  74 104 145 197 244 295 357 430
#     4  12  25  48  74 106 149 186 244 300 362 430
#     4  12  25  43  71 109 149 186 238 300 362 439
#     4  11  26  48  74 104 145 197 244 295 357 430
#     4  12  25  42  70 112 145 186 233 299 377 420
#     4  12  25  43  71 109 149 186 238 300 362 439
#     4  12  25  42  70 112 145 186 233 299 377 420
#
# _framework density 22.359421999999999
#
# number of rings (size 3 to 8) (size 9 to 14) (size 15 to 20)
#    0.000    0.286    4.286    4.714    4.000    0.571 
#    0.000    4.286    0.000    0.000    0.000    0.000 
#    0.000    0.000    0.000    0.000    0.000    0.000 
#
# Total GULP energy -156543.797476 kJ/mol
# GULP energy per Si atom -5590.849910 kJ/mol
# Density = 2.230853 g / cm^3
# Si number density = 22.359422 Si / 1000 Ang^3
#
#
#
# Elastic Constant Matrix: (Units=GPa)
#
#
# Indices 1 2 3 4 5 6 
#
# 1 170.7500 60.7460 54.2844 0.0000 -44.9267 0.0000
# 2 60.7460 143.1389 54.6511 0.0000 -27.3651 0.0000
# 3 54.2844 54.6511 106.8966 0.0000 -30.4040 0.0000
# 4 0.0000 0.0000 0.0000 13.4874 0.0000 -4.0612
# 5 -44.9267 -27.3651 -30.4040 0.0000 53.2748 0.0000
# 6 0.0000 0.0000 0.0000 -4.0612 0.0000 38.1622
#
#
#
# Elastic Compliance Matrix: (Units=1/GPa)
#
#
# Indices 1 2 3 4 5 6 
#
# 1 0.008472 -0.001904 -0.001880 0.000000 0.005093 0.000000
# 2 -0.001904 0.009351 -0.003467 0.000000 0.001219 0.000000
# 3 -0.001880 -0.003467 0.013280 0.000000 0.004213 0.000000
# 4 0.000000 0.000000 0.000000 0.076598 0.000000 0.008151
# 5 0.005093 0.001219 0.004213 0.000000 0.026096 0.000000
# 6 0.000000 0.000000 0.000000 0.008151 0.000000 0.027071
#
#
# Mechanical properties :
#
#
# Convention : Reuss Voigt Hill
#
# Bulk Modulus (GPa) = 60.23770 84.46095 72.34933
# Shear Modulus (GPa) = 27.63894 37.72515 32.68204
#
# Velocity S-wave (km/s) = 3.51966 4.11203 3.82732
# Velocity P-wave (km/s) = 6.59670 7.77182 7.20825
#
# Compressibility (1/GPa) = 0.01660090
#
# Stress axis : x y z
#
# Youngs Moduli (GPa) = 118.04142 106.94073 75.29871
#
# Poissons Ratio (x) = 0.20358 0.14157
# Poissons Ratio (y) = 0.22471 0.26108
# Poissons Ratio (z) = 0.22194 0.37079
#
# Static dielectric constant tensor:
#      x y z
#    x 1.922180 0.000000 -0.001630 
#    y 0.000000 1.776970 0.000000 
#    z -0.001630 0.000000 1.847740 
# 
# From -- ./inp_files/10363.got.cif
#   From: 2010.05.17/outbox.cif.g08.bks.cpg/sg14_6_cif.got.tgz:10363.got - 2010.06.03 17:49:19.
