data_PCOD9252606
_publ_section_title
;
Structure prediction by ZEFSAII (Michael W. Deem and Ramdas Pophale) SiO2 
 PCOD9252606
Probable space group: P 21/C
;
_chemical_formula_sum "Si O2"
_cell_formula_units_Z 20
_cell_length_a 8.841446
_cell_length_b 10.010386
_cell_length_c 10.375155
_cell_angle_alpha 90.000000
_cell_angle_beta 78.194968
_cell_angle_gamma 90.000000
_cell_volume 898.844586
_symmetry_space_group_name_H-M "P 21/C"
_symmetry_group_IT_number 14
_symmetry_cell_setting 'monoclinic'
loop_
_space_group_symop_operation_xyz
x,y,z
-x,1/2+y,1/2-z
-x,-y,-z
x,1/2-y,1/2+z
loop_
_atom_site_type_symbol
_atom_site_label
_atom_site_fract_x
_atom_site_fract_y
_atom_site_fract_z
Si Si1 0.524073 0.158339 0.993952
Si Si2 0.834553 0.182877 0.043778
Si Si3 0.880828 0.470593 0.137170
Si Si4 0.102642 0.423670 0.329771
Si Si5 0.650771 0.712093 0.217181
O O1 0.705736 0.190740 0.955427
O O2 0.468274 0.201915 0.145335
O O3 0.428212 0.227804 0.896960
O O4 0.500000 0.000000 0.000000
O O5 0.830466 0.318126 0.124263
O O6 0.804327 0.048794 0.130109
O O7 0.003842 0.153640 0.955987
O O8 0.738606 0.573485 0.169618
O O9 0.980540 0.479663 0.249563
O O10 0.000000 0.500000 0.000000
O O11 0.218698 0.314779 0.255533
#
# Coordination Sequence:
#
# PCOD9252606 Si02
#       5
#     4   4   4   4   4
#     4  12  28  51  74 110 154 195 244 307 379 446
#     4  11  26  44  75 101 143 197 237 298 373 432
#     4  12  25  42  72 110 138 184 250 305 357 438
#     4  11  24  47  74 103 143 190 247 299 360 441
#     4  12  27  48  77 108 151 193 248 309 370 443
#
# _framework density 22.250788
#
# number of rings (size 3 to 8) (size 9 to 14) (size 15 to 20)
#    0.000    0.400    4.000    3.600    8.400    0.800 
#    0.000    0.000    0.000    0.000    0.000    0.000 
#    0.000    0.000    0.000    0.000    0.000    0.000 
#
# Total GULP energy -111963.430423 kJ/mol
# GULP energy per Si atom -5598.171521 kJ/mol
# Density = 2.220014 g / cm^3
# Si number density = 22.250788 Si / 1000 Ang^3
#
#
#
# Elastic Constant Matrix: (Units=GPa)
#
#
# Indices 1 2 3 4 5 6 
#
# 1 93.7585 49.6204 17.4559 0.0000 23.1675 0.0000
# 2 49.6204 130.7981 34.8583 0.0000 7.0339 0.0000
# 3 17.4559 34.8583 97.5054 0.0000 9.2785 0.0000
# 4 0.0000 0.0000 0.0000 23.6849 0.0000 2.0532
# 5 23.1675 7.0339 9.2785 0.0000 44.1519 0.0000
# 6 0.0000 0.0000 0.0000 2.0532 0.0000 46.5408
#
#
#
# Elastic Compliance Matrix: (Units=1/GPa)
#
#
# Indices 1 2 3 4 5 6 
#
# 1 0.015307 -0.005387 -0.000135 0.000000 -0.007146 0.000000
# 2 -0.005387 0.010369 -0.002913 0.000000 0.001787 0.000000
# 3 -0.000135 -0.002913 0.011500 0.000000 -0.001882 0.000000
# 4 0.000000 0.000000 0.000000 0.042383 0.000000 -0.001870
# 5 -0.007146 0.001787 -0.001882 0.000000 0.026509 0.000000
# 6 0.000000 0.000000 0.000000 -0.001870 0.000000 0.021569
#
#
# Mechanical properties :
#
#
# Convention : Reuss Voigt Hill
#
# Bulk Modulus (GPa) = 49.24049 58.43682 53.83866
# Shear Modulus (GPa) = 33.05214 37.55070 35.30142
#
# Velocity S-wave (km/s) = 3.85832 4.11251 3.98744
# Velocity P-wave (km/s) = 6.48280 6.99072 6.74154
#
# Compressibility (1/GPa) = 0.02030849
#
# Stress axis : x y z
#
# Youngs Moduli (GPa) = 65.32784 96.44002 86.95429
#
# Poissons Ratio (x) = 0.51952 0.01170
# Poissons Ratio (y) = 0.35192 0.25326
# Poissons Ratio (z) = 0.00879 0.28089
#
# Static dielectric constant tensor:
#      x y z
#    x 1.824920 0.000000 0.001660 
#    y 0.000000 1.801330 0.000000 
#    z 0.001660 0.000000 1.915320 
# 
# From -- ./inp_files/22986.got.cif
#   From: 2010.05.17/outbox.cif.g08.bks.cpg/sg14_12_cif.got.tgz:22986.got - 2010.06.03 17:49:19.
