data_PCOD9252449
_publ_section_title
;
Structure prediction by ZEFSAII (Michael W. Deem and Ramdas Pophale) SiO2 
 PCOD9252449
Probable space group: P 21/C
;
_chemical_formula_sum "Si O2"
_cell_formula_units_Z 24
_cell_length_a 29.464066
_cell_length_b 10.071168
_cell_length_c 9.662804
_cell_angle_alpha 90.000000
_cell_angle_beta 25.104418
_cell_angle_gamma 90.000000
_cell_volume 1216.514374
_symmetry_space_group_name_H-M "P 21/C"
_symmetry_group_IT_number 14
_symmetry_cell_setting 'monoclinic'
loop_
_space_group_symop_operation_xyz
x,y,z
-x,1/2+y,1/2-z
-x,-y,-z
x,1/2-y,1/2+z
loop_
_atom_site_type_symbol
_atom_site_label
_atom_site_fract_x
_atom_site_fract_y
_atom_site_fract_z
Si Si1 0.620490 0.261223 0.530387
Si Si2 0.538362 0.715537 0.284708
Si Si3 0.700905 0.512071 0.733640
Si Si4 0.059325 0.383432 0.252959
Si Si5 0.309481 0.456515 0.558740
Si Si6 0.942075 0.614674 0.072823
O O1 0.534289 0.281357 0.649170
O O2 0.701313 0.143280 0.268363
O O3 0.675870 0.400232 0.412331
O O4 0.547545 0.213155 0.857494
O O5 0.618094 0.591286 0.058069
O O6 0.611238 0.847370 0.096367
O O7 0.663201 0.527793 0.679026
O O8 0.816275 0.579193 0.425488
O O9 0.037192 0.249643 0.400117
O O10 0.000000 0.500000 0.500000
O O11 0.186969 0.409804 0.906449
O O12 0.029242 0.377484 0.171315
O O13 0.000000 0.500000 0.000000
#
# Coordination Sequence:
#
# PCOD9252449 Si02
#       6
#     4   4   4   4   4   4
#     4  12  24  41  66  98 136 179 221 269 322 393
#     4  12  22  43  68  94 136 177 223 271 326 387
#     4  11  24  44  67 100 133 176 222 272 332 393
#     4  11  25  48  74 100 133 176 222 283 342 399
#     4  11  24  45  66  98 139 171 221 278 329 392
#     4  11  25  48  73 101 135 172 224 282 340 406
#
# _framework density 19.728496
#
# number of rings (size 3 to 8) (size 9 to 14) (size 15 to 20)
#    0.000    0.667    5.000    3.000    2.333    0.000 
#    9.000    0.000    0.000    0.000    0.000    0.000 
#    0.000    0.000    0.000    0.000    0.000    0.000 
#
# Total GULP energy -134151.711692 kJ/mol
# GULP energy per Si atom -5589.654654 kJ/mol
# Density = 1.968359 g / cm^3
# Si number density = 19.728496 Si / 1000 Ang^3
#
#
#
# Elastic Constant Matrix: (Units=GPa)
#
#
# Indices 1 2 3 4 5 6 
#
# 1 129.5604 54.7721 27.8019 0.0000 22.4272 0.0000
# 2 54.7721 180.0406 24.9471 0.0000 8.6027 0.0000
# 3 27.8019 24.9471 59.4648 0.0000 20.6570 0.0000
# 4 0.0000 0.0000 0.0000 42.6851 0.0000 -6.9521
# 5 22.4272 8.6027 20.6570 0.0000 19.0923 0.0000
# 6 0.0000 0.0000 0.0000 -6.9521 0.0000 45.5886
#
#
#
# Elastic Compliance Matrix: (Units=1/GPa)
#
#
# Indices 1 2 3 4 5 6 
#
# 1 0.010883 -0.002771 0.000131 0.000000 -0.011677 0.000000
# 2 -0.002771 0.006603 -0.002518 0.000000 0.003005 0.000000
# 3 0.000131 -0.002518 0.027992 0.000000 -0.029305 0.000000
# 4 0.000000 0.000000 0.000000 0.024024 0.000000 0.003664
# 5 -0.011677 0.003005 -0.029305 0.000000 0.096446 0.000000
# 6 0.000000 0.000000 0.000000 0.003664 0.000000 0.022494
#
#
# Mechanical properties :
#
#
# Convention : Reuss Voigt Hill
#
# Bulk Modulus (GPa) = 28.44088 64.90089 46.67088
# Shear Modulus (GPa) = 23.75527 38.90953 31.33240
#
# Velocity S-wave (km/s) = 3.47379 4.44582 3.98952
# Velocity P-wave (km/s) = 5.52604 7.70209 6.70296
#
# Compressibility (1/GPa) = 0.03516066
#
# Stress axis : x y z
#
# Youngs Moduli (GPa) = 91.88530 151.45381 35.72443
#
# Poissons Ratio (x) = 0.41968 -0.00467
# Poissons Ratio (y) = 0.25462 0.08996
# Poissons Ratio (z) = -0.01200 0.38139
#
# Static dielectric constant tensor:
#      x y z
#    x 1.664320 0.000000 0.002210 
#    y 0.000000 1.686500 0.000000 
#    z 0.002210 0.000000 1.672040 
# 
# From -- ./inp_files/15087.got.cif
#   From: 2010.05.17/outbox.cif.g08.bks.cpg/sg14_8_cif.got.tgz:15087.got - 2010.06.03 17:49:19.
