data_PCOD9252339
_publ_section_title
;
Structure prediction by ZEFSAII (Michael W. Deem and Ramdas Pophale) SiO2 
 PCOD9252339
Probable space group: P 21/C
;
_chemical_formula_sum "Si O2"
_cell_formula_units_Z 20
_cell_length_a 30.477317
_cell_length_b 4.825437
_cell_length_c 19.051060
_cell_angle_alpha 90.000000
_cell_angle_beta 161.802083
_cell_angle_gamma 90.000000
_cell_volume 874.993934
_symmetry_space_group_name_H-M "P 21/C"
_symmetry_group_IT_number 14
_symmetry_cell_setting 'monoclinic'
loop_
_space_group_symop_operation_xyz
x,y,z
-x,1/2+y,1/2-z
-x,-y,-z
x,1/2-y,1/2+z
loop_
_atom_site_type_symbol
_atom_site_label
_atom_site_fract_x
_atom_site_fract_y
_atom_site_fract_z
Si Si1 0.518890 0.958027 0.229816
Si Si2 0.887248 0.786128 0.387247
Si Si3 0.252455 0.774741 0.252455
Si Si4 0.902963 0.458017 0.113890
Si Si5 0.174860 0.999995 0.349720
O O1 0.549027 0.712283 0.331102
O O2 0.662555 0.074494 0.415508
O O3 0.410153 0.817356 0.010673
O O4 0.791914 0.582598 0.291914
O O5 0.854586 0.718848 0.256793
O O6 0.050172 0.718853 0.647964
O O7 0.845803 0.092284 0.345802
O O8 0.209116 0.682644 0.108598
O O9 0.843350 0.574481 0.096303
O O10 0.015122 0.212271 0.297196
#
# Coordination Sequence:
#
# PCOD9252339 Si02
#       5
#     4   4   4   4   4
#     4  12  25  43  66  99 135 170 217 276 328 383
#     4  11  24  40  72  97 122 177 232 264 318 389
#     4  12  22  46  66  96 134 174 214 274 328 390
#     4  12  25  43  66  99 135 170 217 276 328 383
#     4  11  24  43  68 102 128 175 222 273 324 390
#
# _framework density 22.857299999999999
#
# number of rings (size 3 to 8) (size 9 to 14) (size 15 to 20)
#    0.000    0.400    8.000    0.000    0.000    8.800 
#    0.000    0.000    0.000    7.200    0.000    0.000 
#    0.000    0.000    0.000    0.000    0.000    0.000 
#
# Total GULP energy -111878.480608 kJ/mol
# GULP energy per Si atom -5593.924030 kJ/mol
# Density = 2.280528 g / cm^3
# Si number density = 22.857300 Si / 1000 Ang^3
#
#
#
# Elastic Constant Matrix: (Units=GPa)
#
#
# Indices 1 2 3 4 5 6 
#
# 1 143.7096 -5.1604 41.2771 0.0000 -18.2723 0.0000
# 2 -5.1604 57.1942 -1.6514 0.0000 -3.0559 0.0000
# 3 41.2771 -1.6514 166.7327 0.0000 -1.7959 0.0000
# 4 0.0000 0.0000 0.0000 14.0986 0.0000 9.8753
# 5 -18.2723 -3.0559 -1.7959 0.0000 47.3379 0.0000
# 6 0.0000 0.0000 0.0000 9.8753 0.0000 25.4265
#
#
#
# Elastic Compliance Matrix: (Units=1/GPa)
#
#
# Indices 1 2 3 4 5 6 
#
# 1 0.007926 0.000822 -0.001921 0.000000 0.003040 0.000000
# 2 0.000822 0.017636 -0.000013 0.000000 0.001455 0.000000
# 3 -0.001921 -0.000013 0.006468 0.000000 -0.000497 0.000000
# 4 0.000000 0.000000 0.000000 0.097436 0.000000 -0.037843
# 5 0.003040 0.001455 -0.000497 0.000000 0.022373 0.000000
# 6 0.000000 0.000000 0.000000 -0.037843 0.000000 0.054027
#
#
# Mechanical properties :
#
#
# Convention : Reuss Voigt Hill
#
# Bulk Modulus (GPa) = 33.55132 48.50743 41.02937
# Shear Modulus (GPa) = 22.93306 39.58400 31.25853
#
# Velocity S-wave (km/s) = 3.17095 4.16599 3.70205
# Velocity P-wave (km/s) = 5.30255 6.66397 6.02186
#
# Compressibility (1/GPa) = 0.02980509
#
# Stress axis : x y z
#
# Youngs Moduli (GPa) = 126.16119 56.70266 154.61183
#
# Poissons Ratio (x) = -0.04662 0.29707
# Poissons Ratio (y) = -0.10372 0.00204
# Poissons Ratio (z) = 0.24241 0.00075
#
# Static dielectric constant tensor:
#      x y z
#    x 1.871270 0.000000 -0.023570 
#    y 0.000000 1.836930 0.000000 
#    z -0.023570 0.000000 1.898310 
# 
# From -- ./inp_files/37111.got.cif
#   From: 2010.05.17/outbox.cif.g08.bks.cpg/sg14_19_cif.got.tgz:37111.got - 2010.06.03 17:49:19.
