data_PCOD9252295
_publ_section_title
;
Structure prediction by ZEFSAII (Michael W. Deem and Ramdas Pophale) SiO2 
 PCOD9252295
Probable space group: P 21/C
;
_chemical_formula_sum "Si O2"
_cell_formula_units_Z 20
_cell_length_a 12.021933
_cell_length_b 7.805173
_cell_length_c 17.624288
_cell_angle_alpha 90.000000
_cell_angle_beta 29.321331
_cell_angle_gamma 90.000000
_cell_volume 809.850409
_symmetry_space_group_name_H-M "P 21/C"
_symmetry_group_IT_number 14
_symmetry_cell_setting 'monoclinic'
loop_
_space_group_symop_operation_xyz
x,y,z
-x,1/2+y,1/2-z
-x,-y,-z
x,1/2-y,1/2+z
loop_
_atom_site_type_symbol
_atom_site_label
_atom_site_fract_x
_atom_site_fract_y
_atom_site_fract_z
Si Si1 0.349732 0.416658 0.155806
Si Si2 0.942496 0.848334 0.925355
Si Si3 0.664239 0.635507 0.445216
Si Si4 0.702972 0.141974 0.719425
Si Si5 0.465829 0.237052 0.227842
O O1 0.147999 0.520710 0.314935
O O2 0.241467 0.255513 0.176077
O O3 0.511060 0.342076 0.124947
O O4 0.500000 0.500000 0.000000
O O5 0.065890 0.666032 0.870926
O O6 0.862496 0.899028 0.887918
O O7 0.728268 0.835255 0.108119
O O8 0.500000 0.500000 0.500000
O O9 0.484856 0.717064 0.611145
O O10 0.682496 0.252450 0.654476
O O11 0.630702 0.948464 0.739809
#
# Coordination Sequence:
#
# PCOD9252295 Si02
#       5
#     4   4   4   4   4
#     4  12  25  44  72 102 146 187 242 304 367 433
#     4  11  26  45  72 109 142 191 253 292 374 445
#     4  11  25  47  70 104 148 191 239 310 363 436
#     4  11  23  47  72 105 146 193 248 295 373 435
#     4  11  25  45  74 101 150 193 242 310 358 450
#
# _framework density 24.695920000000001
#
# number of rings (size 3 to 8) (size 9 to 14) (size 15 to 20)
#    0.000    0.800    4.000    2.400    5.600    1.600 
#    3.600    0.000    0.000    0.000    0.000    0.000 
#    0.000    0.000    0.000    0.000    0.000    0.000 
#
# Total GULP energy -111501.962667 kJ/mol
# GULP energy per Si atom -5575.098133 kJ/mol
# Density = 2.463971 g / cm^3
# Si number density = 24.695920 Si / 1000 Ang^3
#
#
#
# Elastic Constant Matrix: (Units=GPa)
#
#
# Indices 1 2 3 4 5 6 
#
# 1 197.8802 54.3023 8.1799 0.0000 5.5724 0.0000
# 2 54.3023 104.5051 20.8487 0.0000 7.5924 0.0000
# 3 8.1799 20.8487 51.5719 0.0000 7.4571 0.0000
# 4 0.0000 0.0000 0.0000 33.0944 0.0000 6.7932
# 5 5.5724 7.5924 7.4571 0.0000 39.4824 0.0000
# 6 0.0000 0.0000 0.0000 6.7932 0.0000 43.3761
#
#
#
# Elastic Compliance Matrix: (Units=1/GPa)
#
#
# Indices 1 2 3 4 5 6 
#
# 1 0.005903 -0.003119 0.000368 0.000000 -0.000303 0.000000
# 2 -0.003119 0.012115 -0.004246 0.000000 -0.001088 0.000000
# 3 0.000368 -0.004246 0.021526 0.000000 -0.003301 0.000000
# 4 0.000000 0.000000 0.000000 0.031220 0.000000 -0.004889
# 5 -0.000303 -0.001088 -0.003301 0.000000 0.026203 0.000000
# 6 0.000000 0.000000 0.000000 -0.004889 0.000000 0.023820
#
#
# Mechanical properties :
#
#
# Convention : Reuss Voigt Hill
#
# Bulk Modulus (GPa) = 39.13662 57.84656 48.49159
# Shear Modulus (GPa) = 34.89262 41.23234 38.06248
#
# Velocity S-wave (km/s) = 3.76292 4.09051 3.93013
# Velocity P-wave (km/s) = 5.89587 6.76639 6.34607
#
# Compressibility (1/GPa) = 0.02555152
#
# Stress axis : x y z
#
# Youngs Moduli (GPa) = 169.41487 82.53917 46.45584
#
# Poissons Ratio (x) = 0.25741 -0.01711
# Poissons Ratio (y) = 0.52833 0.19725
# Poissons Ratio (z) = -0.06240 0.35046
#
# Static dielectric constant tensor:
#      x y z
#    x 2.056410 0.000000 -0.080160 
#    y 0.000000 2.151550 0.000000 
#    z -0.080160 0.000000 1.932340 
# 
# From -- ./inp_files/27971.got.cif
#   From: 2010.05.17/outbox.cif.g08.bks.cpg/sg14_14_cif.got.tgz:27971.got - 2010.06.03 17:49:19.
