data_PCOD9252239
_publ_section_title
;
Structure prediction by ZEFSAII (Michael W. Deem and Ramdas Pophale) SiO2 
 PCOD9252239
Probable space group: P 21/C
;
_chemical_formula_sum "Si O2"
_cell_formula_units_Z 24
_cell_length_a 11.728428
_cell_length_b 5.461860
_cell_length_c 18.419364
_cell_angle_alpha 90.000000
_cell_angle_beta 56.119093
_cell_angle_gamma 90.000000
_cell_volume 979.572840
_symmetry_space_group_name_H-M "P 21/C"
_symmetry_group_IT_number 14
_symmetry_cell_setting 'monoclinic'
loop_
_space_group_symop_operation_xyz
x,y,z
-x,1/2+y,1/2-z
-x,-y,-z
x,1/2-y,1/2+z
loop_
_atom_site_type_symbol
_atom_site_label
_atom_site_fract_x
_atom_site_fract_y
_atom_site_fract_z
Si Si1 0.547419 0.190913 0.200174
Si Si2 0.912925 0.200424 0.276438
Si Si3 0.461965 0.308507 0.575183
Si Si4 0.717899 0.509627 0.950396
Si Si5 0.835631 0.427130 0.644609
Si Si6 0.896947 0.710922 0.014554
O O1 0.513351 0.962331 0.265421
O O2 0.481450 0.093493 0.148567
O O3 0.713641 0.212784 0.145402
O O4 0.832859 0.141370 0.229815
O O5 0.989477 0.461685 0.245035
O O6 0.811278 0.198728 0.381282
O O7 0.500000 0.500000 0.500000
O O8 0.317871 0.194194 0.602577
O O9 0.576833 0.098088 0.529817
O O10 0.790877 0.637652 0.990875
O O11 0.821431 0.696097 0.614113
O O12 0.994561 0.385490 0.565766
O O13 0.000000 0.500000 0.000000
#
# Coordination Sequence:
#
# PCOD9252239 Si02
#       6
#     4   4   4   4   4   4
#     4  12  30  50  77 111 154 202 255 316 381 458
#     4  12  27  46  72 110 151 193 243 311 379 449
#     4  11  27  47  78 105 151 205 259 312 375 459
#     4  11  25  46  74 109 148 199 253 313 375 450
#     4  11  26  44  73 107 145 196 244 310 378 446
#     4  11  23  45  75 106 147 191 249 310 374 450
#
# _framework density 24.500475000000002
#
# number of rings (size 3 to 8) (size 9 to 14) (size 15 to 20)
#    0.000    0.667    1.667    4.000   14.000    2.667 
#    0.000    0.000    0.000    0.000    0.000    0.000 
#    0.000    0.000    0.000    0.000    0.000    0.000 
#
# Total GULP energy -134128.208041 kJ/mol
# GULP energy per Si atom -5588.675335 kJ/mol
# Density = 2.444471 g / cm^3
# Si number density = 24.500475 Si / 1000 Ang^3
#
#
#
# Elastic Constant Matrix: (Units=GPa)
#
#
# Indices 1 2 3 4 5 6 
#
# 1 147.1767 31.3874 10.0346 0.0000 28.1183 0.0000
# 2 31.3874 59.9790 3.0680 0.0000 1.4694 0.0000
# 3 10.0346 3.0680 42.4737 0.0000 22.6427 0.0000
# 4 0.0000 0.0000 0.0000 28.9604 0.0000 -2.5290
# 5 28.1183 1.4694 22.6427 0.0000 48.9560 0.0000
# 6 0.0000 0.0000 0.0000 -2.5290 0.0000 36.1687
#
#
#
# Elastic Compliance Matrix: (Units=1/GPa)
#
#
# Indices 1 2 3 4 5 6 
#
# 1 0.008702 -0.004480 0.001142 0.000000 -0.005392 0.000000
# 2 -0.004480 0.019041 -0.001837 0.000000 0.002851 0.000000
# 3 0.001142 -0.001837 0.031492 0.000000 -0.015166 0.000000
# 4 0.000000 0.000000 0.000000 0.034742 0.000000 0.002429
# 5 -0.005392 0.002851 -0.015166 0.000000 0.030452 0.000000
# 6 0.000000 0.000000 0.000000 0.002429 0.000000 0.027818
#
#
# Mechanical properties :
#
#
# Convention : Reuss Voigt Hill
#
# Bulk Modulus (GPa) = 20.45615 37.62329 29.03972
# Shear Modulus (GPa) = 27.94962 36.49297 32.22129
#
# Velocity S-wave (km/s) = 3.38121 3.86357 3.63041
# Velocity P-wave (km/s) = 4.85910 5.94073 5.42693
#
# Compressibility (1/GPa) = 0.04888506
#
# Stress axis : x y z
#
# Youngs Moduli (GPa) = 114.91175 52.51769 31.75422
#
# Poissons Ratio (x) = 0.23530 -0.03627
# Poissons Ratio (y) = 0.51484 0.05833
# Poissons Ratio (z) = -0.13125 0.09648
#
# Static dielectric constant tensor:
#      x y z
#    x 1.772860 0.000000 -0.348830 
#    y 0.000000 2.167460 0.000000 
#    z -0.348830 0.000000 1.674950 
# 
# From -- ./inp_files/56537.got.cif
#   From: 2010.05.17/outbox.cif.g08.bks.cpg/sg14_29_cif.got.tgz:56537.got - 2010.06.03 17:49:19.
