data_PCOD9252515
_publ_section_title
;
Structure prediction by ZEFSAII (Michael W. Deem and Ramdas Pophale) SiO2 
 PCOD9252515
Probable space group: P 21/C
;
_chemical_formula_sum "Si O2"
_cell_formula_units_Z 30
_cell_length_a 6.411140
_cell_length_b 17.708969
_cell_length_c 14.975286
_cell_angle_alpha 90.000000
_cell_angle_beta 53.428527
_cell_angle_gamma 90.000000
_cell_volume 1365.466296
_symmetry_space_group_name_H-M "P 21/C"
_symmetry_group_IT_number 14
_symmetry_cell_setting 'monoclinic'
loop_
_space_group_symop_operation_xyz
x,y,z
-x,1/2+y,1/2-z
-x,-y,-z
x,1/2-y,1/2+z
loop_
_atom_site_type_symbol
_atom_site_label
_atom_site_fract_x
_atom_site_fract_y
_atom_site_fract_z
Si Si1 0.437898 0.041681 0.655490
Si Si2 0.699656 0.210431 0.140841
Si Si3 0.243454 0.343662 0.508503
Si Si4 0.247975 0.186084 0.803156
Si Si5 0.281581 0.735576 0.063783
Si Si6 0.500000 0.000000 0.000000
Si Si7 0.172894 0.568851 0.087871
Si Si8 0.416914 0.445896 0.713823
O O1 0.319491 0.120655 0.716199
O O2 0.720818 0.053730 0.538805
O O3 0.268246 0.999923 0.624401
O O4 0.450196 0.989105 0.738516
O O5 0.489897 0.256878 0.250391
O O6 0.577293 0.129117 0.148993
O O7 0.732976 0.256697 0.040411
O O8 0.977704 0.193159 0.113358
O O9 0.195677 0.349046 0.414059
O O10 0.480815 0.286974 0.465903
O O11 0.315219 0.424262 0.530664
O O12 0.992744 0.229803 0.835709
O O13 0.303266 0.648125 0.083698
O O14 0.581541 0.999036 0.872926
O O15 0.867632 0.576405 0.179332
#
# Coordination Sequence:
#
# PCOD9252515 Si02
#       8
#     4   4   4   4   4   2   4   4
#     4  11  26  45  71 104 142 187 238 297 356 430
#     4  11  25  44  71 100 141 185 238 293 356 423
#     4  11  27  43  70 107 139 185 235 298 360 428
#     4  11  24  46  71 102 140 192 235 298 352 429
#     4  11  24  45  70 103 142 181 242 298 356 429
#     4  12  26  46  70 106 142 188 236 294 370 426
#     4  11  26  47  70 104 142 192 235 293 363 427
#     4  12  26  45  71 102 143 187 234 299 353 430
#
# _framework density 21.970514999999999
#
# number of rings (size 3 to 8) (size 9 to 14) (size 15 to 20)
#    0.000    0.800    5.333    0.400    5.600    1.600 
#    4.800    0.000    0.000    0.000    0.000    0.000 
#    0.000    0.000    0.000    0.000    0.000    0.000 
#
# Total GULP energy -167299.965118 kJ/mol
# GULP energy per Si atom -5576.665504 kJ/mol
# Density = 2.192051 g / cm^3
# Si number density = 21.970515 Si / 1000 Ang^3
#
#
#
# Elastic Constant Matrix: (Units=GPa)
#
#
# Indices 1 2 3 4 5 6 
#
# 1 47.5635 29.0593 1.0752 0.0000 -23.7801 0.0000
# 2 29.0593 76.9473 10.0653 0.0000 -18.7998 0.0000
# 3 1.0752 10.0653 59.8632 0.0000 -2.2942 0.0000
# 4 0.0000 0.0000 0.0000 36.3420 0.0000 3.7272
# 5 -23.7801 -18.7998 -2.2942 0.0000 41.0690 0.0000
# 6 0.0000 0.0000 0.0000 3.7272 0.0000 23.1946
#
#
#
# Elastic Compliance Matrix: (Units=1/GPa)
#
#
# Indices 1 2 3 4 5 6 
#
# 1 0.034672 -0.009427 0.001570 0.000000 0.015849 0.000000
# 2 -0.009427 0.017493 -0.002680 0.000000 0.002399 0.000000
# 3 0.001570 -0.002680 0.017152 0.000000 0.000640 0.000000
# 4 0.000000 0.000000 0.000000 0.027977 0.000000 -0.004496
# 5 0.015849 0.002399 0.000640 0.000000 0.034660 0.000000
# 6 0.000000 0.000000 0.000000 -0.004496 0.000000 0.043836
#
#
# Mechanical properties :
#
#
# Convention : Reuss Voigt Hill
#
# Bulk Modulus (GPa) = 20.72887 29.41930 25.07408
# Shear Modulus (GPa) = 23.48010 29.73272 26.60641
#
# Velocity S-wave (km/s) = 3.27266 3.68271 3.48373
# Velocity P-wave (km/s) = 4.87193 5.61272 5.25539
#
# Compressibility (1/GPa) = 0.04824190
#
# Stress axis : x y z
#
# Youngs Moduli (GPa) = 28.84132 57.16606 58.30321
#
# Poissons Ratio (x) = 0.53892 -0.09152
# Poissons Ratio (y) = 0.27190 0.15625
# Poissons Ratio (z) = -0.04527 0.15320
#
# Static dielectric constant tensor:
#      x y z
#    x 1.787530 0.000000 -0.012950 
#    y 0.000000 1.778980 0.000000 
#    z -0.012950 0.000000 1.834520 
# 
# From -- ./inp_files/37817.got.cif
#   From: 2010.05.17/outbox.cif.g08.bks.cpg/sg14_19_cif.got.tgz:37817.got - 2010.06.03 17:49:19.
