data_PCOD9252088
_publ_section_title
;
Structure prediction by ZEFSAII (Michael W. Deem and Ramdas Pophale) SiO2 
 PCOD9252088
Probable space group: P 21/C
;
_chemical_formula_sum "Si O2"
_cell_formula_units_Z 28
_cell_length_a 8.182725
_cell_length_b 16.127644
_cell_length_c 9.271033
_cell_angle_alpha 90.000000
_cell_angle_beta 99.723690
_cell_angle_gamma 90.000000
_cell_volume 1205.903523
_symmetry_space_group_name_H-M "P 21/C"
_symmetry_group_IT_number 14
_symmetry_cell_setting 'monoclinic'
loop_
_space_group_symop_operation_xyz
x,y,z
-x,1/2+y,1/2-z
-x,-y,-z
x,1/2-y,1/2+z
loop_
_atom_site_type_symbol
_atom_site_label
_atom_site_fract_x
_atom_site_fract_y
_atom_site_fract_z
Si Si1 0.330902 0.911688 0.873652
Si Si2 0.848663 0.740279 0.457284
Si Si3 0.508238 0.740495 0.549646
Si Si4 0.939288 0.217933 0.276814
Si Si5 0.562878 0.510044 0.176069
Si Si6 0.366036 0.823556 0.293471
Si Si7 0.825031 0.545845 0.445865
O O1 0.448780 0.847786 0.977387
O O2 0.167989 0.856691 0.807872
O O3 0.423537 0.941441 0.744274
O O4 0.291516 0.991546 0.965558
O O5 0.677283 0.768942 0.502076
O O6 0.848133 0.641653 0.492697
O O7 0.904854 0.741846 0.300313
O O8 0.986678 0.795924 0.555887
O O9 0.377484 0.804284 0.463668
O O10 0.488102 0.734745 0.716738
O O11 0.816263 0.295996 0.277957
O O12 0.581448 0.415433 0.227293
O O13 0.738357 0.545498 0.271858
O O14 0.500000 0.500000 0.000000
O O15 0.000000 0.500000 0.500000
#
# Coordination Sequence:
#
# PCOD9252088 Si02
#       7
#     4   4   4   4   4   4   4
#     4  11  23  46  72 103 144 194 244 295 369 447
#     4  12  24  42  71 103 142 184 245 301 366 433
#     4  11  23  42  74  98 140 191 247 294 357 443
#     4  11  25  43  69 105 143 188 236 304 369 431
#     4  12  27  43  74 111 147 189 250 306 359 437
#     4  11  24  43  67 102 140 191 240 295 363 432
#     4  12  23  47  75 104 144 194 240 294 376 440
#
# _framework density 23.219104000000002
#
# number of rings (size 3 to 8) (size 9 to 14) (size 15 to 20)
#    0.000    0.571    4.286    4.714    6.000    1.143 
#    0.000    0.714    0.000    0.000    0.000    0.000 
#    0.000    0.000    0.000    0.000    0.000    0.000 
#
# Total GULP energy -156212.256110 kJ/mol
# GULP energy per Si atom -5579.009147 kJ/mol
# Density = 2.316626 g / cm^3
# Si number density = 23.219104 Si / 1000 Ang^3
#
#
#
# Elastic Constant Matrix: (Units=GPa)
#
#
# Indices 1 2 3 4 5 6 
#
# 1 103.4497 -8.2051 30.9581 0.0000 3.8671 0.0000
# 2 -8.2051 48.1752 18.9362 0.0000 -0.5765 0.0000
# 3 30.9581 18.9362 126.6921 0.0000 4.0902 0.0000
# 4 0.0000 0.0000 0.0000 11.3708 0.0000 -2.5775
# 5 3.8671 -0.5765 4.0902 0.0000 32.0130 0.0000
# 6 0.0000 0.0000 0.0000 -2.5775 0.0000 29.4593
#
#
#
# Elastic Compliance Matrix: (Units=1/GPa)
#
#
# Indices 1 2 3 4 5 6 
#
# 1 0.010863 0.003052 -0.003083 0.000000 -0.000863 0.000000
# 2 0.003052 0.022932 -0.004192 0.000000 0.000580 0.000000
# 3 -0.003083 -0.004192 0.009302 0.000000 -0.000892 0.000000
# 4 0.000000 0.000000 0.000000 0.089724 0.000000 0.007850
# 5 -0.000863 0.000580 -0.000892 0.000000 0.031466 0.000000
# 6 0.000000 0.000000 0.000000 0.007850 0.000000 0.034632
#
#
# Mechanical properties :
#
#
# Convention : Reuss Voigt Hill
#
# Bulk Modulus (GPa) = 28.85924 40.18837 34.52381
# Shear Modulus (GPa) = 22.83983 30.34382 26.59183
#
# Velocity S-wave (km/s) = 3.13975 3.61896 3.38783
# Velocity P-wave (km/s) = 5.05965 5.89986 5.49584
#
# Compressibility (1/GPa) = 0.03465095
#
# Stress axis : x y z
#
# Youngs Moduli (GPa) = 92.05224 43.60720 107.50613
#
# Poissons Ratio (x) = -0.13307 0.33142
# Poissons Ratio (y) = -0.28091 0.45066
# Poissons Ratio (z) = 0.28378 0.18280
#
# Static dielectric constant tensor:
#      x y z
#    x 1.955130 0.000000 0.034640 
#    y 0.000000 1.855150 0.000000 
#    z 0.034640 0.000000 1.876880 
# 
# From -- ./inp_files/9358.got.cif
#   From: 2010.05.17/outbox.cif.g08.bks.cpg/sg14_5_cif.got.tgz:9358.got - 2010.06.03 17:49:19.
