data_PCOD9252752
_publ_section_title
;
Structure prediction by ZEFSAII (Michael W. Deem and Ramdas Pophale) SiO2 
 PCOD9252752
Probable space group: P 21/C
;
_chemical_formula_sum "Si O2"
_cell_formula_units_Z 28
_cell_length_a 5.330856
_cell_length_b 26.718458
_cell_length_c 7.871927
_cell_angle_alpha 90.000000
_cell_angle_beta 66.726367
_cell_angle_gamma 90.000000
_cell_volume 1029.981027
_symmetry_space_group_name_H-M "P 21/C"
_symmetry_group_IT_number 14
_symmetry_cell_setting 'monoclinic'
loop_
_space_group_symop_operation_xyz
x,y,z
-x,1/2+y,1/2-z
-x,-y,-z
x,1/2-y,1/2+z
loop_
_atom_site_type_symbol
_atom_site_label
_atom_site_fract_x
_atom_site_fract_y
_atom_site_fract_z
Si Si1 0.527041 0.397161 0.269566
Si Si2 0.864558 0.477496 0.276747
Si Si3 0.225989 0.801965 0.384453
Si Si4 0.143624 0.569324 0.342690
Si Si5 0.627443 0.747007 0.011933
Si Si6 0.788538 0.851236 0.834858
Si Si7 0.701127 0.586518 0.023075
O O1 0.407043 0.378409 0.477566
O O2 0.586302 0.455892 0.273011
O O3 0.781150 0.360102 0.167569
O O4 0.354318 0.389229 0.146701
O O5 0.873196 0.448404 0.457751
O O6 0.921173 0.534588 0.305384
O O7 0.084431 0.456069 0.085814
O O8 0.926871 0.777319 0.462344
O O9 0.393954 0.791408 0.511340
O O10 0.450978 0.776597 0.199964
O O11 0.074383 0.628043 0.334765
O O12 0.424839 0.561294 0.169574
O O13 0.714785 0.793259 0.864039
O O14 0.763797 0.874373 0.655996
#
# Coordination Sequence:
#
# PCOD9252752 Si02
#       7
#     4   4   4   4   4   4   4
#     4  11  26  47  73 105 149 191 251 312 377 454
#     4  11  25  45  73 107 147 193 249 311 374 449
#     4  11  27  47  77 111 151 197 253 318 388 458
#     4  11  25  45  73 107 147 193 249 311 374 449
#     4  11  27  47  77 111 151 197 253 318 388 458
#     4  11  26  47  73 105 149 191 251 312 377 454
#     4  12  25  44  76 102 144 198 248 298 385 450
#
# _framework density 27.184963
#
# number of rings (size 3 to 8) (size 9 to 14) (size 15 to 20)
#    0.000    0.857    2.857    2.143    6.000    6.286 
#    0.000    0.000    0.000    0.000    0.000    0.000 
#    0.000    0.000    0.000    0.000    0.000    0.000 
#
# Total GULP energy -156642.091799 kJ/mol
# GULP energy per Si atom -5594.360421 kJ/mol
# Density = 2.712309 g / cm^3
# Si number density = 27.184963 Si / 1000 Ang^3
#
#
#
# Elastic Constant Matrix: (Units=GPa)
#
#
# Indices 1 2 3 4 5 6 
#
# 1 97.6036 25.1788 36.9866 0.0000 -11.7224 0.0000
# 2 25.1788 124.2634 30.0100 0.0000 -8.4379 0.0000
# 3 36.9866 30.0100 170.8494 0.0000 -17.2868 0.0000
# 4 0.0000 0.0000 0.0000 41.1495 0.0000 -2.5421
# 5 -11.7224 -8.4379 -17.2868 0.0000 46.7772 0.0000
# 6 0.0000 0.0000 0.0000 -2.5421 0.0000 20.1123
#
#
#
# Elastic Compliance Matrix: (Units=1/GPa)
#
#
# Indices 1 2 3 4 5 6 
#
# 1 0.011692 -0.001751 -0.002035 0.000000 0.001862 0.000000
# 2 -0.001751 0.008712 -0.001077 0.000000 0.000735 0.000000
# 3 -0.002035 -0.001077 0.006661 0.000000 0.001757 0.000000
# 4 0.000000 0.000000 0.000000 0.024493 0.000000 0.003096
# 5 0.001862 0.000735 0.001757 0.000000 0.022627 0.000000
# 6 0.000000 0.000000 0.000000 0.003096 0.000000 0.050112
#
#
# Mechanical properties :
#
#
# Convention : Reuss Voigt Hill
#
# Bulk Modulus (GPa) = 57.67494 64.11856 60.89675
# Shear Modulus (GPa) = 35.76475 41.64386 38.70430
#
# Velocity S-wave (km/s) = 3.63107 3.91816 3.77734
# Velocity P-wave (km/s) = 6.23228 6.64127 6.44003
#
# Compressibility (1/GPa) = 0.01733855
#
# Stress axis : x y z
#
# Youngs Moduli (GPa) = 85.52754 114.78144 150.13544
#
# Poissons Ratio (x) = 0.20100 0.30555
# Poissons Ratio (y) = 0.14977 0.16168
# Poissons Ratio (z) = 0.17406 0.12360
#
# Static dielectric constant tensor:
#      x y z
#    x 2.338650 0.000000 -0.015210 
#    y 0.000000 2.085380 0.000000 
#    z -0.015210 0.000000 2.125220 
# 
# From -- ./inp_files/6910.got.cif
#   From: 2010.05.17/outbox.cif.g08.bks.cpg/sg14_4_cif.got.tgz:6910.got - 2010.06.03 17:49:19.
