data_PCOD9252056
_publ_section_title
;
Structure prediction by ZEFSAII (Michael W. Deem and Ramdas Pophale) SiO2 
 PCOD9252056
Probable space group: P 21/C
;
_chemical_formula_sum "Si O2"
_cell_formula_units_Z 32
_cell_length_a 20.622233
_cell_length_b 11.671677
_cell_length_c 11.690749
_cell_angle_alpha 90.000000
_cell_angle_beta 26.140491
_cell_angle_gamma 90.000000
_cell_volume 1239.737825
_symmetry_space_group_name_H-M "P 21/C"
_symmetry_group_IT_number 14
_symmetry_cell_setting 'monoclinic'
loop_
_space_group_symop_operation_xyz
x,y,z
-x,1/2+y,1/2-z
-x,-y,-z
x,1/2-y,1/2+z
loop_
_atom_site_type_symbol
_atom_site_label
_atom_site_fract_x
_atom_site_fract_y
_atom_site_fract_z
Si Si1 0.217936 0.984276 0.467553
Si Si2 0.242642 0.246614 0.415035
Si Si3 0.081198 0.690150 0.015132
Si Si4 0.376014 0.502783 0.947050
Si Si5 0.898735 0.453213 0.495001
Si Si6 0.380603 0.137288 0.882114
Si Si7 0.495301 0.696546 0.146819
Si Si8 0.807273 0.416893 0.382317
O O1 0.241129 0.113512 0.383140
O O2 0.334333 0.963897 0.383817
O O3 0.194913 0.884405 0.411189
O O4 0.056593 0.998851 0.777320
O O5 0.289149 0.258706 0.473583
O O6 0.078214 0.298154 0.669635
O O7 0.379730 0.319977 0.147743
O O8 0.125438 0.822045 0.927461
O O9 0.083462 0.632472 0.886547
O O10 0.224039 0.473870 0.248808
O O11 0.459791 0.585766 0.906239
O O12 0.481151 0.393122 0.786749
O O13 0.883603 0.446452 0.381264
O O14 0.445914 0.184226 0.897057
O O15 0.269604 0.031362 0.045298
O O16 0.325966 0.674612 0.383572
#
# Coordination Sequence:
#
# PCOD9252056 Si02
#       8
#     4   4   4   4   4   4   4   4
#     4  11  24  45  67 108 140 182 231 290 347 415
#     4  11  24  44  70 101 137 183 237 279 347 415
#     4  11  26  43  71 103 140 185 227 294 349 407
#     4  11  23  44  69 102 142 181 231 284 347 417
#     4  11  25  43  72 101 140 187 232 287 348 416
#     4  11  23  42  68  98 135 185 227 288 344 406
#     4  11  23  42  69 100 135 184 230 286 340 412
#     4  11  25  45  67 103 139 182 238 285 347 418
#
# _framework density 25.811910000000001
#
# number of rings (size 3 to 8) (size 9 to 14) (size 15 to 20)
#    0.000    1.000    1.250    4.875    3.500    6.000 
#    0.000    1.875    0.000    0.000    0.000    0.000 
#    0.000    0.000    0.000    0.000    0.000    0.000 
#
# Total GULP energy -178500.377849 kJ/mol
# GULP energy per Si atom -5578.136808 kJ/mol
# Density = 2.575316 g / cm^3
# Si number density = 25.811910 Si / 1000 Ang^3
#
#
#
# Elastic Constant Matrix: (Units=GPa)
#
#
# Indices 1 2 3 4 5 6 
#
# 1 109.7195 20.1493 3.0280 0.0000 -21.0037 0.0000
# 2 20.1493 45.9496 -7.4858 0.0000 -10.8762 0.0000
# 3 3.0280 -7.4858 46.5793 0.0000 -15.8944 0.0000
# 4 0.0000 0.0000 0.0000 22.1119 0.0000 -7.6628
# 5 -21.0037 -10.8762 -15.8944 0.0000 33.2156 0.0000
# 6 0.0000 0.0000 0.0000 -7.6628 0.0000 34.0874
#
#
#
# Elastic Compliance Matrix: (Units=1/GPa)
#
#
# Indices 1 2 3 4 5 6 
#
# 1 0.010867 -0.003121 0.000942 0.000000 0.006301 0.000000
# 2 -0.003121 0.027036 0.008241 0.000000 0.010823 0.000000
# 3 0.000942 0.008241 0.028512 0.000000 0.016938 0.000000
# 4 0.000000 0.000000 0.000000 0.049045 0.000000 0.011025
# 5 0.006301 0.010823 0.016938 0.000000 0.045740 0.000000
# 6 0.000000 0.000000 0.000000 0.011025 0.000000 0.031815
#
#
# Mechanical properties :
#
#
# Convention : Reuss Voigt Hill
#
# Bulk Modulus (GPa) = 12.73243 25.95904 19.34574
# Shear Modulus (GPa) = 24.14651 30.32011 27.23331
#
# Velocity S-wave (km/s) = 3.06188 3.43104 3.25170
# Velocity P-wave (km/s) = 4.17656 5.07690 4.64858
#
# Compressibility (1/GPa) = 0.07853961
#
# Stress axis : x y z
#
# Youngs Moduli (GPa) = 92.01822 36.98822 35.07343
#
# Poissons Ratio (x) = 0.11542 -0.03304
# Poissons Ratio (y) = 0.28715 -0.28904
# Poissons Ratio (z) = -0.08669 -0.30482
#
# Static dielectric constant tensor:
#      x y z
#    x 2.075100 0.000000 0.058320 
#    y 0.000000 2.166240 0.000000 
#    z 0.058320 0.000000 2.098790 
# 
# From -- ./inp_files/35263.got.cif
#   From: 2010.05.17/outbox.cif.g08.bks.cpg/sg14_18_cif.got.tgz:35263.got - 2010.06.03 17:49:19.
