data_PCOD9252811
_publ_section_title
;
Structure prediction by ZEFSAII (Michael W. Deem and Ramdas Pophale) SiO2 
 PCOD9252811
Probable space group: P 21/C
;
_chemical_formula_sum "Si O2"
_cell_formula_units_Z 20
_cell_length_a 7.946945
_cell_length_b 11.996597
_cell_length_c 12.103152
_cell_angle_alpha 90.000000
_cell_angle_beta 51.305820
_cell_angle_gamma 90.000000
_cell_volume 900.588270
_symmetry_space_group_name_H-M "P 21/C"
_symmetry_group_IT_number 14
_symmetry_cell_setting 'monoclinic'
loop_
_space_group_symop_operation_xyz
x,y,z
-x,1/2+y,1/2-z
-x,-y,-z
x,1/2-y,1/2+z
loop_
_atom_site_type_symbol
_atom_site_label
_atom_site_fract_x
_atom_site_fract_y
_atom_site_fract_z
Si Si1 0.706750 0.908124 0.720258
Si Si2 0.992219 0.034984 0.237682
Si Si3 0.270138 0.152719 0.725030
Si Si4 0.605983 0.594609 0.579556
Si Si5 0.537483 0.155451 0.400947
O O1 0.728042 0.783841 0.758467
O O2 0.614440 0.894417 0.634565
O O3 0.937088 0.958090 0.662858
O O4 0.540625 0.984593 0.857432
O O5 0.777477 0.105728 0.298530
O O6 0.946840 0.906641 0.226001
O O7 0.182342 0.080490 0.081536
O O8 0.323042 0.104801 0.822464
O O9 0.441257 0.125832 0.559705
O O10 0.480411 0.709791 0.603874
#
# Coordination Sequence:
#
# PCOD9252811 Si02
#       5
#     4   4   4   4   4
#     4  11  26  45  73 105 141 188 241 287 352 427
#     4  12  25  46  77 100 140 194 231 291 364 411
#     4  11  25  47  71 105 146 182 240 296 346 419
#     4  11  25  49  73 103 147 189 236 290 357 426
#     4  11  26  49  67 109 146 180 241 303 338 425
#
# _framework density 22.207706999999999
#
# number of rings (size 3 to 8) (size 9 to 14) (size 15 to 20)
#    0.000    0.800    4.000    1.800    2.800    0.800 
#   10.800    0.000    0.000    0.000    0.000    0.000 
#    0.000    0.000    0.000    0.000    0.000    0.000 
#
# Total GULP energy -111719.210440 kJ/mol
# GULP energy per Si atom -5585.960522 kJ/mol
# Density = 2.215716 g / cm^3
# Si number density = 22.207707 Si / 1000 Ang^3
#
#
#
# Elastic Constant Matrix: (Units=GPa)
#
#
# Indices 1 2 3 4 5 6 
#
# 1 158.9620 47.9574 55.0051 0.0000 15.1354 0.0000
# 2 47.9574 88.4766 20.0581 0.0000 -3.9926 0.0000
# 3 55.0051 20.0581 100.0391 0.0000 20.4531 0.0000
# 4 0.0000 0.0000 0.0000 17.2180 0.0000 -18.8239
# 5 15.1354 -3.9926 20.4531 0.0000 25.5357 0.0000
# 6 0.0000 0.0000 0.0000 -18.8239 0.0000 20.5300
#
#
#
# Elastic Compliance Matrix: (Units=1/GPa)
#
#
# Indices 1 2 3 4 5 6 
#
# 1 0.009100 -0.004294 -0.003471 0.000000 -0.003285 0.000000
# 2 -0.004294 0.014313 -0.001778 0.000000 0.006207 0.000000
# 3 -0.003471 -0.001778 0.014227 0.000000 -0.009616 0.000000
# 4 0.000000 0.000000 0.000000-24.019864 0.000000-22.023740
# 5 -0.003285 0.006207 -0.009616 0.000000 0.049780 0.000000
# 6 0.000000 0.000000 0.000000-22.023740 0.000000-20.144791
#
#
# Mechanical properties :
#
#
# Convention : Reuss Voigt Hill
#
# Bulk Modulus (GPa) = 53.89500 65.94651 59.92075
# Shear Modulus (GPa) = -0.11350 27.62054 13.75352
#
# Velocity S-wave (km/s) = -0.22632 3.53049 2.49130
# Velocity P-wave (km/s) = 4.92473 6.81021 5.94272
#
# Compressibility (1/GPa) = 0.01855460
#
# Stress axis : x y z
#
# Youngs Moduli (GPa) = 109.88923 69.86650 70.28875
#
# Poissons Ratio (x) = 0.30000 0.24397
# Poissons Ratio (y) = 0.47185 0.12496
# Poissons Ratio (z) = 0.38142 0.12421
#
# Static dielectric constant tensor:
#      x y z
#    x 1.879790 0.000000 0.026250 
#    y 0.000000 1.880860 0.000000 
#    z 0.026250 0.000000 1.782660 
# 
# From -- ./inp_files/20990.got.cif
#   From: 2010.05.17/outbox.cif.g08.bks.cpg/sg14_11_cif.got.tgz:20990.got - 2010.06.03 17:49:19.
