data_PCOD9252562
_publ_section_title
;
Structure prediction by ZEFSAII (Michael W. Deem and Ramdas Pophale) SiO2 
 PCOD9252562
Probable space group: P 21/C
;
_chemical_formula_sum "Si O2"
_cell_formula_units_Z 28
_cell_length_a 8.419698
_cell_length_b 8.569963
_cell_length_c 24.126635
_cell_angle_alpha 90.000000
_cell_angle_beta 139.745938
_cell_angle_gamma 90.000000
_cell_volume 1124.927262
_symmetry_space_group_name_H-M "P 21/C"
_symmetry_group_IT_number 14
_symmetry_cell_setting 'monoclinic'
loop_
_space_group_symop_operation_xyz
x,y,z
-x,1/2+y,1/2-z
-x,-y,-z
x,1/2-y,1/2+z
loop_
_atom_site_type_symbol
_atom_site_label
_atom_site_fract_x
_atom_site_fract_y
_atom_site_fract_z
Si Si1 0.591123 0.481268 0.720921
Si Si2 0.041837 0.973766 0.076507
Si Si3 0.626368 0.084823 0.430297
Si Si4 0.670589 0.285712 0.163519
Si Si5 0.783234 0.672427 0.674281
Si Si6 0.728827 0.397340 0.578997
Si Si7 0.965210 0.369625 0.914228
O O1 0.325252 0.535349 0.670096
O O2 0.524303 0.342149 0.659858
O O3 0.713261 0.618483 0.717618
O O4 0.776303 0.422332 0.816706
O O5 0.933614 0.805875 0.065922
O O6 0.912057 0.110554 0.076518
O O7 0.000000 0.000000 0.000000
O O8 0.439459 0.955158 0.355694
O O9 0.812342 0.991764 0.519993
O O10 0.445665 0.219657 0.405116
O O11 0.805558 0.140577 0.428565
O O12 0.663624 0.255343 0.095803
O O13 0.950596 0.252478 0.255682
O O14 0.830883 0.515065 0.652909
O O15 0.500000 0.500000 0.500000
#
# Coordination Sequence:
#
# PCOD9252562 Si02
#       7
#     4   4   4   4   4   4   4
#     4  11  25  44  71 105 140 189 255 291 371 442
#     4  12  25  48  75 104 148 195 247 311 370 453
#     4  11  24  46  71 103 154 184 244 308 365 444
#     4  11  25  45  70 105 142 189 235 305 366 436
#     4  11  24  46  70 103 141 188 238 296 366 440
#     4  11  25  44  70  99 135 187 237 288 365 435
#     4  11  26  43  73 110 140 197 247 311 373 426
#
# _framework density 24.890497
#
# number of rings (size 3 to 8) (size 9 to 14) (size 15 to 20)
#    0.000    0.857    1.429    6.000    6.000    1.143 
#    2.571    4.286    0.000    0.000    0.000    0.000 
#    0.000    0.000    0.000    0.000    0.000    0.000 
#
# Total GULP energy -156726.492098 kJ/mol
# GULP energy per Si atom -5597.374718 kJ/mol
# Density = 2.483384 g / cm^3
# Si number density = 24.890497 Si / 1000 Ang^3
#
#
#
# Elastic Constant Matrix: (Units=GPa)
#
#
# Indices 1 2 3 4 5 6 
#
# 1 72.1114 2.1979 14.0420 0.0000 11.5970 0.0000
# 2 2.1979 79.0642 6.5132 0.0000 5.3880 0.0000
# 3 14.0420 6.5132 120.2722 0.0000 7.3352 0.0000
# 4 0.0000 0.0000 0.0000 39.3385 0.0000 5.1292
# 5 11.5970 5.3880 7.3352 0.0000 36.9819 0.0000
# 6 0.0000 0.0000 0.0000 5.1292 0.0000 43.4667
#
#
#
# Elastic Compliance Matrix: (Units=1/GPa)
#
#
# Indices 1 2 3 4 5 6 
#
# 1 0.014856 0.000006 -0.001468 0.000000 -0.004368 0.000000
# 2 0.000006 0.012816 -0.000588 0.000000 -0.001752 0.000000
# 3 -0.001468 -0.000588 0.008588 0.000000 -0.001157 0.000000
# 4 0.000000 0.000000 0.000000 0.025818 0.000000 -0.003047
# 5 -0.004368 -0.001752 -0.001157 0.000000 0.028895 0.000000
# 6 0.000000 0.000000 0.000000 -0.003047 0.000000 0.023366
#
#
# Mechanical properties :
#
#
# Convention : Reuss Voigt Hill
#
# Bulk Modulus (GPa) = 31.09577 35.21709 33.15643
# Shear Modulus (GPa) = 38.71218 40.53706 39.62462
#
# Velocity S-wave (km/s) = 3.94801 4.03999 3.99426
# Velocity P-wave (km/s) = 5.77083 5.99513 5.88405
#
# Compressibility (1/GPa) = 0.03215871
#
# Stress axis : x y z
#
# Youngs Moduli (GPa) = 67.31437 78.02968 116.43719
#
# Poissons Ratio (x) = -0.00044 0.17097
# Poissons Ratio (y) = -0.00038 0.06844
# Poissons Ratio (z) = 0.09884 0.04587
#
# Static dielectric constant tensor:
#      x y z
#    x 1.972380 0.000000 -0.064080 
#    y 0.000000 2.009900 0.000000 
#    z -0.064080 0.000000 1.999750 
# 
# From -- ./inp_files/76506.got.cif
#   From: 2010.05.17/outbox.cif.g08.bks.cpg/sg14_39_cif.got.tgz:76506.got - 2010.06.03 17:49:19.
