data_PCOD9252737
_publ_section_title
;
Structure prediction by ZEFSAII (Michael W. Deem and Ramdas Pophale) SiO2 
 PCOD9252737
Probable space group: P 21/C
;
_chemical_formula_sum "Si O2"
_cell_formula_units_Z 20
_cell_length_a 6.908326
_cell_length_b 14.416672
_cell_length_c 9.350752
_cell_angle_alpha 90.000000
_cell_angle_beta 126.992185
_cell_angle_gamma 90.000000
_cell_volume 743.836745
_symmetry_space_group_name_H-M "P 21/C"
_symmetry_group_IT_number 14
_symmetry_cell_setting 'monoclinic'
loop_
_space_group_symop_operation_xyz
x,y,z
-x,1/2+y,1/2-z
-x,-y,-z
x,1/2-y,1/2+z
loop_
_atom_site_type_symbol
_atom_site_label
_atom_site_fract_x
_atom_site_fract_y
_atom_site_fract_z
Si Si1 0.897718 0.241047 0.211911
Si Si2 0.756801 0.995082 0.484891
Si Si3 0.471299 0.885313 0.847610
Si Si4 0.411048 0.299498 0.979801
Si Si5 0.982127 0.930509 0.124491
O O1 0.793133 0.139409 0.205509
O O2 0.933673 0.321934 0.349630
O O3 0.171331 0.225647 0.282817
O O4 0.673538 0.283426 0.022272
O O5 0.645392 0.895045 0.467456
O O6 0.563312 0.055695 0.309733
O O7 0.846972 0.033734 0.675124
O O8 0.000000 0.000000 0.500000
O O9 0.560599 0.778665 0.884114
O O10 0.694118 0.929258 0.036088
O O11 0.000000 0.000000 0.000000
#
# Coordination Sequence:
#
# PCOD9252737 Si02
#       5
#     4   4   4   4   4
#     4   9  19  43  65 100 141 190 226 297 354 424
#     4  12  23  45  74 105 142 194 240 297 367 431
#     4   9  22  44  65 103 141 184 242 291 352 427
#     4   9  19  40  68 100 141 180 237 292 352 422
#     4  11  25  45  70 107 144 189 244 299 362 436
#
# _framework density 26.887620999999999
#
# number of rings (size 3 to 8) (size 9 to 14) (size 15 to 20)
#    1.200    0.800    2.000    1.200    0.000    4.000 
#   10.800    0.000    0.000    0.000    0.000    0.000 
#    0.000    0.000    0.000    0.000    0.000    0.000 
#
# Total GULP energy -111480.152459 kJ/mol
# GULP energy per Si atom -5574.007623 kJ/mol
# Density = 2.682642 g / cm^3
# Si number density = 26.887621 Si / 1000 Ang^3
#
#
#
# Elastic Constant Matrix: (Units=GPa)
#
#
# Indices 1 2 3 4 5 6 
#
# 1 90.3100 -4.4610 28.8158 0.0000 44.8359 0.0000
# 2 -4.4610 105.0255 25.4666 0.0000 18.6602 0.0000
# 3 28.8158 25.4666 143.9766 0.0000 58.8839 0.0000
# 4 0.0000 0.0000 0.0000 52.2572 0.0000 22.9603
# 5 44.8359 18.6602 58.8839 0.0000 54.5082 0.0000
# 6 0.0000 0.0000 0.0000 22.9603 0.0000 27.4086
#
#
#
# Elastic Compliance Matrix: (Units=1/GPa)
#
#
# Indices 1 2 3 4 5 6 
#
# 1 0.022147 0.004172 0.005131 0.000000 -0.025188 0.000000
# 2 0.004172 0.010960 0.000294 0.000000 -0.007502 0.000000
# 3 0.005131 0.000294 0.013676 0.000000 -0.019096 0.000000
# 4 0.000000 0.000000 0.000000 0.030282 0.000000 -0.025367
# 5 -0.025188 -0.007502 -0.019096 0.000000 0.062261 0.000000
# 6 0.000000 0.000000 0.000000 -0.025367 0.000000 0.057735
#
#
# Mechanical properties :
#
#
# Convention : Reuss Voigt Hill
#
# Bulk Modulus (GPa) = 15.15661 48.77277 31.96469
# Shear Modulus (GPa) = 25.01767 46.13418 35.57593
#
# Velocity S-wave (km/s) = 3.05364 4.14673 3.64144
# Velocity P-wave (km/s) = 4.25232 6.41140 5.44005
#
# Compressibility (1/GPa) = 0.06597782
#
# Stress axis : x y z
#
# Youngs Moduli (GPa) = 45.15314 91.23972 73.11935
#
# Poissons Ratio (x) = -0.38063 -0.37518
# Poissons Ratio (y) = -0.18837 -0.02153
# Poissons Ratio (z) = -0.23168 -0.02687
#
# Static dielectric constant tensor:
#      x y z
#    x 2.159370 0.000000 0.082900 
#    y 0.000000 2.184560 0.000000 
#    z 0.082900 0.000000 2.040270 
# 
# From -- ./inp_files/26187.got.cif
#   From: 2010.05.17/outbox.cif.g08.bks.cpg/sg14_14_cif.got.tgz:26187.got - 2010.06.03 17:49:19.
