data_PCOD9252126
_publ_section_title
;
Structure prediction by ZEFSAII (Michael W. Deem and Ramdas Pophale) SiO2 
 PCOD9252126
Probable space group: P 21/C
;
_chemical_formula_sum "Si O2"
_cell_formula_units_Z 20
_cell_length_a 9.204987
_cell_length_b 4.956906
_cell_length_c 18.273492
_cell_angle_alpha 90.000000
_cell_angle_beta 80.133008
_cell_angle_gamma 90.000000
_cell_volume 821.454348
_symmetry_space_group_name_H-M "P 21/C"
_symmetry_group_IT_number 14
_symmetry_cell_setting 'monoclinic'
loop_
_space_group_symop_operation_xyz
x,y,z
-x,1/2+y,1/2-z
-x,-y,-z
x,1/2-y,1/2+z
loop_
_atom_site_type_symbol
_atom_site_label
_atom_site_fract_x
_atom_site_fract_y
_atom_site_fract_z
Si Si1 0.091889 0.737978 0.267966
Si Si2 0.813059 0.435078 0.594847
Si Si3 0.512365 0.055829 0.911803
Si Si4 0.695171 0.948693 0.356868
Si Si5 0.928043 0.181523 0.445701
O O1 0.139964 0.782749 0.348053
O O2 0.232723 0.581107 0.221276
O O3 0.958711 0.521174 0.264067
O O4 0.643278 0.511659 0.614665
O O5 0.831422 0.374531 0.506549
O O6 0.939409 0.653517 0.600767
O O7 0.634699 0.853579 0.866761
O O8 0.562097 0.361126 0.894530
O O9 0.500000 0.000000 0.000000
O O10 0.826678 0.005987 0.402573
O O11 0.000000 0.000000 0.500000
#
# Coordination Sequence:
#
# PCOD9252126 Si02
#       5
#     4   4   4   4   4
#     4  12  26  47  71 105 142 187 236 298 354 417
#     4  11  26  42  72 102 140 186 240 292 354 423
#     4  12  26  46  70 105 144 184 232 294 360 418
#     4  12  26  45  72 101 147 184 235 291 356 426
#     4  11  23  43  72 103 132 187 247 288 343 421
#
# _framework density 24.347059999999999
#
# number of rings (size 3 to 8) (size 9 to 14) (size 15 to 20)
#    0.000    0.400    4.000    4.200    5.600    1.600 
#    0.000    0.000    0.000    0.000    0.000    0.000 
#    0.000    0.000    0.000    0.000    0.000    0.000 
#
# Total GULP energy -111831.378160 kJ/mol
# GULP energy per Si atom -5591.568908 kJ/mol
# Density = 2.429165 g / cm^3
# Si number density = 24.347060 Si / 1000 Ang^3
#
#
#
# Elastic Constant Matrix: (Units=GPa)
#
#
# Indices 1 2 3 4 5 6 
#
# 1 144.6226 -6.6834 18.4343 0.0000 15.9034 0.0000
# 2 -6.6834 51.6851 -2.3808 0.0000 2.4820 0.0000
# 3 18.4343 -2.3808 83.4127 0.0000 7.6366 0.0000
# 4 0.0000 0.0000 0.0000 28.0692 0.0000 -4.4680
# 5 15.9034 2.4820 7.6366 0.0000 42.3363 0.0000
# 6 0.0000 0.0000 0.0000 -4.4680 0.0000 31.9672
#
#
#
# Elastic Compliance Matrix: (Units=1/GPa)
#
#
# Indices 1 2 3 4 5 6 
#
# 1 0.007423 0.001021 -0.001373 0.000000 -0.002601 0.000000
# 2 0.001021 0.019580 0.000481 0.000000 -0.001618 0.000000
# 3 -0.001373 0.000481 0.012467 0.000000 -0.001761 0.000000
# 4 0.000000 0.000000 0.000000 0.036437 0.000000 0.005093
# 5 -0.002601 -0.001618 -0.001761 0.000000 0.025010 0.000000
# 6 0.000000 0.000000 0.000000 0.005093 0.000000 0.031994
#
#
# Mechanical properties :
#
#
# Convention : Reuss Voigt Hill
#
# Bulk Modulus (GPa) = 25.17066 33.16228 29.16647
# Shear Modulus (GPa) = 34.27145 38.49790 36.38467
#
# Velocity S-wave (km/s) = 3.75590 3.98076 3.86996
# Velocity P-wave (km/s) = 5.40090 5.89736 5.65458
#
# Compressibility (1/GPa) = 0.03972879
#
# Stress axis : x y z
#
# Youngs Moduli (GPa) = 134.72093 51.07276 80.21150
#
# Poissons Ratio (x) = -0.05217 0.11015
# Poissons Ratio (y) = -0.13761 -0.03860
# Poissons Ratio (z) = 0.18500 -0.02458
#
# Static dielectric constant tensor:
#      x y z
#    x 1.929350 0.000000 -0.136460 
#    y 0.000000 1.794400 0.000000 
#    z -0.136460 0.000000 2.159340 
# 
# From -- ./inp_files/53962.got.cif
#   From: 2010.05.17/outbox.cif.g08.bks.cpg/sg14_27_cif.got.tgz:53962.got - 2010.06.03 17:49:19.
