data_PCOD9252585
_publ_section_title
;
Structure prediction by ZEFSAII (Michael W. Deem and Ramdas Pophale) SiO2 
 PCOD9252585
Probable space group: P 21/C
;
_chemical_formula_sum "Si O2"
_cell_formula_units_Z 16
_cell_length_a 9.559497
_cell_length_b 5.251807
_cell_length_c 18.940195
_cell_angle_alpha 90.000000
_cell_angle_beta 138.142969
_cell_angle_gamma 90.000000
_cell_volume 634.501363
_symmetry_space_group_name_H-M "P 21/C"
_symmetry_group_IT_number 14
_symmetry_cell_setting 'monoclinic'
loop_
_space_group_symop_operation_xyz
x,y,z
-x,1/2+y,1/2-z
-x,-y,-z
x,1/2-y,1/2+z
loop_
_atom_site_type_symbol
_atom_site_label
_atom_site_fract_x
_atom_site_fract_y
_atom_site_fract_z
Si Si1 0.107581 0.173824 0.719501
Si Si2 0.376582 0.036047 0.220539
Si Si3 0.009529 0.794646 0.565719
Si Si4 0.742346 0.969286 0.072196
O O1 0.284783 0.372690 0.760863
O O2 0.143608 0.139999 0.815261
O O3 0.874448 0.271506 0.613179
O O4 0.128561 0.929447 0.677345
O O5 0.530500 0.795005 0.277449
O O6 0.168356 0.931381 0.104151
O O7 0.798295 0.694377 0.523985
O O8 0.000000 0.000000 0.500000
O O9 0.500000 0.000000 0.000000
#
# Coordination Sequence:
#
# PCOD9252585 Si02
#       4
#     4   4   4   4
#     4  11  24  49  77 116 163 208 277 342 398 507
#     4  11  24  46  78 114 157 212 259 331 417 481
#     4  11  26  48  76 116 166 205 280 343 409 501
#     4  11  26  48  81 115 164 220 273 340 424 488
#
# _framework density 25.216650999999999
#
# number of rings (size 3 to 8) (size 9 to 14) (size 15 to 20)
#    0.000    1.000    5.000    0.000    0.000   11.000 
#    0.000    0.000    0.000    0.000    0.000    0.000 
#    0.000    0.000    0.000    0.000    0.000    0.000 
#
# Total GULP energy -89485.290267 kJ/mol
# GULP energy per Si atom -5592.830642 kJ/mol
# Density = 2.515926 g / cm^3
# Si number density = 25.216651 Si / 1000 Ang^3
#
#
#
# Elastic Constant Matrix: (Units=GPa)
#
#
# Indices 1 2 3 4 5 6 
#
# 1 194.7431 74.0540 58.7171 0.0000 19.4532 0.0000
# 2 74.0540 114.7848 21.1877 0.0000 9.3877 0.0000
# 3 58.7171 21.1877 77.4966 0.0000 -9.0493 0.0000
# 4 0.0000 0.0000 0.0000 40.7267 0.0000 2.0126
# 5 19.4532 9.3877 -9.0493 0.0000 60.1938 0.0000
# 6 0.0000 0.0000 0.0000 2.0126 0.0000 61.6711
#
#
#
# Elastic Compliance Matrix: (Units=1/GPa)
#
#
# Indices 1 2 3 4 5 6 
#
# 1 0.008891 -0.004397 -0.005893 0.000000 -0.003074 0.000000
# 2 -0.004397 0.011554 0.000130 0.000000 -0.000361 0.000000
# 3 -0.005893 0.000130 0.017867 0.000000 0.004570 0.000000
# 4 0.000000 0.000000 0.000000 0.024594 0.000000 -0.000803
# 5 -0.003074 -0.000361 0.004570 0.000000 0.018350 0.000000
# 6 0.000000 0.000000 0.000000 -0.000803 0.000000 0.016241
#
#
# Mechanical properties :
#
#
# Convention : Reuss Voigt Hill
#
# Bulk Modulus (GPa) = 55.57899 77.21580 66.39739
# Shear Modulus (GPa) = 40.38344 48.05604 44.21974
#
# Velocity S-wave (km/s) = 4.00617 4.37020 4.19214
# Velocity P-wave (km/s) = 6.59451 7.49348 7.05832
#
# Compressibility (1/GPa) = 0.01799241
#
# Stress axis : x y z
#
# Youngs Moduli (GPa) = 112.47637 86.54960 55.96935
#
# Poissons Ratio (x) = 0.38054 0.32983
# Poissons Ratio (y) = 0.49453 -0.00729
# Poissons Ratio (z) = 0.66284 -0.01127
#
# Static dielectric constant tensor:
#      x y z
#    x 1.977840 0.000000 0.019430 
#    y 0.000000 2.103940 0.000000 
#    z 0.019430 0.000000 2.047430 
# 
# From -- ./inp_files/38313.got.cif
#   From: 2010.05.17/outbox.cif.g08.bks.cpg/sg14_20_cif.got.tgz:38313.got - 2010.06.03 17:49:19.
