data_PCOD9252591
_publ_section_title
;
Structure prediction by ZEFSAII (Michael W. Deem and Ramdas Pophale) SiO2 
 PCOD9252591
Probable space group: P 21/C
;
_chemical_formula_sum "Si O2"
_cell_formula_units_Z 20
_cell_length_a 11.459058
_cell_length_b 9.338220
_cell_length_c 13.820338
_cell_angle_alpha 90.000000
_cell_angle_beta 147.559553
_cell_angle_gamma 90.000000
_cell_volume 793.302516
_symmetry_space_group_name_H-M "P 21/C"
_symmetry_group_IT_number 14
_symmetry_cell_setting 'monoclinic'
loop_
_space_group_symop_operation_xyz
x,y,z
-x,1/2+y,1/2-z
-x,-y,-z
x,1/2-y,1/2+z
loop_
_atom_site_type_symbol
_atom_site_label
_atom_site_fract_x
_atom_site_fract_y
_atom_site_fract_z
Si Si1 0.540451 0.633526 0.885562
Si Si2 0.935444 0.527563 0.064513
Si Si3 0.166959 0.718752 0.516481
Si Si4 0.353300 0.602562 0.467153
Si Si5 0.304616 0.353119 0.795024
O O1 0.365482 0.750255 0.729144
O O2 0.390311 0.500311 0.811417
O O3 0.708254 0.606340 0.917390
O O4 0.692564 0.651701 0.085604
O O5 0.894203 0.367973 0.079752
O O6 0.129874 0.611320 0.251158
O O7 0.000000 0.500000 0.000000
O O8 0.252917 0.591461 0.506187
O O9 0.940857 0.676229 0.408407
O O10 0.500000 0.500000 0.500000
O O11 0.509388 0.737129 0.593435
#
# Coordination Sequence:
#
# PCOD9252591 Si02
#       5
#     4   4   4   4   4
#     4  11  25  44  70 103 144 189 241 305 366 446
#     4  12  25  45  71 109 147 192 252 302 371 445
#     4  12  25  46  71 107 146 192 247 305 374 441
#     4  12  24  45  73 106 151 194 247 311 368 450
#     4  11  24  47  69 103 144 190 245 302 375 434
#
# _framework density 25.211062999999999
#
# number of rings (size 3 to 8) (size 9 to 14) (size 15 to 20)
#    0.000    0.400    6.000    3.000    0.000    0.000 
#    0.000    2.000    0.000    0.000    0.000    0.000 
#    0.000    0.000    0.000    0.000    0.000    0.000 
#
# Total GULP energy -111699.665837 kJ/mol
# GULP energy per Si atom -5584.983292 kJ/mol
# Density = 2.515368 g / cm^3
# Si number density = 25.211063 Si / 1000 Ang^3
#
#
#
# Elastic Constant Matrix: (Units=GPa)
#
#
# Indices 1 2 3 4 5 6 
#
# 1 124.9706 5.9430 47.3976 0.0000 12.6150 0.0000
# 2 5.9430 40.7228 13.6479 0.0000 8.3325 0.0000
# 3 47.3976 13.6479 149.5193 0.0000 32.7427 0.0000
# 4 0.0000 0.0000 0.0000 31.0793 0.0000 9.9913
# 5 12.6150 8.3325 32.7427 0.0000 53.0503 0.0000
# 6 0.0000 0.0000 0.0000 9.9913 0.0000 33.0360
#
#
#
# Elastic Compliance Matrix: (Units=1/GPa)
#
#
# Indices 1 2 3 4 5 6 
#
# 1 0.009108 -0.000318 -0.002769 0.000000 -0.000407 0.000000
# 2 -0.000318 0.025748 -0.001596 0.000000 -0.002983 0.000000
# 3 -0.002769 -0.001596 0.008687 0.000000 -0.004452 0.000000
# 4 0.000000 0.000000 0.000000 0.035641 0.000000 -0.010779
# 5 -0.000407 -0.002983 -0.004452 0.000000 0.022163 0.000000
# 6 0.000000 0.000000 0.000000 -0.010779 0.000000 0.033530
#
#
# Mechanical properties :
#
#
# Convention : Reuss Voigt Hill
#
# Bulk Modulus (GPa) = 29.25993 49.90997 39.58495
# Shear Modulus (GPa) = 32.12626 39.98141 36.05383
#
# Velocity S-wave (km/s) = 3.57360 3.98662 3.78574
# Velocity P-wave (km/s) = 5.35338 6.40552 5.90293
#
# Compressibility (1/GPa) = 0.03417644
#
# Stress axis : x y z
#
# Youngs Moduli (GPa) = 109.78933 38.83785 115.11981
#
# Poissons Ratio (x) = 0.01235 0.31879
# Poissons Ratio (y) = 0.03491 0.18374
# Poissons Ratio (z) = 0.30403 0.06199
#
# Static dielectric constant tensor:
#      x y z
#    x 2.088350 0.000000 -0.088570 
#    y 0.000000 2.062770 0.000000 
#    z -0.088570 0.000000 1.945900 
# 
# From -- ./inp_files/23958.got.cif
#   From: 2010.05.17/outbox.cif.g08.bks.cpg/sg14_12_cif.got.tgz:23958.got - 2010.06.03 17:49:19.
