data_PCOD9252070
_publ_section_title
;
Structure prediction by ZEFSAII (Michael W. Deem and Ramdas Pophale) SiO2 
 PCOD9252070
Probable space group: P 21/C
;
_chemical_formula_sum "Si O2"
_cell_formula_units_Z 32
_cell_length_a 11.232280
_cell_length_b 11.411659
_cell_length_c 10.906624
_cell_angle_alpha 90.000000
_cell_angle_beta 83.272859
_cell_angle_gamma 90.000000
_cell_volume 1388.374755
_symmetry_space_group_name_H-M "P 21/C"
_symmetry_group_IT_number 14
_symmetry_cell_setting 'monoclinic'
loop_
_space_group_symop_operation_xyz
x,y,z
-x,1/2+y,1/2-z
-x,-y,-z
x,1/2-y,1/2+z
loop_
_atom_site_type_symbol
_atom_site_label
_atom_site_fract_x
_atom_site_fract_y
_atom_site_fract_z
Si Si1 0.064957 0.092767 0.399136
Si Si2 0.687504 0.976191 0.279218
Si Si3 0.163217 0.695976 0.173117
Si Si4 0.264068 0.287831 0.043046
Si Si5 0.422800 0.448462 0.867199
Si Si6 0.616795 0.437437 0.537397
Si Si7 0.292869 0.701804 0.897648
Si Si8 0.744462 0.950021 0.826209
O O1 0.155936 0.162489 0.475146
O O2 0.146816 0.035209 0.282024
O O3 0.977554 0.181327 0.336464
O O4 0.000000 0.000000 0.500000
O O5 0.723636 0.852888 0.328466
O O6 0.792074 0.065700 0.297572
O O7 0.563493 0.025734 0.353013
O O8 0.663532 0.979698 0.139512
O O9 0.216106 0.769878 0.282889
O O10 0.214297 0.712645 0.029599
O O11 0.240332 0.155129 0.080147
O O12 0.380224 0.340999 0.957483
O O13 0.354843 0.574149 0.893663
O O14 0.372737 0.417253 0.739503
O O15 0.500000 0.500000 0.500000
O O16 0.611779 0.308011 0.596558
O O17 0.709603 0.439796 0.413302
#
# Coordination Sequence:
#
# PCOD9252070 Si02
#       8
#     4   4   4   4   4   4   4   4
#     4  11  24  50  76  98 148 198 251 314 370 453
#     4  11  23  42  70 106 144 196 246 291 378 448
#     4  11  24  44  71 107 139 194 256 303 367 445
#     4  11  25  43  73 106 144 192 250 303 378 448
#     4  11  23  45  71 106 147 198 242 299 377 456
#     4  11  25  45  67 110 156 191 239 313 375 438
#     4  11  25  45  74 108 149 198 252 307 370 458
#     4  11  26  46  70 109 147 194 240 315 380 441
#
# _framework density 23.04853
#
# number of rings (size 3 to 8) (size 9 to 14) (size 15 to 20)
#    0.000    1.000    3.750    1.875    7.000    0.000 
#    0.000    2.500    0.000    0.000    0.000    0.000 
#    0.000    0.000    0.000    0.000    0.000    0.000 
#
# Total GULP energy -178660.050583 kJ/mol
# GULP energy per Si atom -5583.126581 kJ/mol
# Density = 2.299607 g / cm^3
# Si number density = 23.048530 Si / 1000 Ang^3
#
#
#
# Elastic Constant Matrix: (Units=GPa)
#
#
# Indices 1 2 3 4 5 6 
#
# 1 79.2369 9.2579 36.7047 0.0000 7.0067 0.0000
# 2 9.2579 74.2896 35.7005 0.0000 -11.4110 0.0000
# 3 36.7047 35.7005 154.4823 0.0000 3.8433 0.0000
# 4 0.0000 0.0000 0.0000 37.1511 0.0000 8.3626
# 5 7.0067 -11.4110 3.8433 0.0000 35.4625 0.0000
# 6 0.0000 0.0000 0.0000 8.3626 0.0000 0.5291
#
#
#
# Elastic Compliance Matrix: (Units=1/GPa)
#
#
# Indices 1 2 3 4 5 6 
#
# 1 0.014424 -0.000676 -0.003203 0.000000 -0.002720 0.000000
# 2 -0.000676 0.016223 -0.003732 0.000000 0.005758 0.000000
# 3 -0.003203 -0.003732 0.008133 0.000000 -0.001449 0.000000
# 4 0.000000 0.000000 0.000000 -0.010522 0.000000 0.166325
# 5 -0.002720 0.005758 -0.001449 0.000000 0.030746 0.000000
# 6 0.000000 0.000000 0.000000 0.166325 0.000000 -0.738898
#
#
# Mechanical properties :
#
#
# Convention : Reuss Voigt Hill
#
# Bulk Modulus (GPa) = 42.44920 52.37056 47.40988
# Shear Modulus (GPa) = -7.61243 29.71823 11.05290
#
# Velocity S-wave (km/s) = -1.81933 3.59468 2.19224
# Velocity P-wave (km/s) = 3.74754 6.32457 5.19828
#
# Compressibility (1/GPa) = 0.02355757
#
# Stress axis : x y z
#
# Youngs Moduli (GPa) = 69.33037 61.64150 122.95980
#
# Poissons Ratio (x) = 0.04167 0.39386
# Poissons Ratio (y) = 0.04687 0.45885
# Poissons Ratio (z) = 0.22208 0.23003
#
# Static dielectric constant tensor:
#      x y z
#    x 1.860200 0.000000 -0.045690 
#    y 0.000000 1.899180 0.000000 
#    z -0.045690 0.000000 1.904060 
# 
# From -- ./inp_files/29110.got.cif
#   From: 2010.05.17/outbox.cif.g08.bks.cpg/sg14_15_cif.got.tgz:29110.got - 2010.06.03 17:49:19.
