data_PCOD9252297
_publ_section_title
;
Structure prediction by ZEFSAII (Michael W. Deem and Ramdas Pophale) SiO2 
 PCOD9252297
Probable space group: P 21/C
;
_chemical_formula_sum "Si O2"
_cell_formula_units_Z 32
_cell_length_a 11.470464
_cell_length_b 15.721090
_cell_length_c 9.468136
_cell_angle_alpha 90.000000
_cell_angle_beta 69.473864
_cell_angle_gamma 90.000000
_cell_volume 1598.974849
_symmetry_space_group_name_H-M "P 21/C"
_symmetry_group_IT_number 14
_symmetry_cell_setting 'monoclinic'
loop_
_space_group_symop_operation_xyz
x,y,z
-x,1/2+y,1/2-z
-x,-y,-z
x,1/2-y,1/2+z
loop_
_atom_site_type_symbol
_atom_site_label
_atom_site_fract_x
_atom_site_fract_y
_atom_site_fract_z
Si Si1 0.532355 0.929395 0.607992
Si Si2 0.621699 0.492679 0.356447
Si Si3 0.205593 0.143332 0.132623
Si Si4 0.248795 0.195242 0.432182
Si Si5 0.042469 0.951709 0.841802
Si Si6 0.276210 0.841941 0.819897
Si Si7 0.231136 0.830190 0.172764
Si Si8 0.018177 0.076453 0.607157
O O1 0.635169 0.854047 0.541945
O O2 0.408535 0.884796 0.725152
O O3 0.500000 0.000000 0.500000
O O4 0.597478 0.978399 0.708722
O O5 0.500000 0.500000 0.500000
O O6 0.723437 0.553067 0.388128
O O7 0.663419 0.396789 0.333067
O O8 0.247217 0.188959 0.261716
O O9 0.061929 0.114570 0.172219
O O10 0.240792 0.208870 0.993961
O O11 0.121819 0.144248 0.520103
O O12 0.169573 0.905242 0.816876
O O13 0.065472 0.024749 0.720073
O O14 0.000000 0.000000 0.000000
O O15 0.258000 0.757479 0.737102
O O16 0.244765 0.822822 0.997535
O O17 0.105161 0.873339 0.288548
O O18 0.000000 0.000000 0.500000
#
# Coordination Sequence:
#
# PCOD9252297 Si02
#       8
#     4   4   4   4   4   4   4   4
#     4  11  26  48  70 105 138 186 235 283 360 422
#     4  11  23  47  73  94 142 185 228 285 351 425
#     4  11  25  45  67 103 136 179 236 282 352 405
#     4  11  26  43  70 102 138 180 233 292 339 417
#     4  12  24  44  71 101 141 180 235 287 351 418
#     4  12  28  44  70 107 145 183 240 293 352 425
#     4  12  27  47  70 107 141 191 233 294 359 417
#     4  12  23  45  73  99 140 183 232 286 355 416
#
# _framework density 20.012823000000001
#
# number of rings (size 3 to 8) (size 9 to 14) (size 15 to 20)
#    0.000    0.500    5.000    2.250    7.000    3.000 
#    0.000    0.000    0.000    0.000    0.000    0.000 
#    0.000    0.000    0.000    0.000    0.000    0.000 
#
# Total GULP energy -178653.661818 kJ/mol
# GULP energy per Si atom -5582.926932 kJ/mol
# Density = 1.996727 g / cm^3
# Si number density = 20.012823 Si / 1000 Ang^3
#
#
#
# Elastic Constant Matrix: (Units=GPa)
#
#
# Indices 1 2 3 4 5 6 
#
# 1 77.8093 -2.7093 6.6193 0.0000 -11.7246 0.0000
# 2 -2.7093 47.5943 5.4826 0.0000 6.2426 0.0000
# 3 6.6193 5.4826 69.2292 0.0000 1.9945 0.0000
# 4 0.0000 0.0000 0.0000 47.5088 0.0000 0.7024
# 5 -11.7246 6.2426 1.9945 0.0000 35.6751 0.0000
# 6 0.0000 0.0000 0.0000 0.7024 0.0000 23.5823
#
#
#
# Elastic Compliance Matrix: (Units=1/GPa)
#
#
# Indices 1 2 3 4 5 6 
#
# 1 0.013669 0.000355 -0.001465 0.000000 0.004512 0.000000
# 2 0.000355 0.021691 -0.001648 0.000000 -0.003587 0.000000
# 3 -0.001465 -0.001648 0.014745 0.000000 -0.001017 0.000000
# 4 0.000000 0.000000 0.000000 0.021058 0.000000 -0.000627
# 5 0.004512 -0.003587 -0.001017 0.000000 0.030198 0.000000
# 6 0.000000 0.000000 0.000000 -0.000627 0.000000 0.042423
#
#
# Mechanical properties :
#
#
# Convention : Reuss Voigt Hill
#
# Bulk Modulus (GPa) = 22.42752 23.71311 23.07031
# Shear Modulus (GPa) = 30.45733 33.70259 32.07996
#
# Velocity S-wave (km/s) = 3.90537 4.10817 4.00805
# Velocity P-wave (km/s) = 5.61844 5.86323 5.74214
#
# Compressibility (1/GPa) = 0.04458808
#
# Stress axis : x y z
#
# Youngs Moduli (GPa) = 73.15929 46.10107 67.82090
#
# Poissons Ratio (x) = -0.01637 0.09936
# Poissons Ratio (y) = -0.02597 0.11180
# Poissons Ratio (z) = 0.10718 0.07600
#
# Static dielectric constant tensor:
#      x y z
#    x 1.645140 0.000000 0.085120 
#    y 0.000000 1.600330 0.000000 
#    z 0.085120 0.000000 1.583700 
# 
# From -- ./inp_files/13282.got.cif
#   From: 2010.05.17/outbox.cif.g08.bks.cpg/sg14_7_cif.got.tgz:13282.got - 2010.06.03 17:49:19.
