data_PCOD9252079
_publ_section_title
;
Structure prediction by ZEFSAII (Michael W. Deem and Ramdas Pophale) SiO2 
 PCOD9252079
Probable space group: P 21/C
;
_chemical_formula_sum "Si O2"
_cell_formula_units_Z 32
_cell_length_a 6.718997
_cell_length_b 10.148850
_cell_length_c 20.372377
_cell_angle_alpha 90.000000
_cell_angle_beta 89.633810
_cell_angle_gamma 90.000000
_cell_volume 1389.165904
_symmetry_space_group_name_H-M "P 21/C"
_symmetry_group_IT_number 14
_symmetry_cell_setting 'monoclinic'
loop_
_space_group_symop_operation_xyz
x,y,z
-x,1/2+y,1/2-z
-x,-y,-z
x,1/2-y,1/2+z
loop_
_atom_site_type_symbol
_atom_site_label
_atom_site_fract_x
_atom_site_fract_y
_atom_site_fract_z
Si Si1 0.657020 0.106137 0.023440
Si Si2 0.217501 0.409239 0.376444
Si Si3 0.772289 0.652055 0.274803
Si Si4 0.071231 0.873656 0.234905
Si Si5 0.450928 0.751264 0.670284
Si Si6 0.302968 0.251198 0.086078
Si Si7 0.352309 0.537145 0.061522
Si Si8 0.013319 0.732491 0.031403
O O1 0.516063 0.218749 0.052556
O O2 0.790900 0.031928 0.076030
O O3 0.809023 0.160885 0.970467
O O4 0.500000 0.000000 0.000000
O O5 0.442930 0.377880 0.358684
O O6 0.092491 0.434538 0.312978
O O7 0.128323 0.275977 0.409026
O O8 0.827132 0.510236 0.242435
O O9 0.589204 0.703593 0.230778
O O10 0.718659 0.653748 0.352275
O O11 0.948293 0.762299 0.273877
O O12 0.236709 0.789586 0.196471
O O13 0.441685 0.857587 0.612095
O O14 0.313159 0.405143 0.103387
O O15 0.125661 0.248392 0.032427
O O16 0.140723 0.598477 0.037324
O O17 0.500000 0.500000 0.000000
#
# Coordination Sequence:
#
# PCOD9252079 Si02
#       8
#     4   4   4   4   4   4   4   4
#     4  12  24  40  69 103 145 179 232 292 364 437
#     4  11  23  42  72 102 136 188 235 293 366 428
#     4  11  29  46  75 106 140 197 249 303 368 443
#     4  11  26  49  73 102 145 187 250 306 371 433
#     4  11  26  47  75  99 146 190 245 307 365 433
#     4  12  27  44  70 107 144 187 241 296 364 447
#     4  12  25  47  72 106 148 193 241 303 376 437
#     4  12  24  43  70 103 143 187 229 298 360 440
#
# _framework density 23.035405999999998
#
# number of rings (size 3 to 8) (size 9 to 14) (size 15 to 20)
#    0.000    0.500    3.750    3.750    5.250    4.000 
#    0.000    0.000    0.000    0.000    0.000    0.000 
#    0.000    0.000    0.000    0.000    0.000    0.000 
#
# Total GULP energy -178753.250660 kJ/mol
# GULP energy per Si atom -5586.039083 kJ/mol
# Density = 2.298298 g / cm^3
# Si number density = 23.035406 Si / 1000 Ang^3
#
#
#
# Elastic Constant Matrix: (Units=GPa)
#
#
# Indices 1 2 3 4 5 6 
#
# 1 89.4312 12.2936 10.8947 0.0000 -7.4533 0.0000
# 2 12.2936 83.5823 -4.8151 0.0000 8.4339 0.0000
# 3 10.8947 -4.8151 41.9468 0.0000 7.8247 0.0000
# 4 0.0000 0.0000 0.0000 34.4600 0.0000 3.6520
# 5 -7.4533 8.4339 7.8247 0.0000 27.6038 0.0000
# 6 0.0000 0.0000 0.0000 3.6520 0.0000 41.9612
#
#
#
# Elastic Compliance Matrix: (Units=1/GPa)
#
#
# Indices 1 2 3 4 5 6 
#
# 1 0.012569 -0.002670 -0.004599 0.000000 0.005513 0.000000
# 2 -0.002670 0.013114 0.003253 0.000000 -0.005650 0.000000
# 3 -0.004599 0.003253 0.027267 0.000000 -0.009965 0.000000
# 4 0.000000 0.000000 0.000000 0.029289 0.000000 -0.002549
# 5 0.005513 -0.005650 -0.009965 0.000000 0.042266 0.000000
# 6 0.000000 0.000000 0.000000 -0.002549 0.000000 0.024053
#
#
# Mechanical properties :
#
#
# Convention : Reuss Voigt Hill
#
# Bulk Modulus (GPa) = 22.26341 27.96739 25.11540
# Shear Modulus (GPa) = 29.14371 33.91082 31.52726
#
# Velocity S-wave (km/s) = 3.56078 3.84098 3.70353
# Velocity P-wave (km/s) = 5.15669 5.64254 5.40507
#
# Compressibility (1/GPa) = 0.04491675
#
# Stress axis : x y z
#
# Youngs Moduli (GPa) = 79.56367 76.25184 36.67502
#
# Poissons Ratio (x) = 0.20358 0.16868
# Poissons Ratio (y) = 0.21243 -0.11930
# Poissons Ratio (z) = 0.36594 -0.24803
#
# Static dielectric constant tensor:
#      x y z
#    x 1.902540 0.000000 0.031630 
#    y 0.000000 1.974660 0.000000 
#    z 0.031630 0.000000 1.872840 
# 
# From -- ./inp_files/63519.got.cif
#   From: 2010.05.17/outbox.cif.g08.bks.cpg/sg14_32_cif.got.tgz:63519.got - 2010.06.03 17:49:19.
