data_PCOD9252115
_publ_section_title
;
Structure prediction by ZEFSAII (Michael W. Deem and Ramdas Pophale) SiO2 
 PCOD9252115
Probable space group: P 21/C
;
_chemical_formula_sum "Si O2"
_cell_formula_units_Z 24
_cell_length_a 4.985392
_cell_length_b 6.531775
_cell_length_c 32.661471
_cell_angle_alpha 90.000000
_cell_angle_beta 106.449664
_cell_angle_gamma 90.000000
_cell_volume 1020.037336
_symmetry_space_group_name_H-M "P 21/C"
_symmetry_group_IT_number 14
_symmetry_cell_setting 'monoclinic'
loop_
_space_group_symop_operation_xyz
x,y,z
-x,1/2+y,1/2-z
-x,-y,-z
x,1/2-y,1/2+z
loop_
_atom_site_type_symbol
_atom_site_label
_atom_site_fract_x
_atom_site_fract_y
_atom_site_fract_z
Si Si1 0.162834 0.134233 0.408958
Si Si2 0.578005 0.343968 0.367929
Si Si3 0.193576 0.216681 0.700029
Si Si4 0.197914 0.434977 0.472220
Si Si5 0.291561 0.071565 0.290222
Si Si6 0.192734 0.663985 0.386214
O O1 0.168353 0.199250 0.456758
O O2 0.860610 0.448384 0.573022
O O3 0.439925 0.225872 0.400441
O O4 0.183088 0.899473 0.398423
O O5 0.405095 0.263955 0.321186
O O6 0.478511 0.391766 0.198974
O O7 0.474190 0.572453 0.377049
O O8 0.950656 0.647961 0.341463
O O9 0.114378 0.757292 0.621990
O O10 0.984120 0.031106 0.702810
O O11 0.500000 0.500000 0.500000
O O12 0.000000 0.500000 0.500000
O O13 0.240683 0.145665 0.241992
#
# Coordination Sequence:
#
# PCOD9252115 Si02
#       6
#     4   4   4   4   4   4
#     4  11  24  45  73 105 141 182 245 295 361 451
#     4  11  23  43  70 105 145 184 239 298 345 436
#     4  12  26  43  70 105 143 196 242 297 367 429
#     4  11  26  46  70 106 141 182 239 308 376 447
#     4  12  24  45  67 106 151 186 248 299 350 441
#     4  11  25  46  76 102 143 196 237 299 379 433
#
# _framework density 23.528549000000002
#
# number of rings (size 3 to 8) (size 9 to 14) (size 15 to 20)
#    0.000    0.667    3.333    4.000    0.000   12.000 
#    0.000    0.000    0.000    0.000    0.000    0.000 
#    0.000    0.000    0.000    0.000    0.000    0.000 
#
# Total GULP energy -134190.697594 kJ/mol
# GULP energy per Si atom -5591.279066 kJ/mol
# Density = 2.347500 g / cm^3
# Si number density = 23.528549 Si / 1000 Ang^3
#
#
#
# Elastic Constant Matrix: (Units=GPa)
#
#
# Indices 1 2 3 4 5 6 
#
# 1 77.0673 28.3135 -0.6295 0.0000 -3.8019 0.0000
# 2 28.3135 129.6291 33.6751 0.0000 -0.2162 0.0000
# 3 -0.6295 33.6751 113.7507 0.0000 -5.2931 0.0000
# 4 0.0000 0.0000 0.0000 52.9507 0.0000 -10.3384
# 5 -3.8019 -0.2162 -5.2931 0.0000 37.7742 0.0000
# 6 0.0000 0.0000 0.0000 -10.3384 0.0000 31.1365
#
#
#
# Elastic Compliance Matrix: (Units=1/GPa)
#
#
# Indices 1 2 3 4 5 6 
#
# 1 0.014323 -0.003429 0.001168 0.000000 0.001586 0.000000
# 2 -0.003429 0.009181 -0.002769 0.000000 -0.000681 0.000000
# 3 0.001168 -0.002769 0.009685 0.000000 0.001459 0.000000
# 4 0.000000 0.000000 0.000000 0.020195 0.000000 0.006705
# 5 0.001586 -0.000681 0.001459 0.000000 0.026833 0.000000
# 6 0.000000 0.000000 0.000000 0.006705 0.000000 0.034343
#
#
# Mechanical properties :
#
#
# Convention : Reuss Voigt Hill
#
# Bulk Modulus (GPa) = 43.23321 49.24058 46.23689
# Shear Modulus (GPa) = 37.78412 41.64482 39.71447
#
# Velocity S-wave (km/s) = 4.01170 4.21166 4.11290
# Velocity P-wave (km/s) = 6.31450 6.68014 6.49989
#
# Compressibility (1/GPa) = 0.02313037
#
# Stress axis : x y z
#
# Youngs Moduli (GPa) = 69.81609 108.91485 103.25057
#
# Poissons Ratio (x) = 0.37351 -0.12063
# Poissons Ratio (y) = 0.23942 0.28588
# Poissons Ratio (z) = -0.08157 0.30156
#
# Static dielectric constant tensor:
#      x y z
#    x 1.910120 0.000000 0.026130 
#    y 0.000000 1.992590 0.000000 
#    z 0.026130 0.000000 1.885720 
# 
# From -- ./inp_files/75602.got.cif
#   From: 2010.05.17/outbox.cif.g08.bks.cpg/sg14_38_cif.got.tgz:75602.got - 2010.06.03 17:49:19.
