data_PCOD9252759
_publ_section_title
;
Structure prediction by ZEFSAII (Michael W. Deem and Ramdas Pophale) SiO2 
 PCOD9252759
Probable space group: P 21/C
;
_chemical_formula_sum "Si O2"
_cell_formula_units_Z 16
_cell_length_a 8.837014
_cell_length_b 5.063913
_cell_length_c 25.672216
_cell_angle_alpha 90.000000
_cell_angle_beta 30.805267
_cell_angle_gamma 90.000000
_cell_volume 588.340060
_symmetry_space_group_name_H-M "P 21/C"
_symmetry_group_IT_number 14
_symmetry_cell_setting 'monoclinic'
loop_
_space_group_symop_operation_xyz
x,y,z
-x,1/2+y,1/2-z
-x,-y,-z
x,1/2-y,1/2+z
loop_
_atom_site_type_symbol
_atom_site_label
_atom_site_fract_x
_atom_site_fract_y
_atom_site_fract_z
Si Si1 0.809385 0.015825 0.194243
Si Si2 0.245957 0.743091 0.394866
Si Si3 0.218015 0.657872 0.013600
Si Si4 0.901996 0.613992 0.812024
O O1 0.682751 0.045654 0.173096
O O2 0.944655 0.272733 0.181348
O O3 0.535458 0.928586 0.310002
O O4 0.070792 0.807587 0.105592
O O5 0.213491 0.648498 0.463694
O O6 0.975890 0.917609 0.452130
O O7 0.554066 0.583600 0.924480
O O8 0.038940 0.352314 0.746603
#
# Coordination Sequence:
#
# PCOD9252759 Si02
#       4
#     4   4   4   4
#     4  12  25  45  77 106 155 198 252 313 380 449
#     4  11  25  45  76 114 147 194 260 309 378 454
#     4  11  26  48  74 112 148 202 248 315 381 447
#     4  12  30  50  77 112 157 202 254 310 374 454
#
# _framework density 27.195156999999998
#
# number of rings (size 3 to 8) (size 9 to 14) (size 15 to 20)
#    0.000    0.500    5.000    1.500   10.500    1.000 
#    0.000    0.000    0.000    0.000    0.000    0.000 
#    0.000    0.000    0.000    0.000    0.000    0.000 
#
# Total GULP energy -89752.261518 kJ/mol
# GULP energy per Si atom -5609.516345 kJ/mol
# Density = 2.713326 g / cm^3
# Si number density = 27.195157 Si / 1000 Ang^3
#
#
#
# Elastic Constant Matrix: (Units=GPa)
#
#
# Indices 1 2 3 4 5 6 
#
# 1 126.1528 22.2915 52.2385 0.0000 8.8681 0.0000
# 2 22.2915 91.7517 45.2479 0.0000 -6.3183 0.0000
# 3 52.2385 45.2479 156.8292 0.0000 -23.6179 0.0000
# 4 0.0000 0.0000 0.0000 34.2282 0.0000 8.8434
# 5 8.8681 -6.3183 -23.6179 0.0000 76.1898 0.0000
# 6 0.0000 0.0000 0.0000 8.8434 0.0000 61.2348
#
#
#
# Elastic Compliance Matrix: (Units=1/GPa)
#
#
# Indices 1 2 3 4 5 6 
#
# 1 0.009592 -0.000866 -0.003277 0.000000 -0.002204 0.000000
# 2 -0.000866 0.012786 -0.003384 0.000000 0.000112 0.000000
# 3 -0.003277 -0.003384 0.008874 0.000000 0.002852 0.000000
# 4 0.000000 0.000000 0.000000 0.030348 0.000000 -0.004383
# 5 -0.002204 0.000112 0.002852 0.000000 0.014275 0.000000
# 6 0.000000 0.000000 0.000000 -0.004383 0.000000 0.016964
#
#
# Mechanical properties :
#
#
# Convention : Reuss Voigt Hill
#
# Bulk Modulus (GPa) = 61.73641 68.25441 64.99541
# Shear Modulus (GPa) = 44.13446 51.32760 47.73103
#
# Velocity S-wave (km/s) = 4.03287 4.34911 4.19397
# Velocity P-wave (km/s) = 6.66603 7.09734 6.88506
#
# Compressibility (1/GPa) = 0.01619790
#
# Stress axis : x y z
#
# Youngs Moduli (GPa) = 104.25509 78.21220 112.69457
#
# Poissons Ratio (x) = 0.06774 0.36930
# Poissons Ratio (y) = 0.09029 0.38130
# Poissons Ratio (z) = 0.34165 0.26463
#
# Static dielectric constant tensor:
#      x y z
#    x 2.169220 0.000000 0.066010 
#    y 0.000000 2.194770 0.000000 
#    z 0.066010 0.000000 2.120120 
# 
# From -- ./inp_files/38318.got.cif
#   From: 2010.05.17/outbox.cif.g08.bks.cpg/sg14_20_cif.got.tgz:38318.got - 2010.06.03 17:49:19.
