data_PCOD9252702
_publ_section_title
;
Structure prediction by ZEFSAII (Michael W. Deem and Ramdas Pophale) SiO2 
 PCOD9252702
Probable space group: P 21/C
;
_chemical_formula_sum "Si O2"
_cell_formula_units_Z 32
_cell_length_a 9.065214
_cell_length_b 18.642280
_cell_length_c 12.431699
_cell_angle_alpha 90.000000
_cell_angle_beta 48.713438
_cell_angle_gamma 90.000000
_cell_volume 1578.663954
_symmetry_space_group_name_H-M "P 21/C"
_symmetry_group_IT_number 14
_symmetry_cell_setting 'monoclinic'
loop_
_space_group_symop_operation_xyz
x,y,z
-x,1/2+y,1/2-z
-x,-y,-z
x,1/2-y,1/2+z
loop_
_atom_site_type_symbol
_atom_site_label
_atom_site_fract_x
_atom_site_fract_y
_atom_site_fract_z
Si Si1 0.584780 0.975644 0.345264
Si Si2 0.259241 0.812724 0.719056
Si Si3 0.231374 0.952452 0.145154
Si Si4 0.038913 0.321408 0.149916
Si Si5 0.030060 0.962147 0.868247
Si Si6 0.357547 0.310947 0.812187
Si Si7 0.521394 0.549216 0.326241
Si Si8 0.418573 0.318627 0.122198
O O1 0.545581 0.894052 0.336396
O O2 0.500000 0.000000 0.500000
O O3 0.812608 0.984081 0.256768
O O4 0.535629 0.024744 0.266711
O O5 0.123364 0.882713 0.812798
O O6 0.435611 0.811840 0.721704
O O7 0.391260 0.813877 0.546840
O O8 0.116812 0.744111 0.777174
O O9 0.085336 0.894498 0.268481
O O10 0.380740 0.981741 0.162393
O O11 0.347496 0.921000 0.986111
O O12 0.148467 0.024673 0.126503
O O13 0.215554 0.320566 0.152200
O O14 0.168200 0.311359 0.979791
O O15 0.000000 0.000000 0.000000
O O16 0.336398 0.384102 0.756041
O O17 0.383902 0.244314 0.721860
#
# Coordination Sequence:
#
# PCOD9252702 Si02
#       8
#     4   4   4   4   4   4   4   4
#     4  12  22  45  72  96 129 179 229 275 337 405
#     4  11  25  45  66  97 137 176 223 278 342 405
#     4  11  25  44  68 101 137 175 226 283 339 403
#     4  11  26  44  67  98 134 176 228 277 332 410
#     4  12  23  42  73  99 126 177 231 279 334 406
#     4  11  25  45  66  97 134 179 221 279 338 402
#     4  11  25  45  68  98 140 177 221 283 345 398
#     4  11  25  44  68  95 138 178 221 279 343 403
#
# _framework density 20.270305
#
# number of rings (size 3 to 8) (size 9 to 14) (size 15 to 20)
#    0.000    0.750    5.000    1.500    5.250    2.500 
#    0.000    0.000    0.000    0.000    0.000    0.000 
#    0.000    0.000    0.000    0.000    0.000    0.000 
#
# Total GULP energy -178188.392531 kJ/mol
# GULP energy per Si atom -5568.387267 kJ/mol
# Density = 2.022417 g / cm^3
# Si number density = 20.270305 Si / 1000 Ang^3
#
#
#
# Elastic Constant Matrix: (Units=GPa)
#
#
# Indices 1 2 3 4 5 6 
#
# 1 50.5775 23.1564 28.2698 0.0000 -2.1895 0.0000
# 2 23.1564 136.0501 60.6721 0.0000 2.2041 0.0000
# 3 28.2698 60.6721 106.2543 0.0000 -3.3154 0.0000
# 4 0.0000 0.0000 0.0000 37.7991 0.0000 -6.8716
# 5 -2.1895 2.2041 -3.3154 0.0000 35.7467 0.0000
# 6 0.0000 0.0000 0.0000 -6.8716 0.0000 35.6049
#
#
#
# Elastic Compliance Matrix: (Units=1/GPa)
#
#
# Indices 1 2 3 4 5 6 
#
# 1 0.023530 -0.001670 -0.005274 0.000000 0.001055 0.000000
# 2 -0.001670 0.010026 -0.005318 0.000000 -0.001214 0.000000
# 3 -0.005274 -0.005318 0.013892 0.000000 0.001293 0.000000
# 4 0.000000 0.000000 0.000000 0.027418 0.000000 0.005292
# 5 0.001055 -0.001214 0.001293 0.000000 0.028234 0.000000
# 6 0.000000 0.000000 0.000000 0.005292 0.000000 0.029107
#
#
# Mechanical properties :
#
#
# Convention : Reuss Voigt Hill
#
# Bulk Modulus (GPa) = 43.62462 57.45316 50.53889
# Shear Modulus (GPa) = 30.41889 33.88237 32.15063
#
# Velocity S-wave (km/s) = 3.87804 4.09287 3.98690
# Velocity P-wave (km/s) = 6.45139 7.12323 6.79562
#
# Compressibility (1/GPa) = 0.02292284
#
# Stress axis : x y z
#
# Youngs Moduli (GPa) = 42.49961 99.74132 71.98543
#
# Poissons Ratio (x) = 0.16658 0.37963
# Poissons Ratio (y) = 0.07098 0.38285
# Poissons Ratio (z) = 0.22413 0.53047
#
# Static dielectric constant tensor:
#      x y z
#    x 1.765740 0.000000 0.029160 
#    y 0.000000 1.711140 0.000000 
#    z 0.029160 0.000000 1.768930 
# 
# From -- ./inp_files/26780.got.cif
#   From: 2010.05.17/outbox.cif.g08.bks.cpg/sg14_14_cif.got.tgz:26780.got - 2010.06.03 17:49:19.
