data_PCOD9252958
_publ_section_title
;
Structure prediction by ZEFSAII (Michael W. Deem and Ramdas Pophale) SiO2 
 PCOD9252958
Probable space group: P 21/C
;
_chemical_formula_sum "Si O2"
_cell_formula_units_Z 28
_cell_length_a 13.488644
_cell_length_b 10.832426
_cell_length_c 16.460265
_cell_angle_alpha 90.000000
_cell_angle_beta 153.852240
_cell_angle_gamma 90.000000
_cell_volume 1059.892117
_symmetry_space_group_name_H-M "P 21/C"
_symmetry_group_IT_number 14
_symmetry_cell_setting 'monoclinic'
loop_
_space_group_symop_operation_xyz
x,y,z
-x,1/2+y,1/2-z
-x,-y,-z
x,1/2-y,1/2+z
loop_
_atom_site_type_symbol
_atom_site_label
_atom_site_fract_x
_atom_site_fract_y
_atom_site_fract_z
Si Si1 0.344324 0.331065 0.859359
Si Si2 0.657475 0.232243 0.817564
Si Si3 0.823689 0.474526 0.664167
Si Si4 0.685831 0.488113 0.750554
Si Si5 0.780063 0.723213 0.903688
Si Si6 0.995201 0.270462 0.216054
Si Si7 0.199646 0.597535 0.724932
O O1 0.326681 0.266112 0.760527
O O2 0.237983 0.255208 0.854410
O O3 0.806863 0.546255 0.260021
O O4 0.601082 0.355639 0.070120
O O5 0.704168 0.348736 0.794347
O O6 0.404217 0.231463 0.662206
O O7 0.712099 0.113763 0.802899
O O8 0.818498 0.250750 0.012918
O O9 0.763381 0.497593 0.714319
O O10 0.580852 0.478364 0.441434
O O11 0.985130 0.584104 0.749395
O O12 0.182583 0.420339 0.091592
O O13 0.063123 0.659193 0.265698
O O14 0.979633 0.818828 0.067346
#
# Coordination Sequence:
#
# PCOD9252958 Si02
#       7
#     4   4   4   4   4   4   4
#     4  11  26  52  79 113 163 215 266 336 414 491
#     4  12  28  47  79 120 158 213 279 339 421 500
#     4  11  26  50  83 115 166 215 275 348 419 508
#     4  11  26  53  77 113 164 214 272 346 425 492
#     4  12  26  51  84 114 162 210 274 343 403 500
#     4  12  26  51  79 123 159 218 280 341 421 499
#     4  11  27  50  79 115 164 211 269 338 411 488
#
# _framework density 26.417783
#
# number of rings (size 3 to 8) (size 9 to 14) (size 15 to 20)
#    0.000    0.571    4.286    1.286    6.000    5.714 
#    7.714    0.000    0.000    0.000    0.000    0.000 
#    0.000    0.000    0.000    0.000    0.000    0.000 
#
# Total GULP energy -157234.213849 kJ/mol
# GULP energy per Si atom -5615.507637 kJ/mol
# Density = 2.635766 g / cm^3
# Si number density = 26.417783 Si / 1000 Ang^3
#
#
#
# Elastic Constant Matrix: (Units=GPa)
#
#
# Indices 1 2 3 4 5 6 
#
# 1 110.5129 43.0652 7.5123 0.0000 12.0547 0.0000
# 2 43.0652 145.1183 25.3533 0.0000 -4.2560 0.0000
# 3 7.5123 25.3533 121.5113 0.0000 8.2084 0.0000
# 4 0.0000 0.0000 0.0000 48.8014 0.0000 -5.1374
# 5 12.0547 -4.2560 8.2084 0.0000 31.9929 0.0000
# 6 0.0000 0.0000 0.0000 -5.1374 0.0000 56.4083
#
#
#
# Elastic Compliance Matrix: (Units=1/GPa)
#
#
# Indices 1 2 3 4 5 6 
#
# 1 0.010864 -0.003422 0.000356 0.000000 -0.004640 0.000000
# 2 -0.003422 0.008288 -0.001709 0.000000 0.002831 0.000000
# 3 0.000356 -0.001709 0.008740 0.000000 -0.002604 0.000000
# 4 0.000000 0.000000 0.000000 0.020690 0.000000 0.001884
# 5 -0.004640 0.002831 -0.002604 0.000000 0.034050 0.000000
# 6 0.000000 0.000000 0.000000 0.001884 0.000000 0.017900
#
#
# Mechanical properties :
#
#
# Convention : Reuss Voigt Hill
#
# Bulk Modulus (GPa) = 54.52052 58.77825 56.64939
# Shear Modulus (GPa) = 43.03059 47.52129 45.27594
#
# Velocity S-wave (km/s) = 4.04028 4.24587 4.14435
# Velocity P-wave (km/s) = 6.51519 6.80694 6.66266
#
# Compressibility (1/GPa) = 0.01834172
#
# Stress axis : x y z
#
# Youngs Moduli (GPa) = 92.04448 120.65456 114.41444
#
# Poissons Ratio (x) = 0.41292 -0.04071
# Poissons Ratio (y) = 0.31501 0.19553
# Poissons Ratio (z) = -0.03275 0.20619
#
# Static dielectric constant tensor:
#      x y z
#    x 2.039900 0.000000 0.006620 
#    y 0.000000 2.040830 0.000000 
#    z 0.006620 0.000000 2.084680 
# 
# From -- ./inp_files/45563.got.cif
#   From: 2010.05.17/outbox.cif.g08.bks.cpg/sg14_23_cif.got.tgz:45563.got - 2010.06.03 17:49:19.
