data_PCOD9252525
_publ_section_title
;
Structure prediction by ZEFSAII (Michael W. Deem and Ramdas Pophale) SiO2 
 PCOD9252525
Probable space group: P 21/C
;
_chemical_formula_sum "Si O2"
_cell_formula_units_Z 28
_cell_length_a 18.536506
_cell_length_b 9.463838
_cell_length_c 17.148581
_cell_angle_alpha 90.000000
_cell_angle_beta 158.565001
_cell_angle_gamma 90.000000
_cell_volume 1099.375163
_symmetry_space_group_name_H-M "P 21/C"
_symmetry_group_IT_number 14
_symmetry_cell_setting 'monoclinic'
loop_
_space_group_symop_operation_xyz
x,y,z
-x,1/2+y,1/2-z
-x,-y,-z
x,1/2-y,1/2+z
loop_
_atom_site_type_symbol
_atom_site_label
_atom_site_fract_x
_atom_site_fract_y
_atom_site_fract_z
Si Si1 0.118730 0.207236 0.569708
Si Si2 0.071709 0.967278 0.294643
Si Si3 0.234587 0.810510 0.010097
Si Si4 0.780669 0.544301 0.226711
Si Si5 0.408366 0.126078 0.731573
Si Si6 0.725557 0.452612 0.669249
Si Si7 0.383700 0.703801 0.830430
O O1 0.095733 0.355754 0.590420
O O2 0.284200 0.217904 0.669090
O O3 0.919103 0.196398 0.676302
O O4 0.916557 0.139115 0.334619
O O5 0.120391 0.997574 0.253726
O O6 0.247885 0.036123 0.523114
O O7 0.807845 0.906964 0.292153
O O8 0.861846 0.037053 0.100761
O O9 0.444044 0.792256 0.177794
O O10 0.257284 0.789811 0.125052
O O11 0.690147 0.413220 0.182458
O O12 0.597900 0.647943 0.021707
O O13 0.563576 0.034602 0.938979
O O14 0.630384 0.352435 0.639846
#
# Coordination Sequence:
#
# PCOD9252525 Si02
#       7
#     4   4   4   4   4   4   4
#     4  11  25  44  75 107 147 197 251 313 369 453
#     4  12  29  51  75 114 153 206 253 319 389 457
#     4  12  29  50  76 109 154 198 255 318 387 460
#     4  11  25  47  77 107 145 197 256 312 374 446
#     4  12  25  43  72 108 148 193 247 309 381 452
#     4  11  24  45  71 108 147 195 251 306 376 452
#     4  11  24  48  74 107 145 197 252 313 375 449
#
# _framework density 25.469014000000001
#
# number of rings (size 3 to 8) (size 9 to 14) (size 15 to 20)
#    0.000    0.571    2.857    3.857    4.000    9.143 
#    0.000    0.000    0.000    0.000    0.000    0.000 
#    0.000    0.000    0.000    0.000    0.000    0.000 
#
# Total GULP energy -157107.600897 kJ/mol
# GULP energy per Si atom -5610.985746 kJ/mol
# Density = 2.541105 g / cm^3
# Si number density = 25.469014 Si / 1000 Ang^3
#
#
#
# Elastic Constant Matrix: (Units=GPa)
#
#
# Indices 1 2 3 4 5 6 
#
# 1 141.2420 20.2824 37.1303 0.0000 -9.7000 0.0000
# 2 20.2824 84.6151 -5.8935 0.0000 -16.0278 0.0000
# 3 37.1303 -5.8935 110.0612 0.0000 -14.2367 0.0000
# 4 0.0000 0.0000 0.0000 40.5600 0.0000 -0.2946
# 5 -9.7000 -16.0278 -14.2367 0.0000 51.8805 0.0000
# 6 0.0000 0.0000 0.0000 -0.2946 0.0000 29.1471
#
#
#
# Elastic Compliance Matrix: (Units=1/GPa)
#
#
# Indices 1 2 3 4 5 6 
#
# 1 0.008141 -0.002135 -0.002851 0.000000 0.000080 0.000000
# 2 -0.002135 0.013272 0.001980 0.000000 0.004244 0.000000
# 3 -0.002851 0.001980 0.010538 0.000000 0.002970 0.000000
# 4 0.000000 0.000000 0.000000 0.024657 0.000000 0.000249
# 5 0.000080 0.004244 0.002970 0.000000 0.021416 0.000000
# 6 0.000000 0.000000 0.000000 0.000249 0.000000 0.034311
#
#
# Mechanical properties :
#
#
# Convention : Reuss Voigt Hill
#
# Bulk Modulus (GPa) = 38.55032 48.77296 43.66164
# Shear Modulus (GPa) = 39.37221 43.27744 41.32482
#
# Velocity S-wave (km/s) = 3.93604 4.12663 4.03246
# Velocity P-wave (km/s) = 5.98545 6.47278 6.23388
#
# Compressibility (1/GPa) = 0.02594012
#
# Stress axis : x y z
#
# Youngs Moduli (GPa) = 122.82755 75.34772 94.89682
#
# Poissons Ratio (x) = 0.16085 0.27051
# Poissons Ratio (y) = 0.26222 -0.18789
# Poissons Ratio (z) = 0.35012 -0.14918
#
# Static dielectric constant tensor:
#      x y z
#    x 1.962130 0.000000 0.016170 
#    y 0.000000 1.998700 0.000000 
#    z 0.016170 0.000000 2.051100 
# 
# From -- ./inp_files/47475.got.cif
#   From: 2010.05.17/outbox.cif.g08.bks.cpg/sg14_24_cif.got.tgz:47475.got - 2010.06.03 17:49:19.
