data_PCOD9252990
_publ_section_title
;
Structure prediction by ZEFSAII (Michael W. Deem and Ramdas Pophale) SiO2 
 PCOD9252990
Probable space group: P 21/C
;
_chemical_formula_sum "Si O2"
_cell_formula_units_Z 18
_cell_length_a 7.165168
_cell_length_b 9.846586
_cell_length_c 9.628700
_cell_angle_alpha 90.000000
_cell_angle_beta 96.175733
_cell_angle_gamma 90.000000
_cell_volume 675.385905
_symmetry_space_group_name_H-M "P 21/C"
_symmetry_group_IT_number 14
_symmetry_cell_setting 'monoclinic'
loop_
_space_group_symop_operation_xyz
x,y,z
-x,1/2+y,1/2-z
-x,-y,-z
x,1/2-y,1/2+z
loop_
_atom_site_type_symbol
_atom_site_label
_atom_site_fract_x
_atom_site_fract_y
_atom_site_fract_z
Si Si1 0.427686 0.630346 0.574668
Si Si2 0.042166 0.481813 0.182103
Si Si3 0.036568 0.763645 0.497069
Si Si4 0.436601 0.380833 0.096933
Si Si5 0.000000 0.500000 0.500000
O O1 0.500000 0.500000 0.500000
O O2 0.198883 0.646993 0.542920
O O3 0.514496 0.753508 0.495329
O O4 0.475091 0.629590 0.741392
O O5 0.221267 0.419127 0.115756
O O6 0.895390 0.368063 0.116277
O O7 0.071423 0.474599 0.344513
O O8 0.012464 0.634904 0.124787
O O9 0.891640 0.648717 0.440914
O O10 0.500000 0.500000 0.000000
#
# Coordination Sequence:
#
# PCOD9252990 Si02
#       5
#     4   4   4   4   2
#     4  12  28  49  81 115 158 213 265 335 402 476
#     4  11  27  50  77 116 158 212 257 333 390 486
#     4  11  27  50  76 112 160 209 262 324 400 475
#     4  12  27  52  80 115 159 208 273 326 407 477
#     4  12  26  44  78 112 156 198 266 308 404 454
#
# _framework density 26.651430999999999
#
# number of rings (size 3 to 8) (size 9 to 14) (size 15 to 20)
#    0.000    0.444    2.222    4.000   12.444    0.000 
#    0.000    0.000    0.000    0.000    0.000    0.000 
#    0.000    0.000    0.000    0.000    0.000    0.000 
#
# Total GULP energy -100396.309413 kJ/mol
# GULP energy per Si atom -5577.572745 kJ/mol
# Density = 2.659077 g / cm^3
# Si number density = 26.651431 Si / 1000 Ang^3
#
#
#
# Elastic Constant Matrix: (Units=GPa)
#
#
# Indices 1 2 3 4 5 6 
#
# 1 86.8498 -5.2289 15.3172 0.0000 -18.4229 0.0000
# 2 -5.2289 278.9732 79.2579 0.0000 -27.9490 0.0000
# 3 15.3172 79.2579 256.2892 0.0000 -22.5178 0.0000
# 4 0.0000 0.0000 0.0000 49.2697 0.0000 -4.5410
# 5 -18.4229 -27.9490 -22.5178 0.0000 52.4293 0.0000
# 6 0.0000 0.0000 0.0000 -4.5410 0.0000 35.1315
#
#
#
# Elastic Compliance Matrix: (Units=1/GPa)
#
#
# Indices 1 2 3 4 5 6 
#
# 1 0.012663 0.000880 -0.000620 0.000000 0.004652 0.000000
# 2 0.000880 0.004131 -0.001153 0.000000 0.002016 0.000000
# 3 -0.000620 -0.001153 0.004388 0.000000 0.001052 0.000000
# 4 0.000000 0.000000 0.000000 0.020541 0.000000 0.002655
# 5 0.004652 0.002016 0.001052 0.000000 0.022235 0.000000
# 6 0.000000 0.000000 0.000000 0.002655 0.000000 0.028808
#
#
# Mechanical properties :
#
#
# Convention : Reuss Voigt Hill
#
# Bulk Modulus (GPa) = 51.55944 88.97828 70.26886
# Shear Modulus (GPa) = 49.49678 62.88385 56.19032
#
# Velocity S-wave (km/s) = 4.31419 4.86273 4.59665
# Velocity P-wave (km/s) = 6.64862 8.06143 7.38887
#
# Compressibility (1/GPa) = 0.01939509
#
# Stress axis : x y z
#
# Youngs Moduli (GPa) = 78.96829 242.09864 227.90172
#
# Poissons Ratio (x) = -0.21295 0.14132
# Poissons Ratio (y) = -0.06946 0.26273
# Poissons Ratio (z) = 0.04897 0.27910
#
# Static dielectric constant tensor:
#      x y z
#    x 5.447530 0.000000 0.964060 
#    y 0.000000 0.015940 0.000000 
#    z 0.964060 0.000000 2.214960 
# 
# From -- ./inp_files/7338.got.cif
#   From: 2010.05.17/outbox.cif.g08.bks.cpg/sg14_4_cif.got.tgz:7338.got - 2010.06.03 17:49:19.
