data_PCOD9252313
_publ_section_title
;
Structure prediction by ZEFSAII (Michael W. Deem and Ramdas Pophale) SiO2 
 PCOD9252313
Probable space group: P 21/C
;
_chemical_formula_sum "Si O2"
_cell_formula_units_Z 30
_cell_length_a 7.952601
_cell_length_b 11.973373
_cell_length_c 13.844500
_cell_angle_alpha 90.000000
_cell_angle_beta 78.803356
_cell_angle_gamma 90.000000
_cell_volume 1293.174616
_symmetry_space_group_name_H-M "P 21/C"
_symmetry_group_IT_number 14
_symmetry_cell_setting 'monoclinic'
loop_
_space_group_symop_operation_xyz
x,y,z
-x,1/2+y,1/2-z
-x,-y,-z
x,1/2-y,1/2+z
loop_
_atom_site_type_symbol
_atom_site_label
_atom_site_fract_x
_atom_site_fract_y
_atom_site_fract_z
Si Si1 0.645267 0.377881 0.644415
Si Si2 0.823785 0.403535 0.323590
Si Si3 0.500000 0.500000 0.000000
Si Si4 0.577399 0.247374 0.471165
Si Si5 0.291942 0.123436 0.896266
Si Si6 0.949066 0.630689 0.410736
Si Si7 0.657131 0.559516 0.187235
Si Si8 0.158974 0.235077 0.744970
O O1 0.567298 0.285772 0.583149
O O2 0.637969 0.499675 0.594342
O O3 0.848688 0.356051 0.632587
O O4 0.521339 0.390161 0.749672
O O5 0.719674 0.323989 0.406147
O O6 0.711820 0.453664 0.247891
O O7 0.891513 0.512823 0.372013
O O8 0.978411 0.326908 0.271164
O O9 0.601496 0.383442 0.965703
O O10 0.374198 0.475425 0.918465
O O11 0.409375 0.285608 0.432809
O O12 0.281622 0.144667 0.782685
O O13 0.109265 0.132664 0.971508
O O14 0.837960 0.722157 0.364520
O O15 0.801713 0.654589 0.194399
#
# Coordination Sequence:
#
# PCOD9252313 Si02
#       8
#     4   4   2   4   4   4   4   4
#     4  12  24  45  81 107 137 191 260 313 359 438
#     4  11  23  48  76 101 145 188 261 304 366 440
#     4  12  30  48  68 108 160 194 240 300 386 456
#     4  12  25  45  76 109 143 198 248 310 368 450
#     4  12  22  47  73 107 142 184 248 311 361 433
#     4  11  25  43  72 111 139 187 246 312 373 434
#     4  11  27  50  71 108 149 200 251 298 380 454
#     4  11  25  44  67 106 148 184 239 316 365 435
#
# _framework density 23.198725
#
# number of rings (size 3 to 8) (size 9 to 14) (size 15 to 20)
#    0.000    0.533    5.333    3.200    3.733    2.133 
#    0.000    0.667    0.000    0.000    0.000    0.000 
#    0.000    0.000    0.000    0.000    0.000    0.000 
#
# Total GULP energy -167149.199548 kJ/mol
# GULP energy per Si atom -5571.639985 kJ/mol
# Density = 2.314592 g / cm^3
# Si number density = 23.198725 Si / 1000 Ang^3
#
#
#
# Elastic Constant Matrix: (Units=GPa)
#
#
# Indices 1 2 3 4 5 6 
#
# 1 92.6865 9.5414 9.8755 0.0000 -1.7035 0.0000
# 2 9.5414 61.3308 11.6162 0.0000 -6.5538 0.0000
# 3 9.8755 11.6162 28.3350 0.0000 11.6753 0.0000
# 4 0.0000 0.0000 0.0000 29.8566 0.0000 15.4779
# 5 -1.7035 -6.5538 11.6753 0.0000 39.8504 0.0000
# 6 0.0000 0.0000 0.0000 15.4779 0.0000 34.7076
#
#
#
# Elastic Compliance Matrix: (Units=1/GPa)
#
#
# Indices 1 2 3 4 5 6 
#
# 1 0.011358 -0.000778 -0.004307 0.000000 0.001619 0.000000
# 2 -0.000778 0.018957 -0.009976 0.000000 0.006007 0.000000
# 3 -0.004307 -0.009976 0.047351 0.000000 -0.015697 0.000000
# 4 0.000000 0.000000 0.000000 0.043565 0.000000 -0.019428
# 5 0.001619 0.006007 -0.015697 0.000000 0.030750 0.000000
# 6 0.000000 0.000000 0.000000 -0.019428 0.000000 0.037476
#
#
# Mechanical properties :
#
#
# Convention : Reuss Voigt Hill
#
# Bulk Modulus (GPa) = 21.03287 27.15762 24.09524
# Shear Modulus (GPa) = 21.23806 30.97087 26.10447
#
# Velocity S-wave (km/s) = 3.02898 3.65776 3.35812
# Velocity P-wave (km/s) = 4.61725 5.43791 5.04430
#
# Compressibility (1/GPa) = 0.04754463
#
# Stress axis : x y z
#
# Youngs Moduli (GPa) = 88.04527 52.74974 21.11902
#
# Poissons Ratio (x) = 0.04105 0.09095
# Poissons Ratio (y) = 0.06852 0.21068
# Poissons Ratio (z) = 0.37918 0.52622
#
# Static dielectric constant tensor:
#      x y z
#    x 1.890520 0.000000 0.020350 
#    y 0.000000 1.855820 0.000000 
#    z 0.020350 0.000000 1.863130 
# 
# From -- ./inp_files/40051.got.cif
#   From: 2010.05.17/outbox.cif.g08.bks.cpg/sg14_21_cif.got.tgz:40051.got - 2010.06.03 17:49:19.
