data_PCOD9252245
_publ_section_title
;
Structure prediction by ZEFSAII (Michael W. Deem and Ramdas Pophale) SiO2 
 PCOD9252245
Probable space group: P 21/C
;
_chemical_formula_sum "Si O2"
_cell_formula_units_Z 22
_cell_length_a 11.711718
_cell_length_b 5.295240
_cell_length_c 27.201812
_cell_angle_alpha 90.000000
_cell_angle_beta 148.083546
_cell_angle_gamma 90.000000
_cell_volume 891.864158
_symmetry_space_group_name_H-M "P 21/C"
_symmetry_group_IT_number 14
_symmetry_cell_setting 'monoclinic'
loop_
_space_group_symop_operation_xyz
x,y,z
-x,1/2+y,1/2-z
-x,-y,-z
x,1/2-y,1/2+z
loop_
_atom_site_type_symbol
_atom_site_label
_atom_site_fract_x
_atom_site_fract_y
_atom_site_fract_z
Si Si1 0.225981 0.477991 0.648276
Si Si2 0.784053 0.278255 0.020867
Si Si3 0.495365 0.308953 0.327986
Si Si4 0.500000 0.000000 0.000000
Si Si5 0.948460 0.959842 0.204329
Si Si6 0.103376 0.849735 0.677291
O O1 0.327351 0.502932 0.631660
O O2 0.403399 0.360798 0.750038
O O3 0.001143 0.330983 0.574149
O O4 0.177292 0.757238 0.651015
O O5 0.673477 0.092951 0.019656
O O6 0.875675 0.512163 0.086003
O O7 0.611391 0.333418 0.914954
O O8 0.287317 0.473036 0.267071
O O9 0.700271 0.896033 0.105378
O O10 0.034902 0.749930 0.274014
O O11 0.081137 0.892247 0.203905
#
# Coordination Sequence:
#
# PCOD9252245 Si02
#       6
#     4   4   4   2   4   4
#     4  11  23  46  66 104 142 184 250 303 360 464
#     4  11  26  44  71 105 144 190 245 309 377 443
#     4  11  24  45  74 100 143 197 239 305 386 436
#     4  12  26  50  74 114 146 196 258 308 374 468
#     4  12  28  50  78 109 155 204 255 318 383 449
#     4  11  25  46  69 107 146 182 251 312 362 463
#
# _framework density 24.667435000000001
#
# number of rings (size 3 to 8) (size 9 to 14) (size 15 to 20)
#    0.000    0.727    3.636    2.727    5.091    5.091 
#    0.000    0.000    0.000    0.000    0.000    0.000 
#    0.000    0.000    0.000    0.000    0.000    0.000 
#
# Total GULP energy -122594.807349 kJ/mol
# GULP energy per Si atom -5572.491243 kJ/mol
# Density = 2.461129 g / cm^3
# Si number density = 24.667435 Si / 1000 Ang^3
#
#
#
# Elastic Constant Matrix: (Units=GPa)
#
#
# Indices 1 2 3 4 5 6 
#
# 1 40.3870 -15.8781 -1.9096 0.0000 5.4711 0.0000
# 2 -15.8781 25.9421 4.4591 0.0000 0.4291 0.0000
# 3 -1.9096 4.4591 106.3937 0.0000 -4.5941 0.0000
# 4 0.0000 0.0000 0.0000 5.3743 0.0000 -11.4741
# 5 5.4711 0.4291 -4.5941 0.0000 35.3925 0.0000
# 6 0.0000 0.0000 0.0000 -11.4741 0.0000 36.5915
#
#
#
# Elastic Compliance Matrix: (Units=1/GPa)
#
#
# Indices 1 2 3 4 5 6 
#
# 1 0.033652 0.020775 -0.000505 0.000000 -0.005519 0.000000
# 2 0.020775 0.051669 -0.001969 0.000000 -0.004094 0.000000
# 3 -0.000505 -0.001969 0.009530 0.000000 0.001339 0.000000
# 4 0.000000 0.000000 0.000000 0.562954 0.000000 0.176527
# 5 -0.005519 -0.004094 0.001339 0.000000 0.029331 0.000000
# 6 0.000000 0.000000 0.000000 0.176527 0.000000 0.082683
#
#
# Mechanical properties :
#
#
# Convention : Reuss Voigt Hill
#
# Bulk Modulus (GPa) = 7.60730 16.22953 11.91842
# Shear Modulus (GPa) = 6.43472 27.87510 17.15491
#
# Velocity S-wave (km/s) = 1.61686 3.36525 2.63999
# Velocity P-wave (km/s) = 2.56443 4.65763 3.75964
#
# Compressibility (1/GPa) = 0.13145260
#
# Stress axis : x y z
#
# Youngs Moduli (GPa) = 29.71595 19.35393 104.92801
#
# Poissons Ratio (x) = -0.40208 0.05299
# Poissons Ratio (y) = -0.61735 0.20665
# Poissons Ratio (z) = 0.01501 0.03812
#
# Static dielectric constant tensor:
#      x y z
#    x 1.977030 0.000000 -0.006130 
#    y 0.000000 2.007510 0.000000 
#    z -0.006130 0.000000 1.901260 
# 
# From -- ./inp_files/42492.got.cif
#   From: 2010.05.17/outbox.cif.g08.bks.cpg/sg14_22_cif.got.tgz:42492.got - 2010.06.03 17:49:19.
