data_PCOD9252796
_publ_section_title
;
Structure prediction by ZEFSAII (Michael W. Deem and Ramdas Pophale) SiO2 
 PCOD9252796
Probable space group: P 21/C
;
_chemical_formula_sum "Si O2"
_cell_formula_units_Z 22
_cell_length_a 5.044029
_cell_length_b 16.071317
_cell_length_c 11.137051
_cell_angle_alpha 90.000000
_cell_angle_beta 90.271688
_cell_angle_gamma 90.000000
_cell_volume 902.805857
_symmetry_space_group_name_H-M "P 21/C"
_symmetry_group_IT_number 14
_symmetry_cell_setting 'monoclinic'
loop_
_space_group_symop_operation_xyz
x,y,z
-x,1/2+y,1/2-z
-x,-y,-z
x,1/2-y,1/2+z
loop_
_atom_site_type_symbol
_atom_site_label
_atom_site_fract_x
_atom_site_fract_y
_atom_site_fract_z
Si Si1 0.645737 0.717415 0.628893
Si Si2 0.728365 0.418679 0.791070
Si Si3 0.500000 0.500000 0.000000
Si Si4 0.107895 0.140107 0.508672
Si Si5 0.245893 0.032469 0.929168
Si Si6 0.151967 0.758620 0.285341
O O1 0.687098 0.787653 0.528730
O O2 0.741778 0.630923 0.577379
O O3 0.357095 0.705759 0.686678
O O4 0.855446 0.744422 0.731321
O O5 0.478197 0.446784 0.871535
O O6 0.782423 0.493058 0.701751
O O7 0.731625 0.335528 0.706115
O O8 0.928462 0.392526 0.898257
O O9 0.273701 0.437866 0.057658
O O10 0.894324 0.181791 0.600431
O O11 0.500000 0.000000 0.000000
O O12 0.000000 0.000000 0.000000
#
# Coordination Sequence:
#
# PCOD9252796 Si02
#       6
#     4   4   2   4   4   4
#     4  11  25  48  72 111 152 207 265 324 407 487
#     4  11  27  47  76 116 158 207 272 329 408 485
#     4  12  24  46  76 120 156 204 268 350 398 478
#     4  11  26  46  78 112 164 210 270 338 406 485
#     4  12  28  48  77 109 157 210 265 329 399 489
#     4  11  25  46  76 110 158 210 261 324 409 484
#
# _framework density 24.368473000000002
#
# number of rings (size 3 to 8) (size 9 to 14) (size 15 to 20)
#    0.000    0.727    1.818    3.818    7.636    2.909 
#    0.000    0.000    0.000    0.000    0.000    0.000 
#    0.000    0.000    0.000    0.000    0.000    0.000 
#
# Total GULP energy -122527.882585 kJ/mol
# GULP energy per Si atom -5569.449208 kJ/mol
# Density = 2.431301 g / cm^3
# Si number density = 24.368473 Si / 1000 Ang^3
#
#
#
# Elastic Constant Matrix: (Units=GPa)
#
#
# Indices 1 2 3 4 5 6 
#
# 1 82.9240 9.3333 38.8801 0.0000 -32.9507 0.0000
# 2 9.3333 153.0639 45.4405 0.0000 -16.0823 0.0000
# 3 38.8801 45.4405 129.7220 0.0000 -43.8003 0.0000
# 4 0.0000 0.0000 0.0000 16.6444 0.0000 -0.6871
# 5 -32.9507 -16.0823 -43.8003 0.0000 39.8793 0.0000
# 6 0.0000 0.0000 0.0000 -0.6871 0.0000 32.8862
#
#
#
# Elastic Compliance Matrix: (Units=1/GPa)
#
#
# Indices 1 2 3 4 5 6 
#
# 1 0.018039 0.000641 -0.000813 0.000000 0.014271 0.000000
# 2 0.000641 0.007315 -0.002511 0.000000 0.000722 0.000000
# 3 -0.000813 -0.002511 0.013134 0.000000 0.012741 0.000000
# 4 0.000000 0.000000 0.000000 0.060132 0.000000 0.001256
# 5 0.014271 0.000722 0.012741 0.000000 0.051152 0.000000
# 6 0.000000 0.000000 0.000000 0.001256 0.000000 0.030434
#
#
# Mechanical properties :
#
#
# Convention : Reuss Voigt Hill
#
# Bulk Modulus (GPa) = 30.19088 61.44641 45.81865
# Shear Modulus (GPa) = 25.43075 36.01906 30.72490
#
# Velocity S-wave (km/s) = 3.23397 3.84878 3.55469
# Velocity P-wave (km/s) = 5.13429 6.70977 5.97420
#
# Compressibility (1/GPa) = 0.03312259
#
# Stress axis : x y z
#
# Youngs Moduli (GPa) = 55.43658 136.69813 76.13870
#
# Poissons Ratio (x) = -0.08758 0.06186
# Poissons Ratio (y) = -0.03552 0.19117
# Poissons Ratio (z) = 0.04504 0.34323
#
# Static dielectric constant tensor:
#      x y z
#    x 2.038600 0.000000 -0.290930 
#    y 0.000000 1.894290 0.000000 
#    z -0.290930 0.000000 2.796950 
# 
# From -- ./inp_files/20802.got.cif
#   From: 2010.05.17/outbox.cif.g08.bks.cpg/sg14_11_cif.got.tgz:20802.got - 2010.06.03 17:49:19.
