data_PCOD9252160
_publ_section_title
;
Structure prediction by ZEFSAII (Michael W. Deem and Ramdas Pophale) SiO2 
 PCOD9252160
Probable space group: P 21/C
;
_chemical_formula_sum "Si O2"
_cell_formula_units_Z 28
_cell_length_a 9.831467
_cell_length_b 20.616992
_cell_length_c 9.614616
_cell_angle_alpha 90.000000
_cell_angle_beta 137.250731
_cell_angle_gamma 90.000000
_cell_volume 1322.853919
_symmetry_space_group_name_H-M "P 21/C"
_symmetry_group_IT_number 14
_symmetry_cell_setting 'monoclinic'
loop_
_space_group_symop_operation_xyz
x,y,z
-x,1/2+y,1/2-z
-x,-y,-z
x,1/2-y,1/2+z
loop_
_atom_site_type_symbol
_atom_site_label
_atom_site_fract_x
_atom_site_fract_y
_atom_site_fract_z
Si Si1 0.125363 0.353346 0.134392
Si Si2 0.416748 0.463107 0.072130
Si Si3 0.207811 0.332603 0.881104
Si Si4 0.804548 0.455804 0.863958
Si Si5 0.539626 0.102446 0.934464
Si Si6 0.401594 0.748187 0.397701
Si Si7 0.122467 0.744027 0.922934
O O1 0.303545 0.403202 0.296975
O O2 0.078729 0.298512 0.209209
O O3 0.184373 0.322369 0.030481
O O4 0.910454 0.386907 0.966351
O O5 0.323773 0.517092 0.104915
O O6 0.552669 0.419418 0.282405
O O7 0.500000 0.500000 0.000000
O O8 0.256808 0.408825 0.902852
O O9 0.986845 0.314060 0.660741
O O10 0.398743 0.291711 0.967591
O O11 0.673731 0.443834 0.628942
O O12 0.000000 0.500000 0.000000
O O13 0.570742 0.177924 0.004179
O O14 0.232581 0.779287 0.367959
O O15 0.291453 0.740538 0.167806
#
# Coordination Sequence:
#
# PCOD9252160 Si02
#       7
#     4   4   4   4   4   4   4
#     4  11  23  44  69 101 139 180 240 289 348 434
#     4  11  27  48  69 106 150 187 241 300 358 426
#     4  11  24  45  69 102 144 179 227 307 356 418
#     4  12  23  45  78  98 137 197 243 283 351 444
#     4  11  23  46  74  98 139 189 241 293 360 427
#     4  12  26  41  72 103 139 181 234 300 366 422
#     4  12  23  43  67 103 135 179 233 288 363 428
#
# _framework density 21.166357000000001
#
# number of rings (size 3 to 8) (size 9 to 14) (size 15 to 20)
#    0.000    0.571    7.143    2.143    2.000    0.000 
#    2.571    0.714    0.000    0.000    0.000    0.000 
#    0.000    0.000    0.000    0.000    0.000    0.000 
#
# Total GULP energy -155965.259396 kJ/mol
# GULP energy per Si atom -5570.187836 kJ/mol
# Density = 2.111818 g / cm^3
# Si number density = 21.166357 Si / 1000 Ang^3
#
#
#
# Elastic Constant Matrix: (Units=GPa)
#
#
# Indices 1 2 3 4 5 6 
#
# 1 116.3774 36.4073 3.4508 0.0000 -10.9625 0.0000
# 2 36.4073 56.6741 24.9092 0.0000 -3.4873 0.0000
# 3 3.4508 24.9092 80.1099 0.0000 8.6727 0.0000
# 4 0.0000 0.0000 0.0000 44.8988 0.0000 9.1824
# 5 -10.9625 -3.4873 8.6727 0.0000 26.6250 0.0000
# 6 0.0000 0.0000 0.0000 9.1824 0.0000 36.0697
#
#
#
# Elastic Compliance Matrix: (Units=1/GPa)
#
#
# Indices 1 2 3 4 5 6 
#
# 1 0.011259 -0.007738 0.001585 0.000000 0.003106 0.000000
# 2 -0.007738 0.026398 -0.008193 0.000000 0.002940 0.000000
# 3 0.001585 -0.008193 0.015556 0.000000 -0.005488 0.000000
# 4 0.000000 0.000000 0.000000 0.023496 0.000000 -0.005981
# 5 0.003106 0.002940 -0.005488 0.000000 0.041010 0.000000
# 6 0.000000 0.000000 0.000000 -0.005981 0.000000 0.029247
#
#
# Mechanical properties :
#
#
# Convention : Reuss Voigt Hill
#
# Bulk Modulus (GPa) = 40.78272 42.52176 41.65224
# Shear Modulus (GPa) = 27.19876 34.07832 30.63854
#
# Velocity S-wave (km/s) = 3.58858 4.01686 3.80874
# Velocity P-wave (km/s) = 6.03987 6.45341 6.25006
#
# Compressibility (1/GPa) = 0.02452019
#
# Stress axis : x y z
#
# Youngs Moduli (GPa) = 88.81666 37.88208 64.28301
#
# Poissons Ratio (x) = 0.29314 -0.10188
# Poissons Ratio (y) = 0.68729 0.52667
# Poissons Ratio (z) = -0.14076 0.31037
#
# Static dielectric constant tensor:
#      x y z
#    x 1.792140 0.000000 0.057460 
#    y 0.000000 2.152150 0.000000 
#    z 0.057460 0.000000 1.852490 
# 
# From -- ./inp_files/10427.got.cif
#   From: 2010.05.17/outbox.cif.g08.bks.cpg/sg14_6_cif.got.tgz:10427.got - 2010.06.03 17:49:19.
