data_PCOD9252454
_publ_section_title
;
Structure prediction by ZEFSAII (Michael W. Deem and Ramdas Pophale) SiO2 
 PCOD9252454
Probable space group: P 21/C
;
_chemical_formula_sum "Si O2"
_cell_formula_units_Z 24
_cell_length_a 18.262458
_cell_length_b 5.240849
_cell_length_c 10.376871
_cell_angle_alpha 90.000000
_cell_angle_beta 117.239973
_cell_angle_gamma 90.000000
_cell_volume 883.032251
_symmetry_space_group_name_H-M "P 21/C"
_symmetry_group_IT_number 14
_symmetry_cell_setting 'monoclinic'
loop_
_space_group_symop_operation_xyz
x,y,z
-x,1/2+y,1/2-z
-x,-y,-z
x,1/2-y,1/2+z
loop_
_atom_site_type_symbol
_atom_site_label
_atom_site_fract_x
_atom_site_fract_y
_atom_site_fract_z
Si Si1 0.836660 0.285919 0.409629
Si Si2 0.806976 0.783755 0.240678
Si Si3 0.458970 0.640054 0.822667
Si Si4 0.045493 0.054463 0.819549
Si Si5 0.695923 0.512359 0.453557
Si Si6 0.599701 0.853446 0.225518
O O1 0.806470 0.487971 0.277603
O O2 0.921618 0.410469 0.526889
O O3 0.768188 0.326994 0.464953
O O4 0.838126 0.994617 0.368337
O O5 0.875115 0.820894 0.184303
O O6 0.720697 0.882170 0.111711
O O7 0.389677 0.621629 0.648778
O O8 0.438616 0.383291 0.882920
O O9 0.423501 0.888236 0.861621
O O10 0.543109 0.641325 0.811604
O O11 0.987775 0.304979 0.786569
O O12 0.687088 0.758534 0.349862
#
# Coordination Sequence:
#
# PCOD9252454 Si02
#       6
#     4   4   4   4   4   4
#     4  11  25  40  60  92 121 151 192 236 288 349
#     4  11  25  40  60  92 121 151 192 236 288 349
#     4   8  15  28  53  82 103 151 201 235 287 334
#     4  11  24  44  68  89 116 154 190 233 288 344
#     4   9  22  36  62  79 122 158 194 237 298 340
#     4   8  15  28  53  82 103 151 201 235 287 334
#
# _framework density 27.179074
#
# number of rings (size 3 to 8) (size 9 to 14) (size 15 to 20)
#    1.000    1.333    0.000    2.000    4.667    6.667 
#    0.000    0.000    0.000    6.000    0.000    0.000 
#    0.000    0.000    0.000    0.000    0.000    0.000 
#
# Total GULP energy -134000.501516 kJ/mol
# GULP energy per Si atom -5583.354230 kJ/mol
# Density = 2.711721 g / cm^3
# Si number density = 27.179074 Si / 1000 Ang^3
#
#
#
# Elastic Constant Matrix: (Units=GPa)
#
#
# Indices 1 2 3 4 5 6 
#
# 1 44.0294 -3.0950 -2.8760 0.0000 7.0351 0.0000
# 2 -3.0950 165.0640 -2.1890 0.0000 3.2307 0.0000
# 3 -2.8760 -2.1890 59.5069 0.0000 -1.1388 0.0000
# 4 0.0000 0.0000 0.0000 42.5808 0.0000 5.6028
# 5 7.0351 3.2307 -1.1388 0.0000 31.1218 0.0000
# 6 0.0000 0.0000 0.0000 5.6028 0.0000 26.5175
#
#
#
# Elastic Compliance Matrix: (Units=1/GPa)
#
#
# Indices 1 2 3 4 5 6 
#
# 1 0.023679 0.000563 0.001062 0.000000 -0.005372 0.000000
# 2 0.000563 0.006087 0.000237 0.000000 -0.000751 0.000000
# 3 0.001062 0.000237 0.016872 0.000000 0.000353 0.000000
# 4 0.000000 0.000000 0.000000 0.024156 0.000000 -0.005104
# 5 -0.005372 -0.000751 0.000353 0.000000 0.033437 0.000000
# 6 0.000000 0.000000 0.000000 -0.005104 0.000000 0.038789
#
#
# Mechanical properties :
#
#
# Convention : Reuss Voigt Hill
#
# Bulk Modulus (GPa) = 19.85609 28.03114 23.94362
# Shear Modulus (GPa) = 32.03419 38.49470 35.26444
#
# Velocity S-wave (km/s) = 3.43685 3.76751 3.60597
# Velocity P-wave (km/s) = 4.80320 5.40938 5.11528
#
# Compressibility (1/GPa) = 0.05036238
#
# Stress axis : x y z
#
# Youngs Moduli (GPa) = 42.23068 164.29405 59.27131
#
# Poissons Ratio (x) = -0.09254 -0.06297
# Poissons Ratio (y) = -0.02379 -0.01403
# Poissons Ratio (z) = -0.04486 -0.03890
#
# Static dielectric constant tensor:
#      x y z
#    x 2.122430 0.000000 0.016560 
#    y 0.000000 2.212410 0.000000 
#    z 0.016560 0.000000 2.210730 
# 
# From -- ./inp_files/35547.got.cif
#   From: 2010.05.17/outbox.cif.g08.bks.cpg/sg14_18_cif.got.tgz:35547.got - 2010.06.03 17:49:19.
