data_PCOD9252704
_publ_section_title
;
Structure prediction by ZEFSAII (Michael W. Deem and Ramdas Pophale) SiO2 
 PCOD9252704
Probable space group: P 21/C
;
_chemical_formula_sum "Si O2"
_cell_formula_units_Z 20
_cell_length_a 8.720776
_cell_length_b 9.222052
_cell_length_c 21.647924
_cell_angle_alpha 90.000000
_cell_angle_beta 25.202226
_cell_angle_gamma 90.000000
_cell_volume 741.343258
_symmetry_space_group_name_H-M "P 21/C"
_symmetry_group_IT_number 14
_symmetry_cell_setting 'monoclinic'
loop_
_space_group_symop_operation_xyz
x,y,z
-x,1/2+y,1/2-z
-x,-y,-z
x,1/2-y,1/2+z
loop_
_atom_site_type_symbol
_atom_site_label
_atom_site_fract_x
_atom_site_fract_y
_atom_site_fract_z
Si Si1 0.852131 0.051146 0.439587
Si Si2 0.738920 0.359893 0.786071
Si Si3 0.206682 0.553495 0.687880
Si Si4 0.460682 0.785264 0.775517
Si Si5 0.839895 0.150504 0.985705
O O1 0.625963 0.942089 0.562923
O O2 0.680217 0.212634 0.505549
O O3 0.927087 0.994934 0.343753
O O4 0.242482 0.086472 0.326208
O O5 0.720997 0.293281 0.724407
O O6 0.056155 0.474813 0.682313
O O7 0.784539 0.224991 0.815749
O O8 0.590010 0.486767 0.567198
O O9 0.196985 0.802530 0.929065
O O10 0.736291 0.649276 0.683222
#
# Coordination Sequence:
#
# PCOD9252704 Si02
#       5
#     4   4   4   4   4
#     4   9  22  47  70  93 141 183 224 290 345 407
#     4  12  24  42  68 103 137 186 229 286 348 406
#     4  11  25  44  68 103 143 181 233 288 345 418
#     4   9  22  41  79  99 138 177 236 283 352 404
#     4   9  21  47  71 106 132 184 224 295 344 418
#
# _framework density 26.978057
#
# number of rings (size 3 to 8) (size 9 to 14) (size 15 to 20)
#    1.200    0.800    0.000    2.400    2.800    2.400 
#    3.600    2.000    0.000    0.000    0.000    0.000 
#    0.000    0.000    0.000    0.000    0.000    0.000 
#
# Total GULP energy -112155.234171 kJ/mol
# GULP energy per Si atom -5607.761709 kJ/mol
# Density = 2.691665 g / cm^3
# Si number density = 26.978057 Si / 1000 Ang^3
#
#
#
# Elastic Constant Matrix: (Units=GPa)
#
#
# Indices 1 2 3 4 5 6 
#
# 1 107.1819 1.1520 15.0308 0.0000 10.1172 0.0000
# 2 1.1520 108.4551 27.7159 0.0000 -8.4809 0.0000
# 3 15.0308 27.7159 64.5013 0.0000 18.5566 0.0000
# 4 0.0000 0.0000 0.0000 47.5142 0.0000 -14.7710
# 5 10.1172 -8.4809 18.5566 0.0000 41.3917 0.0000
# 6 0.0000 0.0000 0.0000 -14.7710 0.0000 39.1712
#
#
#
# Elastic Compliance Matrix: (Units=1/GPa)
#
#
# Indices 1 2 3 4 5 6 
#
# 1 0.009740 0.000291 -0.001983 0.000000 -0.001432 0.000000
# 2 0.000291 0.011240 -0.006360 0.000000 0.005083 0.000000
# 3 -0.001983 -0.006360 0.021738 0.000000 -0.010564 0.000000
# 4 0.000000 0.000000 0.000000 0.023841 0.000000 0.008990
# 5 -0.001432 0.005083 -0.010564 0.000000 0.030287 0.000000
# 6 0.000000 0.000000 0.000000 0.008990 0.000000 0.028919
#
#
# Mechanical properties :
#
#
# Convention : Reuss Voigt Hill
#
# Bulk Modulus (GPa) = 37.57356 40.88173 39.22765
# Shear Modulus (GPa) = 33.16969 41.36472 37.26721
#
# Velocity S-wave (km/s) = 3.51024 3.91995 3.72074
# Velocity P-wave (km/s) = 5.51241 5.97282 5.74723
#
# Compressibility (1/GPa) = 0.02661446
#
# Stress axis : x y z
#
# Youngs Moduli (GPa) = 102.66880 88.96682 46.00299
#
# Poissons Ratio (x) = -0.02592 0.09122
# Poissons Ratio (y) = -0.02991 0.29258
# Poissons Ratio (z) = 0.20358 0.56584
#
# Static dielectric constant tensor:
#      x y z
#    x 2.087130 0.000000 -0.003730 
#    y 0.000000 2.143630 0.000000 
#    z -0.003730 0.000000 2.072220 
# 
# From -- ./inp_files/72049.got.cif
#   From: 2010.05.17/outbox.cif.g08.bks.cpg/sg14_37_cif.got.tgz:72049.got - 2010.06.03 17:49:19.
