data_PCOD9252495
_publ_section_title
;
Structure prediction by ZEFSAII (Michael W. Deem and Ramdas Pophale) SiO2 
 PCOD9252495
Probable space group: P 21/C
;
_chemical_formula_sum "Si O2"
_cell_formula_units_Z 20
_cell_length_a 5.759695
_cell_length_b 28.094671
_cell_length_c 5.414414
_cell_angle_alpha 90.000000
_cell_angle_beta 99.750012
_cell_angle_gamma 90.000000
_cell_volume 863.487815
_symmetry_space_group_name_H-M "P 21/C"
_symmetry_group_IT_number 14
_symmetry_cell_setting 'monoclinic'
loop_
_space_group_symop_operation_xyz
x,y,z
-x,1/2+y,1/2-z
-x,-y,-z
x,1/2-y,1/2+z
loop_
_atom_site_type_symbol
_atom_site_label
_atom_site_fract_x
_atom_site_fract_y
_atom_site_fract_z
Si Si1 0.506296 0.835746 0.377683
Si Si2 0.554983 0.893487 0.892814
Si Si3 0.010953 0.719178 0.902395
Si Si4 0.703610 0.027612 0.409018
Si Si5 0.030589 0.452979 0.342205
O O1 0.561861 0.866996 0.631915
O O2 0.257873 0.809934 0.405993
O O3 0.753489 0.807023 0.366897
O O4 0.472465 0.862588 0.109835
O O5 0.383310 0.939108 0.827681
O O6 0.815405 0.913672 0.999539
O O7 0.016337 0.754122 0.666827
O O8 0.809135 0.061917 0.640163
O O9 0.500000 0.000000 0.500000
O O10 0.832007 0.979472 0.350031
O O11 0.000000 0.500000 0.500000
#
# Coordination Sequence:
#
# PCOD9252495 Si02
#       5
#     4   4   4   4   4
#     4  12  29  48  78 121 150 194 240 315 389 440
#     4  12  27  46  69 110 158 191 255 325 372 436
#     4  12  26  54  85 112 150 192 242 294 377 490
#     4  11  24  45  64  99 139 208 262 306 363 431
#     4  11  25  41  70  94 143 205 267 303 366 427
#
# _framework density 23.161881000000001
#
# number of rings (size 3 to 8) (size 9 to 14) (size 15 to 20)
#    0.000    0.400    2.000    5.400    8.400    0.000 
#    0.000    0.000    0.000    0.000    0.000    0.000 
#    0.000    0.000    0.000    0.000    0.000    0.000 
#
# Total GULP energy -111443.742141 kJ/mol
# GULP energy per Si atom -5572.187107 kJ/mol
# Density = 2.310916 g / cm^3
# Si number density = 23.161881 Si / 1000 Ang^3
#
#
#
# Elastic Constant Matrix: (Units=GPa)
#
#
# Indices 1 2 3 4 5 6 
#
# 1 100.2460 35.6686 17.7297 0.0000 6.1504 0.0000
# 2 35.6686 61.7136 23.4258 0.0000 5.3233 0.0000
# 3 17.7297 23.4258 116.3183 0.0000 5.1841 0.0000
# 4 0.0000 0.0000 0.0000 72.5379 0.0000 -2.5793
# 5 6.1504 5.3233 5.1841 0.0000 48.3354 0.0000
# 6 0.0000 0.0000 0.0000 -2.5793 0.0000 54.5994
#
#
#
# Elastic Compliance Matrix: (Units=1/GPa)
#
#
# Indices 1 2 3 4 5 6 
#
# 1 0.012613 -0.007045 -0.000469 0.000000 -0.000779 0.000000
# 2 -0.007045 0.021598 -0.003225 0.000000 -0.001136 0.000000
# 3 -0.000469 -0.003225 0.009344 0.000000 -0.000587 0.000000
# 4 0.000000 0.000000 0.000000 0.013809 0.000000 0.000652
# 5 -0.000779 -0.001136 -0.000587 0.000000 0.020976 0.000000
# 6 0.000000 0.000000 0.000000 0.000652 0.000000 0.018346
#
#
# Mechanical properties :
#
#
# Convention : Reuss Voigt Hill
#
# Bulk Modulus (GPa) = 45.29589 47.99179 46.64384
# Shear Modulus (GPa) = 39.83349 48.52481 44.17915
#
# Velocity S-wave (km/s) = 4.15153 4.58211 4.37213
# Velocity P-wave (km/s) = 6.52525 6.98280 6.75790
#
# Compressibility (1/GPa) = 0.02207706
#
# Stress axis : x y z
#
# Youngs Moduli (GPa) = 79.28506 46.30125 107.01698
#
# Poissons Ratio (x) = 0.32617 0.05020
# Poissons Ratio (y) = 0.55853 0.34516
# Poissons Ratio (z) = 0.03719 0.14933
#
# Static dielectric constant tensor:
#      x y z
#    x 1.797230 0.000000 0.022640 
#    y 0.000000 1.926550 0.000000 
#    z 0.022640 0.000000 2.180950 
# 
# From -- ./inp_files/624.got.cif
#   From: 2010.05.17/outbox.cif.g08.bks.cpg/sg14_1_cif.got.tgz:624.got - 2010.06.03 17:49:19.
