data_PCOD9252849
_publ_section_title
;
Structure prediction by ZEFSAII (Michael W. Deem and Ramdas Pophale) SiO2 
 PCOD9252849
Probable space group: P 21/C
;
_chemical_formula_sum "Si O2"
_cell_formula_units_Z 20
_cell_length_a 20.656951
_cell_length_b 7.819035
_cell_length_c 12.866266
_cell_angle_alpha 90.000000
_cell_angle_beta 26.653330
_cell_angle_gamma 90.000000
_cell_volume 932.229006
_symmetry_space_group_name_H-M "P 21/C"
_symmetry_group_IT_number 14
_symmetry_cell_setting 'monoclinic'
loop_
_space_group_symop_operation_xyz
x,y,z
-x,1/2+y,1/2-z
-x,-y,-z
x,1/2-y,1/2+z
loop_
_atom_site_type_symbol
_atom_site_label
_atom_site_fract_x
_atom_site_fract_y
_atom_site_fract_z
Si Si1 0.675404 0.874905 0.678813
Si Si2 0.056706 0.536454 0.304389
Si Si3 0.230571 0.476861 0.407938
Si Si4 0.358073 0.806475 0.118735
Si Si5 0.138706 0.595219 0.751406
O O1 0.716262 0.714113 0.692700
O O2 0.805250 0.920131 0.415890
O O3 0.660875 0.045799 0.768116
O O4 0.523185 0.826706 0.845478
O O5 0.093089 0.736528 0.252487
O O6 0.000000 0.500000 0.500000
O O7 0.931249 0.499841 0.402408
O O8 0.326277 0.624060 0.217918
O O9 0.223039 0.486139 0.543881
O O10 0.244102 0.842402 0.191499
O O11 0.000000 0.500000 0.000000
#
# Coordination Sequence:
#
# PCOD9252849 Si02
#       5
#     4   4   4   4   4
#     4  11  26  45  71 104 139 186 230 290 351 417
#     4  12  23  43  71 100 139 177 233 289 340 410
#     4  12  24  45  73 101 141 183 236 287 354 417
#     4  11  25  49  68 100 146 181 235 288 348 419
#     4  12  25  43  72 106 138 186 238 288 349 422
#
# _framework density 21.453956999999999
#
# number of rings (size 3 to 8) (size 9 to 14) (size 15 to 20)
#    0.000    0.400    4.000    5.400    0.000    1.600 
#    3.600    0.000    0.000    0.000    0.000    0.000 
#    0.000    0.000    0.000    0.000    0.000    0.000 
#
# Total GULP energy -111888.949867 kJ/mol
# GULP energy per Si atom -5594.447493 kJ/mol
# Density = 2.140513 g / cm^3
# Si number density = 21.453957 Si / 1000 Ang^3
#
#
#
# Elastic Constant Matrix: (Units=GPa)
#
#
# Indices 1 2 3 4 5 6 
#
# 1 77.3939 11.2611 41.4890 0.0000 -11.6112 0.0000
# 2 11.2611 143.5108 49.0375 0.0000 -12.1799 0.0000
# 3 41.4890 49.0375 115.5342 0.0000 -28.1643 0.0000
# 4 0.0000 0.0000 0.0000 34.2975 0.0000 -2.2438
# 5 -11.6112 -12.1799 -28.1643 0.0000 26.9276 0.0000
# 6 0.0000 0.0000 0.0000 -2.2438 0.0000 34.1162
#
#
#
# Elastic Compliance Matrix: (Units=1/GPa)
#
#
# Indices 1 2 3 4 5 6 
#
# 1 0.016115 0.000836 -0.005846 0.000000 0.001212 0.000000
# 2 0.000836 0.008194 -0.003740 0.000000 0.000155 0.000000
# 3 -0.005846 -0.003740 0.015188 0.000000 0.011673 0.000000
# 4 0.000000 0.000000 0.000000 0.029283 0.000000 0.001926
# 5 0.001212 0.000155 0.011673 0.000000 0.049938 0.000000
# 6 0.000000 0.000000 0.000000 0.001926 0.000000 0.029438
#
#
# Mechanical properties :
#
#
# Convention : Reuss Voigt Hill
#
# Bulk Modulus (GPa) = 45.46371 60.00158 52.73265
# Shear Modulus (GPa) = 28.90355 34.71167 31.80761
#
# Velocity S-wave (km/s) = 3.67445 4.02675 3.85463
# Velocity P-wave (km/s) = 6.26414 7.04613 6.66661
#
# Compressibility (1/GPa) = 0.02199556
#
# Stress axis : x y z
#
# Youngs Moduli (GPa) = 62.05297 122.04515 65.84142
#
# Poissons Ratio (x) = -0.10204 0.38494
# Poissons Ratio (y) = -0.05188 0.24627
# Poissons Ratio (z) = 0.36279 0.45648
#
# Static dielectric constant tensor:
#      x y z
#    x 1.750700 0.000000 0.003430 
#    y 0.000000 2.146620 0.000000 
#    z 0.003430 0.000000 1.833220 
# 
# From -- ./inp_files/27879.got.cif
#   From: 2010.05.17/outbox.cif.g08.bks.cpg/sg14_14_cif.got.tgz:27879.got - 2010.06.03 17:49:19.
