data_PCOD9252873
_publ_section_title
;
Structure prediction by ZEFSAII (Michael W. Deem and Ramdas Pophale) SiO2 
 PCOD9252873
Probable space group: P 21/C
;
_chemical_formula_sum "Si O2"
_cell_formula_units_Z 22
_cell_length_a 17.663356
_cell_length_b 4.939345
_cell_length_c 28.916795
_cell_angle_alpha 90.000000
_cell_angle_beta 20.467802
_cell_angle_gamma 90.000000
_cell_volume 882.195253
_symmetry_space_group_name_H-M "P 21/C"
_symmetry_group_IT_number 14
_symmetry_cell_setting 'monoclinic'
loop_
_space_group_symop_operation_xyz
x,y,z
-x,1/2+y,1/2-z
-x,-y,-z
x,1/2-y,1/2+z
loop_
_atom_site_type_symbol
_atom_site_label
_atom_site_fract_x
_atom_site_fract_y
_atom_site_fract_z
Si Si1 0.095248 0.575560 0.842061
Si Si2 0.000000 0.000000 0.500000
Si Si3 0.012695 0.430316 0.276144
Si Si4 0.672031 0.912865 0.322172
Si Si5 0.451389 0.695001 0.247797
Si Si6 0.284323 0.305505 0.999028
O O1 0.165159 0.886727 0.798897
O O2 0.299568 0.383621 0.715567
O O3 0.982861 0.495940 0.953509
O O4 0.927396 0.528743 0.896359
O O5 0.789017 0.203596 0.624717
O O6 0.816584 0.537704 0.420638
O O7 0.965754 0.162811 0.274631
O O8 0.231252 0.412908 0.181753
O O9 0.440928 0.041780 0.444705
O O10 0.450332 0.389397 0.268180
O O11 0.586282 0.730547 0.123404
#
# Coordination Sequence:
#
# PCOD9252873 Si02
#       6
#     4   2   4   4   4   4
#     4  11  26  42  69 108 145 192 240 295 341 436
#     4  12  26  44  74 106 154 196 246 294 350 428
#     4  11  26  48  74 107 142 185 247 311 367 440
#     4  11  26  46  73 103 143 187 237 298 374 422
#     4  12  29  46  73 112 151 199 245 291 357 438
#     4  11  26  49  74 106 148 195 240 301 372 432
#
# _framework density 24.937791000000001
#
# number of rings (size 3 to 8) (size 9 to 14) (size 15 to 20)
#    0.000    0.727    3.636    2.182    7.636    8.727 
#    0.000    0.000    0.000    0.000    0.000    0.000 
#    0.000    0.000    0.000    0.000    0.000    0.000 
#
# Total GULP energy -122817.363029 kJ/mol
# GULP energy per Si atom -5582.607410 kJ/mol
# Density = 2.488103 g / cm^3
# Si number density = 24.937791 Si / 1000 Ang^3
#
#
#
# Elastic Constant Matrix: (Units=GPa)
#
#
# Indices 1 2 3 4 5 6 
#
# 1 133.7458 31.2599 17.8281 0.0000 7.6466 0.0000
# 2 31.2599 66.3103 16.5551 0.0000 13.1440 0.0000
# 3 17.8281 16.5551 56.0007 0.0000 -3.3772 0.0000
# 4 0.0000 0.0000 0.0000 37.0217 0.0000 -3.7154
# 5 7.6466 13.1440 -3.3772 0.0000 50.4705 0.0000
# 6 0.0000 0.0000 0.0000 -3.7154 0.0000 10.0146
#
#
#
# Elastic Compliance Matrix: (Units=1/GPa)
#
#
# Indices 1 2 3 4 5 6 
#
# 1 0.008553 -0.003505 -0.001717 0.000000 -0.000498 0.000000
# 2 -0.003505 0.018846 -0.004739 0.000000 -0.004694 0.000000
# 3 -0.001717 -0.004739 0.019975 0.000000 0.002831 0.000000
# 4 0.000000 0.000000 0.000000 0.028056 0.000000 0.010409
# 5 -0.000498 -0.004694 0.002831 0.000000 0.021301 0.000000
# 6 0.000000 0.000000 0.000000 0.010409 0.000000 0.103715
#
#
# Mechanical properties :
#
#
# Convention : Reuss Voigt Hill
#
# Bulk Modulus (GPa) = 36.42473 43.03811 39.73142
# Shear Modulus (GPa) = 21.78465 32.19562 26.99013
#
# Velocity S-wave (km/s) = 2.95881 3.59700 3.29340
# Velocity P-wave (km/s) = 5.12939 5.87766 5.51623
#
# Compressibility (1/GPa) = 0.02745388
#
# Stress axis : x y z
#
# Youngs Moduli (GPa) = 116.91280 53.06046 50.06231
#
# Poissons Ratio (x) = 0.18597 0.08595
# Poissons Ratio (y) = 0.40976 0.23723
# Poissons Ratio (z) = 0.20073 0.25144
#
# Static dielectric constant tensor:
#      x y z
#    x 1.959520 0.000000 -0.044010 
#    y 0.000000 1.931730 0.000000 
#    z -0.044010 0.000000 1.967130 
# 
# From -- ./inp_files/80271.got.cif
#   From: 2010.05.17/outbox.cif.g08.bks.cpg/sg14_41_cif.got.tgz:80271.got - 2010.06.03 17:49:19.
