data_PCOD9252461
_publ_section_title
;
Structure prediction by ZEFSAII (Michael W. Deem and Ramdas Pophale) SiO2 
 PCOD9252461
Probable space group: P 21/C
;
_chemical_formula_sum "Si O2"
_cell_formula_units_Z 28
_cell_length_a 13.643602
_cell_length_b 9.157739
_cell_length_c 18.422016
_cell_angle_alpha 90.000000
_cell_angle_beta 35.950313
_cell_angle_gamma 90.000000
_cell_volume 1351.307842
_symmetry_space_group_name_H-M "P 21/C"
_symmetry_group_IT_number 14
_symmetry_cell_setting 'monoclinic'
loop_
_space_group_symop_operation_xyz
x,y,z
-x,1/2+y,1/2-z
-x,-y,-z
x,1/2-y,1/2+z
loop_
_atom_site_type_symbol
_atom_site_label
_atom_site_fract_x
_atom_site_fract_y
_atom_site_fract_z
Si Si1 0.977726 0.856432 0.965593
Si Si2 0.550627 0.028642 0.635650
Si Si3 0.493577 0.985220 0.089755
Si Si4 0.685133 0.312957 0.802167
Si Si5 0.879891 0.027976 0.880243
Si Si6 0.854629 0.353649 0.859775
Si Si7 0.347832 0.185899 0.295003
O O1 0.157735 0.786056 0.844707
O O2 0.929478 0.927404 0.917768
O O3 0.837268 0.748203 0.079660
O O4 0.000000 0.000000 0.000000
O O5 0.414159 0.957286 0.662979
O O6 0.593608 0.916739 0.674161
O O7 0.718620 0.069904 0.492263
O O8 0.468124 0.174037 0.717483
O O9 0.439807 0.819922 0.134643
O O10 0.372802 0.094269 0.205855
O O11 0.500000 0.000000 0.000000
O O12 0.681417 0.018033 0.999624
O O13 0.757145 0.321656 0.841377
O O14 0.915721 0.200707 0.857412
O O15 0.986502 0.956619 0.751122
#
# Coordination Sequence:
#
# PCOD9252461 Si02
#       7
#     4   4   4   4   4   4   4
#     4  11  25  45  68 100 144 180 231 287 348 413
#     4  12  24  44  71 100 140 180 237 282 351 420
#     4  12  25  46  71 101 141 176 239 291 347 420
#     4  11  24  44  69 101 138 185 233 290 344 414
#     4  11  25  46  68 102 139 181 232 288 348 410
#     4  11  26  44  71 101 137 186 232 286 354 409
#     4  12  26  43  72 104 136 190 224 289 355 413
#
# _framework density 20.720666000000001
#
# number of rings (size 3 to 8) (size 9 to 14) (size 15 to 20)
#    0.000    0.571    4.286    3.000    6.000    2.857 
#    0.000    0.000    0.000    0.000    0.000    0.000 
#    0.000    0.000    0.000    0.000    0.000    0.000 
#
# Total GULP energy -156518.541331 kJ/mol
# GULP energy per Si atom -5589.947905 kJ/mol
# Density = 2.067351 g / cm^3
# Si number density = 20.720666 Si / 1000 Ang^3
#
#
#
# Elastic Constant Matrix: (Units=GPa)
#
#
# Indices 1 2 3 4 5 6 
#
# 1 6.1200 13.7759 6.6441 0.0000 12.9062 0.0000
# 2 13.7759 112.2462 52.0820 0.0000 14.9879 0.0000
# 3 6.6441 52.0820 153.4041 0.0000 17.6915 0.0000
# 4 0.0000 0.0000 0.0000 58.4675 0.0000 0.1092
# 5 12.9062 14.9879 17.6915 0.0000 18.4844 0.0000
# 6 0.0000 0.0000 0.0000 0.1092 0.0000 15.3594
#
#
#
# Elastic Compliance Matrix: (Units=1/GPa)
#
#
# Indices 1 2 3 4 5 6 
#
# 1 -0.294396 0.016055 -0.016754 0.000000 0.208571 0.000000
# 2 0.016055 0.010278 -0.002170 0.000000 -0.017466 0.000000
# 3 -0.016754 -0.002170 0.007227 0.000000 0.006541 0.000000
# 4 0.000000 0.000000 0.000000 0.017104 0.000000 -0.000122
# 5 0.208571 -0.017466 0.006541 0.000000 -0.083627 0.000000
# 6 0.000000 0.000000 0.000000 -0.000122 0.000000 0.065108
#
#
# Mechanical properties :
#
#
# Convention : Reuss Voigt Hill
#
# Bulk Modulus (GPa) = -3.53820 46.30827 21.38504
# Shear Modulus (GPa) = -13.63223 31.74680 9.05729
#
# Velocity S-wave (km/s) = -2.56775 3.91849 2.09299
# Velocity P-wave (km/s) = 3.24074 6.54753 4.02292
#
# Compressibility (1/GPa) = -0.28262972
#
# Stress axis : x y z
#
# Youngs Moduli (GPa) = -3.39678 97.29622 138.37136
#
# Poissons Ratio (x) = -1.56208 2.31823
# Poissons Ratio (y) = 0.05454 0.30033
# Poissons Ratio (z) = -0.05691 0.21118
#
# Static dielectric constant tensor:
#      x y z
#    x 1.746410 0.000000 0.043800 
#    y 0.000000 1.706180 0.000000 
#    z 0.043800 0.000000 1.778150 
# 
# From -- ./inp_files/68159.got.cif
#   From: 2010.05.17/outbox.cif.g08.bks.cpg/sg14_35_cif.got.tgz:68159.got - 2010.06.03 17:49:19.
