data_PCOD9252636
_publ_section_title
;
Structure prediction by ZEFSAII (Michael W. Deem and Ramdas Pophale) SiO2 
 PCOD9252636
Probable space group: P 21/C
;
_chemical_formula_sum "Si O2"
_cell_formula_units_Z 32
_cell_length_a 8.735954
_cell_length_b 11.251640
_cell_length_c 13.543391
_cell_angle_alpha 90.000000
_cell_angle_beta 90.884487
_cell_angle_gamma 90.000000
_cell_volume 1331.072876
_symmetry_space_group_name_H-M "P 21/C"
_symmetry_group_IT_number 14
_symmetry_cell_setting 'monoclinic'
loop_
_space_group_symop_operation_xyz
x,y,z
-x,1/2+y,1/2-z
-x,-y,-z
x,1/2-y,1/2+z
loop_
_atom_site_type_symbol
_atom_site_label
_atom_site_fract_x
_atom_site_fract_y
_atom_site_fract_z
Si Si1 0.579730 0.927424 0.410415
Si Si2 0.565757 0.453261 0.309226
Si Si3 0.875885 0.080757 0.442939
Si Si4 0.740720 0.696396 0.350188
Si Si5 0.784524 0.249561 0.269919
Si Si6 0.266994 0.550160 0.372808
Si Si7 0.040623 0.682127 0.485554
Si Si8 0.084252 0.347756 0.297419
O O1 0.625842 0.786582 0.407956
O O2 0.500000 0.000000 0.500000
O O3 0.494447 0.952532 0.305439
O O4 0.742793 0.990014 0.418334
O O5 0.668535 0.569113 0.327957
O O6 0.659662 0.331221 0.323094
O O7 0.419775 0.472795 0.379208
O O8 0.875309 0.156749 0.340774
O O9 0.865404 0.194493 0.515078
O O10 0.000000 0.000000 0.500000
O O11 0.903170 0.680828 0.406526
O O12 0.789912 0.761880 0.249066
O O13 0.704816 0.173976 0.183775
O O14 0.922560 0.336655 0.239938
O O15 0.155202 0.476944 0.300525
O O16 0.166792 0.581010 0.467328
O O17 0.954254 0.672135 0.588288
#
# Coordination Sequence:
#
# PCOD9252636 Si02
#       8
#     4   4   4   4   4   4   4   4
#     4  12  28  46  76 113 154 206 270 325 401 476
#     4  12  28  47  75 111 163 204 254 320 411 479
#     4  11  24  48  76 110 147 193 262 327 383 457
#     4  12  25  50  76 110 158 212 253 336 397 466
#     4  11  25  46  76 113 150 205 258 316 394 472
#     4  12  24  47  75 107 154 199 256 320 398 462
#     4  11  26  46  76 115 143 200 267 323 393 470
#     4  11  25  47  77 108 151 197 268 317 387 462
#
# _framework density 24.040758
#
# number of rings (size 3 to 8) (size 9 to 14) (size 15 to 20)
#    0.000    0.500    5.000    1.875    5.250    1.000 
#    0.000    3.125    0.000    0.000    0.000    0.000 
#    0.000    0.000    0.000    0.000    0.000    0.000 
#
# Total GULP energy -178517.533269 kJ/mol
# GULP energy per Si atom -5578.672915 kJ/mol
# Density = 2.398604 g / cm^3
# Si number density = 24.040758 Si / 1000 Ang^3
#
#
#
# Elastic Constant Matrix: (Units=GPa)
#
#
# Indices 1 2 3 4 5 6 
#
# 1 65.9295 30.1581 23.7309 0.0000 -2.7327 0.0000
# 2 30.1581 115.7528 21.4051 0.0000 -4.4944 0.0000
# 3 23.7309 21.4051 103.3862 0.0000 -10.1902 0.0000
# 4 0.0000 0.0000 0.0000 32.0263 0.0000 1.6106
# 5 -2.7327 -4.4944 -10.1902 0.0000 28.6005 0.0000
# 6 0.0000 0.0000 0.0000 1.6106 0.0000 37.1570
#
#
#
# Elastic Compliance Matrix: (Units=1/GPa)
#
#
# Indices 1 2 3 4 5 6 
#
# 1 0.018263 -0.004144 -0.003344 0.000000 -0.000098 0.000000
# 2 -0.004144 0.009940 -0.001028 0.000000 0.000800 0.000000
# 3 -0.003344 -0.001028 0.010991 0.000000 0.003435 0.000000
# 4 0.000000 0.000000 0.000000 0.031293 0.000000 -0.001356
# 5 -0.000098 0.000800 0.003435 0.000000 0.036305 0.000000
# 6 0.000000 0.000000 0.000000 -0.001356 0.000000 0.026972
#
#
# Mechanical properties :
#
#
# Convention : Reuss Voigt Hill
#
# Bulk Modulus (GPa) = 45.11965 48.40631 46.76298
# Shear Modulus (GPa) = 31.60937 33.54172 32.57555
#
# Velocity S-wave (km/s) = 3.62998 3.73929 3.68504
# Velocity P-wave (km/s) = 6.03140 6.23072 6.13187
#
# Compressibility (1/GPa) = 0.02216329
#
# Stress axis : x y z
#
# Youngs Moduli (GPa) = 54.75667 100.60542 90.98038
#
# Poissons Ratio (x) = 0.41687 0.30421
# Poissons Ratio (y) = 0.22689 0.09353
# Poissons Ratio (z) = 0.18309 0.10342
#
# Static dielectric constant tensor:
#      x y z
#    x 1.955100 0.000000 -0.062050 
#    y 0.000000 1.865400 0.000000 
#    z -0.062050 0.000000 2.084150 
# 
# From -- ./inp_files/40063.got.cif
#   From: 2010.05.17/outbox.cif.g08.bks.cpg/sg14_21_cif.got.tgz:40063.got - 2010.06.03 17:49:19.
