data_PCOD9252379
_publ_section_title
;
Structure prediction by ZEFSAII (Michael W. Deem and Ramdas Pophale) SiO2 
 PCOD9252379
Probable space group: P 21/C
;
_chemical_formula_sum "Si O2"
_cell_formula_units_Z 32
_cell_length_a 11.327204
_cell_length_b 10.701808
_cell_length_c 13.236458
_cell_angle_alpha 90.000000
_cell_angle_beta 112.713076
_cell_angle_gamma 90.000000
_cell_volume 1480.111714
_symmetry_space_group_name_H-M "P 21/C"
_symmetry_group_IT_number 14
_symmetry_cell_setting 'monoclinic'
loop_
_space_group_symop_operation_xyz
x,y,z
-x,1/2+y,1/2-z
-x,-y,-z
x,1/2-y,1/2+z
loop_
_atom_site_type_symbol
_atom_site_label
_atom_site_fract_x
_atom_site_fract_y
_atom_site_fract_z
Si Si1 0.905680 0.884761 0.992999
Si Si2 0.286674 0.735700 0.509792
Si Si3 0.834775 0.659513 0.699735
Si Si4 0.629226 0.462833 0.602700
Si Si5 0.537858 0.274353 0.746589
Si Si6 0.980788 0.127432 0.557101
Si Si7 0.570528 0.095109 0.595427
Si Si8 0.715141 0.603785 0.253220
O O1 0.879734 0.864752 0.101650
O O2 0.781636 0.910444 0.883320
O O3 0.958944 0.750249 0.975115
O O4 0.000000 0.000000 0.000000
O O5 0.274417 0.604769 0.446247
O O6 0.353157 0.727197 0.640544
O O7 0.164864 0.826616 0.474982
O O8 0.385972 0.799410 0.466622
O O9 0.703515 0.582655 0.668796
O O10 0.800766 0.802770 0.714610
O O11 0.942538 0.613286 0.812916
O O12 0.500000 0.500000 0.500000
O O13 0.594682 0.376299 0.687285
O O14 0.492886 0.159665 0.660608
O O15 0.422931 0.335031 0.770622
O O16 0.000000 0.000000 0.500000
O O17 0.500000 0.000000 0.500000
O O18 0.688973 0.024555 0.686738
#
# Coordination Sequence:
#
# PCOD9252379 Si02
#       8
#     4   4   4   4   4   4   4   4
#     4  11  27  46  71 101 134 186 241 287 354 419
#     4  11  25  44  68 100 136 181 232 286 358 420
#     4  11  26  45  69  98 140 179 233 290 359 415
#     4  11  24  42  70 102 136 179 228 292 353 429
#     4  11  25  41  68 101 137 178 224 283 350 428
#     4  11  27  45  71  99 139 187 238 297 350 424
#     4  11  26  42  68 102 137 176 229 282 352 427
#     4  11  26  44  69 100 138 184 221 294 350 424
#
# _framework density 21.619990000000001
#
# number of rings (size 3 to 8) (size 9 to 14) (size 15 to 20)
#    0.000    1.000    1.250    3.000   14.000    4.000 
#    0.000    0.000    0.000    0.000    0.000    0.000 
#    0.000    0.000    0.000    0.000    0.000    0.000 
#
# Total GULP energy -178857.557565 kJ/mol
# GULP energy per Si atom -5589.298674 kJ/mol
# Density = 2.157078 g / cm^3
# Si number density = 21.619990 Si / 1000 Ang^3
#
#
#
# Elastic Constant Matrix: (Units=GPa)
#
#
# Indices 1 2 3 4 5 6 
#
# 1 42.6339 -9.3057 26.7253 0.0000 -5.6950 0.0000
# 2 -9.3057 72.3211 33.3306 0.0000 -13.6081 0.0000
# 3 26.7253 33.3306 153.0920 0.0000 -12.2516 0.0000
# 4 0.0000 0.0000 0.0000 39.7697 0.0000 1.7323
# 5 -5.6950 -13.6081 -12.2516 0.0000 37.3560 0.0000
# 6 0.0000 0.0000 0.0000 1.7323 0.0000 34.7586
#
#
#
# Elastic Compliance Matrix: (Units=1/GPa)
#
#
# Indices 1 2 3 4 5 6 
#
# 1 0.029962 0.007854 -0.006517 0.000000 0.005292 0.000000
# 2 0.007854 0.018247 -0.004843 0.000000 0.006256 0.000000
# 3 -0.006517 -0.004843 0.008733 0.000000 0.000106 0.000000
# 4 0.000000 0.000000 0.000000 0.025200 0.000000 -0.001256
# 5 0.005292 0.006256 0.000106 0.000000 0.029890 0.000000
# 6 0.000000 0.000000 0.000000 -0.001256 0.000000 0.028832
#
#
# Mechanical properties :
#
#
# Convention : Reuss Voigt Hill
#
# Bulk Modulus (GPa) = 20.02796 41.06082 30.54439
# Shear Modulus (GPa) = 30.39170 36.86330 33.62750
#
# Velocity S-wave (km/s) = 3.75336 4.13371 3.94812
# Velocity P-wave (km/s) = 5.29787 6.46659 5.91118
#
# Compressibility (1/GPa) = 0.04993020
#
# Stress axis : x y z
#
# Youngs Moduli (GPa) = 33.37564 54.80322 114.51302
#
# Poissons Ratio (x) = -0.43045 0.74628
# Poissons Ratio (y) = -0.26215 0.55461
# Poissons Ratio (z) = 0.21751 0.26542
#
# Static dielectric constant tensor:
#      x y z
#    x 1.806140 0.000000 -0.014380 
#    y 0.000000 2.316010 0.000000 
#    z -0.014380 0.000000 1.742220 
# 
# From -- ./inp_files/29408.got.cif
#   From: 2010.05.17/outbox.cif.g08.bks.cpg/sg14_15_cif.got.tgz:29408.got - 2010.06.03 17:49:19.
