data_PCOD9252880
_publ_section_title
;
Structure prediction by ZEFSAII (Michael W. Deem and Ramdas Pophale) SiO2 
 PCOD9252880
Probable space group: P 21/C
;
_chemical_formula_sum "Si O2"
_cell_formula_units_Z 20
_cell_length_a 6.040284
_cell_length_b 11.462065
_cell_length_c 17.170969
_cell_angle_alpha 90.000000
_cell_angle_beta 45.287806
_cell_angle_gamma 90.000000
_cell_volume 844.832557
_symmetry_space_group_name_H-M "P 21/C"
_symmetry_group_IT_number 14
_symmetry_cell_setting 'monoclinic'
loop_
_space_group_symop_operation_xyz
x,y,z
-x,1/2+y,1/2-z
-x,-y,-z
x,1/2-y,1/2+z
loop_
_atom_site_type_symbol
_atom_site_label
_atom_site_fract_x
_atom_site_fract_y
_atom_site_fract_z
Si Si1 0.848756 0.448356 0.425840
Si Si2 0.242814 0.250000 0.253593
Si Si3 0.717097 0.676993 0.921032
Si Si4 0.901226 0.323007 0.578968
Si Si5 0.947885 0.051644 0.425840
O O1 0.500000 0.500000 0.500000
O O2 0.857515 0.375266 0.504229
O O3 0.014733 0.357455 0.327766
O O4 0.071968 0.560204 0.377128
O O5 0.202332 0.238415 0.170510
O O6 0.615629 0.261585 0.170510
O O7 0.174201 0.142545 0.327766
O O8 0.919518 0.560204 0.877128
O O9 0.784349 0.750000 0.982825
O O10 0.374433 0.624734 0.995771
O O11 0.000000 0.000000 0.500000
#
# Coordination Sequence:
#
# PCOD9252880 Si02
#       5
#     4   4   4   4   4
#     4  11  26  48  73 107 153 196 247 317 378 458
#     4  12  26  42  76 106 144 200 248 310 376 466
#     4  11  26  45  72 108 148 191 249 309 381 452
#     4  11  26  45  72 108 148 191 249 309 381 452
#     4  11  26  48  73 107 153 196 247 317 378 458
#
# _framework density 23.67333
#
# number of rings (size 3 to 8) (size 9 to 14) (size 15 to 20)
#    0.000    0.800    0.000    6.000   11.200    4.800 
#    0.000    0.000    0.000    0.000    0.000    0.000 
#    0.000    0.000    0.000    0.000    0.000    0.000 
#
# Total GULP energy -111588.553870 kJ/mol
# GULP energy per Si atom -5579.427693 kJ/mol
# Density = 2.361945 g / cm^3
# Si number density = 23.673330 Si / 1000 Ang^3
#
#
#
# Elastic Constant Matrix: (Units=GPa)
#
#
# Indices 1 2 3 4 5 6 
#
# 1 142.2286 59.4903 64.0279 0.0000 0.3800 0.0000
# 2 59.4903 113.7946 38.8929 0.0000 0.3417 0.0000
# 3 64.0279 38.8929 75.3965 0.0000 0.7289 0.0000
# 4 0.0000 0.0000 0.0000 53.7413 0.0000 0.3290
# 5 0.3800 0.3417 0.7289 0.0000 27.6421 0.0000
# 6 0.0000 0.0000 0.0000 0.3290 0.0000 73.5674
#
#
#
# Elastic Compliance Matrix: (Units=1/GPa)
#
#
# Indices 1 2 3 4 5 6 
#
# 1 0.012440 -0.003512 -0.008754 0.000000 0.000103 0.000000
# 2 -0.003512 0.011660 -0.003032 0.000000 -0.000016 0.000000
# 3 -0.008754 -0.003032 0.022266 0.000000 -0.000429 0.000000
# 4 0.000000 0.000000 0.000000 0.018608 0.000000 -0.000083
# 5 0.000103 -0.000016 -0.000429 0.000000 0.036187 0.000000
# 6 0.000000 0.000000 0.000000 -0.000083 0.000000 0.013593
#
#
# Mechanical properties :
#
#
# Convention : Reuss Voigt Hill
#
# Bulk Modulus (GPa) = 63.41258 72.91576 68.16417
# Shear Modulus (GPa) = 33.19884 42.25741 37.72812
#
# Velocity S-wave (km/s) = 3.74889 4.22954 3.99644
# Velocity P-wave (km/s) = 6.75156 7.39727 7.08178
#
# Compressibility (1/GPa) = 0.01576974
#
# Stress axis : x y z
#
# Youngs Moduli (GPa) = 80.38263 85.76160 44.91248
#
# Poissons Ratio (x) = 0.30120 0.39316
# Poissons Ratio (y) = 0.28231 0.13618
# Poissons Ratio (z) = 0.70367 0.26005
#
# Static dielectric constant tensor:
#      x y z
#    x 2.009500 0.000000 0.001790 
#    y 0.000000 1.917450 0.000000 
#    z 0.001790 0.000000 1.901790 
# 
# From -- ./inp_files/52922.got.cif
#   From: 2010.05.17/outbox.cif.g08.bks.cpg/sg14_27_cif.got.tgz:52922.got - 2010.06.03 17:49:19.
