data_PCOD9252082
_publ_section_title
;
Structure prediction by ZEFSAII (Michael W. Deem and Ramdas Pophale) SiO2 
 PCOD9252082
Probable space group: P 21/C
;
_chemical_formula_sum "Si O2"
_cell_formula_units_Z 28
_cell_length_a 14.899249
_cell_length_b 14.292146
_cell_length_c 9.451675
_cell_angle_alpha 90.000000
_cell_angle_beta 143.233967
_cell_angle_gamma 90.000000
_cell_volume 1204.675727
_symmetry_space_group_name_H-M "P 21/C"
_symmetry_group_IT_number 14
_symmetry_cell_setting 'monoclinic'
loop_
_space_group_symop_operation_xyz
x,y,z
-x,1/2+y,1/2-z
-x,-y,-z
x,1/2-y,1/2+z
loop_
_atom_site_type_symbol
_atom_site_label
_atom_site_fract_x
_atom_site_fract_y
_atom_site_fract_z
Si Si1 0.927175 0.416977 0.994802
Si Si2 0.670524 0.816871 0.381036
Si Si3 0.504851 0.716608 0.396238
Si Si4 0.910154 0.407900 0.423451
Si Si5 0.053308 0.204573 0.872823
Si Si6 0.324060 0.961422 0.595705
Si Si7 0.209565 0.671416 0.454638
O O1 0.796661 0.454513 0.931369
O O2 0.842390 0.353544 0.769003
O O3 0.000000 0.500000 0.000000
O O4 0.060447 0.376049 0.263581
O O5 0.646979 0.754319 0.489598
O O6 0.825806 0.785148 0.501840
O O7 0.651317 0.927196 0.389664
O O8 0.542619 0.785362 0.108820
O O9 0.459098 0.609974 0.299654
O O10 0.376470 0.792394 0.193424
O O11 0.856444 0.402331 0.516400
O O12 0.000000 0.500000 0.500000
O O13 0.022710 0.331026 0.494453
O O14 0.757216 0.415633 0.141901
O O15 0.889117 0.240534 0.623849
#
# Coordination Sequence:
#
# PCOD9252082 Si02
#       7
#     4   4   4   4   4   4   4
#     4  11  23  42  76 110 139 188 243 300 365 427
#     4  12  29  48  72 108 145 192 246 304 360 425
#     4  12  27  49  71 104 148 196 236 298 367 438
#     4  11  23  42  72 107 143 181 244 305 359 418
#     4  11  25  43  72 101 144 184 243 303 356 426
#     4  11  25  49  70 101 150 196 237 294 365 442
#     4  12  23  43  77 100 143 188 242 291 369 434
#
# _framework density 23.242767000000001
#
# number of rings (size 3 to 8) (size 9 to 14) (size 15 to 20)
#    0.000    0.571    2.857    6.429    8.000    0.000 
#    2.571    1.429    0.000    0.000    0.000    0.000 
#    0.000    0.000    0.000    0.000    0.000    0.000 
#
# Total GULP energy -156297.925257 kJ/mol
# GULP energy per Si atom -5582.068759 kJ/mol
# Density = 2.318987 g / cm^3
# Si number density = 23.242767 Si / 1000 Ang^3
#
#
#
# Elastic Constant Matrix: (Units=GPa)
#
#
# Indices 1 2 3 4 5 6 
#
# 1 82.9430 29.0236 9.8731 0.0000 -7.1570 0.0000
# 2 29.0236 99.7116 5.5116 0.0000 0.1906 0.0000
# 3 9.8731 5.5116 63.7122 0.0000 -8.6192 0.0000
# 4 0.0000 0.0000 0.0000 36.2293 0.0000 -0.4567
# 5 -7.1570 0.1906 -8.6192 0.0000 35.8389 0.0000
# 6 0.0000 0.0000 0.0000 -0.4567 0.0000 40.3397
#
#
#
# Elastic Compliance Matrix: (Units=1/GPa)
#
#
# Indices 1 2 3 4 5 6 
#
# 1 0.013822 -0.003947 -0.001472 0.000000 0.002427 0.000000
# 2 -0.003947 0.011207 -0.000488 0.000000 -0.000965 0.000000
# 3 -0.001472 -0.000488 0.016462 0.000000 0.003668 0.000000
# 4 0.000000 0.000000 0.000000 0.027606 0.000000 0.000313
# 5 0.002427 -0.000965 0.003668 0.000000 0.029275 0.000000
# 6 0.000000 0.000000 0.000000 0.000313 0.000000 0.024793
#
#
# Mechanical properties :
#
#
# Convention : Reuss Voigt Hill
#
# Bulk Modulus (GPa) = 33.69674 37.24260 35.46967
# Shear Modulus (GPa) = 34.51351 35.94548 35.22950
#
# Velocity S-wave (km/s) = 3.85764 3.93685 3.89745
# Velocity P-wave (km/s) = 5.86268 6.05996 5.96214
#
# Compressibility (1/GPa) = 0.02967646
#
# Stress axis : x y z
#
# Youngs Moduli (GPa) = 72.34772 89.23385 60.74541
#
# Poissons Ratio (x) = 0.35217 0.08943
# Poissons Ratio (y) = 0.28552 0.02967
# Poissons Ratio (z) = 0.10651 0.04359
#
# Static dielectric constant tensor:
#      x y z
#    x 1.896970 0.000000 -0.051180 
#    y 0.000000 2.209000 0.000000 
#    z -0.051180 0.000000 2.096750 
# 
# From -- ./inp_files/16436.got.cif
#   From: 2010.05.17/outbox.cif.g08.bks.cpg/sg14_9_cif.got.tgz:16436.got - 2010.06.03 17:49:19.
