data_PCOD9252622
_publ_section_title
;
Structure prediction by ZEFSAII (Michael W. Deem and Ramdas Pophale) SiO2 
 PCOD9252622
Probable space group: P 21/C
;
_chemical_formula_sum "Si O2"
_cell_formula_units_Z 32
_cell_length_a 8.318767
_cell_length_b 8.412945
_cell_length_c 18.826557
_cell_angle_alpha 90.000000
_cell_angle_beta 105.332860
_cell_angle_gamma 90.000000
_cell_volume 1270.684649
_symmetry_space_group_name_H-M "P 21/C"
_symmetry_group_IT_number 14
_symmetry_cell_setting 'monoclinic'
loop_
_space_group_symop_operation_xyz
x,y,z
-x,1/2+y,1/2-z
-x,-y,-z
x,1/2-y,1/2+z
loop_
_atom_site_type_symbol
_atom_site_label
_atom_site_fract_x
_atom_site_fract_y
_atom_site_fract_z
Si Si1 0.928701 0.916639 0.905072
Si Si2 0.904747 0.763025 0.042184
Si Si3 0.425942 0.363944 0.922950
Si Si4 0.145901 0.629087 0.182675
Si Si5 0.520826 0.754945 0.717744
Si Si6 0.026351 0.800446 0.306441
Si Si7 0.363420 0.719656 0.936601
Si Si8 0.562850 0.929468 0.857938
O O1 0.746179 0.982672 0.901538
O O2 0.930323 0.852108 0.825992
O O3 0.939254 0.771858 0.962441
O O4 0.066061 0.052073 0.931812
O O5 0.726269 0.696673 0.045377
O O6 0.041076 0.662955 0.099938
O O7 0.377547 0.325120 0.836499
O O8 0.451720 0.552524 0.927421
O O9 0.590881 0.277124 0.974203
O O10 0.338739 0.663265 0.191607
O O11 0.092257 0.757345 0.236523
O O12 0.087824 0.456004 0.202990
O O13 0.578200 0.784215 0.804262
O O14 0.509844 0.571641 0.696423
O O15 0.182638 0.804575 0.380185
O O16 0.447766 0.869269 0.907888
#
# Coordination Sequence:
#
# PCOD9252622 Si02
#       8
#     4   4   4   4   4   4   4   4
#     4  11  27  45  74 102 146 188 239 299 361 431
#     4  11  24  48  70 106 143 189 238 300 360 429
#     4  11  26  45  75 103 145 189 236 298 365 429
#     4  12  27  47  69 107 142 188 243 301 364 434
#     4  12  29  44  74 104 141 188 242 298 364 436
#     4  12  28  45  73 101 145 190 241 296 363 436
#     4  11  25  48  68 106 144 189 241 292 359 438
#     4  12  26  48  69 103 146 187 243 296 356 436
#
# _framework density 25.183274999999998
#
# number of rings (size 3 to 8) (size 9 to 14) (size 15 to 20)
#    0.000    0.500    5.000    1.500    8.750    1.000 
#    0.000    0.000    0.000    0.000    0.000    0.000 
#    0.000    0.000    0.000    0.000    0.000    0.000 
#
# Total GULP energy -179052.045592 kJ/mol
# GULP energy per Si atom -5595.376425 kJ/mol
# Density = 2.512596 g / cm^3
# Si number density = 25.183275 Si / 1000 Ang^3
#
#
#
# Elastic Constant Matrix: (Units=GPa)
#
#
# Indices 1 2 3 4 5 6 
#
# 1 93.3072 22.0035 7.2195 0.0000 12.8438 0.0000
# 2 22.0035 87.6856 -2.1863 0.0000 -7.8632 0.0000
# 3 7.2195 -2.1863 61.9229 0.0000 -3.8254 0.0000
# 4 0.0000 0.0000 0.0000 38.1304 0.0000 -2.6483
# 5 12.8438 -7.8632 -3.8254 0.0000 37.7074 0.0000
# 6 0.0000 0.0000 0.0000 -2.6483 0.0000 25.2142
#
#
#
# Elastic Compliance Matrix: (Units=1/GPa)
#
#
# Indices 1 2 3 4 5 6 
#
# 1 0.012435 -0.003633 -0.001898 0.000000 -0.005186 0.000000
# 2 -0.003633 0.012703 0.001119 0.000000 0.004000 0.000000
# 3 -0.001898 0.001119 0.016568 0.000000 0.002561 0.000000
# 4 0.000000 0.000000 0.000000 0.026418 0.000000 0.002775
# 5 -0.005186 0.004000 0.002561 0.000000 0.029380 0.000000
# 6 0.000000 0.000000 0.000000 0.002775 0.000000 0.039952
#
#
# Mechanical properties :
#
#
# Convention : Reuss Voigt Hill
#
# Bulk Modulus (GPa) = 30.41220 32.99878 31.70549
# Shear Modulus (GPa) = 31.79860 34.60236 33.20048
#
# Velocity S-wave (km/s) = 3.55729 3.71080 3.63485
# Velocity P-wave (km/s) = 5.38284 5.61177 5.49849
#
# Compressibility (1/GPa) = 0.03288154
#
# Stress axis : x y z
#
# Youngs Moduli (GPa) = 80.42078 78.72459 60.35678
#
# Poissons Ratio (x) = 0.28598 0.11458
# Poissons Ratio (y) = 0.29214 -0.06755
# Poissons Ratio (z) = 0.15266 -0.08810
#
# Static dielectric constant tensor:
#      x y z
#    x 2.015830 0.000000 0.059920 
#    y 0.000000 2.001650 0.000000 
#    z 0.059920 0.000000 2.003720 
# 
# From -- ./inp_files/64868.got.cif
#   From: 2010.05.17/outbox.cif.g08.bks.cpg/sg14_33_cif.got.tgz:64868.got - 2010.06.03 17:49:19.
