data_PCOD9252026
_publ_section_title
;
Structure prediction by ZEFSAII (Michael W. Deem and Ramdas Pophale) SiO2 
 PCOD9252026
Probable space group: P 21/C
;
_chemical_formula_sum "Si O2"
_cell_formula_units_Z 28
_cell_length_a 9.084473
_cell_length_b 10.233035
_cell_length_c 15.179942
_cell_angle_alpha 90.000000
_cell_angle_beta 112.114507
_cell_angle_gamma 90.000000
_cell_volume 1307.339814
_symmetry_space_group_name_H-M "P 21/C"
_symmetry_group_IT_number 14
_symmetry_cell_setting 'monoclinic'
loop_
_space_group_symop_operation_xyz
x,y,z
-x,1/2+y,1/2-z
-x,-y,-z
x,1/2-y,1/2+z
loop_
_atom_site_type_symbol
_atom_site_label
_atom_site_fract_x
_atom_site_fract_y
_atom_site_fract_z
Si Si1 0.388677 0.908007 0.919263
Si Si2 0.903832 0.936456 0.897079
Si Si3 0.559460 0.666540 0.294980
Si Si4 0.775721 0.108373 0.359095
Si Si5 0.933762 0.332800 0.273152
Si Si6 0.856054 0.285511 0.064080
Si Si7 0.236676 0.121006 0.755544
O O1 0.481189 0.811558 0.873313
O O2 0.273744 0.830181 0.957554
O O3 0.299587 0.009333 0.835388
O O4 0.500000 0.000000 0.000000
O O5 0.712456 0.924178 0.852195
O O6 0.977654 0.792058 0.907695
O O7 0.942232 0.029438 0.823829
O O8 0.000000 0.000000 0.000000
O O9 0.414812 0.610995 0.202770
O O10 0.629962 0.790135 0.259025
O O11 0.851823 0.226213 0.317796
O O12 0.817646 0.130870 0.469949
O O13 0.840002 0.970455 0.337591
O O14 0.848350 0.346879 0.159682
O O15 0.112920 0.295748 0.285272
#
# Coordination Sequence:
#
# PCOD9252026 Si02
#       7
#     4   4   4   4   4   4   4
#     4  11  23  41  69 102 137 180 233 284 340 422
#     4  12  24  43  73 101 131 189 240 285 339 422
#     4  11  25  43  68 104 145 174 234 290 354 415
#     4  11  26  45  71 102 146 183 229 301 354 414
#     4  12  23  44  70  99 141 180 242 288 344 418
#     4  12  23  45  67 102 136 185 234 285 354 417
#     4  11  24  44  65  99 142 182 227 289 354 414
#
# _framework density 21.417539000000001
#
# number of rings (size 3 to 8) (size 9 to 14) (size 15 to 20)
#    0.000    0.571    7.143    1.714    4.000    0.571 
#    0.000    4.286    0.000    0.000    0.000    0.000 
#    0.000    0.000    0.000    0.000    0.000    0.000 
#
# Total GULP energy -156280.310775 kJ/mol
# GULP energy per Si atom -5581.439671 kJ/mol
# Density = 2.136879 g / cm^3
# Si number density = 21.417539 Si / 1000 Ang^3
#
#
#
# Elastic Constant Matrix: (Units=GPa)
#
#
# Indices 1 2 3 4 5 6 
#
# 1 101.0221 11.7267 11.3228 0.0000 1.9682 0.0000
# 2 11.7267 58.3475 30.6352 0.0000 2.4697 0.0000
# 3 11.3228 30.6352 133.5156 0.0000 -5.6924 0.0000
# 4 0.0000 0.0000 0.0000 43.4345 0.0000 -8.5575
# 5 1.9682 2.4697 -5.6924 0.0000 25.4121 0.0000
# 6 0.0000 0.0000 0.0000 -8.5575 0.0000 38.5040
#
#
#
# Elastic Compliance Matrix: (Units=1/GPa)
#
#
# Indices 1 2 3 4 5 6 
#
# 1 0.010172 -0.001756 -0.000491 0.000000 -0.000727 0.000000
# 2 -0.001756 0.020007 -0.004562 0.000000 -0.002830 0.000000
# 3 -0.000491 -0.004562 0.008682 0.000000 0.002426 0.000000
# 4 0.000000 0.000000 0.000000 0.024077 0.000000 0.005351
# 5 -0.000727 -0.002830 0.002426 0.000000 0.040226 0.000000
# 6 0.000000 0.000000 0.000000 0.005351 0.000000 0.027161
#
#
# Mechanical properties :
#
#
# Convention : Reuss Voigt Hill
#
# Bulk Modulus (GPa) = 39.61594 44.47275 42.04434
# Shear Modulus (GPa) = 32.81773 37.41683 35.11728
#
# Velocity S-wave (km/s) = 3.91869 4.18427 4.05365
# Velocity P-wave (km/s) = 6.24595 6.64484 6.44848
#
# Compressibility (1/GPa) = 0.02524237
#
# Stress axis : x y z
#
# Youngs Moduli (GPa) = 98.31087 49.98285 115.18544
#
# Poissons Ratio (x) = 0.08776 0.05653
# Poissons Ratio (y) = 0.17262 0.52552
# Poissons Ratio (z) = 0.04824 0.22804
#
# Static dielectric constant tensor:
#      x y z
#    x 1.831410 0.000000 0.022860 
#    y 0.000000 1.788110 0.000000 
#    z 0.022860 0.000000 1.832650 
# 
# From -- ./inp_files/40026.got.cif
#   From: 2010.05.17/outbox.cif.g08.bks.cpg/sg14_21_cif.got.tgz:40026.got - 2010.06.03 17:49:19.
