data_PCOD9252049
_publ_section_title
;
Structure prediction by ZEFSAII (Michael W. Deem and Ramdas Pophale) SiO2 
 PCOD9252049
Probable space group: P 21/C
;
_chemical_formula_sum "Si O2"
_cell_formula_units_Z 24
_cell_length_a 4.941921
_cell_length_b 15.743399
_cell_length_c 13.619840
_cell_angle_alpha 90.000000
_cell_angle_beta 77.554278
_cell_angle_gamma 90.000000
_cell_volume 1034.758077
_symmetry_space_group_name_H-M "P 21/C"
_symmetry_group_IT_number 14
_symmetry_cell_setting 'monoclinic'
loop_
_space_group_symop_operation_xyz
x,y,z
-x,1/2+y,1/2-z
-x,-y,-z
x,1/2-y,1/2+z
loop_
_atom_site_type_symbol
_atom_site_label
_atom_site_fract_x
_atom_site_fract_y
_atom_site_fract_z
Si Si1 0.421676 0.424055 0.794596
Si Si2 0.026704 0.058503 0.159344
Si Si3 0.407646 0.344383 0.002267
Si Si4 0.751208 0.366863 0.341721
Si Si5 0.157303 0.328276 0.466746
Si Si6 0.147123 0.600765 0.881159
O O1 0.214683 0.393298 0.725638
O O2 0.283006 0.509832 0.847679
O O3 0.714690 0.443657 0.722301
O O4 0.459501 0.363024 0.884059
O O5 0.145833 0.963033 0.145968
O O6 0.051096 0.103362 0.053122
O O7 0.678299 0.355862 0.046334
O O8 0.171729 0.407651 0.063065
O O9 0.262950 0.253138 0.017858
O O10 0.425971 0.361388 0.387148
O O11 0.823856 0.348258 0.223261
O O12 0.918290 0.310019 0.406317
#
# Coordination Sequence:
#
# PCOD9252049 Si02
#       6
#     4   4   4   4   4   4
#     4  11  23  42  66  93 123 166 214 259 304 364
#     4  11  23  42  66  93 123 166 214 259 304 364
#     4  12  25  41  64  96 130 165 202 257 319 373
#     4  11  23  43  66  91 123 167 213 256 305 369
#     4  12  25  41  64  96 130 165 202 257 319 373
#     4  11  23  43  66  91 123 167 213 256 305 369
#
# _framework density 23.193825
#
# number of rings (size 3 to 8) (size 9 to 14) (size 15 to 20)
#    0.000    0.667    0.000   10.000    0.000    4.000 
#    0.000    0.000    0.000    0.000    0.000    0.000 
#    0.000    0.000    0.000    0.000    0.000    0.000 
#
# Total GULP energy -134515.305442 kJ/mol
# GULP energy per Si atom -5604.804393 kJ/mol
# Density = 2.314104 g / cm^3
# Si number density = 23.193825 Si / 1000 Ang^3
#
#
#
# Elastic Constant Matrix: (Units=GPa)
#
#
# Indices 1 2 3 4 5 6 
#
# 1 87.4860 -2.3122 31.3051 0.0000 11.1373 0.0000
# 2 -2.3122 20.1745 -6.6872 0.0000 -12.4950 0.0000
# 3 31.3051 -6.6872 111.5441 0.0000 6.1752 0.0000
# 4 0.0000 0.0000 0.0000 15.8673 0.0000 -4.7515
# 5 11.1373 -12.4950 6.1752 0.0000 26.8108 0.0000
# 6 0.0000 0.0000 0.0000 -4.7515 0.0000 0.6618
#
#
#
# Elastic Compliance Matrix: (Units=1/GPa)
#
#
# Indices 1 2 3 4 5 6 
#
# 1 0.013458 -0.003665 -0.003639 0.000000 -0.006461 0.000000
# 2 -0.003665 0.071324 0.003424 0.000000 0.033974 0.000000
# 3 -0.003639 0.003424 0.010149 0.000000 0.000770 0.000000
# 4 0.000000 0.000000 0.000000 -0.054804 0.000000 -0.393476
# 5 -0.006461 0.033974 0.000770 0.000000 0.055638 0.000000
# 6 0.000000 0.000000 0.000000 -0.393476 0.000000 -1.313999
#
#
# Mechanical properties :
#
#
# Convention : Reuss Voigt Hill
#
# Bulk Modulus (GPa) = 11.47181 29.31291 20.39236
# Shear Modulus (GPa) = -4.23221 21.79457 8.78118
#
# Velocity S-wave (km/s) = -1.35229 3.06873 1.94788
# Velocity P-wave (km/s) = 1.58700 5.02213 3.72427
#
# Compressibility (1/GPa) = 0.08717021
#
# Stress axis : x y z
#
# Youngs Moduli (GPa) = 74.30423 14.02051 98.53150
#
# Poissons Ratio (x) = 0.05139 0.35857
# Poissons Ratio (y) = 0.27234 -0.33735
# Poissons Ratio (z) = 0.27040 -0.04800
#
# Static dielectric constant tensor:
#      x y z
#    x 1.834490 0.000000 0.015320 
#    y 0.000000 1.927280 0.000000 
#    z 0.015320 0.000000 1.855850 
# 
# From -- ./inp_files/21160.got.cif
#   From: 2010.05.17/outbox.cif.g08.bks.cpg/sg14_11_cif.got.tgz:21160.got - 2010.06.03 17:49:19.
