data_PCOD9252421
_publ_section_title
;
Structure prediction by ZEFSAII (Michael W. Deem and Ramdas Pophale) SiO2 
 PCOD9252421
Probable space group: P 21/C
;
_chemical_formula_sum "Si O2"
_cell_formula_units_Z 28
_cell_length_a 8.922948
_cell_length_b 16.619868
_cell_length_c 8.864700
_cell_angle_alpha 90.000000
_cell_angle_beta 98.912707
_cell_angle_gamma 90.000000
_cell_volume 1298.745882
_symmetry_space_group_name_H-M "P 21/C"
_symmetry_group_IT_number 14
_symmetry_cell_setting 'monoclinic'
loop_
_space_group_symop_operation_xyz
x,y,z
-x,1/2+y,1/2-z
-x,-y,-z
x,1/2-y,1/2+z
loop_
_atom_site_type_symbol
_atom_site_label
_atom_site_fract_x
_atom_site_fract_y
_atom_site_fract_z
Si Si1 0.696049 0.213210 0.840784
Si Si2 0.428596 0.321874 0.848410
Si Si3 0.103643 0.425956 0.561038
Si Si4 0.822296 0.811496 0.214778
Si Si5 0.914940 0.203358 0.146066
Si Si6 0.554672 0.901913 0.344361
Si Si7 0.445684 0.042066 0.146875
O O1 0.567960 0.263910 0.905926
O O2 0.790139 0.273136 0.748800
O O3 0.596322 0.145981 0.738538
O O4 0.820120 0.184678 0.980087
O O5 0.277989 0.268153 0.833661
O O6 0.461937 0.363285 0.691095
O O7 0.423948 0.388073 0.976659
O O8 0.133664 0.362166 0.428066
O O9 0.264768 0.463585 0.629367
O O10 0.000000 0.500000 0.500000
O O11 0.020770 0.374870 0.678756
O O12 0.703710 0.864904 0.289351
O O13 0.968816 0.779511 0.329521
O O14 0.534643 0.991726 0.285059
O O15 0.500000 0.000000 0.000000
#
# Coordination Sequence:
#
# PCOD9252421 Si02
#       7
#     4   4   4   4   4   4   4
#     4  11  25  39  70 100 132 180 236 286 342 416
#     4  11  25  44  69 101 137 184 239 288 351 419
#     4  12  26  43  68 105 143 183 231 292 364 418
#     4  11  24  43  71 101 138 189 237 290 352 428
#     4  12  23  44  65 101 142 180 230 289 354 428
#     4  11  24  44  68  96 140 180 234 292 349 415
#     4  12  26  44  69  99 138 183 235 289 351 424
#
# _framework density 21.559259000000001
#
# number of rings (size 3 to 8) (size 9 to 14) (size 15 to 20)
#    0.000    0.571    5.714    2.143    6.000    0.000 
#    0.000    0.000    0.000    3.429    0.000    0.000 
#    0.000    0.000    0.000    0.000    0.000    0.000 
#
# Total GULP energy -156266.627957 kJ/mol
# GULP energy per Si atom -5580.950998 kJ/mol
# Density = 2.151019 g / cm^3
# Si number density = 21.559259 Si / 1000 Ang^3
#
#
#
# Elastic Constant Matrix: (Units=GPa)
#
#
# Indices 1 2 3 4 5 6 
#
# 1 115.8551 11.9289 4.1720 0.0000 10.8161 0.0000
# 2 11.9289 73.0209 6.3105 0.0000 -5.3797 0.0000
# 3 4.1720 6.3105 34.3237 0.0000 -7.7049 0.0000
# 4 0.0000 0.0000 0.0000 37.0903 0.0000 7.8361
# 5 10.8161 -5.3797 -7.7049 0.0000 28.4455 0.0000
# 6 0.0000 0.0000 0.0000 7.8361 0.0000 32.7917
#
#
#
# Elastic Compliance Matrix: (Units=1/GPa)
#
#
# Indices 1 2 3 4 5 6 
#
# 1 0.009273 -0.001679 -0.001790 0.000000 -0.004328 0.000000
# 2 -0.001679 0.014335 -0.001788 0.000000 0.002865 0.000000
# 3 -0.001790 -0.001788 0.031684 0.000000 0.008925 0.000000
# 4 0.000000 0.000000 0.000000 0.028395 0.000000 -0.006785
# 5 -0.004328 0.002865 0.008925 0.000000 0.039760 0.000000
# 6 0.000000 0.000000 0.000000 -0.006785 0.000000 0.032117
#
#
# Mechanical properties :
#
#
# Convention : Reuss Voigt Hill
#
# Bulk Modulus (GPa) = 22.33288 29.78028 26.05658
# Shear Modulus (GPa) = 27.62379 33.05141 30.33760
#
# Velocity S-wave (km/s) = 3.58340 3.91967 3.75530
# Velocity P-wave (km/s) = 5.24427 5.85903 5.56015
#
# Compressibility (1/GPa) = 0.04477703
#
# Stress axis : x y z
#
# Youngs Moduli (GPa) = 107.84117 69.76115 31.56162
#
# Poissons Ratio (x) = 0.11713 0.05650
# Poissons Ratio (y) = 0.18107 0.05644
# Poissons Ratio (z) = 0.19304 0.12475
#
# Static dielectric constant tensor:
#      x y z
#    x 1.783760 0.000000 0.003870 
#    y 0.000000 1.819170 0.000000 
#    z 0.003870 0.000000 1.832940 
# 
# From -- ./inp_files/9439.got.cif
#   From: 2010.05.17/outbox.cif.g08.bks.cpg/sg14_5_cif.got.tgz:9439.got - 2010.06.03 17:49:19.
