data_PCOD9252187
_publ_section_title
;
Structure prediction by ZEFSAII (Michael W. Deem and Ramdas Pophale) SiO2 
 PCOD9252187
Probable space group: P 21/C
;
_chemical_formula_sum "Si O2"
_cell_formula_units_Z 30
_cell_length_a 10.921648
_cell_length_b 14.444043
_cell_length_c 16.153041
_cell_angle_alpha 90.000000
_cell_angle_beta 154.736566
_cell_angle_gamma 90.000000
_cell_volume 1087.517139
_symmetry_space_group_name_H-M "P 21/C"
_symmetry_group_IT_number 14
_symmetry_cell_setting 'monoclinic'
loop_
_space_group_symop_operation_xyz
x,y,z
-x,1/2+y,1/2-z
-x,-y,-z
x,1/2-y,1/2+z
loop_
_atom_site_type_symbol
_atom_site_label
_atom_site_fract_x
_atom_site_fract_y
_atom_site_fract_z
Si Si1 0.850718 0.390416 0.127977
Si Si2 0.231462 0.280141 0.099903
Si Si3 0.368298 0.453011 0.086982
Si Si4 0.340597 0.486385 0.530291
Si Si5 0.591122 0.194873 0.176678
Si Si6 0.000000 0.000000 0.000000
Si Si7 0.267358 0.690704 0.481131
Si Si8 0.681652 0.841319 0.604737
O O1 0.889741 0.280373 0.153013
O O2 0.111520 0.438089 0.331015
O O3 0.776898 0.446100 0.999194
O O4 0.557580 0.402416 0.998460
O O5 0.299981 0.387568 0.122207
O O6 0.352124 0.221346 0.097538
O O7 0.454139 0.260394 0.309398
O O8 0.893065 0.266774 0.895924
O O9 0.709644 0.456144 0.280190
O O10 0.231438 0.394397 0.926437
O O11 0.605689 0.415801 0.682652
O O12 0.384335 0.591220 0.525467
O O13 0.204292 0.483859 0.539457
O O14 0.487994 0.248215 0.030305
O O15 0.962401 0.657907 0.336443
#
# Coordination Sequence:
#
# PCOD9252187 Si02
#       8
#     4   4   4   4   4   2   4   4
#     4  12  25  44  74 108 146 202 257 313 376 456
#     4  11  28  48  74 114 155 202 258 316 388 464
#     4  11  24  43  74 105 151 192 258 314 379 453
#     4  12  25  49  75 110 153 201 253 320 380 452
#     4  11  27  49  78 106 159 206 247 317 395 451
#     4  12  24  44  78 112 142 204 252 308 384 458
#     4  12  27  44  70 111 146 195 261 317 370 467
#     4  11  23  44  72 108 143 197 260 308 373 461
#
# _framework density 27.585771999999999
#
# number of rings (size 3 to 8) (size 9 to 14) (size 15 to 20)
#    0.000    0.533    5.333    2.000    7.467    0.533 
#    2.400    1.333    0.000    0.000    0.000    0.000 
#    0.000    0.000    0.000    0.000    0.000    0.000 
#
# Total GULP energy -167086.572188 kJ/mol
# GULP energy per Si atom -5569.552406 kJ/mol
# Density = 2.752299 g / cm^3
# Si number density = 27.585772 Si / 1000 Ang^3
#
#
#
# Elastic Constant Matrix: (Units=GPa)
#
#
# Indices 1 2 3 4 5 6 
#
# 1 20.1995 9.2930 0.4048 0.0000 -2.3674 0.0000
# 2 9.2930 167.6902 10.2563 0.0000 -9.2559 0.0000
# 3 0.4048 10.2563 144.5742 0.0000 9.2974 0.0000
# 4 0.0000 0.0000 0.0000 39.2821 0.0000 0.8132
# 5 -2.3674 -9.2559 9.2974 0.0000 27.6100 0.0000
# 6 0.0000 0.0000 0.0000 0.8132 0.0000 18.0732
#
#
#
# Elastic Compliance Matrix: (Units=1/GPa)
#
#
# Indices 1 2 3 4 5 6 
#
# 1 0.051136 -0.002626 -0.000186 0.000000 0.003567 0.000000
# 2 -0.002626 0.006258 -0.000569 0.000000 0.002064 0.000000
# 3 -0.000186 -0.000569 0.007125 0.000000 -0.002606 0.000000
# 4 0.000000 0.000000 0.000000 0.025481 0.000000 -0.001146
# 5 0.003567 0.002064 -0.002606 0.000000 0.038094 0.000000
# 6 0.000000 0.000000 0.000000 -0.001146 0.000000 0.055382
#
#
# Mechanical properties :
#
#
# Convention : Reuss Voigt Hill
#
# Bulk Modulus (GPa) = 17.31406 41.37467 29.34437
# Shear Modulus (GPa) = 23.86742 37.82704 30.84723
#
# Velocity S-wave (km/s) = 2.94463 3.70706 3.34762
# Velocity P-wave (km/s) = 4.22507 5.77531 5.05991
#
# Compressibility (1/GPa) = 0.05775652
#
# Stress axis : x y z
#
# Youngs Moduli (GPa) = 19.55576 159.80449 140.34340
#
# Poissons Ratio (x) = 0.41957 0.02615
# Poissons Ratio (y) = 0.05134 0.07990
# Poissons Ratio (z) = 0.00364 0.09098
#
# Static dielectric constant tensor:
#      x y z
#    x 2.248450 0.000000 -0.180210 
#    y 0.000000 2.270420 0.000000 
#    z -0.180210 0.000000 2.638510 
# 
# From -- ./inp_files/68667.got.cif
#   From: 2010.05.17/outbox.cif.g08.bks.cpg/sg14_35_cif.got.tgz:68667.got - 2010.06.03 17:49:19.
