data_PCOD9252352
_publ_section_title
;
Structure prediction by ZEFSAII (Michael W. Deem and Ramdas Pophale) SiO2 
 PCOD9252352
Probable space group: P 21/C
;
_chemical_formula_sum "Si O2"
_cell_formula_units_Z 32
_cell_length_a 23.431170
_cell_length_b 5.988436
_cell_length_c 21.792064
_cell_angle_alpha 90.000000
_cell_angle_beta 29.039275
_cell_angle_gamma 90.000000
_cell_volume 1484.272402
_symmetry_space_group_name_H-M "P 21/C"
_symmetry_group_IT_number 14
_symmetry_cell_setting 'monoclinic'
loop_
_space_group_symop_operation_xyz
x,y,z
-x,1/2+y,1/2-z
-x,-y,-z
x,1/2-y,1/2+z
loop_
_atom_site_type_symbol
_atom_site_label
_atom_site_fract_x
_atom_site_fract_y
_atom_site_fract_z
Si Si1 0.085569 0.703843 0.408246
Si Si2 0.696851 0.129312 0.067403
Si Si3 0.537341 0.481728 0.278866
Si Si4 0.310124 0.032181 0.685493
Si Si5 0.720610 0.692668 0.651266
Si Si6 0.509350 0.694462 0.542299
Si Si7 0.048215 0.527205 0.725953
Si Si8 0.065016 0.994407 0.540330
O O1 0.202165 0.615999 0.266338
O O2 0.000000 0.500000 0.500000
O O3 0.018006 0.869153 0.427547
O O4 0.112402 0.802829 0.450329
O O5 0.634401 0.364344 0.143760
O O6 0.587065 0.005062 0.138046
O O7 0.733638 0.026465 0.098465
O O8 0.815764 0.094062 0.916182
O O9 0.595404 0.710604 0.247827
O O10 0.516209 0.358283 0.363317
O O11 0.273530 0.162464 0.781353
O O12 0.362525 0.197378 0.586328
O O13 0.412581 0.870962 0.612023
O O14 0.823860 0.866171 0.540699
O O15 0.500000 0.500000 0.500000
O O16 0.014490 0.281572 0.724120
O O17 0.014542 0.448712 0.826155
#
# Coordination Sequence:
#
# PCOD9252352 Si02
#       8
#     4   4   4   4   4   4   4   4
#     4  11  25  44  72 106 142 185 249 305 373 451
#     4  12  27  46  72 105 145 196 252 317 373 454
#     4  12  25  45  71 103 144 188 251 309 381 440
#     4  11  24  41  69 103 137 183 231 293 366 445
#     4  12  22  45  73  99 138 189 243 298 373 463
#     4  11  24  42  67 102 140 181 230 294 372 440
#     4  12  29  51  78 113 152 205 263 315 384 460
#     4  11  26  46  73 105 146 197 242 314 380 453
#
# _framework density 21.559384999999999
#
# number of rings (size 3 to 8) (size 9 to 14) (size 15 to 20)
#    0.000    0.500    6.250    1.500    3.500    2.000 
#    2.250    0.000    0.000    0.000    0.000    0.000 
#    0.000    0.000    0.000    0.000    0.000    0.000 
#
# Total GULP energy -178396.607688 kJ/mol
# GULP energy per Si atom -5574.893990 kJ/mol
# Density = 2.151031 g / cm^3
# Si number density = 21.559385 Si / 1000 Ang^3
#
#
#
# Elastic Constant Matrix: (Units=GPa)
#
#
# Indices 1 2 3 4 5 6 
#
# 1 60.8031 7.3599 3.2604 0.0000 -15.7408 0.0000
# 2 7.3599 48.2824 10.1463 0.0000 -7.4781 0.0000
# 3 3.2604 10.1463 102.0940 0.0000 -16.6313 0.0000
# 4 0.0000 0.0000 0.0000 29.4536 0.0000 -9.5485
# 5 -15.7408 -7.4781 -16.6313 0.0000 38.7449 0.0000
# 6 0.0000 0.0000 0.0000 -9.5485 0.0000 31.3652
#
#
#
# Elastic Compliance Matrix: (Units=1/GPa)
#
#
# Indices 1 2 3 4 5 6 
#
# 1 0.018578 -0.001835 0.000818 0.000000 0.007545 0.000000
# 2 -0.001835 0.021765 -0.001657 0.000000 0.002744 0.000000
# 3 0.000818 -0.001657 0.010682 0.000000 0.004598 0.000000
# 4 0.000000 0.000000 0.000000 0.037669 0.000000 0.011468
# 5 0.007545 0.002744 0.004598 0.000000 0.031378 0.000000
# 6 0.000000 0.000000 0.000000 0.011468 0.000000 0.035374
#
#
# Mechanical properties :
#
#
# Convention : Reuss Voigt Hill
#
# Bulk Modulus (GPa) = 21.89347 28.07918 24.98633
# Shear Modulus (GPa) = 28.40574 32.60693 30.50634
#
# Velocity S-wave (km/s) = 3.63376 3.89321 3.76572
# Velocity P-wave (km/s) = 5.27092 5.76731 5.52469
#
# Compressibility (1/GPa) = 0.04567572
#
# Stress axis : x y z
#
# Youngs Moduli (GPa) = 53.82718 45.94636 93.61108
#
# Poissons Ratio (x) = 0.08433 -0.07659
# Poissons Ratio (y) = 0.09879 0.15515
# Poissons Ratio (z) = -0.04404 0.07615
#
# Static dielectric constant tensor:
#      x y z
#    x 1.772600 0.000000 0.036910 
#    y 0.000000 1.859370 0.000000 
#    z 0.036910 0.000000 1.794790 
# 
# From -- ./inp_files/70095.got.cif
#   From: 2010.05.17/outbox.cif.g08.bks.cpg/sg14_36_cif.got.tgz:70095.got - 2010.06.03 17:49:19.
