data_PCOD9252754
_publ_section_title
;
Structure prediction by ZEFSAII (Michael W. Deem and Ramdas Pophale) SiO2 
 PCOD9252754
Probable space group: P 21/C
;
_chemical_formula_sum "Si O2"
_cell_formula_units_Z 26
_cell_length_a 19.301897
_cell_length_b 8.688251
_cell_length_c 8.448197
_cell_angle_alpha 90.000000
_cell_angle_beta 131.813247
_cell_angle_gamma 90.000000
_cell_volume 1055.942459
_symmetry_space_group_name_H-M "P 21/C"
_symmetry_group_IT_number 14
_symmetry_cell_setting 'monoclinic'
loop_
_space_group_symop_operation_xyz
x,y,z
-x,1/2+y,1/2-z
-x,-y,-z
x,1/2-y,1/2+z
loop_
_atom_site_type_symbol
_atom_site_label
_atom_site_fract_x
_atom_site_fract_y
_atom_site_fract_z
Si Si1 0.391320 0.907072 0.218597
Si Si2 0.091561 0.397834 0.817646
Si Si3 0.593326 0.685510 0.044477
Si Si4 0.912664 0.213203 0.889472
Si Si5 0.295687 0.092524 0.592354
Si Si6 0.000000 0.000000 0.500000
Si Si7 0.277679 0.797397 0.756856
O O1 0.488561 0.827261 0.322204
O O2 0.352319 0.826420 0.316184
O O3 0.406521 0.081122 0.296038
O O4 0.316003 0.884333 0.968540
O O5 0.085261 0.554027 0.702932
O O6 0.012544 0.279426 0.635473
O O7 0.071120 0.450009 0.963842
O O8 0.194443 0.328735 0.955595
O O9 0.631381 0.846050 0.166865
O O10 0.662010 0.622082 0.014651
O O11 0.922262 0.373998 0.812596
O O12 0.821156 0.223563 0.855183
O O13 0.274994 0.916767 0.607064
#
# Coordination Sequence:
#
# PCOD9252754 Si02
#       7
#     4   4   4   4   4   2   4
#     4  11  25  45  74 104 139 187 231 301 351 431
#     4  11  26  46  70 100 144 185 232 291 350 417
#     4  11  26  47  71 104 142 180 241 292 363 417
#     4  11  26  47  67 103 144 186 234 289 348 427
#     4  12  26  47  71 106 138 189 233 297 354 432
#     4  12  24  42  72 104 136 186 238 286 348 414
#     4  12  25  45  73 104 141 187 236 285 364 421
#
# _framework density 24.622551999999999
#
# number of rings (size 3 to 8) (size 9 to 14) (size 15 to 20)
#    0.000    0.615    1.538    5.538    4.308    6.154 
#    0.000    0.000    0.000    0.000    0.000    0.000 
#    0.000    0.000    0.000    0.000    0.000    0.000 
#
# Total GULP energy -145076.854850 kJ/mol
# GULP energy per Si atom -5579.879033 kJ/mol
# Density = 2.456651 g / cm^3
# Si number density = 24.622552 Si / 1000 Ang^3
#
#
#
# Elastic Constant Matrix: (Units=GPa)
#
#
# Indices 1 2 3 4 5 6 
#
# 1 183.5186 16.6819 21.9338 0.0000 21.0821 0.0000
# 2 16.6819 36.5346 2.7929 0.0000 4.4703 0.0000
# 3 21.9338 2.7929 85.5182 0.0000 13.4063 0.0000
# 4 0.0000 0.0000 0.0000 27.6745 0.0000 -1.1874
# 5 21.0821 4.4703 13.4063 0.0000 42.6494 0.0000
# 6 0.0000 0.0000 0.0000 -1.1874 0.0000 36.7625
#
#
#
# Elastic Compliance Matrix: (Units=1/GPa)
#
#
# Indices 1 2 3 4 5 6 
#
# 1 0.006075 -0.002395 -0.001103 0.000000 -0.002405 0.000000
# 2 -0.002395 0.028690 -0.000039 0.000000 -0.001811 0.000000
# 3 -0.001103 -0.000039 0.012508 0.000000 -0.003382 0.000000
# 4 0.000000 0.000000 0.000000 0.036185 0.000000 0.001169
# 5 -0.002405 -0.001811 -0.003382 0.000000 0.025889 0.000000
# 6 0.000000 0.000000 0.000000 0.001169 0.000000 0.027239
#
#
# Mechanical properties :
#
#
# Convention : Reuss Voigt Hill
#
# Bulk Modulus (GPa) = 24.87650 43.15431 34.01540
# Shear Modulus (GPa) = 31.83536 39.02814 35.43175
#
# Velocity S-wave (km/s) = 3.59964 3.98560 3.79753
# Velocity P-wave (km/s) = 5.23466 6.22450 5.75091
#
# Compressibility (1/GPa) = 0.04019858
#
# Stress axis : x y z
#
# Youngs Moduli (GPa) = 164.61254 34.85594 79.95018
#
# Poissons Ratio (x) = 0.08349 0.08817
# Poissons Ratio (y) = 0.39428 0.00310
# Poissons Ratio (z) = 0.18154 0.00135
#
# Static dielectric constant tensor:
#      x y z
#    x 1.737260 0.000000 0.149510 
#    y 0.000000 2.056130 0.000000 
#    z 0.149510 0.000000 1.867670 
# 
# From -- ./inp_files/18639.got.cif
#   From: 2010.05.17/outbox.cif.g08.bks.cpg/sg14_10_cif.got.tgz:18639.got - 2010.06.03 17:49:19.
