data_PCOD9252159
_publ_section_title
;
Structure prediction by ZEFSAII (Michael W. Deem and Ramdas Pophale) SiO2 
 PCOD9252159
Probable space group: P 21/C
;
_chemical_formula_sum "Si O2"
_cell_formula_units_Z 28
_cell_length_a 7.383947
_cell_length_b 17.833611
_cell_length_c 12.003309
_cell_angle_alpha 90.000000
_cell_angle_beta 62.740809
_cell_angle_gamma 90.000000
_cell_volume 1405.086604
_symmetry_space_group_name_H-M "P 21/C"
_symmetry_group_IT_number 14
_symmetry_cell_setting 'monoclinic'
loop_
_space_group_symop_operation_xyz
x,y,z
-x,1/2+y,1/2-z
-x,-y,-z
x,1/2-y,1/2+z
loop_
_atom_site_type_symbol
_atom_site_label
_atom_site_fract_x
_atom_site_fract_y
_atom_site_fract_z
Si Si1 0.417058 0.039979 0.410204
Si Si2 0.550968 0.586473 0.505020
Si Si3 0.301549 0.601045 0.802300
Si Si4 0.864403 0.674236 0.927570
Si Si5 0.392199 0.647493 0.317376
Si Si6 0.367000 0.296533 0.224526
Si Si7 0.082690 0.332712 0.493854
O O1 0.267474 0.105603 0.491112
O O2 0.578014 0.084318 0.285991
O O3 0.500000 0.000000 0.500000
O O4 0.306227 0.980642 0.358376
O O5 0.500000 0.500000 0.500000
O O6 0.419396 0.606373 0.651478
O O7 0.485843 0.624684 0.409361
O O8 0.780240 0.613351 0.466954
O O9 0.439637 0.649652 0.847365
O O10 0.084059 0.638066 0.843502
O O11 0.748958 0.714599 0.857967
O O12 0.891393 0.743261 0.002319
O O13 0.521640 0.723363 0.253514
O O14 0.152981 0.655595 0.411642
O O15 0.195136 0.341940 0.343363
#
# Coordination Sequence:
#
# PCOD9252159 Si02
#       7
#     4   4   4   4   4   4   4
#     4  12  26  46  68 102 145 185 227 288 352 423
#     4  11  24  44  70  97 135 178 229 287 340 409
#     4  11  24  45  69  97 135 180 225 284 346 406
#     4  12  23  43  69 100 135 179 233 279 350 413
#     4  12  24  46  71  98 141 177 228 294 341 412
#     4  11  23  44  68  99 137 170 234 286 333 419
#     4  11  25  42  69 103 127 185 233 278 351 411
#
# _framework density 19.927598
#
# number of rings (size 3 to 8) (size 9 to 14) (size 15 to 20)
#    0.000    0.571    7.143    1.286    0.000    1.714 
#    7.714    0.000    0.000    0.000    0.000    0.000 
#    0.000    0.000    0.000    0.000    0.000    0.000 
#
# Total GULP energy -155944.578263 kJ/mol
# GULP energy per Si atom -5569.449224 kJ/mol
# Density = 1.988224 g / cm^3
# Si number density = 19.927598 Si / 1000 Ang^3
#
#
#
# Elastic Constant Matrix: (Units=GPa)
#
#
# Indices 1 2 3 4 5 6 
#
# 1 82.2952 18.8806 28.1894 0.0000 -20.7374 0.0000
# 2 18.8806 76.1971 -4.2848 0.0000 -9.4953 0.0000
# 3 28.1894 -4.2848 55.5232 0.0000 -8.1391 0.0000
# 4 0.0000 0.0000 0.0000 28.9528 0.0000 21.0873
# 5 -20.7374 -9.4953 -8.1391 0.0000 28.6937 0.0000
# 6 0.0000 0.0000 0.0000 21.0873 0.0000 -61.1587
#
#
#
# Elastic Compliance Matrix: (Units=1/GPa)
#
#
# Indices 1 2 3 4 5 6 
#
# 1 0.018228 -0.003776 -0.008136 0.000000 0.009616 0.000000
# 2 -0.003776 0.014644 0.003503 0.000000 0.003111 0.000000
# 3 -0.008136 0.003503 0.022662 0.000000 0.001707 0.000000
# 4 0.000000 0.000000 0.000000 0.027606 0.000000 0.009519
# 5 0.009616 0.003111 0.001707 0.000000 0.043314 0.000000
# 6 0.000000 0.000000 0.000000 0.009519 0.000000 -0.013069
#
#
# Mechanical properties :
#
#
# Convention : Reuss Voigt Hill
#
# Bulk Modulus (GPa) = 25.82899 33.28733 29.55816
# Shear Modulus (GPa) = 34.93859 10.71290 22.82574
#
# Velocity S-wave (km/s) = 4.19176 2.32112 3.38810
# Velocity P-wave (km/s) = 6.03468 4.89120 5.49278
#
# Compressibility (1/GPa) = 0.03871619
#
# Stress axis : x y z
#
# Youngs Moduli (GPa) = 54.86153 68.28688 44.12704
#
# Poissons Ratio (x) = 0.25784 0.35902
# Poissons Ratio (y) = 0.20715 -0.15458
# Poissons Ratio (z) = 0.44636 -0.23922
#
# Static dielectric constant tensor:
#      x y z
#    x 1.691290 0.000000 -0.082530 
#    y 0.000000 1.858140 0.000000 
#    z -0.082530 0.000000 0.962090 
# 
# From -- ./inp_files/21733.got.cif
#   From: 2010.05.17/outbox.cif.g08.bks.cpg/sg14_11_cif.got.tgz:21733.got - 2010.06.03 17:49:19.
