data_PCOD9252392
_publ_section_title
;
Structure prediction by ZEFSAII (Michael W. Deem and Ramdas Pophale) SiO2 
 PCOD9252392
Probable space group: P 21/C
;
_chemical_formula_sum "Si O2"
_cell_formula_units_Z 32
_cell_length_a 11.738414
_cell_length_b 5.446164
_cell_length_c 20.429958
_cell_angle_alpha 90.000000
_cell_angle_beta 102.736906
_cell_angle_gamma 90.000000
_cell_volume 1273.934580
_symmetry_space_group_name_H-M "P 21/C"
_symmetry_group_IT_number 14
_symmetry_cell_setting 'monoclinic'
loop_
_space_group_symop_operation_xyz
x,y,z
-x,1/2+y,1/2-z
-x,-y,-z
x,1/2-y,1/2+z
loop_
_atom_site_type_symbol
_atom_site_label
_atom_site_fract_x
_atom_site_fract_y
_atom_site_fract_z
Si Si1 0.593014 0.656352 0.334868
Si Si2 0.868330 0.775517 0.729063
Si Si3 0.007620 0.502373 0.647227
Si Si4 0.796261 0.345246 0.120635
Si Si5 0.867275 0.928668 0.503929
Si Si6 0.197962 0.911299 0.070200
Si Si7 0.369459 0.144867 0.803840
Si Si8 0.461111 0.961188 0.419850
O O1 0.684513 0.460341 0.374263
O O2 0.635584 0.728794 0.268288
O O3 0.462311 0.564731 0.305743
O O4 0.566382 0.848770 0.389874
O O5 0.908962 0.799598 0.808242
O O6 0.765282 0.581462 0.702998
O O7 0.977871 0.692193 0.700575
O O8 0.817611 0.029936 0.694028
O O9 0.083595 0.619665 0.600809
O O10 0.889234 0.363685 0.613460
O O11 0.658628 0.297825 0.093238
O O12 0.837791 0.565081 0.076874
O O13 0.792550 0.161234 0.468531
O O14 0.830241 0.665768 0.470990
O O15 0.000000 0.000000 0.500000
O O16 0.416954 0.305865 0.870928
O O17 0.500000 0.000000 0.500000
#
# Coordination Sequence:
#
# PCOD9252392 Si02
#       8
#     4   4   4   4   4   4   4   4
#     4  12  25  47  76 106 149 200 256 330 377 472
#     4  11  24  43  66 106 142 187 247 310 383 448
#     4  12  23  43  70 104 142 192 239 318 373 461
#     4  11  25  44  72 102 147 192 247 309 385 454
#     4  12  26  50  72 111 153 201 248 314 380 468
#     4  12  29  45  79 110 149 199 256 309 389 456
#     4  11  25  46  73 106 144 196 260 315 388 458
#     4  11  26  49  71 106 149 198 256 319 386 462
#
# _framework density 25.119026999999999
#
# number of rings (size 3 to 8) (size 9 to 14) (size 15 to 20)
#    0.000    0.500    5.000    2.625    5.250    0.500 
#    2.250    0.000    0.000    0.000    0.000    0.000 
#    0.000    0.000    0.000    0.000    0.000    0.000 
#
# Total GULP energy -179009.598086 kJ/mol
# GULP energy per Si atom -5594.049940 kJ/mol
# Density = 2.506185 g / cm^3
# Si number density = 25.119027 Si / 1000 Ang^3
#
#
#
# Elastic Constant Matrix: (Units=GPa)
#
#
# Indices 1 2 3 4 5 6 
#
# 1 118.2821 7.6349 31.4532 0.0000 8.3329 0.0000
# 2 7.6349 59.7213 18.2684 0.0000 10.9408 0.0000
# 3 31.4532 18.2684 130.6046 0.0000 6.5728 0.0000
# 4 0.0000 0.0000 0.0000 38.5295 0.0000 2.8200
# 5 8.3329 10.9408 6.5728 0.0000 43.9222 0.0000
# 6 0.0000 0.0000 0.0000 2.8200 0.0000 39.3754
#
#
#
# Elastic Compliance Matrix: (Units=1/GPa)
#
#
# Indices 1 2 3 4 5 6 
#
# 1 0.009123 -0.000280 -0.002090 0.000000 -0.001348 0.000000
# 2 -0.000280 0.018236 -0.002275 0.000000 -0.004149 0.000000
# 3 -0.002090 -0.002275 0.008494 0.000000 -0.000308 0.000000
# 4 0.000000 0.000000 0.000000 0.026091 0.000000 -0.001869
# 5 -0.001348 -0.004149 -0.000308 0.000000 0.024103 0.000000
# 6 0.000000 0.000000 0.000000 -0.001869 0.000000 0.025530
#
#
# Mechanical properties :
#
#
# Convention : Reuss Voigt Hill
#
# Bulk Modulus (GPa) = 37.64528 47.03567 42.34047
# Shear Modulus (GPa) = 38.54422 41.11551 39.82987
#
# Velocity S-wave (km/s) = 3.92147 4.05016 3.98634
# Velocity P-wave (km/s) = 5.96014 6.37476 6.17093
#
# Compressibility (1/GPa) = 0.02656376
#
# Stress axis : x y z
#
# Youngs Moduli (GPa) = 109.61045 54.83629 117.73432
#
# Poissons Ratio (x) = 0.01535 0.24608
# Poissons Ratio (y) = 0.03069 0.26779
# Poissons Ratio (z) = 0.22910 0.12473
#
# Static dielectric constant tensor:
#      x y z
#    x 1.968200 0.000000 0.003840 
#    y 0.000000 2.047250 0.000000 
#    z 0.003840 0.000000 2.049120 
# 
# From -- ./inp_files/72845.got.cif
#   From: 2010.05.17/outbox.cif.g08.bks.cpg/sg14_37_cif.got.tgz:72845.got - 2010.06.03 17:49:19.
