data_PCOD9252185
_publ_section_title
;
Structure prediction by ZEFSAII (Michael W. Deem and Ramdas Pophale) SiO2 
 PCOD9252185
Probable space group: P 21/C
;
_chemical_formula_sum "Si O2"
_cell_formula_units_Z 30
_cell_length_a 17.925544
_cell_length_b 11.390938
_cell_length_c 10.512613
_cell_angle_alpha 90.000000
_cell_angle_beta 141.238325
_cell_angle_gamma 90.000000
_cell_volume 1343.921763
_symmetry_space_group_name_H-M "P 21/C"
_symmetry_group_IT_number 14
_symmetry_cell_setting 'monoclinic'
loop_
_space_group_symop_operation_xyz
x,y,z
-x,1/2+y,1/2-z
-x,-y,-z
x,1/2-y,1/2+z
loop_
_atom_site_type_symbol
_atom_site_label
_atom_site_fract_x
_atom_site_fract_y
_atom_site_fract_z
Si Si1 0.790037 0.209398 0.784910
Si Si2 0.254926 0.094130 0.425896
Si Si3 0.851560 0.385821 0.087882
Si Si4 0.117048 0.459297 0.508234
Si Si5 0.452165 0.747812 0.906753
Si Si6 0.512379 0.044870 0.734284
Si Si7 0.670492 0.832437 0.850579
Si Si8 0.500000 0.000000 0.000000
O O1 0.816855 0.192268 0.668745
O O2 0.649182 0.213998 0.626357
O O3 0.852237 0.096283 0.933882
O O4 0.834395 0.319663 0.930770
O O5 0.142848 0.091197 0.183563
O O6 0.371813 0.039538 0.513814
O O7 0.288514 0.225061 0.507741
O O8 0.223777 0.007545 0.501173
O O9 0.987577 0.425674 0.287885
O O10 0.214608 0.397060 0.550518
O O11 0.434168 0.654708 0.770017
O O12 0.448955 0.881729 0.857299
O O13 0.586904 0.725744 0.133002
O O14 0.518474 0.068128 0.891466
O O15 0.587685 0.930718 0.802344
#
# Coordination Sequence:
#
# PCOD9252185 Si02
#       8
#     4   4   4   4   4   4   4   2
#     4  11  25  48  75 103 143 199 241 311 370 445
#     4  11  23  44  72 103 145 189 233 306 365 435
#     4  11  27  47  75 104 146 193 255 305 370 438
#     4  11  25  46  72 102 143 192 247 300 365 438
#     4  12  25  45  70 107 150 187 245 298 379 449
#     4  12  24  45  67 105 145 187 241 293 373 440
#     4  12  24  42  75 107 142 185 243 301 368 442
#     4  12  28  40  68 106 152 192 232 306 358 456
#
# _framework density 22.322728000000001
#
# number of rings (size 3 to 8) (size 9 to 14) (size 15 to 20)
#    0.000    0.533    4.000    5.200    5.600    0.000 
#    0.000    2.000    0.000    0.000    0.000    0.000 
#    0.000    0.000    0.000    0.000    0.000    0.000 
#
# Total GULP energy -167270.136629 kJ/mol
# GULP energy per Si atom -5575.671221 kJ/mol
# Density = 2.227192 g / cm^3
# Si number density = 22.322728 Si / 1000 Ang^3
#
#
#
# Elastic Constant Matrix: (Units=GPa)
#
#
# Indices 1 2 3 4 5 6 
#
# 1 59.5598 6.0093 1.4532 0.0000 16.4381 0.0000
# 2 6.0093 127.1033 18.9289 0.0000 0.9875 0.0000
# 3 1.4532 18.9289 43.6987 0.0000 18.1612 0.0000
# 4 0.0000 0.0000 0.0000 42.1969 0.0000 -5.9362
# 5 16.4381 0.9875 18.1612 0.0000 39.4130 0.0000
# 6 0.0000 0.0000 0.0000 -5.9362 0.0000 31.5418
#
#
#
# Elastic Compliance Matrix: (Units=1/GPa)
#
#
# Indices 1 2 3 4 5 6 
#
# 1 0.019614 -0.001470 0.004167 0.000000 -0.010064 0.000000
# 2 -0.001470 0.008627 -0.004765 0.000000 0.002593 0.000000
# 3 0.004167 -0.004765 0.031518 0.000000 -0.016142 0.000000
# 4 0.000000 0.000000 0.000000 0.024343 0.000000 0.004581
# 5 -0.010064 0.002593 -0.016142 0.000000 0.036943 0.000000
# 6 0.000000 0.000000 0.000000 0.004581 0.000000 0.032566
#
#
# Mechanical properties :
#
#
# Convention : Reuss Voigt Hill
#
# Bulk Modulus (GPa) = 17.97848 31.46052 24.71950
# Shear Modulus (GPa) = 28.36274 36.22838 32.29556
#
# Velocity S-wave (km/s) = 3.56838 4.03294 3.80775
# Velocity P-wave (km/s) = 5.00491 5.98416 5.51631
#
# Compressibility (1/GPa) = 0.05562206
#
# Stress axis : x y z
#
# Youngs Moduli (GPa) = 50.98412 115.91980 31.72780
#
# Poissons Ratio (x) = 0.17037 -0.13220
# Poissons Ratio (y) = 0.07493 0.15120
# Poissons Ratio (z) = -0.21244 0.55241
#
# Static dielectric constant tensor:
#      x y z
#    x 1.842160 0.000000 -0.012430 
#    y 0.000000 1.733770 0.000000 
#    z -0.012430 0.000000 1.846280 
# 
# From -- ./inp_files/33961.got.cif
#   From: 2010.05.17/outbox.cif.g08.bks.cpg/sg14_17_cif.got.tgz:33961.got - 2010.06.03 17:49:19.
