data_PCOD9252971
_publ_section_title
;
Structure prediction by ZEFSAII (Michael W. Deem and Ramdas Pophale) SiO2 
 PCOD9252971
Probable space group: P 21/C
;
_chemical_formula_sum "Si O2"
_cell_formula_units_Z 26
_cell_length_a 18.671168
_cell_length_b 5.142958
_cell_length_c 9.396019
_cell_angle_alpha 90.000000
_cell_angle_beta 83.653675
_cell_angle_gamma 90.000000
_cell_volume 896.723943
_symmetry_space_group_name_H-M "P 21/C"
_symmetry_group_IT_number 14
_symmetry_cell_setting 'monoclinic'
loop_
_space_group_symop_operation_xyz
x,y,z
-x,1/2+y,1/2-z
-x,-y,-z
x,1/2-y,1/2+z
loop_
_atom_site_type_symbol
_atom_site_label
_atom_site_fract_x
_atom_site_fract_y
_atom_site_fract_z
Si Si1 0.877984 0.030534 0.520619
Si Si2 0.386408 0.229147 0.603259
Si Si3 0.993631 0.786548 0.160937
Si Si4 0.500000 0.000000 0.500000
Si Si5 0.757127 0.094170 0.082957
Si Si6 0.226317 0.250551 0.662423
Si Si7 0.401350 0.742233 0.784931
O O1 0.815635 0.191520 0.612725
O O2 0.937878 0.232375 0.453229
O O3 0.921943 0.819672 0.601491
O O4 0.840374 0.892639 0.395307
O O5 0.440108 0.236005 0.461541
O O6 0.304743 0.150817 0.589015
O O7 0.385676 0.480834 0.699038
O O8 0.423205 0.962780 0.661683
O O9 0.005600 0.579538 0.285826
O O10 0.540640 0.202537 0.607401
O O11 0.675164 0.171139 0.130940
O O12 0.770325 0.835318 0.174711
O O13 0.771672 0.031363 0.913905
#
# Coordination Sequence:
#
# PCOD9252971 Si02
#       7
#     4   4   4   2   4   4   4
#     4  11  27  46  80 116 156 219 268 335 410 488
#     4  11  28  48  73 114 156 203 262 334 401 476
#     4  11  28  49  75 115 165 210 269 333 405 490
#     4  12  26  48  82 106 152 214 264 326 396 482
#     4  11  28  50  82 119 163 215 273 342 407 486
#     4  11  28  48  82 117 163 211 273 339 407 486
#     4  11  28  49  73 115 156 202 263 334 404 473
#
# _framework density 28.994429
#
# number of rings (size 3 to 8) (size 9 to 14) (size 15 to 20)
#    0.000    0.923    0.000    2.769   21.538    2.462 
#    0.000    0.000    0.000    0.000    0.000    0.000 
#    0.000    0.000    0.000    0.000    0.000    0.000 
#
# Total GULP energy -145699.663557 kJ/mol
# GULP energy per Si atom -5603.833214 kJ/mol
# Density = 2.892844 g / cm^3
# Si number density = 28.994429 Si / 1000 Ang^3
#
#
#
# Elastic Constant Matrix: (Units=GPa)
#
#
# Indices 1 2 3 4 5 6 
#
# 1 214.9600 33.3845 44.5480 0.0000 -0.4161 0.0000
# 2 33.3845 132.6671 57.2495 0.0000 -0.1037 0.0000
# 3 44.5480 57.2495 140.3605 0.0000 10.0544 0.0000
# 4 0.0000 0.0000 0.0000 54.9264 0.0000 2.4400
# 5 -0.4161 -0.1037 10.0544 0.0000 47.2649 0.0000
# 6 0.0000 0.0000 0.0000 2.4400 0.0000 38.4862
#
#
#
# Elastic Compliance Matrix: (Units=1/GPa)
#
#
# Indices 1 2 3 4 5 6 
#
# 1 0.005038 -0.000689 -0.001342 0.000000 0.000328 0.000000
# 2 -0.000689 0.009274 -0.003620 0.000000 0.000784 0.000000
# 3 -0.001342 -0.003620 0.009168 0.000000 -0.001970 0.000000
# 4 0.000000 0.000000 0.000000 0.018258 0.000000 -0.001158
# 5 0.000328 0.000784 -0.001970 0.000000 0.021581 0.000000
# 6 0.000000 0.000000 0.000000 -0.001158 0.000000 0.026057
#
#
# Mechanical properties :
#
#
# Convention : Reuss Voigt Hill
#
# Bulk Modulus (GPa) = 82.10935 84.26128 83.18531
# Shear Modulus (GPa) = 47.73963 51.65588 49.69776
#
# Velocity S-wave (km/s) = 4.06212 4.22546 4.14459
# Velocity P-wave (km/s) = 7.09800 7.27532 7.18721
#
# Compressibility (1/GPa) = 0.01217888
#
# Stress axis : x y z
#
# Youngs Moduli (GPa) = 198.50680 107.83126 109.07512
#
# Poissons Ratio (x) = 0.07424 0.14633
# Poissons Ratio (y) = 0.13667 0.39487
# Poissons Ratio (z) = 0.26630 0.39037
#
# Static dielectric constant tensor:
#      x y z
#    x 2.319910 0.000000 -0.255390 
#    y 0.000000 2.280710 0.000000 
#    z -0.255390 0.000000 2.535350 
# 
# From -- ./inp_files/34488.got.cif
#   From: 2010.05.17/outbox.cif.g08.bks.cpg/sg14_18_cif.got.tgz:34488.got - 2010.06.03 17:49:19.
