data_PCOD9252661
_publ_section_title
;
Structure prediction by ZEFSAII (Michael W. Deem and Ramdas Pophale) SiO2 
 PCOD9252661
Probable space group: P 21/C
;
_chemical_formula_sum "Si O2"
_cell_formula_units_Z 22
_cell_length_a 10.907615
_cell_length_b 13.779203
_cell_length_c 9.610751
_cell_angle_alpha 90.000000
_cell_angle_beta 36.092643
_cell_angle_gamma 90.000000
_cell_volume 850.931879
_symmetry_space_group_name_H-M "P 21/C"
_symmetry_group_IT_number 14
_symmetry_cell_setting 'monoclinic'
loop_
_space_group_symop_operation_xyz
x,y,z
-x,1/2+y,1/2-z
-x,-y,-z
x,1/2-y,1/2+z
loop_
_atom_site_type_symbol
_atom_site_label
_atom_site_fract_x
_atom_site_fract_y
_atom_site_fract_z
Si Si1 0.862095 0.128571 0.228139
Si Si2 0.000000 0.500000 0.000000
Si Si3 0.414945 0.932793 0.263894
Si Si4 0.735558 0.687678 0.314172
Si Si5 0.905810 0.687252 0.885581
Si Si6 0.819333 0.464383 0.481743
O O1 0.927353 0.236089 0.211095
O O2 0.064265 0.059154 0.065654
O O3 0.684941 0.094036 0.496390
O O4 0.798031 0.111231 0.127684
O O5 0.403115 0.509644 0.372115
O O6 0.977772 0.417456 0.221005
O O7 0.758791 0.024913 0.676183
O O8 0.530925 0.844891 0.080995
O O9 0.825536 0.782590 0.308409
O O10 0.912950 0.604258 0.159231
O O11 0.717253 0.699005 0.166030
#
# Coordination Sequence:
#
# PCOD9252661 Si02
#       6
#     4   2   4   4   4   4
#     4  11  24  49  74 116 163 196 262 323 388 480
#     4  12  26  50  74 106 156 202 268 324 376 462
#     4  12  24  49  78 112 152 210 261 324 393 459
#     4  12  26  48  76 113 155 203 258 325 395 463
#     4  12  24  50  75 116 159 201 260 324 389 476
#     4  11  25  48  81 111 158 209 255 324 396 464
#
# _framework density 25.854009000000001
#
# number of rings (size 3 to 8) (size 9 to 14) (size 15 to 20)
#    0.000    0.364    5.455    3.273    0.000    0.000 
#   13.091    0.000    0.000    0.000    0.000    0.000 
#    0.000    0.000    0.000    0.000    0.000    0.000 
#
# Total GULP energy -123078.487624 kJ/mol
# GULP energy per Si atom -5594.476710 kJ/mol
# Density = 2.579516 g / cm^3
# Si number density = 25.854009 Si / 1000 Ang^3
#
#
#
# Elastic Constant Matrix: (Units=GPa)
#
#
# Indices 1 2 3 4 5 6 
#
# 1 116.2533 19.8199 48.1815 0.0000 -22.0673 0.0000
# 2 19.8199 93.7619 9.2000 0.0000 -20.6387 0.0000
# 3 48.1815 9.2000 147.0513 0.0000 -0.7134 0.0000
# 4 0.0000 0.0000 0.0000 47.0030 0.0000 -3.4941
# 5 -22.0673 -20.6387 -0.7134 0.0000 43.6380 0.0000
# 6 0.0000 0.0000 0.0000 -3.4941 0.0000 33.9864
#
#
#
# Elastic Compliance Matrix: (Units=1/GPa)
#
#
# Indices 1 2 3 4 5 6 
#
# 1 0.011231 -0.000875 -0.003600 0.000000 0.005207 0.000000
# 2 -0.000875 0.012049 -0.000442 0.000000 0.005249 0.000000
# 3 -0.003600 -0.000442 0.007998 0.000000 -0.001899 0.000000
# 4 0.000000 0.000000 0.000000 0.021439 0.000000 0.002204
# 5 0.005207 0.005249 -0.001899 0.000000 0.028001 0.000000
# 6 0.000000 0.000000 0.000000 0.002204 0.000000 0.029650
#
#
# Mechanical properties :
#
#
# Convention : Reuss Voigt Hill
#
# Bulk Modulus (GPa) = 46.62930 56.82993 51.72962
# Shear Modulus (GPa) = 39.26182 43.58314 41.42248
#
# Velocity S-wave (km/s) = 3.90115 4.11023 4.00705
# Velocity P-wave (km/s) = 6.19408 6.67489 6.43898
#
# Compressibility (1/GPa) = 0.02144575
#
# Stress axis : x y z
#
# Youngs Moduli (GPa) = 89.03531 82.99462 125.02623
#
# Poissons Ratio (x) = 0.07260 0.45010
# Poissons Ratio (y) = 0.07788 0.05523
# Poissons Ratio (z) = 0.32053 0.03666
#
# Static dielectric constant tensor:
#      x y z
#    x 1.905880 0.000000 0.064550 
#    y 0.000000 2.016330 0.000000 
#    z 0.064550 0.000000 2.025660 
# 
# From -- ./inp_files/9631.got.cif
#   From: 2010.05.17/outbox.cif.g08.bks.cpg/sg14_5_cif.got.tgz:9631.got - 2010.06.03 17:49:19.
