data_PCOD9252224
_publ_section_title
;
Structure prediction by ZEFSAII (Michael W. Deem and Ramdas Pophale) SiO2 
 PCOD9252224
Probable space group: P 21/C
;
_chemical_formula_sum "Si O2"
_cell_formula_units_Z 32
_cell_length_a 14.166147
_cell_length_b 18.373770
_cell_length_c 12.070451
_cell_angle_alpha 90.000000
_cell_angle_beta 29.854623
_cell_angle_gamma 90.000000
_cell_volume 1563.973174
_symmetry_space_group_name_H-M "P 21/C"
_symmetry_group_IT_number 14
_symmetry_cell_setting 'monoclinic'
loop_
_space_group_symop_operation_xyz
x,y,z
-x,1/2+y,1/2-z
-x,-y,-z
x,1/2-y,1/2+z
loop_
_atom_site_type_symbol
_atom_site_label
_atom_site_fract_x
_atom_site_fract_y
_atom_site_fract_z
Si Si1 0.415410 0.802090 0.889908
Si Si2 0.662923 0.663844 0.351301
Si Si3 0.639420 0.141740 0.480364
Si Si4 0.653208 0.672886 0.924353
Si Si5 0.131125 0.463624 0.958791
Si Si6 0.189878 0.929932 0.064974
Si Si7 0.490286 0.955981 0.189957
Si Si8 0.964290 0.416179 0.508965
O O1 0.514549 0.822139 0.904061
O O2 0.545664 0.826780 0.652715
O O3 0.374571 0.716494 0.935433
O O4 0.227665 0.850380 0.075117
O O5 0.714549 0.742985 0.344085
O O6 0.826540 0.616997 0.127732
O O7 0.578018 0.610740 0.531196
O O8 0.491475 0.150872 0.528155
O O9 0.583130 0.076186 0.619172
O O10 0.850709 0.126833 0.219867
O O11 0.839884 0.622936 0.725036
O O12 0.324126 0.506706 0.787222
O O13 0.000000 0.500000 0.000000
O O14 0.010732 0.460808 0.192806
O O15 0.182814 0.919872 0.942238
O O16 0.351539 0.983680 0.944561
O O17 0.000000 0.500000 0.500000
#
# Coordination Sequence:
#
# PCOD9252224 Si02
#       8
#     4   4   4   4   4   4   4   4
#     4  11  23  46  71  96 137 180 234 285 352 419
#     4  11  23  45  71  98 139 180 226 291 350 419
#     4  11  26  46  71 101 139 188 229 293 350 416
#     4  11  25  49  69 100 139 184 233 288 350 418
#     4  12  24  41  68 105 140 179 231 288 352 413
#     4  12  25  42  71 100 138 184 230 293 351 416
#     4  12  24  46  69 105 141 183 234 288 354 426
#     4  12  27  45  70 106 138 185 238 283 352 422
#
# _framework density 20.460708
#
# number of rings (size 3 to 8) (size 9 to 14) (size 15 to 20)
#    0.000    0.500    5.000    3.375    3.500    1.000 
#    2.250    0.000    0.000    0.000    0.000    0.000 
#    0.000    0.000    0.000    0.000    0.000    0.000 
#
# Total GULP energy -178850.482124 kJ/mol
# GULP energy per Si atom -5589.077566 kJ/mol
# Density = 2.041414 g / cm^3
# Si number density = 20.460708 Si / 1000 Ang^3
#
#
#
# Elastic Constant Matrix: (Units=GPa)
#
#
# Indices 1 2 3 4 5 6 
#
# 1 71.2815 38.3786 19.9553 0.0000 -2.7041 0.0000
# 2 38.3786 114.6809 46.9931 0.0000 -14.3330 0.0000
# 3 19.9553 46.9931 112.5698 0.0000 1.5777 0.0000
# 4 0.0000 0.0000 0.0000 31.6942 0.0000 9.0769
# 5 -2.7041 -14.3330 1.5777 0.0000 33.6692 0.0000
# 6 0.0000 0.0000 0.0000 9.0769 0.0000 25.1837
#
#
#
# Elastic Compliance Matrix: (Units=1/GPa)
#
#
# Indices 1 2 3 4 5 6 
#
# 1 0.017198 -0.005588 -0.000702 0.000000 -0.000965 0.000000
# 2 -0.005588 0.013130 -0.004566 0.000000 0.005355 0.000000
# 3 -0.000702 -0.004566 0.010949 0.000000 -0.002513 0.000000
# 4 0.000000 0.000000 0.000000 0.035183 0.000000 -0.012681
# 5 -0.000965 0.005355 -0.002513 0.000000 0.032020 0.000000
# 6 0.000000 0.000000 0.000000 -0.012681 0.000000 0.044279
#
#
# Mechanical properties :
#
#
# Convention : Reuss Voigt Hill
#
# Bulk Modulus (GPa) = 51.11281 56.57626 53.84454
# Shear Modulus (GPa) = 27.62541 30.98976 29.30758
#
# Velocity S-wave (km/s) = 3.67845 3.89601 3.78879
# Velocity P-wave (km/s) = 6.56327 6.92457 6.74634
#
# Compressibility (1/GPa) = 0.01956457
#
# Stress axis : x y z
#
# Youngs Moduli (GPa) = 58.14772 76.16117 91.33184
#
# Poissons Ratio (x) = 0.42559 0.06415
# Poissons Ratio (y) = 0.32493 0.41699
# Poissons Ratio (z) = 0.04084 0.34773
#
# Static dielectric constant tensor:
#      x y z
#    x 2.004630 0.000000 -0.046440 
#    y 0.000000 1.715510 0.000000 
#    z -0.046440 0.000000 1.758950 
# 
# From -- ./inp_files/33040.got.cif
#   From: 2010.05.17/outbox.cif.g08.bks.cpg/sg14_17_cif.got.tgz:33040.got - 2010.06.03 17:49:19.
