data_PCOD9252532
_publ_section_title
;
Structure prediction by ZEFSAII (Michael W. Deem and Ramdas Pophale) SiO2 
 PCOD9252532
Probable space group: P 21/C
;
_chemical_formula_sum "Si O2"
_cell_formula_units_Z 16
_cell_length_a 5.731959
_cell_length_b 12.044459
_cell_length_c 11.211122
_cell_angle_alpha 90.000000
_cell_angle_beta 60.724635
_cell_angle_gamma 90.000000
_cell_volume 675.142070
_symmetry_space_group_name_H-M "P 21/C"
_symmetry_group_IT_number 14
_symmetry_cell_setting 'monoclinic'
loop_
_space_group_symop_operation_xyz
x,y,z
-x,1/2+y,1/2-z
-x,-y,-z
x,1/2-y,1/2+z
loop_
_atom_site_type_symbol
_atom_site_label
_atom_site_fract_x
_atom_site_fract_y
_atom_site_fract_z
Si Si1 0.751888 0.781045 0.554984
Si Si2 0.587045 0.012417 0.614486
Si Si3 0.802840 0.183578 0.730859
Si Si4 0.942571 0.564798 0.633671
O O1 0.431779 0.754710 0.647152
O O2 0.881499 0.691126 0.609558
O O3 0.908881 0.769729 0.388061
O O4 0.777899 0.908195 0.590288
O O5 0.691651 0.130247 0.635641
O O6 0.313673 0.002057 0.753797
O O7 0.500000 0.000000 0.500000
O O8 0.852256 0.081323 0.809628
O O9 0.000000 0.500000 0.500000
#
# Coordination Sequence:
#
# PCOD9252532 Si02
#       4
#     4   4   4   4
#     4  11  25  43  73 102 143 191 240 289 371 421
#     4  11  24  45  72 106 143 191 244 293 360 434
#     4  11  26  45  73 106 145 188 239 305 352 436
#     4  11  26  45  70 108 146 185 241 302 362 429
#
# _framework density 23.698716999999998
#
# number of rings (size 3 to 8) (size 9 to 14) (size 15 to 20)
#    0.000    1.000    2.500    2.250    3.500    8.000 
#    0.000    0.000    0.000    0.000    0.000    0.000 
#    0.000    0.000    0.000    0.000    0.000    0.000 
#
# Total GULP energy -89217.744996 kJ/mol
# GULP energy per Si atom -5576.109062 kJ/mol
# Density = 2.364478 g / cm^3
# Si number density = 23.698717 Si / 1000 Ang^3
#
#
#
# Elastic Constant Matrix: (Units=GPa)
#
#
# Indices 1 2 3 4 5 6 
#
# 1 46.0278 13.7585 47.3393 0.0000 -5.2027 0.0000
# 2 13.7585 71.7578 27.1532 0.0000 1.5397 0.0000
# 3 47.3393 27.1532 225.7847 0.0000 -24.1917 0.0000
# 4 0.0000 0.0000 0.0000 42.5752 0.0000 -0.0483
# 5 -5.2027 1.5397 -24.1917 0.0000 48.5670 0.0000
# 6 0.0000 0.0000 0.0000 -0.0483 0.0000 34.4780
#
#
#
# Elastic Compliance Matrix: (Units=1/GPa)
#
#
# Indices 1 2 3 4 5 6 
#
# 1 0.028455 -0.003377 -0.005516 0.000000 0.000408 0.000000
# 2 -0.003377 0.015093 -0.001265 0.000000 -0.001470 0.000000
# 3 -0.005516 -0.001265 0.005999 0.000000 0.002437 0.000000
# 4 0.000000 0.000000 0.000000 0.023488 0.000000 0.000033
# 5 0.000408 -0.001470 0.002437 0.000000 0.021894 0.000000
# 6 0.000000 0.000000 0.000000 0.000033 0.000000 0.029004
#
#
# Mechanical properties :
#
#
# Convention : Reuss Voigt Hill
#
# Bulk Modulus (GPa) = 34.21016 57.78580 45.99798
# Shear Modulus (GPa) = 32.46895 42.14532 37.30714
#
# Velocity S-wave (km/s) = 3.70546 4.22166 3.97196
# Velocity P-wave (km/s) = 5.72486 6.94260 6.36293
#
# Compressibility (1/GPa) = 0.02923109
#
# Stress axis : x y z
#
# Youngs Moduli (GPa) = 35.14321 66.25426 166.70068
#
# Poissons Ratio (x) = 0.22376 0.91956
# Poissons Ratio (y) = 0.11869 0.21081
# Poissons Ratio (z) = 0.19386 0.08378
#
# Static dielectric constant tensor:
#      x y z
#    x 2.080780 0.000000 -0.067700 
#    y 0.000000 1.946660 0.000000 
#    z -0.067700 0.000000 1.881860 
# 
# From -- ./inp_files/20355.got.cif
#   From: 2010.05.17/outbox.cif.g08.bks.cpg/sg14_11_cif.got.tgz:20355.got - 2010.06.03 17:49:19.
