data_PCOD9252869
_publ_section_title
;
Structure prediction by ZEFSAII (Michael W. Deem and Ramdas Pophale) SiO2 
 PCOD9252869
Probable space group: P 21/C
;
_chemical_formula_sum "Si O2"
_cell_formula_units_Z 24
_cell_length_a 17.300158
_cell_length_b 7.510530
_cell_length_c 15.357683
_cell_angle_alpha 90.000000
_cell_angle_beta 25.951739
_cell_angle_gamma 90.000000
_cell_volume 873.247773
_symmetry_space_group_name_H-M "P 21/C"
_symmetry_group_IT_number 14
_symmetry_cell_setting 'monoclinic'
loop_
_space_group_symop_operation_xyz
x,y,z
-x,1/2+y,1/2-z
-x,-y,-z
x,1/2-y,1/2+z
loop_
_atom_site_type_symbol
_atom_site_label
_atom_site_fract_x
_atom_site_fract_y
_atom_site_fract_z
Si Si1 0.642750 0.438628 0.039744
Si Si2 0.454058 0.225039 0.506066
Si Si3 0.997052 0.357013 0.761327
Si Si4 0.650605 0.479407 0.518829
Si Si5 0.142717 0.289586 0.932978
Si Si6 0.857415 0.280648 0.076193
O O1 0.615948 0.575074 0.989071
O O2 0.486674 0.469982 0.266745
O O3 0.827726 0.469929 0.901329
O O4 0.651500 0.231203 0.006386
O O5 0.407588 0.413284 0.507351
O O6 0.335616 0.217474 0.712157
O O7 0.664342 0.212114 0.295994
O O8 0.156231 0.453304 0.650294
O O9 0.078378 0.278291 0.590793
O O10 0.911552 0.229228 0.922957
O O11 0.149950 0.503756 0.920628
O O12 0.003454 0.230561 0.999502
#
# Coordination Sequence:
#
# PCOD9252869 Si02
#       6
#     4   4   4   4   4   4
#     4  12  28  48  81 125 161 223 287 336 425 507
#     4  12  27  52  84 124 171 219 280 352 426 498
#     4  12  27  49  85 118 172 226 281 353 425 507
#     4  12  26  47  85 120 163 225 282 349 424 502
#     4  11  28  50  88 127 170 220 288 349 428 504
#     4  11  25  52  83 124 172 225 277 356 425 502
#
# _framework density 27.483609999999999
#
# number of rings (size 3 to 8) (size 9 to 14) (size 15 to 20)
#    0.000    0.333    5.000    1.500    9.333    3.333 
#    0.000    1.667    0.000    0.000    0.000    0.000 
#    0.000    0.000    0.000    0.000    0.000    0.000 
#
# Total GULP energy -135081.304493 kJ/mol
# GULP energy per Si atom -5628.387687 kJ/mol
# Density = 2.742106 g / cm^3
# Si number density = 27.483610 Si / 1000 Ang^3
#
#
#
# Elastic Constant Matrix: (Units=GPa)
#
#
# Indices 1 2 3 4 5 6 
#
# 1 157.1732 22.2843 96.6126 0.0000 -13.4713 0.0000
# 2 22.2843 88.6559 34.9704 0.0000 -5.8321 0.0000
# 3 96.6126 34.9704 267.1991 0.0000 -0.8153 0.0000
# 4 0.0000 0.0000 0.0000 43.4522 0.0000 2.3972
# 5 -13.4713 -5.8321 -0.8153 0.0000 73.1924 0.0000
# 6 0.0000 0.0000 0.0000 2.3972 0.0000 48.5485
#
#
#
# Elastic Compliance Matrix: (Units=1/GPa)
#
#
# Indices 1 2 3 4 5 6 
#
# 1 0.008405 -0.000865 -0.002921 0.000000 0.001445 0.000000
# 2 -0.000865 0.012046 -0.001261 0.000000 0.000787 0.000000
# 3 -0.002921 -0.001261 0.004962 0.000000 -0.000583 0.000000
# 4 0.000000 0.000000 0.000000 0.023077 0.000000 -0.001139
# 5 0.001445 0.000787 -0.000583 0.000000 0.013985 0.000000
# 6 0.000000 0.000000 0.000000 -0.001139 0.000000 0.020654
#
#
# Mechanical properties :
#
#
# Convention : Reuss Voigt Hill
#
# Bulk Modulus (GPa) = 65.28515 91.19586 78.24050
# Shear Modulus (GPa) = 50.84909 56.98268 53.91588
#
# Velocity S-wave (km/s) = 4.30602 4.55833 4.43397
# Velocity P-wave (km/s) = 6.96621 7.80759 7.39887
#
# Compressibility (1/GPa) = 0.01531742
#
# Stress axis : x y z
#
# Youngs Moduli (GPa) = 118.98206 83.01285 201.52802
#
# Poissons Ratio (x) = 0.07182 0.58872
# Poissons Ratio (y) = 0.10294 0.25420
# Poissons Ratio (z) = 0.34758 0.10471
#
# Static dielectric constant tensor:
#      x y z
#    x 2.101260 0.000000 0.013910 
#    y 0.000000 2.204630 0.000000 
#    z 0.013910 0.000000 2.057550 
# 
# From -- ./inp_files/48480.got.cif
#   From: 2010.05.17/outbox.cif.g08.bks.cpg/sg14_25_cif.got.tgz:48480.got - 2010.06.03 17:49:19.
