data_PCOD9252587
_publ_section_title
;
Structure prediction by ZEFSAII (Michael W. Deem and Ramdas Pophale) SiO2 
 PCOD9252587
Probable space group: P 21/C
;
_chemical_formula_sum "Si O2"
_cell_formula_units_Z 28
_cell_length_a 9.686099
_cell_length_b 8.184965
_cell_length_c 21.264518
_cell_angle_alpha 90.000000
_cell_angle_beta 48.557742
_cell_angle_gamma 90.000000
_cell_volume 1263.758956
_symmetry_space_group_name_H-M "P 21/C"
_symmetry_group_IT_number 14
_symmetry_cell_setting 'monoclinic'
loop_
_space_group_symop_operation_xyz
x,y,z
-x,1/2+y,1/2-z
-x,-y,-z
x,1/2-y,1/2+z
loop_
_atom_site_type_symbol
_atom_site_label
_atom_site_fract_x
_atom_site_fract_y
_atom_site_fract_z
Si Si1 0.920258 0.146879 0.826981
Si Si2 0.619367 0.420796 0.517836
Si Si3 0.781381 0.122894 0.265503
Si Si4 0.779005 0.822322 0.688891
Si Si5 0.512374 0.334596 0.142016
Si Si6 0.857278 0.179862 0.619518
Si Si7 0.843210 0.638246 0.538871
O O1 0.796170 0.226147 0.809699
O O2 0.084573 0.264657 0.797880
O O3 0.804865 0.126361 0.925521
O O4 0.033158 0.982908 0.777434
O O5 0.500000 0.500000 0.500000
O O6 0.513614 0.265082 0.577271
O O7 0.673522 0.547863 0.556434
O O8 0.795051 0.186526 0.189824
O O9 0.603336 0.003475 0.325877
O O10 0.581233 0.779337 0.776756
O O11 0.798555 0.718709 0.618971
O O12 0.830146 0.006840 0.660178
O O13 0.724705 0.338709 0.099081
O O14 0.060595 0.227320 0.534984
O O15 0.000000 0.500000 0.500000
#
# Coordination Sequence:
#
# PCOD9252587 Si02
#       7
#     4   4   4   4   4   4   4
#     4  11  24  47  67 103 141 194 235 294 362 435
#     4  12  28  43  72 102 146 190 238 298 365 423
#     4  11  25  42  73 103 147 189 241 302 360 430
#     4  11  25  40  75 104 139 187 240 290 362 434
#     4  11  26  44  66 106 141 185 242 297 357 431
#     4  12  23  43  73 104 141 185 242 292 360 433
#     4  12  22  47  71  98 143 187 231 294 359 426
#
# _framework density 22.156124999999999
#
# number of rings (size 3 to 8) (size 9 to 14) (size 15 to 20)
#    0.000    0.571    4.286    3.000    8.000    2.857 
#    0.000    0.000    0.000    0.000    0.000    0.000 
#    0.000    0.000    0.000    0.000    0.000    0.000 
#
# Total GULP energy -156547.736986 kJ/mol
# GULP energy per Si atom -5590.990607 kJ/mol
# Density = 2.210570 g / cm^3
# Si number density = 22.156125 Si / 1000 Ang^3
#
#
#
# Elastic Constant Matrix: (Units=GPa)
#
#
# Indices 1 2 3 4 5 6 
#
# 1 84.9280 17.5538 12.3298 0.0000 20.0985 0.0000
# 2 17.5538 76.8854 13.9521 0.0000 8.4563 0.0000
# 3 12.3298 13.9521 52.8325 0.0000 5.8056 0.0000
# 4 0.0000 0.0000 0.0000 24.5244 0.0000 40.2129
# 5 20.0985 8.4563 5.8056 0.0000 28.4273 0.0000
# 6 0.0000 0.0000 0.0000 40.2129 0.0000 13.1673
#
#
#
# Elastic Compliance Matrix: (Units=1/GPa)
#
#
# Indices 1 2 3 4 5 6 
#
# 1 0.014682 -0.001978 -0.001870 0.000000 -0.009410 0.000000
# 2 -0.001978 0.014257 -0.003060 0.000000 -0.002218 0.000000
# 3 -0.001870 -0.003060 0.020384 0.000000 -0.001931 0.000000
# 4 0.000000 0.000000 0.000000 -0.010174 0.000000 0.031073
# 5 -0.009410 -0.002218 -0.001931 0.000000 0.042885 0.000000
# 6 0.000000 0.000000 0.000000 0.031073 0.000000 -0.018950
#
#
# Mechanical properties :
#
#
# Convention : Reuss Voigt Hill
#
# Bulk Modulus (GPa) = 28.16249 33.59082 30.87665
# Shear Modulus (GPa) = 56.34783 24.61115 40.47949
#
# Velocity S-wave (km/s) = 5.04850 3.33649 4.27899
# Velocity P-wave (km/s) = 6.83533 5.48058 6.19510
#
# Compressibility (1/GPa) = 0.03550822
#
# Stress axis : x y z
#
# Youngs Moduli (GPa) = 68.11116 70.14056 49.05727
#
# Poissons Ratio (x) = 0.13872 0.09174
# Poissons Ratio (y) = 0.13470 0.15010
# Poissons Ratio (z) = 0.12737 0.21461
#
# Static dielectric constant tensor:
#      x y z
#    x 1.755950 0.000000 0.093830 
#    y 0.000000 1.994690 0.000000 
#    z 0.093830 0.000000 1.648140 
# 
# From -- ./inp_files/64992.got.cif
#   From: 2010.05.17/outbox.cif.g08.bks.cpg/sg14_33_cif.got.tgz:64992.got - 2010.06.03 17:49:19.
