data_PCOD9252927
_publ_section_title
;
Structure prediction by ZEFSAII (Michael W. Deem and Ramdas Pophale) SiO2 
 PCOD9252927
Probable space group: P 21/C
;
_chemical_formula_sum "Si O2"
_cell_formula_units_Z 32
_cell_length_a 12.043178
_cell_length_b 13.943173
_cell_length_c 9.423189
_cell_angle_alpha 90.000000
_cell_angle_beta 118.577759
_cell_angle_gamma 90.000000
_cell_volume 1389.564116
_symmetry_space_group_name_H-M "P 21/C"
_symmetry_group_IT_number 14
_symmetry_cell_setting 'monoclinic'
loop_
_space_group_symop_operation_xyz
x,y,z
-x,1/2+y,1/2-z
-x,-y,-z
x,1/2-y,1/2+z
loop_
_atom_site_type_symbol
_atom_site_label
_atom_site_fract_x
_atom_site_fract_y
_atom_site_fract_z
Si Si1 0.123369 0.433880 0.080996
Si Si2 0.467337 0.652292 0.006683
Si Si3 0.856569 0.541189 0.425345
Si Si4 0.378942 0.823295 0.750394
Si Si5 0.746288 0.449480 0.611830
Si Si6 0.138527 0.762028 0.941933
Si Si7 0.035518 0.274407 0.413037
Si Si8 0.301528 0.036286 0.438476
O O1 0.179437 0.463567 0.268005
O O2 0.084265 0.329847 0.994534
O O3 0.236202 0.468613 0.049005
O O4 0.000000 0.500000 0.000000
O O5 0.408623 0.736503 0.875859
O O6 0.376114 0.560203 0.946486
O O7 0.480048 0.671854 0.183828
O O8 0.599789 0.622010 0.019683
O O9 0.750744 0.481811 0.450105
O O10 0.860436 0.646352 0.495603
O O11 0.811367 0.549869 0.238682
O O12 0.000000 0.500000 0.500000
O O13 0.364183 0.914526 0.848088
O O14 0.252869 0.800940 0.576550
O O15 0.818371 0.347246 0.636635
O O16 0.027145 0.714830 0.780345
O O17 0.075354 0.801222 0.044879
#
# Coordination Sequence:
#
# PCOD9252927 Si02
#       8
#     4   4   4   4   4   4   4   4
#     4  12  23  44  72 106 152 192 242 296 377 452
#     4  11  26  48  76 105 141 192 253 313 361 423
#     4  12  26  43  70 107 152 194 242 304 381 454
#     4  12  23  43  78 107 135 194 262 315 355 433
#     4  12  23  40  68 108 140 186 251 318 348 437
#     4  12  21  39  65 107 144 183 253 303 359 440
#     4  12  25  40  66 104 152 197 229 304 394 451
#     4  11  27  49  70 104 153 192 238 306 375 434
#
# _framework density 23.028804999999998
#
# number of rings (size 3 to 8) (size 9 to 14) (size 15 to 20)
#    0.000    0.250    6.250    3.000    1.750    1.000 
#    0.000    1.875    0.000    0.000    0.000    0.000 
#    0.000    0.000    0.000    0.000    0.000    0.000 
#
# Total GULP energy -178482.317375 kJ/mol
# GULP energy per Si atom -5577.572418 kJ/mol
# Density = 2.297639 g / cm^3
# Si number density = 23.028805 Si / 1000 Ang^3
#
#
#
# Elastic Constant Matrix: (Units=GPa)
#
#
# Indices 1 2 3 4 5 6 
#
# 1 80.1337 21.0089 8.3450 0.0000 -18.1562 0.0000
# 2 21.0089 104.3151 12.2802 0.0000 -0.4448 0.0000
# 3 8.3450 12.2802 65.8891 0.0000 -26.8530 0.0000
# 4 0.0000 0.0000 0.0000 27.2468 0.0000 -9.5586
# 5 -18.1562 -0.4448 -26.8530 0.0000 33.2462 0.0000
# 6 0.0000 0.0000 0.0000 -9.5586 0.0000 25.8810
#
#
#
# Elastic Compliance Matrix: (Units=1/GPa)
#
#
# Indices 1 2 3 4 5 6 
#
# 1 0.015547 -0.003456 0.003155 0.000000 0.010993 0.000000
# 2 -0.003456 0.010660 -0.003369 0.000000 -0.004466 0.000000
# 3 0.003155 -0.003369 0.023984 0.000000 0.021050 0.000000
# 4 0.000000 0.000000 0.000000 0.042165 0.000000 0.015573
# 5 0.010993 -0.004466 0.021050 0.000000 0.053024 0.000000
# 6 0.000000 0.000000 0.000000 0.015573 0.000000 0.044390
#
#
# Mechanical properties :
#
#
# Convention : Reuss Voigt Hill
#
# Bulk Modulus (GPa) = 23.33633 37.06734 30.20183
# Shear Modulus (GPa) = 23.65256 31.18841 27.42049
#
# Velocity S-wave (km/s) = 3.20830 3.68410 3.45440
# Velocity P-wave (km/s) = 4.88669 5.85046 5.39016
#
# Compressibility (1/GPa) = 0.04285164
#
# Stress axis : x y z
#
# Youngs Moduli (GPa) = 64.32018 93.80962 41.69407
#
# Poissons Ratio (x) = 0.32418 -0.13154
# Poissons Ratio (y) = 0.22227 0.14047
# Poissons Ratio (z) = -0.20293 0.31606
#
# Static dielectric constant tensor:
#      x y z
#    x 1.971030 0.000000 -0.018260 
#    y 0.000000 1.936870 0.000000 
#    z -0.018260 0.000000 1.900870 
# 
# From -- ./inp_files/13393.got.cif
#   From: 2010.05.17/outbox.cif.g08.bks.cpg/sg14_7_cif.got.tgz:13393.got - 2010.06.03 17:49:19.
