data_PCOD9252283
_publ_section_title
;
Structure prediction by ZEFSAII (Michael W. Deem and Ramdas Pophale) SiO2 
 PCOD9252283
Probable space group: P 21/C
;
_chemical_formula_sum "Si O2"
_cell_formula_units_Z 28
_cell_length_a 8.643651
_cell_length_b 24.660810
_cell_length_c 8.791437
_cell_angle_alpha 90.000000
_cell_angle_beta 45.583679
_cell_angle_gamma 90.000000
_cell_volume 1338.532357
_symmetry_space_group_name_H-M "P 21/C"
_symmetry_group_IT_number 14
_symmetry_cell_setting 'monoclinic'
loop_
_space_group_symop_operation_xyz
x,y,z
-x,1/2+y,1/2-z
-x,-y,-z
x,1/2-y,1/2+z
loop_
_atom_site_type_symbol
_atom_site_label
_atom_site_fract_x
_atom_site_fract_y
_atom_site_fract_z
Si Si1 0.164472 0.380855 0.386778
Si Si2 0.768288 0.097193 0.983296
Si Si3 0.195931 0.957961 0.367888
Si Si4 0.419705 0.315456 0.642541
Si Si5 0.525558 0.201642 0.713684
Si Si6 0.607293 0.504307 0.761330
Si Si7 0.960932 0.147234 0.349514
O O1 0.377641 0.343827 0.233612
O O2 0.240418 0.443043 0.349758
O O3 0.037700 0.361600 0.624522
O O4 0.999081 0.375872 0.361224
O O5 0.773415 0.067466 0.818507
O O6 0.575133 0.140131 0.111502
O O7 0.727869 0.050960 0.136584
O O8 0.137225 0.908735 0.520335
O O9 0.414347 0.986376 0.273873
O O10 0.000000 0.000000 0.500000
O O11 0.441470 0.259845 0.719078
O O12 0.499243 0.306416 0.413214
O O13 0.174061 0.336419 0.797785
O O14 0.773360 0.191659 0.496160
O O15 0.500000 0.500000 0.000000
#
# Coordination Sequence:
#
# PCOD9252283 Si02
#       7
#     4   4   4   4   4   4   4
#     4  11  25  45  67 103 137 184 232 284 346 422
#     4  12  25  43  67 108 139 179 238 283 350 419
#     4  12  22  41  70 100 141 182 226 285 346 412
#     4  11  27  44  70 101 135 180 236 287 347 421
#     4  11  26  47  70  98 136 184 231 288 352 408
#     4  12  24  43  69 103 144 187 230 287 350 420
#     4  11  23  47  68  97 139 178 229 286 344 412
#
# _framework density 20.918431000000002
#
# number of rings (size 3 to 8) (size 9 to 14) (size 15 to 20)
#    0.000    0.571    2.857    5.143    4.000    2.286 
#    0.000    0.000    0.000    0.000    0.000    0.000 
#    0.000    0.000    0.000    0.000    0.000    0.000 
#
# Total GULP energy -156811.507468 kJ/mol
# GULP energy per Si atom -5600.410981 kJ/mol
# Density = 2.087082 g / cm^3
# Si number density = 20.918431 Si / 1000 Ang^3
#
#
#
# Elastic Constant Matrix: (Units=GPa)
#
#
# Indices 1 2 3 4 5 6 
#
# 1 89.3098 16.8767 4.1090 0.0000 -31.5534 0.0000
# 2 16.8767 96.9586 -0.1990 0.0000 -15.7331 0.0000
# 3 4.1090 -0.1990 55.2089 0.0000 -13.8042 0.0000
# 4 0.0000 0.0000 0.0000 30.0082 0.0000 3.4971
# 5 -31.5534 -15.7331 -13.8042 0.0000 36.2667 0.0000
# 6 0.0000 0.0000 0.0000 3.4971 0.0000 36.5606
#
#
#
# Elastic Compliance Matrix: (Units=1/GPa)
#
#
# Indices 1 2 3 4 5 6 
#
# 1 0.016514 -0.000408 0.002561 0.000000 0.015166 0.000000
# 2 -0.000408 0.011200 0.001323 0.000000 0.005007 0.000000
# 3 0.002561 0.001323 0.020587 0.000000 0.010638 0.000000
# 4 0.000000 0.000000 0.000000 0.033700 0.000000 -0.003223
# 5 0.015166 0.005007 0.010638 0.000000 0.046990 0.000000
# 6 0.000000 0.000000 0.000000 -0.003223 0.000000 0.027660
#
#
# Mechanical properties :
#
#
# Convention : Reuss Voigt Hill
#
# Bulk Modulus (GPa) = 18.09853 31.45009 24.77431
# Shear Modulus (GPa) = 29.74109 35.27981 32.51045
#
# Velocity S-wave (km/s) = 3.77472 4.11121 3.94655
# Velocity P-wave (km/s) = 5.26011 6.13215 5.71280
#
# Compressibility (1/GPa) = 0.05525309
#
# Stress axis : x y z
#
# Youngs Moduli (GPa) = 60.55290 89.28636 48.57406
#
# Poissons Ratio (x) = 0.03646 -0.12442
# Poissons Ratio (y) = 0.02473 -0.06425
# Poissons Ratio (z) = -0.15510 -0.11809
#
# Static dielectric constant tensor:
#      x y z
#    x 1.735050 0.000000 0.001770 
#    y 0.000000 1.712930 0.000000 
#    z 0.001770 0.000000 1.733210 
# 
# From -- ./inp_files/11152.got.cif
#   From: 2010.05.17/outbox.cif.g08.bks.cpg/sg14_6_cif.got.tgz:11152.got - 2010.06.03 17:49:19.
