data_PCOD9252329
_publ_section_title
;
Structure prediction by ZEFSAII (Michael W. Deem and Ramdas Pophale) SiO2 
 PCOD9252329
Probable space group: P 21/C
;
_chemical_formula_sum "Si O2"
_cell_formula_units_Z 16
_cell_length_a 9.256749
_cell_length_b 12.045621
_cell_length_c 9.869765
_cell_angle_alpha 90.000000
_cell_angle_beta 43.577435
_cell_angle_gamma 90.000000
_cell_volume 758.620152
_symmetry_space_group_name_H-M "P 21/C"
_symmetry_group_IT_number 14
_symmetry_cell_setting 'monoclinic'
loop_
_space_group_symop_operation_xyz
x,y,z
-x,1/2+y,1/2-z
-x,-y,-z
x,1/2-y,1/2+z
loop_
_atom_site_type_symbol
_atom_site_label
_atom_site_fract_x
_atom_site_fract_y
_atom_site_fract_z
Si Si1 0.789334 0.999704 0.936154
Si Si2 0.552077 0.416998 0.843061
Si Si3 0.165686 0.976703 0.505517
Si Si4 0.587510 0.162220 0.853032
O O1 0.706664 0.098343 0.893237
O O2 0.739196 0.039401 0.121334
O O3 0.026825 0.971700 0.734689
O O4 0.640724 0.894395 0.004351
O O5 0.581771 0.292894 0.872831
O O6 0.500000 0.500000 0.000000
O O7 0.340803 0.427580 0.895077
O O8 0.292063 0.869310 0.368630
O O9 0.000000 0.000000 0.500000
#
# Coordination Sequence:
#
# PCOD9252329 Si02
#       4
#     4   4   4   4
#     4   9  20  40  63  88 126 172 208 253 315 378
#     4  11  24  38  63 100 130 159 211 268 317 373
#     4   9  20  43  64  91 121 168 214 246 317 382
#     4   9  20  39  64  88 128 169 205 256 319 374
#
# _framework density 21.090924999999999
#
# number of rings (size 3 to 8) (size 9 to 14) (size 15 to 20)
#    0.000    2.500    0.000    1.500    7.000    3.000 
#    4.500    0.000    0.000    0.000    0.000    0.000 
#    0.000    0.000    0.000    0.000    0.000    0.000 
#
# Total GULP energy -89318.187631 kJ/mol
# GULP energy per Si atom -5582.386727 kJ/mol
# Density = 2.104292 g / cm^3
# Si number density = 21.090925 Si / 1000 Ang^3
#
#
#
# Elastic Constant Matrix: (Units=GPa)
#
#
# Indices 1 2 3 4 5 6 
#
# 1 40.6386 3.5223 17.5725 0.0000 0.2764 0.0000
# 2 3.5223 156.5308 69.1819 0.0000 9.1203 0.0000
# 3 17.5725 69.1819 192.9756 0.0000 -4.3378 0.0000
# 4 0.0000 0.0000 0.0000 20.0746 0.0000 9.8871
# 5 0.2764 9.1203 -4.3378 0.0000 38.1464 0.0000
# 6 0.0000 0.0000 0.0000 9.8871 0.0000 11.1212
#
#
#
# Elastic Compliance Matrix: (Units=1/GPa)
#
#
# Indices 1 2 3 4 5 6 
#
# 1 0.025669 0.000591 -0.002563 0.000000 -0.000619 0.000000
# 2 0.000591 0.007782 -0.002893 0.000000 -0.002194 0.000000
# 3 -0.002563 -0.002893 0.006485 0.000000 0.001448 0.000000
# 4 0.000000 0.000000 0.000000 0.088615 0.000000 -0.078782
# 5 -0.000619 -0.002194 0.001448 0.000000 0.026908 0.000000
# 6 0.000000 0.000000 0.000000 -0.078782 0.000000 0.159958
#
#
# Mechanical properties :
#
#
# Convention : Reuss Voigt Hill
#
# Bulk Modulus (GPa) = 33.10650 63.41092 48.25871
# Shear Modulus (GPa) = 14.91582 33.85966 24.38774
#
# Velocity S-wave (km/s) = 2.66224 4.01111 3.40415
# Velocity P-wave (km/s) = 5.01808 7.18211 6.19532
#
# Compressibility (1/GPa) = 0.03020555
#
# Stress axis : x y z
#
# Youngs Moduli (GPa) = 38.95821 128.50847 154.20068
#
# Poissons Ratio (x) = -0.07600 0.39527
# Poissons Ratio (y) = -0.02304 0.44608
# Poissons Ratio (z) = 0.09986 0.37176
#
# Static dielectric constant tensor:
#      x y z
#    x 1.830340 0.000000 0.039850 
#    y 0.000000 1.696480 0.000000 
#    z 0.039850 0.000000 1.812440 
# 
# From -- ./inp_files/7794.got.cif
#   From: 2010.05.17/outbox.cif.g08.bks.cpg/sg14_4_cif.got.tgz:7794.got - 2010.06.03 17:49:19.
