data_PCOD9252655
_publ_section_title
;
Structure prediction by ZEFSAII (Michael W. Deem and Ramdas Pophale) SiO2 
 PCOD9252655
Probable space group: P 21/C
;
_chemical_formula_sum "Si O2"
_cell_formula_units_Z 32
_cell_length_a 7.924411
_cell_length_b 11.776405
_cell_length_c 14.125480
_cell_angle_alpha 90.000000
_cell_angle_beta 102.310455
_cell_angle_gamma 90.000000
_cell_volume 1287.895054
_symmetry_space_group_name_H-M "P 21/C"
_symmetry_group_IT_number 14
_symmetry_cell_setting 'monoclinic'
loop_
_space_group_symop_operation_xyz
x,y,z
-x,1/2+y,1/2-z
-x,-y,-z
x,1/2-y,1/2+z
loop_
_atom_site_type_symbol
_atom_site_label
_atom_site_fract_x
_atom_site_fract_y
_atom_site_fract_z
Si Si1 0.224751 0.992046 0.149480
Si Si2 0.452975 0.899146 0.709591
Si Si3 0.771868 0.625242 0.839920
Si Si4 0.107280 0.270625 0.811775
Si Si5 0.408200 0.701586 0.557036
Si Si6 0.768493 0.682124 0.495619
Si Si7 0.874446 0.026336 0.672487
Si Si8 0.250679 0.740896 0.342319
O O1 0.362601 0.062442 0.229177
O O2 0.178010 0.074156 0.058822
O O3 0.077501 0.971398 0.209721
O O4 0.326140 0.884020 0.122713
O O5 0.438636 0.820997 0.614439
O O6 0.376157 0.824831 0.786885
O O7 0.347710 0.015358 0.680841
O O8 0.765682 0.700570 0.742573
O O9 0.740883 0.711256 0.922155
O O10 0.966068 0.574578 0.867870
O O11 0.159076 0.396283 0.853636
O O12 0.935861 0.280342 0.727590
O O13 0.088451 0.208552 0.909176
O O14 0.589356 0.663187 0.531219
O O15 0.276721 0.703919 0.452851
O O16 0.727222 0.122271 0.649952
#
# Coordination Sequence:
#
# PCOD9252655 Si02
#       8
#     4   4   4   4   4   4   4   4
#     4  12  26  48  80 111 150 200 252 316 378 446
#     4  12  26  48  76 107 154 196 249 319 377 446
#     4  11  27  47  75 106 152 199 254 307 376 449
#     4  11  25  49  73 109 153 202 246 316 372 446
#     4  12  28  47  77 115 152 196 256 309 384 447
#     4  12  27  45  77 113 145 199 258 303 376 454
#     4  11  24  49  73 103 154 196 247 310 374 440
#     4  11  26  47  72 109 152 197 247 313 376 445
#
# _framework density 24.846747000000001
#
# number of rings (size 3 to 8) (size 9 to 14) (size 15 to 20)
#    0.000    0.500    5.000    1.875    7.000    3.000 
#    0.000    3.125    0.000    0.000    0.000    0.000 
#    0.000    0.000    0.000    0.000    0.000    0.000 
#
# Total GULP energy -179154.866905 kJ/mol
# GULP energy per Si atom -5598.589591 kJ/mol
# Density = 2.479019 g / cm^3
# Si number density = 24.846747 Si / 1000 Ang^3
#
#
#
# Elastic Constant Matrix: (Units=GPa)
#
#
# Indices 1 2 3 4 5 6 
#
# 1 52.1661 7.1147 12.0727 0.0000 2.5605 0.0000
# 2 7.1147 86.4901 -1.4325 0.0000 11.5275 0.0000
# 3 12.0727 -1.4325 100.2849 0.0000 15.6437 0.0000
# 4 0.0000 0.0000 0.0000 44.2602 0.0000 -4.1177
# 5 2.5605 11.5275 15.6437 0.0000 32.0903 0.0000
# 6 0.0000 0.0000 0.0000 -4.1177 0.0000 31.8270
#
#
#
# Elastic Compliance Matrix: (Units=1/GPa)
#
#
# Indices 1 2 3 4 5 6 
#
# 1 0.019962 -0.001713 -0.002462 0.000000 0.000223 0.000000
# 2 -0.001713 0.012370 0.001142 0.000000 -0.004863 0.000000
# 3 -0.002462 0.001142 0.011167 0.000000 -0.005657 0.000000
# 4 0.000000 0.000000 0.000000 0.022869 0.000000 0.002959
# 5 0.000223 -0.004863 -0.005657 0.000000 0.035649 0.000000
# 6 0.000000 0.000000 0.000000 0.002959 0.000000 0.031803
#
#
# Mechanical properties :
#
#
# Convention : Reuss Voigt Hill
#
# Bulk Modulus (GPa) = 26.71503 30.49455 28.60479
# Shear Modulus (GPa) = 32.81620 36.38124 34.59872
#
# Velocity S-wave (km/s) = 3.63815 3.83067 3.73565
# Velocity P-wave (km/s) = 5.33136 5.64492 5.49038
#
# Compressibility (1/GPa) = 0.03743212
#
# Stress axis : x y z
#
# Youngs Moduli (GPa) = 50.09508 80.84071 89.55104
#
# Poissons Ratio (x) = 0.13844 0.22050
# Poissons Ratio (y) = 0.08579 -0.10222
# Poissons Ratio (z) = 0.12335 -0.09228
#
# Static dielectric constant tensor:
#      x y z
#    x 2.052940 0.000000 -0.014820 
#    y 0.000000 2.012890 0.000000 
#    z -0.014820 0.000000 1.943340 
# 
# From -- ./inp_files/40072.got.cif
#   From: 2010.05.17/outbox.cif.g08.bks.cpg/sg14_21_cif.got.tgz:40072.got - 2010.06.03 17:49:19.
