data_PCOD9252381
_publ_section_title
;
Structure prediction by ZEFSAII (Michael W. Deem and Ramdas Pophale) SiO2 
 PCOD9252381
Probable space group: P 21/C
;
_chemical_formula_sum "Si O2"
_cell_formula_units_Z 22
_cell_length_a 10.861765
_cell_length_b 6.952995
_cell_length_c 20.067356
_cell_angle_alpha 90.000000
_cell_angle_beta 141.947518
_cell_angle_gamma 90.000000
_cell_volume 934.142524
_symmetry_space_group_name_H-M "P 21/C"
_symmetry_group_IT_number 14
_symmetry_cell_setting 'monoclinic'
loop_
_space_group_symop_operation_xyz
x,y,z
-x,1/2+y,1/2-z
-x,-y,-z
x,1/2-y,1/2+z
loop_
_atom_site_type_symbol
_atom_site_label
_atom_site_fract_x
_atom_site_fract_y
_atom_site_fract_z
Si Si1 0.057306 0.346382 0.872103
Si Si2 0.593618 0.660189 0.892965
Si Si3 0.000000 0.000000 0.000000
Si Si4 0.215116 0.520738 0.809017
Si Si5 0.185494 0.205851 0.688458
Si Si6 0.382581 0.723023 0.176386
O O1 0.799160 0.131416 0.900286
O O2 0.931122 0.187488 0.779775
O O3 0.916245 0.499027 0.848571
O O4 0.210699 0.248376 0.989827
O O5 0.435710 0.587590 0.880790
O O6 0.666129 0.477086 0.880596
O O7 0.471225 0.787212 0.788881
O O8 0.913100 0.831677 0.911661
O O9 0.157386 0.329022 0.743846
O O10 0.183073 0.470566 0.872272
O O11 0.423603 0.202314 0.781056
#
# Coordination Sequence:
#
# PCOD9252381 Si02
#       6
#     4   4   2   4   4   4
#     4  12  25  47  76  99 147 198 240 303 364 424
#     4  11  26  45  70 109 145 186 245 305 369 437
#     4  12  22  46  76 100 148 192 238 302 372 434
#     4  11  25  47  69 106 143 190 249 295 356 444
#     4  11  26  44  71 111 146 183 245 303 361 441
#     4  11  24  42  70 104 145 181 241 300 365 439
#
# _framework density 23.551007999999999
#
# number of rings (size 3 to 8) (size 9 to 14) (size 15 to 20)
#    0.000    0.727    7.273    0.545    5.091    0.727 
#    0.000    0.909    0.000    0.000    0.000    0.000 
#    0.000    0.000    0.000    0.000    0.000    0.000 
#
# Total GULP energy -122785.676968 kJ/mol
# GULP energy per Si atom -5581.167135 kJ/mol
# Density = 2.349740 g / cm^3
# Si number density = 23.551008 Si / 1000 Ang^3
#
#
#
# Elastic Constant Matrix: (Units=GPa)
#
#
# Indices 1 2 3 4 5 6 
#
# 1 85.0613 17.2828 26.3113 0.0000 -4.4799 0.0000
# 2 17.2828 85.4608 32.7827 0.0000 8.3653 0.0000
# 3 26.3113 32.7827 148.3908 0.0000 16.9558 0.0000
# 4 0.0000 0.0000 0.0000 39.6491 0.0000 -3.7821
# 5 -4.4799 8.3653 16.9558 0.0000 22.0058 0.0000
# 6 0.0000 0.0000 0.0000 -3.7821 0.0000 36.8646
#
#
#
# Elastic Compliance Matrix: (Units=1/GPa)
#
#
# Indices 1 2 3 4 5 6 
#
# 1 0.013272 -0.002269 -0.002477 0.000000 0.005473 0.000000
# 2 -0.002269 0.013349 -0.002099 0.000000 -0.003919 0.000000
# 3 -0.002477 -0.002099 0.008343 0.000000 -0.006135 0.000000
# 4 0.000000 0.000000 0.000000 0.025470 0.000000 0.002613
# 5 0.005473 -0.003919 -0.006135 0.000000 0.052774 0.000000
# 6 0.000000 0.000000 0.000000 0.002613 0.000000 0.027394
#
#
# Mechanical properties :
#
#
# Convention : Reuss Voigt Hill
#
# Bulk Modulus (GPa) = 47.00889 52.40739 49.70814
# Shear Modulus (GPa) = 30.98196 35.87299 33.42747
#
# Velocity S-wave (km/s) = 3.63095 3.90706 3.77153
# Velocity P-wave (km/s) = 6.13043 6.53104 6.33391
#
# Compressibility (1/GPa) = 0.02127257
#
# Stress axis : x y z
#
# Youngs Moduli (GPa) = 75.34728 74.91216 119.86272
#
# Poissons Ratio (x) = 0.17001 0.29693
# Poissons Ratio (y) = 0.17100 0.25157
# Poissons Ratio (z) = 0.18666 0.15723
#
# Static dielectric constant tensor:
#      x y z
#    x 1.972040 0.000000 -0.015030 
#    y 0.000000 1.897350 0.000000 
#    z -0.015030 0.000000 1.822270 
# 
# From -- ./inp_files/44700.got.cif
#   From: 2010.05.17/outbox.cif.g08.bks.cpg/sg14_23_cif.got.tgz:44700.got - 2010.06.03 17:49:19.
