data_PCOD9252101
_publ_section_title
;
Structure prediction by ZEFSAII (Michael W. Deem and Ramdas Pophale) SiO2 
 PCOD9252101
Probable space group: P 21/C
;
_chemical_formula_sum "Si O2"
_cell_formula_units_Z 32
_cell_length_a 15.078726
_cell_length_b 18.644971
_cell_length_c 13.630105
_cell_angle_alpha 90.000000
_cell_angle_beta 154.093962
_cell_angle_gamma 90.000000
_cell_volume 1674.187952
_symmetry_space_group_name_H-M "P 21/C"
_symmetry_group_IT_number 14
_symmetry_cell_setting 'monoclinic'
loop_
_space_group_symop_operation_xyz
x,y,z
-x,1/2+y,1/2-z
-x,-y,-z
x,1/2-y,1/2+z
loop_
_atom_site_type_symbol
_atom_site_label
_atom_site_fract_x
_atom_site_fract_y
_atom_site_fract_z
Si Si1 0.872024 0.969807 0.124766
Si Si2 0.820853 0.715893 0.031651
Si Si3 0.253217 0.435034 0.997011
Si Si4 0.162022 0.680819 0.215214
Si Si5 0.575476 0.196976 0.422054
Si Si6 0.428867 0.960234 0.025427
Si Si7 0.895058 0.173283 0.575665
Si Si8 0.521310 0.536717 0.125835
O O1 0.003762 0.901223 0.287740
O O2 0.745125 0.961775 0.898032
O O3 0.025342 0.036205 0.270503
O O4 0.707094 0.986922 0.043900
O O5 0.637465 0.763514 0.808042
O O6 0.741527 0.649382 0.017359
O O7 0.958078 0.684961 0.078551
O O8 0.961169 0.764630 0.239493
O O9 0.366764 0.441737 0.213345
O O10 0.380197 0.486790 0.053249
O O11 0.287455 0.750925 0.374716
O O12 0.296050 0.610852 0.374665
O O13 0.124102 0.677822 0.060700
O O14 0.684472 0.183594 0.425201
O O15 0.550689 0.118913 0.445047
O O16 0.500000 0.000000 0.000000
O O17 0.500000 0.500000 0.000000
#
# Coordination Sequence:
#
# PCOD9252101 Si02
#       8
#     4   4   4   4   4   4   4   4
#     4  11  23  43  66  98 139 170 225 278 338 400
#     4  11  24  44  67  97 141 176 224 281 339 405
#     4  11  23  43  65  96 135 176 220 280 335 395
#     4  11  25  41  68 100 131 177 227 270 348 408
#     4  11  24  47  64  96 141 172 229 285 329 405
#     4  11  24  38  66 103 135 173 216 275 338 415
#     4  11  25  42  70  99 130 180 222 282 338 403
#     4  11  26  44  69  99 131 184 232 276 341 403
#
# _framework density 19.113741999999998
#
# number of rings (size 3 to 8) (size 9 to 14) (size 15 to 20)
#    0.000    1.000    5.000    0.750    3.500    5.500 
#    0.000    0.000    0.000    0.000    0.000    0.000 
#    0.000    0.000    0.000    0.000    0.000    0.000 
#
# Total GULP energy -178744.101197 kJ/mol
# GULP energy per Si atom -5585.753162 kJ/mol
# Density = 1.907024 g / cm^3
# Si number density = 19.113742 Si / 1000 Ang^3
#
#
#
# Elastic Constant Matrix: (Units=GPa)
#
#
# Indices 1 2 3 4 5 6 
#
# 1 69.1829 45.3521 63.2171 0.0000 -8.8869 0.0000
# 2 45.3521 144.6903 39.1717 0.0000 -4.9453 0.0000
# 3 63.2171 39.1717 105.1470 0.0000 -8.9342 0.0000
# 4 0.0000 0.0000 0.0000 37.2846 0.0000 12.0298
# 5 -8.8869 -4.9453 -8.9342 0.0000 31.3797 0.0000
# 6 0.0000 0.0000 0.0000 12.0298 0.0000 31.2562
#
#
#
# Elastic Compliance Matrix: (Units=1/GPa)
#
#
# Indices 1 2 3 4 5 6 
#
# 1 0.036795 -0.006117 -0.019511 0.000000 0.003901 0.000000
# 2 -0.006117 0.008709 0.000413 0.000000 -0.000242 0.000000
# 3 -0.019511 0.000413 0.021135 0.000000 0.000557 0.000000
# 4 0.000000 0.000000 0.000000 0.030624 0.000000 -0.011786
# 5 0.003901 -0.000242 0.000557 0.000000 0.033093 0.000000
# 6 0.000000 0.000000 0.000000 -0.011786 0.000000 0.036530
#
#
# Mechanical properties :
#
#
# Convention : Reuss Voigt Hill
#
# Bulk Modulus (GPa) = 61.70411 68.27800 64.99105
# Shear Modulus (GPa) = 22.44989 31.40271 26.92630
#
# Velocity S-wave (km/s) = 3.43088 4.05772 3.75739
# Velocity P-wave (km/s) = 6.93161 7.59953 7.27324
#
# Compressibility (1/GPa) = 0.01620638
#
# Stress axis : x y z
#
# Youngs Moduli (GPa) = 27.17785 114.82810 47.31551
#
# Poissons Ratio (x) = 0.70245 0.92319
# Poissons Ratio (y) = 0.16626 -0.01954
# Poissons Ratio (z) = 0.53028 -0.04742
#
# Static dielectric constant tensor:
#      x y z
#    x 1.759220 0.000000 -0.009070 
#    y 0.000000 1.754860 0.000000 
#    z -0.009070 0.000000 1.691960 
# 
# From -- ./inp_files/33064.got.cif
#   From: 2010.05.17/outbox.cif.g08.bks.cpg/sg14_17_cif.got.tgz:33064.got - 2010.06.03 17:49:19.
