data_PCOD9252659
_publ_section_title
;
Structure prediction by ZEFSAII (Michael W. Deem and Ramdas Pophale) SiO2 
 PCOD9252659
Probable space group: P 21/C
;
_chemical_formula_sum "Si O2"
_cell_formula_units_Z 12
_cell_length_a 6.746028
_cell_length_b 9.828942
_cell_length_c 7.462128
_cell_angle_alpha 90.000000
_cell_angle_beta 70.330886
_cell_angle_gamma 90.000000
_cell_volume 465.916506
_symmetry_space_group_name_H-M "P 21/C"
_symmetry_group_IT_number 14
_symmetry_cell_setting 'monoclinic'
loop_
_space_group_symop_operation_xyz
x,y,z
-x,1/2+y,1/2-z
-x,-y,-z
x,1/2-y,1/2+z
loop_
_atom_site_type_symbol
_atom_site_label
_atom_site_fract_x
_atom_site_fract_y
_atom_site_fract_z
Si Si1 0.908790 0.326372 0.091060
Si Si2 0.740510 0.959809 0.377309
Si Si3 0.281849 0.555736 0.491293
O O1 0.761587 0.196161 0.104790
O O2 0.832451 0.407877 0.289172
O O3 0.160152 0.325998 0.057208
O O4 0.868877 0.416101 0.927915
O O5 0.773693 0.952760 0.153692
O O6 0.500000 0.000000 0.500000
O O7 0.500000 0.500000 0.500000
#
# Coordination Sequence:
#
# PCOD9252659 Si02
#       3
#     4   4   4
#     4  11  25  47  72 110 153 196 257 317 372 461
#     4  11  24  49  74 107 149 202 255 312 384 446
#     4  12  24  48  77 114 153 203 253 317 387 449
#
# _framework density 25.755690999999999
#
# number of rings (size 3 to 8) (size 9 to 14) (size 15 to 20)
#    0.000    0.667    6.667    1.000    0.000    0.000 
#   18.000    0.000    0.000    0.000    0.000    0.000 
#    0.000    0.000    0.000    0.000    0.000    0.000 
#
# Total GULP energy -66851.634851 kJ/mol
# GULP energy per Si atom -5570.969571 kJ/mol
# Density = 2.569707 g / cm^3
# Si number density = 25.755691 Si / 1000 Ang^3
#
#
#
# Elastic Constant Matrix: (Units=GPa)
#
#
# Indices 1 2 3 4 5 6 
#
# 1 205.9082 85.3175 54.3998 0.0000 36.5244 0.0000
# 2 85.3175 113.7656 45.3574 0.0000 14.4942 0.0000
# 3 54.3998 45.3574 177.6258 0.0000 40.6958 0.0000
# 4 0.0000 0.0000 0.0000 28.4914 0.0000 14.0683
# 5 36.5244 14.4942 40.6958 0.0000 63.3837 0.0000
# 6 0.0000 0.0000 0.0000 14.0683 0.0000 47.3552
#
#
#
# Elastic Compliance Matrix: (Units=1/GPa)
#
#
# Indices 1 2 3 4 5 6 
#
# 1 0.007634 -0.005216 -0.000318 0.000000 -0.003002 0.000000
# 2 -0.005216 0.013380 -0.002118 0.000000 0.001306 0.000000
# 3 -0.000318 -0.002118 0.007170 0.000000 -0.003936 0.000000
# 4 0.000000 0.000000 0.000000 0.041132 0.000000 -0.012220
# 5 -0.003002 0.001306 -0.003936 0.000000 0.019735 0.000000
# 6 0.000000 0.000000 0.000000 -0.012220 0.000000 0.024747
#
#
# Mechanical properties :
#
#
# Convention : Reuss Voigt Hill
#
# Bulk Modulus (GPa) = 77.64757 96.38323 87.01540
# Shear Modulus (GPa) = 37.48219 48.66105 43.07162
#
# Velocity S-wave (km/s) = 3.81897 4.35136 4.09383
# Velocity P-wave (km/s) = 7.04693 7.92143 7.49695
#
# Compressibility (1/GPa) = 0.01287870
#
# Stress axis : x y z
#
# Youngs Moduli (GPa) = 130.98670 74.73950 139.47099
#
# Poissons Ratio (x) = 0.38983 0.04441
# Poissons Ratio (y) = 0.68321 0.29546
# Poissons Ratio (z) = 0.04171 0.15833
#
# Static dielectric constant tensor:
#      x y z
#    x 2.260340 0.000000 -0.082510 
#    y 0.000000 -33.743410 0.000000 
#    z -0.082510 0.000000 2.026560 
# 
# From -- ./inp_files/4795.got.cif
#   From: 2010.05.17/outbox.cif.g08.bks.cpg/sg14_3_cif.got.tgz:4795.got - 2010.06.03 17:49:19.
