data_PCOD9252018
_publ_section_title
;
Structure prediction by ZEFSAII (Michael W. Deem and Ramdas Pophale) SiO2 
 PCOD9252018
Probable space group: P 21/C
;
_chemical_formula_sum "Si O2"
_cell_formula_units_Z 24
_cell_length_a 8.995888
_cell_length_b 9.374879
_cell_length_c 29.289046
_cell_angle_alpha 90.000000
_cell_angle_beta 27.668743
_cell_angle_gamma 90.000000
_cell_volume 1147.014130
_symmetry_space_group_name_H-M "P 21/C"
_symmetry_group_IT_number 14
_symmetry_cell_setting 'monoclinic'
loop_
_space_group_symop_operation_xyz
x,y,z
-x,1/2+y,1/2-z
-x,-y,-z
x,1/2-y,1/2+z
loop_
_atom_site_type_symbol
_atom_site_label
_atom_site_fract_x
_atom_site_fract_y
_atom_site_fract_z
Si Si1 0.912205 0.586418 0.642063
Si Si2 0.745054 0.398038 0.543927
Si Si3 0.894649 0.056889 0.811977
Si Si4 0.288132 0.785829 0.702987
Si Si5 0.012236 0.346014 0.020161
Si Si6 0.261440 0.747714 0.315839
O O1 0.789298 0.423647 0.665459
O O2 0.612210 0.690525 0.731556
O O3 0.106708 0.637213 0.545506
O O4 0.134339 0.584893 0.626319
O O5 0.412464 0.476200 0.625280
O O6 0.000000 0.500000 0.500000
O O7 0.731940 0.254931 0.576978
O O8 0.922790 0.199014 0.775336
O O9 0.192124 0.950786 0.727805
O O10 0.654810 0.777872 0.587571
O O11 0.226522 0.728383 0.770829
O O12 0.974834 0.330669 0.085074
O O13 0.000000 0.500000 0.000000
#
# Coordination Sequence:
#
# PCOD9252018 Si02
#       6
#     4   4   4   4   4   4
#     4  11  23  41  68 102 133 178 231 277 341 408
#     4  12  22  44  71  91 131 184 225 274 343 406
#     4  11  25  41  67  97 139 173 227 283 339 403
#     4  11  25  46  65 102 136 177 224 284 346 402
#     4  12  25  44  70 100 134 178 233 282 334 407
#     4  11  23  42  71  97 134 182 226 279 337 412
#
# _framework density 20.923891000000001
#
# number of rings (size 3 to 8) (size 9 to 14) (size 15 to 20)
#    0.000    0.667    5.000    2.500    4.667    1.333 
#    0.000    0.833    0.000    0.000    0.000    0.000 
#    0.000    0.000    0.000    0.000    0.000    0.000 
#
# Total GULP energy -134084.107307 kJ/mol
# GULP energy per Si atom -5586.837804 kJ/mol
# Density = 2.087627 g / cm^3
# Si number density = 20.923891 Si / 1000 Ang^3
#
#
#
# Elastic Constant Matrix: (Units=GPa)
#
#
# Indices 1 2 3 4 5 6 
#
# 1 96.3892 24.8409 20.7197 0.0000 12.5676 0.0000
# 2 24.8409 65.5848 -3.3862 0.0000 10.0781 0.0000
# 3 20.7197 -3.3862 69.4219 0.0000 28.6264 0.0000
# 4 0.0000 0.0000 0.0000 27.9378 0.0000 -7.3858
# 5 12.5676 10.0781 28.6264 0.0000 38.7867 0.0000
# 6 0.0000 0.0000 0.0000 -7.3858 0.0000 38.1292
#
#
#
# Elastic Compliance Matrix: (Units=1/GPa)
#
#
# Indices 1 2 3 4 5 6 
#
# 1 0.012503 -0.004986 -0.004080 0.000000 0.000256 0.000000
# 2 -0.004986 0.018506 0.005329 0.000000 -0.007126 0.000000
# 3 -0.004080 0.005329 0.022868 0.000000 -0.016940 0.000000
# 4 0.000000 0.000000 0.000000 0.037726 0.000000 0.007308
# 5 0.000256 -0.007126 -0.016940 0.000000 0.040053 0.000000
# 6 0.000000 0.000000 0.000000 0.007308 0.000000 0.027642
#
#
# Mechanical properties :
#
#
# Convention : Reuss Voigt Hill
#
# Bulk Modulus (GPa) = 21.55007 35.08274 28.31641
# Shear Modulus (GPa) = 27.43639 33.58552 30.51096
#
# Velocity S-wave (km/s) = 3.62504 4.01075 3.82276
# Velocity P-wave (km/s) = 5.27663 6.18477 5.74866
#
# Compressibility (1/GPa) = 0.04640357
#
# Stress axis : x y z
#
# Youngs Moduli (GPa) = 79.97908 54.03636 43.72969
#
# Poissons Ratio (x) = 0.26941 0.17843
# Poissons Ratio (y) = 0.39875 -0.23305
# Poissons Ratio (z) = 0.32634 -0.28797
#
# Static dielectric constant tensor:
#      x y z
#    x 1.776310 0.000000 0.002750 
#    y 0.000000 1.764900 0.000000 
#    z 0.002750 0.000000 1.759660 
# 
# From -- ./inp_files/54495.got.cif
#   From: 2010.05.17/outbox.cif.g08.bks.cpg/sg14_28_cif.got.tgz:54495.got - 2010.06.03 17:49:19.
