data_PCOD9252019
_publ_section_title
;
Structure prediction by ZEFSAII (Michael W. Deem and Ramdas Pophale) SiO2 
 PCOD9252019
Probable space group: P 21/C
;
_chemical_formula_sum "Si O2"
_cell_formula_units_Z 32
_cell_length_a 11.423191
_cell_length_b 16.483259
_cell_length_c 14.098061
_cell_angle_alpha 90.000000
_cell_angle_beta 148.542902
_cell_angle_gamma 90.000000
_cell_volume 1385.300202
_symmetry_space_group_name_H-M "P 21/C"
_symmetry_group_IT_number 14
_symmetry_cell_setting 'monoclinic'
loop_
_space_group_symop_operation_xyz
x,y,z
-x,1/2+y,1/2-z
-x,-y,-z
x,1/2-y,1/2+z
loop_
_atom_site_type_symbol
_atom_site_label
_atom_site_fract_x
_atom_site_fract_y
_atom_site_fract_z
Si Si1 0.709934 0.015002 0.075772
Si Si2 0.349237 0.644644 0.847664
Si Si3 0.100118 0.344575 0.358177
Si Si4 0.557058 0.772912 0.757619
Si Si5 0.053697 0.430906 0.961149
Si Si6 0.228008 0.211172 0.289455
Si Si7 0.850530 0.276830 0.915980
Si Si8 0.545675 0.412684 0.266074
O O1 0.884295 0.067128 0.256711
O O2 0.803803 0.926760 0.117463
O O3 0.657096 0.056673 0.939193
O O4 0.500000 0.000000 0.000000
O O5 0.288661 0.734722 0.764445
O O6 0.323102 0.581657 0.742266
O O7 0.158641 0.637679 0.795050
O O8 0.613970 0.642194 0.056282
O O9 0.236727 0.317001 0.547081
O O10 0.159253 0.274428 0.323469
O O11 0.601035 0.763986 0.676919
O O12 0.327870 0.815670 0.634418
O O13 0.514725 0.682370 0.765312
O O14 0.015491 0.345136 0.988546
O O15 0.299814 0.450705 0.093789
O O16 0.000000 0.500000 0.000000
O O17 0.994354 0.207634 0.070149
#
# Coordination Sequence:
#
# PCOD9252019 Si02
#       8
#     4   4   4   4   4   4   4   4
#     4  12  26  44  75 102 142 193 236 294 365 425
#     4  11  26  44  68 101 141 185 237 294 357 418
#     4  12  24  48  69 105 144 185 242 296 358 436
#     4  11  23  43  70 103 139 180 237 300 349 422
#     4  12  24  42  70 104 143 187 237 293 354 431
#     4  12  22  41  71 101 137 181 232 295 355 410
#     4  11  23  41  68 103 139 177 235 295 352 417
#     4  11  24  45  66 104 142 179 241 290 356 425
#
# _framework density 23.099685999999998
#
# number of rings (size 3 to 8) (size 9 to 14) (size 15 to 20)
#    0.000    0.500    6.250    3.000    1.750    2.500 
#    0.000    0.625    0.000    0.000    0.000    0.000 
#    0.000    0.000    0.000    0.000    0.000    0.000 
#
# Total GULP energy -178638.508713 kJ/mol
# GULP energy per Si atom -5582.453397 kJ/mol
# Density = 2.304711 g / cm^3
# Si number density = 23.099686 Si / 1000 Ang^3
#
#
#
# Elastic Constant Matrix: (Units=GPa)
#
#
# Indices 1 2 3 4 5 6 
#
# 1 154.0349 18.1839 28.7044 0.0000 5.4714 0.0000
# 2 18.1839 14.1819 -2.8564 0.0000 3.2006 0.0000
# 3 28.7044 -2.8564 128.2652 0.0000 -1.3861 0.0000
# 4 0.0000 0.0000 0.0000 9.7760 0.0000 5.4346
# 5 5.4714 3.2006 -1.3861 0.0000 34.1090 0.0000
# 6 0.0000 0.0000 0.0000 5.4346 0.0000 33.3151
#
#
#
# Elastic Compliance Matrix: (Units=1/GPa)
#
#
# Indices 1 2 3 4 5 6 
#
# 1 0.008167 -0.010803 -0.002072 0.000000 -0.000381 0.000000
# 2 -0.010803 0.086630 0.004280 0.000000 -0.006222 0.000000
# 3 -0.002072 0.004280 0.008358 0.000000 0.000271 0.000000
# 4 0.000000 0.000000 0.000000 0.112492 0.000000 -0.018350
# 5 -0.000381 -0.006222 0.000271 0.000000 0.029974 0.000000
# 6 0.000000 0.000000 0.000000 -0.018350 0.000000 0.033010
#
#
# Mechanical properties :
#
#
# Convention : Reuss Voigt Hill
#
# Bulk Modulus (GPa) = 11.63284 42.72733 27.18009
# Shear Modulus (GPa) = 15.40938 32.27004 23.83971
#
# Velocity S-wave (km/s) = 2.58559 3.74169 3.21602
# Velocity P-wave (km/s) = 3.73639 6.09951 5.05790
#
# Compressibility (1/GPa) = 0.08596351
#
# Stress axis : x y z
#
# Youngs Moduli (GPa) = 122.44298 11.54333 119.64080
#
# Poissons Ratio (x) = 0.12471 0.24794
# Poissons Ratio (y) = 1.32278 -0.51201
# Poissons Ratio (z) = 0.25375 -0.04940
#
# Static dielectric constant tensor:
#      x y z
#    x 1.969540 0.000000 0.004130 
#    y 0.000000 1.832930 0.000000 
#    z 0.004130 0.000000 1.948360 
# 
# From -- ./inp_files/45468.got.cif
#   From: 2010.05.17/outbox.cif.g08.bks.cpg/sg14_23_cif.got.tgz:45468.got - 2010.06.03 17:49:19.
