data_PCOD9252255
_publ_section_title
;
Structure prediction by ZEFSAII (Michael W. Deem and Ramdas Pophale) SiO2 
 PCOD9252255
Probable space group: P 21/C
;
_chemical_formula_sum "Si O2"
_cell_formula_units_Z 28
_cell_length_a 8.004850
_cell_length_b 15.249850
_cell_length_c 9.972399
_cell_angle_alpha 90.000000
_cell_angle_beta 99.592950
_cell_angle_gamma 90.000000
_cell_volume 1200.335418
_symmetry_space_group_name_H-M "P 21/C"
_symmetry_group_IT_number 14
_symmetry_cell_setting 'monoclinic'
loop_
_space_group_symop_operation_xyz
x,y,z
-x,1/2+y,1/2-z
-x,-y,-z
x,1/2-y,1/2+z
loop_
_atom_site_type_symbol
_atom_site_label
_atom_site_fract_x
_atom_site_fract_y
_atom_site_fract_z
Si Si1 0.535135 0.204409 0.358840
Si Si2 0.226467 0.437233 0.461727
Si Si3 0.568461 0.628344 0.764881
Si Si4 0.015558 0.502266 0.791658
Si Si5 0.886244 0.366155 0.976875
Si Si6 0.373627 0.032384 0.249592
Si Si7 0.213432 0.261733 0.007907
O O1 0.564230 0.294412 0.283449
O O2 0.703469 0.177523 0.458784
O O3 0.482429 0.120798 0.262875
O O4 0.369152 0.224254 0.425955
O O5 0.354370 0.414985 0.357924
O O6 0.313585 0.491941 0.591244
O O7 0.189080 0.342214 0.523148
O O8 0.069498 0.480771 0.363166
O O9 0.480314 0.547279 0.827286
O O10 0.718059 0.680665 0.858855
O O11 0.197589 0.455489 0.804464
O O12 0.892215 0.445691 0.869913
O O13 0.057359 0.591941 0.874897
O O14 0.030901 0.299695 0.946903
#
# Coordination Sequence:
#
# PCOD9252255 Si02
#       7
#     4   4   4   4   4   4   4
#     4  11  25  44  67 107 129 179 235 279 347 410
#     4  11  24  44  67 100 142 181 229 284 354 408
#     4  11  24  44  69  97 138 181 230 284 349 411
#     4  11  24  43  69 103 134 185 237 277 351 413
#     4  11  24  44  71  98 138 183 231 287 337 415
#     4  12  24  43  70 100 141 181 227 293 342 415
#     4  11  23  46  69  96 143 182 225 287 341 415
#
# _framework density 23.326813000000001
#
# number of rings (size 3 to 8) (size 9 to 14) (size 15 to 20)
#    0.000    0.857    4.286    2.571    4.000    1.143 
#    0.000    0.000    0.000    0.000    0.000    0.000 
#    0.000    0.000    0.000    0.000    0.000    0.000 
#
# Total GULP energy -156523.448861 kJ/mol
# GULP energy per Si atom -5590.123174 kJ/mol
# Density = 2.327372 g / cm^3
# Si number density = 23.326813 Si / 1000 Ang^3
#
#
#
# Elastic Constant Matrix: (Units=GPa)
#
#
# Indices 1 2 3 4 5 6 
#
# 1 73.0940 13.2326 6.6840 0.0000 14.4348 0.0000
# 2 13.2326 71.2580 -10.3692 0.0000 16.2195 0.0000
# 3 6.6840 -10.3692 43.0324 0.0000 6.6796 0.0000
# 4 0.0000 0.0000 0.0000 32.9148 0.0000 3.2792
# 5 14.4348 16.2195 6.6796 0.0000 30.3417 0.0000
# 6 0.0000 0.0000 0.0000 3.2792 0.0000 23.1066
#
#
#
# Elastic Compliance Matrix: (Units=1/GPa)
#
#
# Indices 1 2 3 4 5 6 
#
# 1 0.015347 -0.001774 -0.001890 0.000000 -0.005937 0.000000
# 2 -0.001774 0.017472 0.006010 0.000000 -0.009819 0.000000
# 3 -0.001890 0.006010 0.026236 0.000000 -0.008089 0.000000
# 4 0.000000 0.000000 0.000000 0.030817 0.000000 -0.004373
# 5 -0.005937 -0.009819 -0.008089 0.000000 0.042813 0.000000
# 6 0.000000 0.000000 0.000000 -0.004373 0.000000 0.043898
#
#
# Mechanical properties :
#
#
# Convention : Reuss Voigt Hill
#
# Bulk Modulus (GPa) = 15.68650 22.94213 19.31431
# Shear Modulus (GPa) = 25.88801 29.12842 27.50821
#
# Velocity S-wave (km/s) = 3.33497 3.53754 3.43775
# Velocity P-wave (km/s) = 4.64421 5.15190 4.90463
#
# Compressibility (1/GPa) = 0.06374907
#
# Stress axis : x y z
#
# Youngs Moduli (GPa) = 65.15767 57.23295 38.11613
#
# Poissons Ratio (x) = 0.10150 0.07202
# Poissons Ratio (y) = 0.11556 -0.22907
# Poissons Ratio (z) = 0.12312 -0.34396
#
# Static dielectric constant tensor:
#      x y z
#    x 1.892440 0.000000 -0.019500 
#    y 0.000000 1.877120 0.000000 
#    z -0.019500 0.000000 1.933910 
# 
# From -- ./inp_files/25373.got.cif
#   From: 2010.05.17/outbox.cif.g08.bks.cpg/sg14_13_cif.got.tgz:25373.got - 2010.06.03 17:49:19.
