data_PCOD9252662
_publ_section_title
;
Structure prediction by ZEFSAII (Michael W. Deem and Ramdas Pophale) SiO2 
 PCOD9252662
Probable space group: P 21/C
;
_chemical_formula_sum "Si O2"
_cell_formula_units_Z 20
_cell_length_a 20.307111
_cell_length_b 5.793683
_cell_length_c 14.776600
_cell_angle_alpha 90.000000
_cell_angle_beta 152.519918
_cell_angle_gamma 90.000000
_cell_volume 802.218816
_symmetry_space_group_name_H-M "P 21/C"
_symmetry_group_IT_number 14
_symmetry_cell_setting 'monoclinic'
loop_
_space_group_symop_operation_xyz
x,y,z
-x,1/2+y,1/2-z
-x,-y,-z
x,1/2-y,1/2+z
loop_
_atom_site_type_symbol
_atom_site_label
_atom_site_fract_x
_atom_site_fract_y
_atom_site_fract_z
Si Si1 0.206168 0.304558 0.023165
Si Si2 0.088004 0.952876 0.757381
Si Si3 0.420000 0.044613 0.644296
Si Si4 0.100715 0.708807 0.594301
Si Si5 0.348963 0.423799 0.852656
O O1 0.294488 0.473796 0.066496
O O2 0.285453 0.282608 0.215509
O O3 0.204010 0.067130 0.963022
O O4 0.038326 0.339263 0.837801
O O5 0.997823 0.136208 0.588338
O O6 0.151658 0.808591 0.752337
O O7 0.507962 0.286122 0.775766
O O8 0.358434 0.113672 0.470897
O O9 0.234424 0.625866 0.700712
O O10 0.000000 0.500000 0.500000
O O11 0.500000 0.500000 0.000000
#
# Coordination Sequence:
#
# PCOD9252662 Si02
#       5
#     4   4   4   4   4
#     4  12  27  47  78 115 156 209 272 334 405 482
#     4  11  27  45  77 111 154 210 267 337 396 479
#     4  12  31  53  80 114 162 214 266 332 408 493
#     4  11  24  49  75 109 153 207 270 329 401 480
#     4  12  27  48  78 115 157 213 265 333 408 484
#
# _framework density 24.930852999999999
#
# number of rings (size 3 to 8) (size 9 to 14) (size 15 to 20)
#    0.000    0.400    4.000    2.400   11.200    0.800 
#    0.000    0.000    0.000    0.000    0.000    0.000 
#    0.000    0.000    0.000    0.000    0.000    0.000 
#
# Total GULP energy -111881.782084 kJ/mol
# GULP energy per Si atom -5594.089104 kJ/mol
# Density = 2.487411 g / cm^3
# Si number density = 24.930853 Si / 1000 Ang^3
#
#
#
# Elastic Constant Matrix: (Units=GPa)
#
#
# Indices 1 2 3 4 5 6 
#
# 1 110.9039 11.9626 10.3717 0.0000 -0.1728 0.0000
# 2 11.9626 59.1330 8.1856 0.0000 -13.8947 0.0000
# 3 10.3717 8.1856 77.3004 0.0000 -15.3638 0.0000
# 4 0.0000 0.0000 0.0000 38.2109 0.0000 -11.3865
# 5 -0.1728 -13.8947 -15.3638 0.0000 67.5955 0.0000
# 6 0.0000 0.0000 0.0000 -11.3865 0.0000 45.9315
#
#
#
# Elastic Compliance Matrix: (Units=1/GPa)
#
#
# Indices 1 2 3 4 5 6 
#
# 1 0.009328 -0.001872 -0.001178 0.000000 -0.000629 0.000000
# 2 -0.001872 0.018254 -0.000981 0.000000 0.003524 0.000000
# 3 -0.001178 -0.000981 0.013780 0.000000 0.002927 0.000000
# 4 0.000000 0.000000 0.000000 0.028258 0.000000 0.007005
# 5 -0.000629 0.003524 0.002927 0.000000 0.016182 0.000000
# 6 0.000000 0.000000 0.000000 0.007005 0.000000 0.023508
#
#
# Mechanical properties :
#
#
# Convention : Reuss Voigt Hill
#
# Bulk Modulus (GPa) = 30.03065 34.26411 32.14738
# Shear Modulus (GPa) = 38.91879 44.80207 41.86043
#
# Velocity S-wave (km/s) = 3.95532 4.24377 4.10208
# Velocity P-wave (km/s) = 5.73857 6.14705 5.94632
#
# Compressibility (1/GPa) = 0.03329931
#
# Stress axis : x y z
#
# Youngs Moduli (GPa) = 107.20512 54.78366 72.56680
#
# Poissons Ratio (x) = 0.10254 0.08551
# Poissons Ratio (y) = 0.20065 0.07121
# Poissons Ratio (z) = 0.12632 0.05376
#
# Static dielectric constant tensor:
#      x y z
#    x 1.996890 0.000000 -0.000480 
#    y 0.000000 2.138860 0.000000 
#    z -0.000480 0.000000 1.935730 
# 
# From -- ./inp_files/49571.got.cif
#   From: 2010.05.17/outbox.cif.g08.bks.cpg/sg14_25_cif.got.tgz:49571.got - 2010.06.03 17:49:19.
