data_PCOD9252555
_publ_section_title
;
Structure prediction by ZEFSAII (Michael W. Deem and Ramdas Pophale) SiO2 
 PCOD9252555
Probable space group: P 21/C
;
_chemical_formula_sum "Si O2"
_cell_formula_units_Z 24
_cell_length_a 10.960224
_cell_length_b 9.914875
_cell_length_c 23.856955
_cell_angle_alpha 90.000000
_cell_angle_beta 21.932266
_cell_angle_gamma 90.000000
_cell_volume 968.331788
_symmetry_space_group_name_H-M "P 21/C"
_symmetry_group_IT_number 14
_symmetry_cell_setting 'monoclinic'
loop_
_space_group_symop_operation_xyz
x,y,z
-x,1/2+y,1/2-z
-x,-y,-z
x,1/2-y,1/2+z
loop_
_atom_site_type_symbol
_atom_site_label
_atom_site_fract_x
_atom_site_fract_y
_atom_site_fract_z
Si Si1 0.158292 0.185801 0.722441
Si Si2 0.692492 0.634769 0.242520
Si Si3 0.225414 0.074455 0.978422
Si Si4 0.682321 0.538512 0.007676
Si Si5 0.585915 0.675721 0.486893
Si Si6 0.514773 0.831709 0.694534
O O1 0.234467 0.232427 0.752915
O O2 0.408286 0.065514 0.604048
O O3 0.230097 0.311030 0.650141
O O4 0.788518 0.150654 0.867413
O O5 0.339946 0.570046 0.407131
O O6 0.713574 0.657783 0.167324
O O7 0.966518 0.530101 0.146996
O O8 0.297605 0.077793 0.013962
O O9 0.441568 0.183441 0.851291
O O10 0.855000 0.126439 0.132752
O O11 0.645714 0.678226 0.990526
O O12 0.630071 0.570990 0.095591
#
# Coordination Sequence:
#
# PCOD9252555 Si02
#       6
#     4   4   4   4   4   4
#     4  12  26  40  71 102 137 176 233 281 341 405
#     4  12  27  43  72 104 137 183 225 289 338 406
#     4  11  25  46  71 102 137 184 231 273 352 397
#     4  11  25  48  68 100 137 187 226 280 350 394
#     4  11  24  46  69  96 139 182 226 283 336 417
#     4  11  26  45  75  97 140 181 228 286 335 418
#
# _framework density 24.784893
#
# number of rings (size 3 to 8) (size 9 to 14) (size 15 to 20)
#    0.000    0.667    1.667    6.500    9.333    0.667 
#    0.000    0.000    0.000    0.000    0.000    0.000 
#    0.000    0.000    0.000    0.000    0.000    0.000 
#
# Total GULP energy -134559.808877 kJ/mol
# GULP energy per Si atom -5606.658703 kJ/mol
# Density = 2.472848 g / cm^3
# Si number density = 24.784893 Si / 1000 Ang^3
#
#
#
# Elastic Constant Matrix: (Units=GPa)
#
#
# Indices 1 2 3 4 5 6 
#
# 1 162.4360 18.8762 18.0575 0.0000 11.8811 0.0000
# 2 18.8762 51.4119 -0.0994 0.0000 -5.0934 0.0000
# 3 18.0575 -0.0994 74.2406 0.0000 -17.5572 0.0000
# 4 0.0000 0.0000 0.0000 19.9353 0.0000 16.0864
# 5 11.8811 -5.0934 -17.5572 0.0000 31.2604 0.0000
# 6 0.0000 0.0000 0.0000 16.0864 0.0000 3.8799
#
#
#
# Elastic Compliance Matrix: (Units=1/GPa)
#
#
# Indices 1 2 3 4 5 6 
#
# 1 0.007201 -0.003133 -0.002910 0.000000 -0.004882 0.000000
# 2 -0.003133 0.021186 0.002178 0.000000 0.005866 0.000000
# 3 -0.002910 0.002178 0.016751 0.000000 0.010869 0.000000
# 4 0.000000 0.000000 0.000000 -0.021385 0.000000 0.088666
# 5 -0.004882 0.005866 0.010869 0.000000 0.040905 0.000000
# 6 0.000000 0.000000 0.000000 0.088666 0.000000 -0.109881
#
#
# Mechanical properties :
#
#
# Convention : Reuss Voigt Hill
#
# Bulk Modulus (GPa) = 26.73297 40.19522 33.46410
# Shear Modulus (GPa) = -199.82188 27.76540 -86.02824
#
# Velocity S-wave (km/s) = -8.98874 3.35065 -5.89791
# Velocity P-wave (km/s) = 9.84482 5.58766 5.73143
#
# Compressibility (1/GPa) = 0.03740699
#
# Stress axis : x y z
#
# Youngs Moduli (GPa) = 138.87041 47.19998 59.69827
#
# Poissons Ratio (x) = 0.14788 0.17373
# Poissons Ratio (y) = 0.43510 -0.13000
# Poissons Ratio (z) = 0.40414 -0.10279
#
# Static dielectric constant tensor:
#      x y z
#    x 1.921120 0.000000 0.004320 
#    y 0.000000 1.965620 0.000000 
#    z 0.004320 0.000000 1.951240 
# 
# From -- ./inp_files/77201.got.cif
#   From: 2010.05.17/outbox.cif.g08.bks.cpg/sg14_39_cif.got.tgz:77201.got - 2010.06.03 17:49:19.
