data_PCOD9252787
_publ_section_title
;
Structure prediction by ZEFSAII (Michael W. Deem and Ramdas Pophale) SiO2 
 PCOD9252787
Probable space group: P 21/C
;
_chemical_formula_sum "Si O2"
_cell_formula_units_Z 24
_cell_length_a 4.991910
_cell_length_b 17.450904
_cell_length_c 10.653876
_cell_angle_alpha 90.000000
_cell_angle_beta 88.689349
_cell_angle_gamma 90.000000
_cell_volume 927.851932
_symmetry_space_group_name_H-M "P 21/C"
_symmetry_group_IT_number 14
_symmetry_cell_setting 'monoclinic'
loop_
_space_group_symop_operation_xyz
x,y,z
-x,1/2+y,1/2-z
-x,-y,-z
x,1/2-y,1/2+z
loop_
_atom_site_type_symbol
_atom_site_label
_atom_site_fract_x
_atom_site_fract_y
_atom_site_fract_z
Si Si1 0.557469 0.521589 0.856871
Si Si2 0.410599 0.412518 0.521006
Si Si3 0.325251 0.743245 0.428326
Si Si4 0.332319 0.170029 0.756957
Si Si5 0.825395 0.794977 0.584678
Si Si6 0.072507 0.443909 0.758975
O O1 0.697912 0.604143 0.846018
O O2 0.271983 0.514894 0.789835
O O3 0.766352 0.465738 0.785651
O O4 0.500000 0.500000 0.000000
O O5 0.500000 0.500000 0.500000
O O6 0.613015 0.347688 0.573485
O O7 0.348482 0.379403 0.384156
O O8 0.163229 0.416808 0.620639
O O9 0.413797 0.783318 0.298737
O O10 0.534687 0.777128 0.529884
O O11 0.037517 0.768827 0.478710
O O12 0.135140 0.237578 0.797857
O O13 0.857519 0.878647 0.640548
#
# Coordination Sequence:
#
# PCOD9252787 Si02
#       6
#     4   4   4   4   4   4
#     4  12  27  45  76 105 149 190 246 301 366 435
#     4  11  25  49  75 108 151 197 240 304 371 439
#     4  11  26  48  76 106 143 192 247 301 361 432
#     4  11  25  47  73 108 144 193 245 303 366 441
#     4  11  25  46  74 103 143 186 245 304 364 430
#     4  12  25  48  72 108 147 191 243 298 368 438
#
# _framework density 25.866198000000001
#
# number of rings (size 3 to 8) (size 9 to 14) (size 15 to 20)
#    0.000    0.667    3.333    3.500    2.333    7.333 
#    0.000    0.000    0.000    0.000    0.000    0.000 
#    0.000    0.000    0.000    0.000    0.000    0.000 
#
# Total GULP energy -134396.986339 kJ/mol
# GULP energy per Si atom -5599.874431 kJ/mol
# Density = 2.580733 g / cm^3
# Si number density = 25.866198 Si / 1000 Ang^3
#
#
#
# Elastic Constant Matrix: (Units=GPa)
#
#
# Indices 1 2 3 4 5 6 
#
# 1 62.5789 -13.2811 13.9945 0.0000 -7.8594 0.0000
# 2 -13.2811 108.4161 3.7111 0.0000 -4.2652 0.0000
# 3 13.9945 3.7111 172.6676 0.0000 -36.6096 0.0000
# 4 0.0000 0.0000 0.0000 66.6221 0.0000 -3.3654
# 5 -7.8594 -4.2652 -36.6096 0.0000 35.4063 0.0000
# 6 0.0000 0.0000 0.0000 -3.3654 0.0000 11.8480
#
#
#
# Elastic Compliance Matrix: (Units=1/GPa)
#
#
# Indices 1 2 3 4 5 6 
#
# 1 0.017033 0.002241 -0.000730 0.000000 0.003296 0.000000
# 2 0.002241 0.009563 -0.000048 0.000000 0.001600 0.000000
# 3 -0.000730 -0.000048 0.007449 0.000000 0.007535 0.000000
# 4 0.000000 0.000000 0.000000 0.015229 0.000000 0.004326
# 5 0.003296 0.001600 0.007535 0.000000 0.036959 0.000000
# 6 0.000000 0.000000 0.000000 0.004326 0.000000 0.085631
#
#
# Mechanical properties :
#
#
# Convention : Reuss Voigt Hill
#
# Bulk Modulus (GPa) = 27.04779 39.16796 33.10788
# Shear Modulus (GPa) = 27.58467 45.39114 36.48790
#
# Velocity S-wave (km/s) = 3.26918 4.19363 3.75992
# Velocity P-wave (km/s) = 4.97288 6.21483 5.62822
#
# Compressibility (1/GPa) = 0.03697160
#
# Stress axis : x y z
#
# Youngs Moduli (GPa) = 58.71075 104.57126 134.24347
#
# Poissons Ratio (x) = -0.23436 0.09796
# Poissons Ratio (y) = -0.13158 0.00644
# Poissons Ratio (z) = 0.04284 0.00502
#
# Static dielectric constant tensor:
#      x y z
#    x 2.192930 0.000000 -0.056490 
#    y 0.000000 2.047510 0.000000 
#    z -0.056490 0.000000 2.168220 
# 
# From -- ./inp_files/21166.got.cif
#   From: 2010.05.17/outbox.cif.g08.bks.cpg/sg14_11_cif.got.tgz:21166.got - 2010.06.03 17:49:19.
