data_PCOD9252080
_publ_section_title
;
Structure prediction by ZEFSAII (Michael W. Deem and Ramdas Pophale) SiO2 
 PCOD9252080
Probable space group: P 21/C
;
_chemical_formula_sum "Si O2"
_cell_formula_units_Z 32
_cell_length_a 11.564447
_cell_length_b 13.952224
_cell_length_c 8.693411
_cell_angle_alpha 90.000000
_cell_angle_beta 107.159975
_cell_angle_gamma 90.000000
_cell_volume 1340.239027
_symmetry_space_group_name_H-M "P 21/C"
_symmetry_group_IT_number 14
_symmetry_cell_setting 'monoclinic'
loop_
_space_group_symop_operation_xyz
x,y,z
-x,1/2+y,1/2-z
-x,-y,-z
x,1/2-y,1/2+z
loop_
_atom_site_type_symbol
_atom_site_label
_atom_site_fract_x
_atom_site_fract_y
_atom_site_fract_z
Si Si1 0.459560 0.309748 0.874365
Si Si2 0.994147 0.890508 0.712042
Si Si3 0.005216 0.200031 0.622265
Si Si4 0.721623 0.864085 0.225582
Si Si5 0.793065 0.127555 0.750582
Si Si6 0.779046 0.029061 0.065691
Si Si7 0.279769 0.040408 0.454774
Si Si8 0.368824 0.803630 0.827029
O O1 0.371164 0.222212 0.791223
O O2 0.377126 0.393723 0.908434
O O3 0.544420 0.343367 0.769990
O O4 0.545269 0.259558 0.031888
O O5 0.009553 0.813298 0.854830
O O6 0.020479 0.839167 0.558584
O O7 0.095155 0.969495 0.788764
O O8 0.857318 0.927275 0.644092
O O9 0.915714 0.151438 0.709102
O O10 0.144675 0.179636 0.712872
O O11 0.706938 0.938516 0.359910
O O12 0.715572 0.926821 0.067931
O O13 0.729913 0.227164 0.773693
O O14 0.712126 0.068448 0.596633
O O15 0.803670 0.057927 0.900607
O O16 0.697604 0.113259 0.105814
#
# Coordination Sequence:
#
# PCOD9252080 Si02
#       8
#     4   4   4   4   4   4   4   4
#     4  12  26  49  70  98 139 182 234 279 342 401
#     4  11  23  42  72 104 138 177 221 282 347 410
#     4  11  23  42  72 104 139 175 223 279 350 411
#     4  11  26  46  72 105 138 179 226 284 345 407
#     4  12  27  45  71 105 137 182 229 282 345 405
#     4  12  27  45  71 104 139 180 229 285 340 408
#     4  11  26  46  72 104 139 180 224 284 347 407
#     4  12  28  47  68 100 137 184 232 285 335 401
#
# _framework density 23.876335999999998
#
# number of rings (size 3 to 8) (size 9 to 14) (size 15 to 20)
#    0.000    0.500    5.000    2.250    5.250    7.000 
#    0.000    0.000    0.000    0.000    0.000    0.000 
#    0.000    0.000    0.000    0.000    0.000    0.000 
#
# Total GULP energy -179368.671380 kJ/mol
# GULP energy per Si atom -5605.270981 kJ/mol
# Density = 2.382199 g / cm^3
# Si number density = 23.876336 Si / 1000 Ang^3
#
#
#
# Elastic Constant Matrix: (Units=GPa)
#
#
# Indices 1 2 3 4 5 6 
#
# 1 119.7915 22.8367 34.8043 0.0000 2.1621 0.0000
# 2 22.8367 69.8148 -6.1864 0.0000 -1.8547 0.0000
# 3 34.8043 -6.1864 52.2875 0.0000 -3.1065 0.0000
# 4 0.0000 0.0000 0.0000 32.9966 0.0000 -5.8986
# 5 2.1621 -1.8547 -3.1065 0.0000 27.1731 0.0000
# 6 0.0000 0.0000 0.0000 -5.8986 0.0000 28.6533
#
#
#
# Elastic Compliance Matrix: (Units=1/GPa)
#
#
# Indices 1 2 3 4 5 6 
#
# 1 0.011745 -0.004654 -0.008501 0.000000 -0.002224 0.000000
# 2 -0.004654 0.016358 0.005157 0.000000 0.002076 0.000000
# 3 -0.008501 0.005157 0.025629 0.000000 0.003958 0.000000
# 4 0.000000 0.000000 0.000000 0.031464 0.000000 0.006477
# 5 -0.002224 0.002076 0.003958 0.000000 0.037572 0.000000
# 6 0.000000 0.000000 0.000000 0.006477 0.000000 0.036233
#
#
# Mechanical properties :
#
#
# Convention : Reuss Voigt Hill
#
# Bulk Modulus (GPa) = 26.50014 38.31143 32.40579
# Shear Modulus (GPa) = 26.65581 30.46055 28.55818
#
# Velocity S-wave (km/s) = 3.34490 3.57566 3.46220
# Velocity P-wave (km/s) = 5.10302 5.75567 5.43914
#
# Compressibility (1/GPa) = 0.03773565
#
# Stress axis : x y z
#
# Youngs Moduli (GPa) = 85.14238 61.13168 39.01878
#
# Poissons Ratio (x) = 0.28452 0.33169
# Poissons Ratio (y) = 0.39627 -0.20121
# Poissons Ratio (z) = 0.72377 -0.31524
#
# Static dielectric constant tensor:
#      x y z
#    x 1.872050 0.000000 0.020850 
#    y 0.000000 1.895590 0.000000 
#    z 0.020850 0.000000 1.915520 
# 
# From -- ./inp_files/13359.got.cif
#   From: 2010.05.17/outbox.cif.g08.bks.cpg/sg14_7_cif.got.tgz:13359.got - 2010.06.03 17:49:19.
