data_PCOD9252984
_publ_section_title
;
Structure prediction by ZEFSAII (Michael W. Deem and Ramdas Pophale) SiO2 
 PCOD9252984
Probable space group: P 21/C
;
_chemical_formula_sum "Si O2"
_cell_formula_units_Z 18
_cell_length_a 9.038265
_cell_length_b 8.955364
_cell_length_c 12.496701
_cell_angle_alpha 90.000000
_cell_angle_beta 49.725371
_cell_angle_gamma 90.000000
_cell_volume 771.724737
_symmetry_space_group_name_H-M "P 21/C"
_symmetry_group_IT_number 14
_symmetry_cell_setting 'monoclinic'
loop_
_space_group_symop_operation_xyz
x,y,z
-x,1/2+y,1/2-z
-x,-y,-z
x,1/2-y,1/2+z
loop_
_atom_site_type_symbol
_atom_site_label
_atom_site_fract_x
_atom_site_fract_y
_atom_site_fract_z
Si Si1 0.308401 0.303636 0.521318
Si Si2 0.627789 0.028113 0.204641
Si Si3 0.500000 0.500000 0.000000
Si Si4 0.943825 0.220727 0.568867
Si Si5 0.246076 0.412207 0.781372
O O1 0.349670 0.410190 0.401928
O O2 0.460550 0.172997 0.475849
O O3 0.280050 0.402029 0.640330
O O4 0.103998 0.225307 0.587454
O O5 0.586700 0.958321 0.339788
O O6 0.817001 0.131673 0.122621
O O7 0.441891 0.123519 0.253192
O O8 0.067555 0.190512 0.403490
O O9 0.810649 0.077831 0.652822
#
# Coordination Sequence:
#
# PCOD9252984 Si02
#       5
#     4   4   2   4   4
#     4  12  27  48  80 117 157 219 269 340 409 489
#     4  12  27  51  80 118 157 217 271 338 414 490
#     4  12  28  48  82 114 170 208 272 342 408 484
#     4  11  27  48  77 117 160 208 273 338 409 498
#     4  11  27  49  75 118 159 208 268 337 419 483
#
# _framework density 23.324379
#
# number of rings (size 3 to 8) (size 9 to 14) (size 15 to 20)
#    0.000    0.444    2.222    4.000    9.333    0.000 
#    0.000    0.000    0.000    0.000    0.000    0.000 
#    0.000    0.000    0.000    0.000    0.000    0.000 
#
# Total GULP energy -100309.363037 kJ/mol
# GULP energy per Si atom -5572.742391 kJ/mol
# Density = 2.327129 g / cm^3
# Si number density = 23.324379 Si / 1000 Ang^3
#
#
#
# Elastic Constant Matrix: (Units=GPa)
#
#
# Indices 1 2 3 4 5 6 
#
# 1 14.6165 5.9096 19.3030 0.0000 0.7124 0.0000
# 2 5.9096 92.9667 53.5181 0.0000 10.3009 0.0000
# 3 19.3030 53.5181 155.2098 0.0000 47.4181 0.0000
# 4 0.0000 0.0000 0.0000 30.8784 0.0000 11.1449
# 5 0.7124 10.3009 47.4181 0.0000 40.2817 0.0000
# 6 0.0000 0.0000 0.0000 11.1449 0.0000 31.3195
#
#
#
# Elastic Compliance Matrix: (Units=1/GPa)
#
#
# Indices 1 2 3 4 5 6 
#
# 1 0.089920 0.002414 -0.017710 0.000000 0.018640 0.000000
# 2 0.002414 0.013746 -0.006173 0.000000 0.003709 0.000000
# 3 -0.017710 -0.006173 0.015922 0.000000 -0.016851 0.000000
# 4 0.000000 0.000000 0.000000 0.037157 0.000000 -0.013222
# 5 0.018640 0.003709 -0.016851 0.000000 0.043384 0.000000
# 6 0.000000 0.000000 0.000000 -0.013222 0.000000 0.036634
#
#
# Mechanical properties :
#
#
# Convention : Reuss Voigt Hill
#
# Bulk Modulus (GPa) = 13.04641 46.69496 29.87069
# Shear Modulus (GPa) = 16.37993 32.76675 24.57334
#
# Velocity S-wave (km/s) = 2.65291 3.75217 3.24936
# Velocity P-wave (km/s) = 3.87163 6.23177 5.18770
#
# Compressibility (1/GPa) = 0.07664944
#
# Stress axis : x y z
#
# Youngs Moduli (GPa) = 11.12098 72.74978 62.80544
#
# Poissons Ratio (x) = -0.17561 1.11230
# Poissons Ratio (y) = -0.02685 0.38770
# Poissons Ratio (z) = 0.19696 0.44908
#
# Static dielectric constant tensor:
#      x y z
#    x 1.888620 0.000000 -0.040110 
#    y 0.000000 1.844580 0.000000 
#    z -0.040110 0.000000 1.890490 
# 
# From -- ./inp_files/22878.got.cif
#   From: 2010.05.17/outbox.cif.g08.bks.cpg/sg14_12_cif.got.tgz:22878.got - 2010.06.03 17:49:19.
