data_PCOD9252276
_publ_section_title
;
Structure prediction by ZEFSAII (Michael W. Deem and Ramdas Pophale) SiO2 
 PCOD9252276
Probable space group: P 21/C
;
_chemical_formula_sum "Si O2"
_cell_formula_units_Z 32
_cell_length_a 5.395614
_cell_length_b 10.538165
_cell_length_c 23.450245
_cell_angle_alpha 90.000000
_cell_angle_beta 104.538565
_cell_angle_gamma 90.000000
_cell_volume 1290.681661
_symmetry_space_group_name_H-M "P 21/C"
_symmetry_group_IT_number 14
_symmetry_cell_setting 'monoclinic'
loop_
_space_group_symop_operation_xyz
x,y,z
-x,1/2+y,1/2-z
-x,-y,-z
x,1/2-y,1/2+z
loop_
_atom_site_type_symbol
_atom_site_label
_atom_site_fract_x
_atom_site_fract_y
_atom_site_fract_z
Si Si1 0.684867 0.835396 0.059645
Si Si2 0.633088 0.298034 0.120793
Si Si3 0.102643 0.967666 0.153955
Si Si4 0.783484 0.815702 0.302741
Si Si5 0.671248 0.930105 0.942423
Si Si6 0.411013 0.077869 0.391313
Si Si7 0.029067 0.571838 0.229914
Si Si8 0.408715 0.734049 0.195742
O O1 0.632588 0.686854 0.064519
O O2 0.872118 0.877461 0.121074
O O3 0.442881 0.930534 0.050851
O O4 0.807187 0.873210 0.006001
O O5 0.434328 0.302806 0.162104
O O6 0.556942 0.170864 0.082672
O O7 0.568642 0.433303 0.086403
O O8 0.930303 0.293828 0.156833
O O9 0.346463 0.876324 0.173969
O O10 0.162455 0.060393 0.104977
O O11 0.043958 0.031506 0.210481
O O12 0.681389 0.732627 0.243371
O O13 0.781672 0.957812 0.278844
O O14 0.619382 0.142991 0.360848
O O15 0.182115 0.067882 0.332007
O O16 0.199351 0.695954 0.230472
#
# Coordination Sequence:
#
# PCOD9252276 Si02
#       8
#     4   4   4   4   4   4   4   4
#     4  11  25  50  76 103 148 204 267 320 383 454
#     4  11  27  48  73 109 154 196 259 327 378 459
#     4  12  26  45  75 110 153 200 258 322 388 465
#     4  11  26  45  67 110 157 198 242 312 392 463
#     4  11  28  47  73 109 147 203 267 325 382 445
#     4  11  23  46  74 102 152 195 254 311 388 471
#     4  11  26  43  67 110 152 196 243 309 391 468
#     4  12  24  42  68 109 147 204 245 304 393 475
#
# _framework density 24.793101
#
# number of rings (size 3 to 8) (size 9 to 14) (size 15 to 20)
#    0.000    0.750    3.750    2.625    7.000    0.500 
#    2.250    0.000    0.000    3.000    0.000    0.000 
#    0.000    0.000    0.000    0.000    0.000    0.000 
#
# Total GULP energy -179007.899978 kJ/mol
# GULP energy per Si atom -5593.996874 kJ/mol
# Density = 2.473667 g / cm^3
# Si number density = 24.793101 Si / 1000 Ang^3
#
#
#
# Elastic Constant Matrix: (Units=GPa)
#
#
# Indices 1 2 3 4 5 6 
#
# 1 90.3671 5.3714 29.9761 0.0000 -8.6095 0.0000
# 2 5.3714 103.1524 27.0387 0.0000 -12.4922 0.0000
# 3 29.9761 27.0387 87.3131 0.0000 -7.9100 0.0000
# 4 0.0000 0.0000 0.0000 29.7665 0.0000 2.9732
# 5 -8.6095 -12.4922 -7.9100 0.0000 29.3804 0.0000
# 6 0.0000 0.0000 0.0000 2.9732 0.0000 37.7626
#
#
#
# Elastic Compliance Matrix: (Units=1/GPa)
#
#
# Indices 1 2 3 4 5 6 
#
# 1 0.012743 0.000835 -0.004370 0.000000 0.002913 0.000000
# 2 0.000835 0.011012 -0.003332 0.000000 0.004030 0.000000
# 3 -0.004370 -0.003332 0.014084 0.000000 0.001095 0.000000
# 4 0.000000 0.000000 0.000000 0.033861 0.000000 -0.002666
# 5 0.002913 0.004030 0.001095 0.000000 0.036898 0.000000
# 6 0.000000 0.000000 0.000000 -0.002666 0.000000 0.026691
#
#
# Mechanical properties :
#
#
# Convention : Reuss Voigt Hill
#
# Bulk Modulus (GPa) = 41.48291 45.06721 43.27506
# Shear Modulus (GPa) = 31.83521 33.94499 32.89010
#
# Velocity S-wave (km/s) = 3.58723 3.70419 3.64618
# Velocity P-wave (km/s) = 5.82457 6.04247 5.93452
#
# Compressibility (1/GPa) = 0.02410631
#
# Stress axis : x y z
#
# Youngs Moduli (GPa) = 78.47256 90.80767 71.00205
#
# Poissons Ratio (x) = -0.07578 0.31025
# Poissons Ratio (y) = -0.06549 0.23655
# Poissons Ratio (z) = 0.34289 0.30254
#
# Static dielectric constant tensor:
#      x y z
#    x 2.089780 0.000000 -0.051190 
#    y 0.000000 2.065290 0.000000 
#    z -0.051190 0.000000 1.980990 
# 
# From -- ./inp_files/71316.got.cif
#   From: 2010.05.17/outbox.cif.g08.bks.cpg/sg14_36_cif.got.tgz:71316.got - 2010.06.03 17:49:19.
