data_PCOD9252669
_publ_section_title
;
Structure prediction by ZEFSAII (Michael W. Deem and Ramdas Pophale) SiO2 
 PCOD9252669
Probable space group: P 21/C
;
_chemical_formula_sum "Si O2"
_cell_formula_units_Z 22
_cell_length_a 8.276815
_cell_length_b 13.333325
_cell_length_c 7.999868
_cell_angle_alpha 90.000000
_cell_angle_beta 68.053542
_cell_angle_gamma 90.000000
_cell_volume 818.868462
_symmetry_space_group_name_H-M "P 21/C"
_symmetry_group_IT_number 14
_symmetry_cell_setting 'monoclinic'
loop_
_space_group_symop_operation_xyz
x,y,z
-x,1/2+y,1/2-z
-x,-y,-z
x,1/2-y,1/2+z
loop_
_atom_site_type_symbol
_atom_site_label
_atom_site_fract_x
_atom_site_fract_y
_atom_site_fract_z
Si Si1 0.236657 0.564161 0.040269
Si Si2 0.672358 0.852428 0.613264
Si Si3 0.000000 0.000000 0.000000
Si Si4 0.135095 0.856044 0.240242
Si Si5 0.922136 0.651697 0.328282
Si Si6 0.467231 0.764768 0.973974
O O1 0.320627 0.455755 0.989231
O O2 0.132385 0.579474 0.908023
O O3 0.368761 0.658015 0.992910
O O4 0.099003 0.573997 0.247319
O O5 0.505474 0.828744 0.794225
O O6 0.652841 0.762563 0.487402
O O7 0.826325 0.849714 0.687998
O O8 0.926045 0.088613 0.900318
O O9 0.838085 0.917597 0.001020
O O10 0.019559 0.756714 0.314123
O O11 0.335559 0.827054 0.135822
#
# Coordination Sequence:
#
# PCOD9252669 Si02
#       6
#     4   4   2   4   4   4
#     4  11  24  50  71  97 146 195 234 293 370 432
#     4  12  26  45  71 109 138 193 236 303 361 444
#     4  12  26  46  80 106 138 200 254 294 364 444
#     4  11  25  49  73 104 143 198 238 306 360 442
#     4  11  26  45  75 105 147 187 250 302 363 437
#     4  11  26  48  70 103 150 186 239 302 371 431
#
# _framework density 26.866343000000001
#
# number of rings (size 3 to 8) (size 9 to 14) (size 15 to 20)
#    0.000    0.727    3.636    3.273    7.636    0.727 
#    3.273    0.000    0.000    0.000    0.000    0.000 
#    0.000    0.000    0.000    0.000    0.000    0.000 
#
# Total GULP energy -122771.581244 kJ/mol
# GULP energy per Si atom -5580.526420 kJ/mol
# Density = 2.680519 g / cm^3
# Si number density = 26.866343 Si / 1000 Ang^3
#
#
#
# Elastic Constant Matrix: (Units=GPa)
#
#
# Indices 1 2 3 4 5 6 
#
# 1 54.8875 4.9876 18.4123 0.0000 9.7067 0.0000
# 2 4.9876 138.6428 9.3870 0.0000 9.9846 0.0000
# 3 18.4123 9.3870 68.6513 0.0000 14.0817 0.0000
# 4 0.0000 0.0000 0.0000 48.3496 0.0000 6.2903
# 5 9.7067 9.9846 14.0817 0.0000 53.5398 0.0000
# 6 0.0000 0.0000 0.0000 6.2903 0.0000 50.4906
#
#
#
# Elastic Compliance Matrix: (Units=1/GPa)
#
#
# Indices 1 2 3 4 5 6 
#
# 1 0.020310 -0.000228 -0.004936 0.000000 -0.002341 0.000000
# 2 -0.000228 0.007351 -0.000710 0.000000 -0.001143 0.000000
# 3 -0.004936 -0.000710 0.016676 0.000000 -0.003359 0.000000
# 4 0.000000 0.000000 0.000000 0.021023 0.000000 -0.002619
# 5 -0.002341 -0.001143 -0.003359 0.000000 0.020199 0.000000
# 6 0.000000 0.000000 0.000000 -0.002619 0.000000 0.020132
#
#
# Mechanical properties :
#
#
# Convention : Reuss Voigt Hill
#
# Bulk Modulus (GPa) = 30.68342 36.41725 33.55033
# Shear Modulus (GPa) = 38.97091 45.76899 42.36995
#
# Velocity S-wave (km/s) = 3.81274 4.13192 3.97554
# Velocity P-wave (km/s) = 5.55231 6.02894 5.79553
#
# Compressibility (1/GPa) = 0.03259090
#
# Stress axis : x y z
#
# Youngs Moduli (GPa) = 49.23799 136.02964 59.96609
#
# Poissons Ratio (x) = 0.03099 0.29597
# Poissons Ratio (y) = 0.01122 0.04255
# Poissons Ratio (z) = 0.24302 0.09653
#
# Static dielectric constant tensor:
#      x y z
#    x 2.214510 0.000000 -0.218570 
#    y 0.000000 1.614310 0.000000 
#    z -0.218570 0.000000 1.458200 
# 
# From -- ./inp_files/8437.got.cif
#   From: 2010.05.17/outbox.cif.g08.bks.cpg/sg14_5_cif.got.tgz:8437.got - 2010.06.03 17:49:19.
