data_PCOD9252214
_publ_section_title
;
Structure prediction by ZEFSAII (Michael W. Deem and Ramdas Pophale) SiO2 
 PCOD9252214
Probable space group: P 21/C
;
_chemical_formula_sum "Si O2"
_cell_formula_units_Z 26
_cell_length_a 22.664655
_cell_length_b 5.267395
_cell_length_c 18.016152
_cell_angle_alpha 90.000000
_cell_angle_beta 150.232235
_cell_angle_gamma 90.000000
_cell_volume 1067.858617
_symmetry_space_group_name_H-M "P 21/C"
_symmetry_group_IT_number 14
_symmetry_cell_setting 'monoclinic'
loop_
_space_group_symop_operation_xyz
x,y,z
-x,1/2+y,1/2-z
-x,-y,-z
x,1/2-y,1/2+z
loop_
_atom_site_type_symbol
_atom_site_label
_atom_site_fract_x
_atom_site_fract_y
_atom_site_fract_z
Si Si1 0.074368 0.557817 0.729201
Si Si2 0.374853 0.132120 0.958512
Si Si3 0.000000 0.500000 0.500000
Si Si4 0.356240 0.668937 0.217424
Si Si5 0.272735 0.631549 0.771249
Si Si6 0.725026 0.417980 0.507643
Si Si7 0.141211 0.203492 0.450508
O O1 0.194002 0.720508 0.858678
O O2 0.074389 0.445479 0.811282
O O3 0.058261 0.376253 0.642047
O O4 0.956223 0.732959 0.593702
O O5 0.339161 0.401316 0.885099
O O6 0.315954 0.903540 0.848468
O O7 0.328960 0.111794 0.993091
O O8 0.515665 0.084253 0.114848
O O9 0.868558 0.387081 0.375444
O O10 0.310402 0.876140 0.226145
O O11 0.367930 0.774644 0.146375
O O12 0.252298 0.459228 0.099942
O O13 0.808937 0.555463 0.539564
#
# Coordination Sequence:
#
# PCOD9252214 Si02
#       7
#     4   4   2   4   4   4   4
#     4  11  23  45  70 109 151 193 253 324 385 468
#     4  12  29  52  77 110 163 200 264 321 391 462
#     4  12  26  46  78 110 156 194 262 316 394 460
#     4  11  29  47  79 110 153 206 265 317 395 473
#     4  12  29  51  77 117 154 211 253 326 391 469
#     4  11  25  46  74 109 145 205 259 324 386 459
#     4  11  24  44  74 106 146 199 254 317 393 462
#
# _framework density 24.347792999999999
#
# number of rings (size 3 to 8) (size 9 to 14) (size 15 to 20)
#    0.000    0.615    3.077    2.769   12.923    1.846 
#    0.000    0.000    0.000    0.000    0.000    0.000 
#    0.000    0.000    0.000    0.000    0.000    0.000 
#
# Total GULP energy -145053.378819 kJ/mol
# GULP energy per Si atom -5578.976108 kJ/mol
# Density = 2.429238 g / cm^3
# Si number density = 24.347793 Si / 1000 Ang^3
#
#
#
# Elastic Constant Matrix: (Units=GPa)
#
#
# Indices 1 2 3 4 5 6 
#
# 1 45.3270 -13.9213 26.1070 0.0000 1.4357 0.0000
# 2 -13.9213 58.7280 23.0748 0.0000 -6.6072 0.0000
# 3 26.1070 23.0748 163.3910 0.0000 11.1117 0.0000
# 4 0.0000 0.0000 0.0000 28.5060 0.0000 -5.8945
# 5 1.4357 -6.6072 11.1117 0.0000 31.2279 0.0000
# 6 0.0000 0.0000 0.0000 -5.8945 0.0000 20.1620
#
#
#
# Elastic Compliance Matrix: (Units=1/GPa)
#
#
# Indices 1 2 3 4 5 6 
#
# 1 0.028351 0.009419 -0.006054 0.000000 0.002843 0.000000
# 2 0.009419 0.021900 -0.005005 0.000000 0.005981 0.000000
# 3 -0.006054 -0.005005 0.008042 0.000000 -0.003642 0.000000
# 4 0.000000 0.000000 0.000000 0.037337 0.000000 0.010916
# 5 0.002843 0.005981 -0.003642 0.000000 0.034453 0.000000
# 6 0.000000 0.000000 0.000000 0.010916 0.000000 0.052790
#
#
# Mechanical properties :
#
#
# Convention : Reuss Voigt Hill
#
# Bulk Modulus (GPa) = 18.17692 37.55188 27.86440
# Shear Modulus (GPa) = 24.45107 31.45820 27.95463
#
# Velocity S-wave (km/s) = 3.17241 3.59839 3.39209
# Velocity P-wave (km/s) = 4.57173 5.72024 5.17793
#
# Compressibility (1/GPa) = 0.05501483
#
# Stress axis : x y z
#
# Youngs Moduli (GPa) = 35.27163 45.66285 124.34720
#
# Poissons Ratio (x) = -0.43010 0.75275
# Poissons Ratio (y) = -0.33223 0.62230
# Poissons Ratio (z) = 0.21352 0.22852
#
# Static dielectric constant tensor:
#      x y z
#    x 2.164710 0.000000 -0.115280 
#    y 0.000000 1.988000 0.000000 
#    z -0.115280 0.000000 1.993130 
# 
# From -- ./inp_files/61630.got.cif
#   From: 2010.05.17/outbox.cif.g08.bks.cpg/sg14_31_cif.got.tgz:61630.got - 2010.06.03 17:49:19.
