data_PCOD9252638
_publ_section_title
;
Structure prediction by ZEFSAII (Michael W. Deem and Ramdas Pophale) SiO2 
 PCOD9252638
Probable space group: P 21/C
;
_chemical_formula_sum "Si O2"
_cell_formula_units_Z 24
_cell_length_a 7.544314
_cell_length_b 5.395160
_cell_length_c 23.357086
_cell_angle_alpha 90.000000
_cell_angle_beta 84.822271
_cell_angle_gamma 90.000000
_cell_volume 946.819084
_symmetry_space_group_name_H-M "P 21/C"
_symmetry_group_IT_number 14
_symmetry_cell_setting 'monoclinic'
loop_
_space_group_symop_operation_xyz
x,y,z
-x,1/2+y,1/2-z
-x,-y,-z
x,1/2-y,1/2+z
loop_
_atom_site_type_symbol
_atom_site_label
_atom_site_fract_x
_atom_site_fract_y
_atom_site_fract_z
Si Si1 0.406920 0.076613 0.580910
Si Si2 0.700451 0.118372 0.302420
Si Si3 0.794915 0.426924 0.448622
Si Si4 0.376483 0.056544 0.822027
Si Si5 0.783540 0.229647 0.572188
Si Si6 0.954791 0.670508 0.138640
O O1 0.314284 0.320103 0.557106
O O2 0.614248 0.058440 0.559567
O O3 0.376752 0.082920 0.650686
O O4 0.317734 0.816428 0.566555
O O5 0.579335 0.358222 0.318564
O O6 0.905922 0.137983 0.314079
O O7 0.668000 0.061191 0.237562
O O8 0.835297 0.375088 0.513726
O O9 0.963849 0.397350 0.401075
O O10 0.241659 0.289793 0.831122
O O11 0.311648 0.896206 0.877191
O O12 0.935540 0.058839 0.595465
#
# Coordination Sequence:
#
# PCOD9252638 Si02
#       6
#     4   4   4   4   4   4
#     4  11  24  48  76 112 152 210 259 318 383 464
#     4  11  27  51  75 111 153 199 267 322 396 456
#     4  11  27  46  79 111 162 201 261 319 385 462
#     4  12  28  48  80 107 156 204 261 323 393 473
#     4  12  25  47  73 114 153 206 256 320 390 465
#     4  11  28  46  74 116 149 206 256 325 390 470
#
# _framework density 25.348030999999999
#
# number of rings (size 3 to 8) (size 9 to 14) (size 15 to 20)
#    0.000    0.667    1.667    4.500    9.333    0.667 
#    0.000    0.000    0.000    0.000    0.000    0.000 
#    0.000    0.000    0.000    0.000    0.000    0.000 
#
# Total GULP energy -134461.698947 kJ/mol
# GULP energy per Si atom -5602.570789 kJ/mol
# Density = 2.529034 g / cm^3
# Si number density = 25.348031 Si / 1000 Ang^3
#
#
#
# Elastic Constant Matrix: (Units=GPa)
#
#
# Indices 1 2 3 4 5 6 
#
# 1 90.6533 37.2105 -5.6967 0.0000 14.4737 0.0000
# 2 37.2105 126.1109 36.4168 0.0000 18.3586 0.0000
# 3 -5.6967 36.4168 132.4768 0.0000 7.7879 0.0000
# 4 0.0000 0.0000 0.0000 45.4176 0.0000 -1.8046
# 5 14.4737 18.3586 7.7879 0.0000 37.5669 0.0000
# 6 0.0000 0.0000 0.0000 -1.8046 0.0000 40.3494
#
#
#
# Elastic Compliance Matrix: (Units=1/GPa)
#
#
# Indices 1 2 3 4 5 6 
#
# 1 0.013347 -0.003955 0.001873 0.000000 -0.003598 0.000000
# 2 -0.003955 0.010345 -0.002841 0.000000 -0.002943 0.000000
# 3 0.001873 -0.002841 0.008474 0.000000 -0.001090 0.000000
# 4 0.000000 0.000000 0.000000 0.022057 0.000000 0.000987
# 5 -0.003598 -0.002943 -0.001090 0.000000 0.029669 0.000000
# 6 0.000000 0.000000 0.000000 0.000987 0.000000 0.024828
#
#
# Mechanical properties :
#
#
# Convention : Reuss Voigt Hill
#
# Bulk Modulus (GPa) = 44.80463 53.90023 49.35243
# Shear Modulus (GPa) = 39.68052 43.42080 41.55066
#
# Velocity S-wave (km/s) = 3.96084 4.14331 4.05310
# Velocity P-wave (km/s) = 6.21545 6.64828 6.43551
#
# Compressibility (1/GPa) = 0.02231912
#
# Stress axis : x y z
#
# Youngs Moduli (GPa) = 74.92578 96.66218 118.00760
#
# Poissons Ratio (x) = 0.38231 -0.22098
# Poissons Ratio (y) = 0.29634 0.33525
# Poissons Ratio (z) = -0.14031 0.27461
#
# Static dielectric constant tensor:
#      x y z
#    x 2.076430 0.000000 0.025530 
#    y 0.000000 2.033050 0.000000 
#    z 0.025530 0.000000 1.996240 
# 
# From -- ./inp_files/71626.got.cif
#   From: 2010.05.17/outbox.cif.g08.bks.cpg/sg14_36_cif.got.tgz:71626.got - 2010.06.03 17:49:19.
