data_PCOD9252357
_publ_section_title
;
Structure prediction by ZEFSAII (Michael W. Deem and Ramdas Pophale) SiO2 
 PCOD9252357
Probable space group: P 21/C
;
_chemical_formula_sum "Si O2"
_cell_formula_units_Z 24
_cell_length_a 17.253466
_cell_length_b 4.832428
_cell_length_c 12.180289
_cell_angle_alpha 90.000000
_cell_angle_beta 117.165549
_cell_angle_gamma 90.000000
_cell_volume 903.521649
_symmetry_space_group_name_H-M "P 21/C"
_symmetry_group_IT_number 14
_symmetry_cell_setting 'monoclinic'
loop_
_space_group_symop_operation_xyz
x,y,z
-x,1/2+y,1/2-z
-x,-y,-z
x,1/2-y,1/2+z
loop_
_atom_site_type_symbol
_atom_site_label
_atom_site_fract_x
_atom_site_fract_y
_atom_site_fract_z
Si Si1 0.436919 0.303037 0.028168
Si Si2 0.927900 0.318818 0.892256
Si Si3 0.380585 0.691085 0.618186
Si Si4 0.871072 0.845601 0.735046
Si Si5 0.696874 0.662467 0.246497
Si Si6 0.791762 0.417533 0.975838
O O1 0.413702 0.502846 0.115428
O O2 0.362340 0.230369 0.891048
O O3 0.446078 0.009913 0.094685
O O4 0.500000 0.500000 0.000000
O O5 0.887817 0.530854 0.777153
O O6 0.946030 0.039817 0.836524
O O7 0.858711 0.255446 0.943293
O O8 0.000000 0.500000 0.000000
O O9 0.360874 0.564602 0.725191
O O10 0.279345 0.719910 0.511706
O O11 0.782299 0.940581 0.738406
O O12 0.850032 0.905785 0.596217
O O13 0.735508 0.882094 0.358910
#
# Coordination Sequence:
#
# PCOD9252357 Si02
#       6
#     4   4   4   4   4   4
#     4  12  29  46  72 106 145 184 232 302 368 426
#     4  11  26  44  67 105 147 187 235 300 364 420
#     4  12  24  46  70 102 139 182 241 287 356 435
#     4  11  24  41  71  99 141 185 242 294 351 433
#     4  11  24  44  74 101 143 180 249 293 356 433
#     4  11  25  43  73 107 134 193 245 292 355 429
#
# _framework density 26.562726999999999
#
# number of rings (size 3 to 8) (size 9 to 14) (size 15 to 20)
#    0.000    0.667    5.000    1.000    9.333    2.667 
#    0.000    0.000    0.000    0.000    0.000    0.000 
#    0.000    0.000    0.000    0.000    0.000    0.000 
#
# Total GULP energy -134110.133339 kJ/mol
# GULP energy per Si atom -5587.922222 kJ/mol
# Density = 2.650227 g / cm^3
# Si number density = 26.562727 Si / 1000 Ang^3
#
#
#
# Elastic Constant Matrix: (Units=GPa)
#
#
# Indices 1 2 3 4 5 6 
#
# 1 41.1915 3.2712 -6.7176 0.0000 4.5251 0.0000
# 2 3.2712 106.1167 20.7666 0.0000 -9.0850 0.0000
# 3 -6.7176 20.7666 116.5389 0.0000 5.8802 0.0000
# 4 0.0000 0.0000 0.0000 32.6756 0.0000 3.5190
# 5 4.5251 -9.0850 5.8802 0.0000 27.7839 0.0000
# 6 0.0000 0.0000 0.0000 3.5190 0.0000 27.6839
#
#
#
# Elastic Compliance Matrix: (Units=1/GPa)
#
#
# Indices 1 2 3 4 5 6 
#
# 1 0.025287 -0.001604 0.001999 0.000000 -0.005066 0.000000
# 2 -0.001604 0.010235 -0.002121 0.000000 0.004057 0.000000
# 3 0.001999 -0.002121 0.009224 0.000000 -0.002971 0.000000
# 4 0.000000 0.000000 0.000000 0.031029 0.000000 -0.003944
# 5 -0.005066 0.004057 -0.002971 0.000000 0.038773 0.000000
# 6 0.000000 0.000000 0.000000 -0.003944 0.000000 0.036623
#
#
# Mechanical properties :
#
#
# Convention : Reuss Voigt Hill
#
# Bulk Modulus (GPa) = 24.21693 33.16528 28.69111
# Shear Modulus (GPa) = 29.69327 34.06381 31.87854
#
# Velocity S-wave (km/s) = 3.34706 3.58493 3.46804
# Velocity P-wave (km/s) = 4.90650 5.44504 5.18277
#
# Compressibility (1/GPa) = 0.04129342
#
# Stress axis : x y z
#
# Youngs Moduli (GPa) = 39.54623 97.69939 108.41338
#
# Poissons Ratio (x) = 0.15675 -0.21673
# Poissons Ratio (y) = 0.06345 0.22996
# Poissons Ratio (z) = -0.07906 0.20723
#
# Static dielectric constant tensor:
#      x y z
#    x 2.164870 0.000000 0.026770 
#    y 0.000000 2.114160 0.000000 
#    z 0.026770 0.000000 2.089670 
# 
# From -- ./inp_files/33392.got.cif
#   From: 2010.05.17/outbox.cif.g08.bks.cpg/sg14_17_cif.got.tgz:33392.got - 2010.06.03 17:49:19.
