data_PCOD9252195
_publ_section_title
;
Structure prediction by ZEFSAII (Michael W. Deem and Ramdas Pophale) SiO2 
 PCOD9252195
Probable space group: P 21/C
;
_chemical_formula_sum "Si O2"
_cell_formula_units_Z 24
_cell_length_a 16.609462
_cell_length_b 5.056196
_cell_length_c 22.829032
_cell_angle_alpha 90.000000
_cell_angle_beta 32.415400
_cell_angle_gamma 90.000000
_cell_volume 1027.721099
_symmetry_space_group_name_H-M "P 21/C"
_symmetry_group_IT_number 14
_symmetry_cell_setting 'monoclinic'
loop_
_space_group_symop_operation_xyz
x,y,z
-x,1/2+y,1/2-z
-x,-y,-z
x,1/2-y,1/2+z
loop_
_atom_site_type_symbol
_atom_site_label
_atom_site_fract_x
_atom_site_fract_y
_atom_site_fract_z
Si Si1 0.467155 0.144089 0.230228
Si Si2 0.631604 0.308804 0.903102
Si Si3 0.921196 0.715903 0.827269
Si Si4 0.612125 0.951670 0.022132
Si Si5 0.867161 0.632176 0.118795
Si Si6 0.093047 0.868837 0.831489
O O1 0.515037 0.415858 0.231890
O O2 0.293517 0.160689 0.314777
O O3 0.574271 0.070862 0.109039
O O4 0.549115 0.131475 0.904863
O O5 0.769719 0.468056 0.792562
O O6 0.500000 0.500000 0.000000
O O7 0.674295 0.151175 0.934788
O O8 0.999764 0.436265 0.763666
O O9 0.959100 0.815258 0.869732
O O10 0.739850 0.725835 0.940436
O O11 0.854434 0.415553 0.177726
O O12 0.923329 0.913167 0.108854
O O13 0.000000 0.500000 0.000000
#
# Coordination Sequence:
#
# PCOD9252195 Si02
#       6
#     4   4   4   4   4   4
#     4  12  29  49  74 106 144 190 246 302 361 430
#     4  11  23  44  76 104 141 190 234 303 368 440
#     4  12  26  44  68 111 146 183 230 294 365 436
#     4  11  26  44  72 106 144 189 241 297 372 435
#     4  12  28  50  74 103 142 197 249 295 362 435
#     4  12  25  47  73 105 146 186 242 298 362 436
#
# _framework density 23.352640999999998
#
# number of rings (size 3 to 8) (size 9 to 14) (size 15 to 20)
#    0.000    0.333    3.333    4.500    9.333    0.000 
#    0.000    0.000    0.000    0.000    0.000    0.000 
#    0.000    0.000    0.000    0.000    0.000    0.000 
#
# Total GULP energy -134196.158436 kJ/mol
# GULP energy per Si atom -5591.506602 kJ/mol
# Density = 2.329949 g / cm^3
# Si number density = 23.352641 Si / 1000 Ang^3
#
#
#
# Elastic Constant Matrix: (Units=GPa)
#
#
# Indices 1 2 3 4 5 6 
#
# 1 117.2339 21.6459 20.4831 0.0000 -2.4304 0.0000
# 2 21.6459 81.1494 -20.3328 0.0000 -2.3841 0.0000
# 3 20.4831 -20.3328 89.8159 0.0000 -8.8877 0.0000
# 4 0.0000 0.0000 0.0000 34.4044 0.0000 2.3224
# 5 -2.4304 -2.3841 -8.8877 0.0000 26.3802 0.0000
# 6 0.0000 0.0000 0.0000 2.3224 0.0000 22.0801
#
#
#
# Elastic Compliance Matrix: (Units=1/GPa)
#
#
# Indices 1 2 3 4 5 6 
#
# 1 0.009663 -0.003342 -0.003002 0.000000 -0.000423 0.000000
# 2 -0.003342 0.014351 0.004250 0.000000 0.002421 0.000000
# 3 -0.003002 0.004250 0.013233 0.000000 0.004566 0.000000
# 4 0.000000 0.000000 0.000000 0.029274 0.000000 -0.003079
# 5 -0.000423 0.002421 0.004566 0.000000 0.039625 0.000000
# 6 0.000000 0.000000 0.000000 -0.003079 0.000000 0.045613
#
#
# Mechanical properties :
#
#
# Convention : Reuss Voigt Hill
#
# Bulk Modulus (GPa) = 30.24954 36.86575 33.55765
# Shear Modulus (GPa) = 29.94629 34.33314 32.13971
#
# Velocity S-wave (km/s) = 3.58488 3.83848 3.71385
# Velocity P-wave (km/s) = 5.48786 5.95534 5.72637
#
# Compressibility (1/GPa) = 0.03305835
#
# Stress axis : x y z
#
# Youngs Moduli (GPa) = 103.48961 69.68369 75.57113
#
# Poissons Ratio (x) = 0.23289 0.22688
# Poissons Ratio (y) = 0.34588 -0.32121
# Poissons Ratio (z) = 0.31069 -0.29619
#
# Static dielectric constant tensor:
#      x y z
#    x 1.990400 0.000000 0.041000 
#    y 0.000000 1.827590 0.000000 
#    z 0.041000 0.000000 1.907960 
# 
# From -- ./inp_files/67801.got.cif
#   From: 2010.05.17/outbox.cif.g08.bks.cpg/sg14_34_cif.got.tgz:67801.got - 2010.06.03 17:49:19.
