data_PCOD9252677
_publ_section_title
;
Structure prediction by ZEFSAII (Michael W. Deem and Ramdas Pophale) SiO2 
 PCOD9252677
Probable space group: P 21/C
;
_chemical_formula_sum "Si O2"
_cell_formula_units_Z 20
_cell_length_a 7.426637
_cell_length_b 14.233846
_cell_length_c 11.300255
_cell_angle_alpha 90.000000
_cell_angle_beta 140.907896
_cell_angle_gamma 90.000000
_cell_volume 753.243198
_symmetry_space_group_name_H-M "P 21/C"
_symmetry_group_IT_number 14
_symmetry_cell_setting 'monoclinic'
loop_
_space_group_symop_operation_xyz
x,y,z
-x,1/2+y,1/2-z
-x,-y,-z
x,1/2-y,1/2+z
loop_
_atom_site_type_symbol
_atom_site_label
_atom_site_fract_x
_atom_site_fract_y
_atom_site_fract_z
Si Si1 0.225990 0.756092 0.679420
Si Si2 0.119274 0.040051 0.247760
Si Si3 0.982079 0.095657 0.596122
Si Si4 0.731331 0.748797 0.093143
Si Si5 0.589477 0.056895 0.826450
O O1 0.344726 0.664918 0.674740
O O2 0.222158 0.847490 0.596321
O O3 0.904282 0.738607 0.558577
O O4 0.406739 0.767596 0.891680
O O5 0.158202 0.969946 0.376949
O O6 0.215980 0.143527 0.334915
O O7 0.284367 0.003809 0.216702
O O8 0.784250 0.036509 0.040134
O O9 0.143255 0.178320 0.751115
O O10 0.251999 0.045372 0.671068
#
# Coordination Sequence:
#
# PCOD9252677 Si02
#       5
#     4   4   4   4   4
#     4  12  26  50  77 113 157 210 268 319 394 476
#     4  11  26  50  82 119 160 207 266 333 398 470
#     4  12  26  52  80 115 163 210 262 330 400 469
#     4  12  27  51  80 115 159 215 260 331 401 469
#     4  11  24  51  80 121 154 209 270 329 392 487
#
# _framework density 26.551850999999999
#
# number of rings (size 3 to 8) (size 9 to 14) (size 15 to 20)
#    0.000    0.400    6.000    1.800    0.000    1.600 
#    7.200    0.000    0.000    0.000    0.000    0.000 
#    0.000    0.000    0.000    0.000    0.000    0.000 
#
# Total GULP energy -112463.895683 kJ/mol
# GULP energy per Si atom -5623.194784 kJ/mol
# Density = 2.649142 g / cm^3
# Si number density = 26.551851 Si / 1000 Ang^3
#
#
#
# Elastic Constant Matrix: (Units=GPa)
#
#
# Indices 1 2 3 4 5 6 
#
# 1 72.7425 -5.1841 5.2156 0.0000 0.0886 0.0000
# 2 -5.1841 110.7411 36.4899 0.0000 -8.2534 0.0000
# 3 5.2156 36.4899 147.4921 0.0000 9.3311 0.0000
# 4 0.0000 0.0000 0.0000 40.1456 0.0000 -6.8131
# 5 0.0886 -8.2534 9.3311 0.0000 41.0872 0.0000
# 6 0.0000 0.0000 0.0000 -6.8131 0.0000 46.4917
#
#
#
# Elastic Compliance Matrix: (Units=1/GPa)
#
#
# Indices 1 2 3 4 5 6 
#
# 1 0.013865 0.000916 -0.000737 0.000000 0.000322 0.000000
# 2 0.000916 0.010166 -0.002715 0.000000 0.002657 0.000000
# 3 -0.000737 -0.002715 0.007622 0.000000 -0.002275 0.000000
# 4 0.000000 0.000000 0.000000 0.025545 0.000000 0.003743
# 5 0.000322 0.002657 -0.002275 0.000000 0.025388 0.000000
# 6 0.000000 0.000000 0.000000 0.003743 0.000000 0.022058
#
#
# Mechanical properties :
#
#
# Convention : Reuss Voigt Hill
#
# Bulk Modulus (GPa) = 37.62390 44.89094 41.25742
# Shear Modulus (GPa) = 42.16699 45.17518 43.67109
#
# Velocity S-wave (km/s) = 3.98942 4.12927 4.05995
# Velocity P-wave (km/s) = 5.95159 6.29906 6.12778
#
# Compressibility (1/GPa) = 0.02657885
#
# Stress axis : x y z
#
# Youngs Moduli (GPa) = 72.12473 98.36976 131.20206
#
# Poissons Ratio (x) = -0.09010 0.09673
# Poissons Ratio (y) = -0.06606 0.35628
# Poissons Ratio (z) = 0.05317 0.26712
#
# Static dielectric constant tensor:
#      x y z
#    x 2.052700 0.000000 0.011380 
#    y 0.000000 2.031080 0.000000 
#    z 0.011380 0.000000 2.098150 
# 
# From -- ./inp_files/25695.got.cif
#   From: 2010.05.17/outbox.cif.g08.bks.cpg/sg14_13_cif.got.tgz:25695.got - 2010.06.03 17:49:19.
