data_PCOD9252524
_publ_section_title
;
Structure prediction by ZEFSAII (Michael W. Deem and Ramdas Pophale) SiO2 
 PCOD9252524
Probable space group: P 21/C
;
_chemical_formula_sum "Si O2"
_cell_formula_units_Z 18
_cell_length_a 9.385082
_cell_length_b 5.177379
_cell_length_c 22.805739
_cell_angle_alpha 90.000000
_cell_angle_beta 40.619108
_cell_angle_gamma 90.000000
_cell_volume 721.425425
_symmetry_space_group_name_H-M "P 21/C"
_symmetry_group_IT_number 14
_symmetry_cell_setting 'monoclinic'
loop_
_space_group_symop_operation_xyz
x,y,z
-x,1/2+y,1/2-z
-x,-y,-z
x,1/2-y,1/2+z
loop_
_atom_site_type_symbol
_atom_site_label
_atom_site_fract_x
_atom_site_fract_y
_atom_site_fract_z
Si Si1 0.150290 0.312374 0.700958
Si Si2 0.500000 0.500000 0.500000
Si Si3 0.284728 0.133153 0.954539
Si Si4 0.815040 0.248204 0.121825
Si Si5 0.588551 0.485162 0.799902
O O1 0.302795 0.356076 0.597566
O O2 0.305408 0.242088 0.707468
O O3 0.002359 0.561593 0.758038
O O4 0.666801 0.456642 0.504827
O O5 0.503481 0.305917 0.879422
O O6 0.239887 0.969549 0.910067
O O7 0.070036 0.306145 0.033917
O O8 0.636470 0.467459 0.165100
O O9 0.760927 0.142110 0.202756
#
# Coordination Sequence:
#
# PCOD9252524 Si02
#       5
#     4   2   4   4   4
#     4  12  29  51  79 117 158 211 265 322 402 473
#     4  12  26  52  76 112 160 206 258 330 386 472
#     4  11  25  45  70 108 149 199 256 315 392 462
#     4  11  24  45  71 108 146 198 254 316 388 460
#     4  12  24  47  78 106 154 201 262 325 388 467
#
# _framework density 24.950603000000001
#
# number of rings (size 3 to 8) (size 9 to 14) (size 15 to 20)
#    0.000    0.444    4.444    3.333    0.000    5.333 
#    8.000    0.000    0.000    0.000    0.000    0.000 
#    0.000    0.000    0.000    0.000    0.000    0.000 
#
# Total GULP energy -100336.611633 kJ/mol
# GULP energy per Si atom -5574.256202 kJ/mol
# Density = 2.489381 g / cm^3
# Si number density = 24.950603 Si / 1000 Ang^3
#
#
#
# Elastic Constant Matrix: (Units=GPa)
#
#
# Indices 1 2 3 4 5 6 
#
# 1 96.3518 21.5233 32.8813 0.0000 -19.4813 0.0000
# 2 21.5233 77.4832 23.1015 0.0000 -8.7872 0.0000
# 3 32.8813 23.1015 96.7512 0.0000 -19.6106 0.0000
# 4 0.0000 0.0000 0.0000 9.7989 0.0000 -13.5407
# 5 -19.4813 -8.7872 -19.6106 0.0000 35.4829 0.0000
# 6 0.0000 0.0000 0.0000 -13.5407 0.0000 47.5478
#
#
#
# Elastic Compliance Matrix: (Units=1/GPa)
#
#
# Indices 1 2 3 4 5 6 
#
# 1 0.012829 -0.002156 -0.002845 0.000000 0.004938 0.000000
# 2 -0.002156 0.014361 -0.002495 0.000000 0.000994 0.000000
# 3 -0.002845 -0.002495 0.012902 0.000000 0.004951 0.000000
# 4 0.000000 0.000000 0.000000 0.168273 0.000000 0.047921
# 5 0.004938 0.000994 0.004951 0.000000 0.033876 0.000000
# 6 0.000000 0.000000 0.000000 0.047921 0.000000 0.034679
#
#
# Mechanical properties :
#
#
# Convention : Reuss Voigt Hill
#
# Bulk Modulus (GPa) = 39.83732 47.28868 43.56300
# Shear Modulus (GPa) = 16.65123 31.43790 24.04456
#
# Velocity S-wave (km/s) = 2.58615 3.55351 3.10770
# Velocity P-wave (km/s) = 4.99186 5.98587 5.51132
#
# Compressibility (1/GPa) = 0.02510209
#
# Stress axis : x y z
#
# Youngs Moduli (GPa) = 77.94681 69.63091 77.50883
#
# Poissons Ratio (x) = 0.15010 0.22048
# Poissons Ratio (y) = 0.16803 0.19339
# Poissons Ratio (z) = 0.22172 0.17373
#
# Static dielectric constant tensor:
#      x y z
#    x 1.964090 0.000000 -0.007630 
#    y 0.000000 2.025460 0.000000 
#    z -0.007630 0.000000 1.949140 
# 
# From -- ./inp_files/64077.got.cif
#   From: 2010.05.17/outbox.cif.g08.bks.cpg/sg14_33_cif.got.tgz:64077.got - 2010.06.03 17:49:19.
