data_PCOD9252713
_publ_section_title
;
Structure prediction by ZEFSAII (Michael W. Deem and Ramdas Pophale) SiO2 
 PCOD9252713
Probable space group: P 21/C
;
_chemical_formula_sum "Si O2"
_cell_formula_units_Z 20
_cell_length_a 10.153943
_cell_length_b 5.516215
_cell_length_c 24.088602
_cell_angle_alpha 90.000000
_cell_angle_beta 142.200472
_cell_angle_gamma 90.000000
_cell_volume 826.946682
_symmetry_space_group_name_H-M "P 21/C"
_symmetry_group_IT_number 14
_symmetry_cell_setting 'monoclinic'
loop_
_space_group_symop_operation_xyz
x,y,z
-x,1/2+y,1/2-z
-x,-y,-z
x,1/2-y,1/2+z
loop_
_atom_site_type_symbol
_atom_site_label
_atom_site_fract_x
_atom_site_fract_y
_atom_site_fract_z
Si Si1 0.807227 0.293994 0.467276
Si Si2 0.117231 0.741356 0.301082
Si Si3 0.237701 0.062891 0.647850
Si Si4 0.396698 0.745056 0.988576
Si Si5 0.457659 0.660676 0.321734
O O1 0.636920 0.204313 0.457309
O O2 0.687431 0.547637 0.416390
O O3 0.039192 0.249231 0.572877
O O4 0.822649 0.162577 0.412735
O O5 0.168957 0.745820 0.382915
O O6 0.328675 0.739267 0.332746
O O7 0.004632 0.486803 0.252886
O O8 0.464497 0.140299 0.696045
O O9 0.298431 0.005429 0.731520
O O10 0.500000 0.500000 0.000000
O O11 0.500000 0.000000 0.000000
#
# Coordination Sequence:
#
# PCOD9252713 Si02
#       5
#     4   4   4   4   4
#     4  11  25  46  70 107 143 193 250 305 367 459
#     4  12  28  48  76 112 147 197 255 311 375 450
#     4  11  25  44  72 106 144 193 249 299 384 438
#     4  12  25  47  75 104 148 199 243 308 377 439
#     4  12  24  46  74 101 152 190 244 313 372 444
#
# _framework density 24.185355999999999
#
# number of rings (size 3 to 8) (size 9 to 14) (size 15 to 20)
#    0.000    0.400    4.000    4.200    2.800    1.600 
#    3.600    0.000    0.000    0.000    0.000    0.000 
#    0.000    0.000    0.000    0.000    0.000    0.000 
#
# Total GULP energy -111521.276078 kJ/mol
# GULP energy per Si atom -5576.063804 kJ/mol
# Density = 2.413031 g / cm^3
# Si number density = 24.185356 Si / 1000 Ang^3
#
#
#
# Elastic Constant Matrix: (Units=GPa)
#
#
# Indices 1 2 3 4 5 6 
#
# 1 142.0042 29.2723 -3.2858 0.0000 6.8934 0.0000
# 2 29.2723 110.7199 26.2495 0.0000 18.3573 0.0000
# 3 -3.2858 26.2495 76.7589 0.0000 2.0746 0.0000
# 4 0.0000 0.0000 0.0000 41.7596 0.0000 6.2258
# 5 6.8934 18.3573 2.0746 0.0000 40.9371 0.0000
# 6 0.0000 0.0000 0.0000 6.2258 0.0000 32.9139
#
#
#
# Elastic Compliance Matrix: (Units=1/GPa)
#
#
# Indices 1 2 3 4 5 6 
#
# 1 0.007535 -0.002192 0.001081 0.000000 -0.000341 0.000000
# 2 -0.002192 0.011262 -0.003824 0.000000 -0.004487 0.000000
# 3 0.001081 -0.003824 0.014360 0.000000 0.000805 0.000000
# 4 0.000000 0.000000 0.000000 0.024641 0.000000 -0.004661
# 5 -0.000341 -0.004487 0.000805 0.000000 0.026457 0.000000
# 6 0.000000 0.000000 0.000000 -0.004661 0.000000 0.031264
#
#
# Mechanical properties :
#
#
# Convention : Reuss Voigt Hill
#
# Bulk Modulus (GPa) = 42.94006 48.21724 45.57865
# Shear Modulus (GPa) = 37.55132 41.60525 39.57828
#
# Velocity S-wave (km/s) = 3.94464 4.15211 4.04970
# Velocity P-wave (km/s) = 6.20806 6.55488 6.38383
#
# Compressibility (1/GPa) = 0.02328828
#
# Stress axis : x y z
#
# Youngs Moduli (GPa) = 132.70543 88.79504 69.63796
#
# Poissons Ratio (x) = 0.19465 -0.07531
# Poissons Ratio (y) = 0.29091 0.26628
# Poissons Ratio (z) = -0.14351 0.33954
#
# Static dielectric constant tensor:
#      x y z
#    x 1.905130 0.000000 0.043010 
#    y 0.000000 1.914620 0.000000 
#    z 0.043010 0.000000 1.897840 
# 
# From -- ./inp_files/79758.got.cif
#   From: 2010.05.17/outbox.cif.g08.bks.cpg/sg14_40_cif.got.tgz:79758.got - 2010.06.03 17:49:19.
