data_PCOD9252657
_publ_section_title
;
Structure prediction by ZEFSAII (Michael W. Deem and Ramdas Pophale) SiO2 
 PCOD9252657
Probable space group: P 21/C
;
_chemical_formula_sum "Si O2"
_cell_formula_units_Z 24
_cell_length_a 18.248529
_cell_length_b 9.890882
_cell_length_c 8.831641
_cell_angle_alpha 90.000000
_cell_angle_beta 143.647113
_cell_angle_gamma 90.000000
_cell_volume 944.889155
_symmetry_space_group_name_H-M "P 21/C"
_symmetry_group_IT_number 14
_symmetry_cell_setting 'monoclinic'
loop_
_space_group_symop_operation_xyz
x,y,z
-x,1/2+y,1/2-z
-x,-y,-z
x,1/2-y,1/2+z
loop_
_atom_site_type_symbol
_atom_site_label
_atom_site_fract_x
_atom_site_fract_y
_atom_site_fract_z
Si Si1 0.602765 0.113937 0.655790
Si Si2 0.162036 0.591528 0.275056
Si Si3 0.811047 0.677822 0.860529
Si Si4 0.574159 0.636273 0.638799
Si Si5 0.048213 0.830837 0.912391
Si Si6 0.221661 0.465987 0.792435
O O1 0.525366 0.248329 0.495439
O O2 0.500000 0.000000 0.500000
O O3 0.692226 0.056898 0.675405
O O4 0.694386 0.129787 0.952531
O O5 0.162471 0.434654 0.223826
O O6 0.092961 0.624603 0.317964
O O7 0.097231 0.682163 0.038335
O O8 0.664315 0.671492 0.648809
O O9 0.841845 0.834259 0.884972
O O10 0.901601 0.647850 0.153316
O O11 0.500000 0.500000 0.500000
O O12 0.677749 0.898657 0.433016
O O13 0.115789 0.924757 0.148551
#
# Coordination Sequence:
#
# PCOD9252657 Si02
#       6
#     4   4   4   4   4   4
#     4  11  24  49  74 104 150 196 248 311 372 448
#     4  11  27  48  78 108 152 197 250 316 381 446
#     4  12  27  47  76 108 148 198 253 315 373 459
#     4  12  29  44  73 110 147 197 257 308 380 455
#     4  11  27  50  77 109 151 198 255 315 382 445
#     4  11  27  45  74 105 150 197 247 313 380 439
#
# _framework density 25.399806000000002
#
# number of rings (size 3 to 8) (size 9 to 14) (size 15 to 20)
#    0.000    0.667    1.667    3.500   16.333    0.667 
#    0.000    0.000    0.000    0.000    0.000    0.000 
#    0.000    0.000    0.000    0.000    0.000    0.000 
#
# Total GULP energy -134234.208760 kJ/mol
# GULP energy per Si atom -5593.092032 kJ/mol
# Density = 2.534199 g / cm^3
# Si number density = 25.399806 Si / 1000 Ang^3
#
#
#
# Elastic Constant Matrix: (Units=GPa)
#
#
# Indices 1 2 3 4 5 6 
#
# 1 79.4021 35.7699 24.6268 0.0000 12.5502 0.0000
# 2 35.7699 182.7772 45.8633 0.0000 9.3822 0.0000
# 3 24.6268 45.8633 183.6090 0.0000 17.8817 0.0000
# 4 0.0000 0.0000 0.0000 60.3656 0.0000 -6.9121
# 5 12.5502 9.3822 17.8817 0.0000 36.2987 0.0000
# 6 0.0000 0.0000 0.0000 -6.9121 0.0000 25.9617
#
#
#
# Elastic Compliance Matrix: (Units=1/GPa)
#
#
# Indices 1 2 3 4 5 6 
#
# 1 0.014606 -0.002412 -0.000972 0.000000 -0.003948 0.000000
# 2 -0.002412 0.006259 -0.001222 0.000000 -0.000182 0.000000
# 3 -0.000972 -0.001222 0.006112 0.000000 -0.002359 0.000000
# 4 0.000000 0.000000 0.000000 0.017087 0.000000 0.004549
# 5 -0.003948 -0.000182 -0.002359 0.000000 0.030123 0.000000
# 6 0.000000 0.000000 0.000000 0.004549 0.000000 0.039729
#
#
# Mechanical properties :
#
#
# Convention : Reuss Voigt Hill
#
# Bulk Modulus (GPa) = 56.29196 73.14538 64.71867
# Shear Modulus (GPa) = 38.74456 47.16042 42.95249
#
# Velocity S-wave (km/s) = 3.90986 4.31365 4.11671
# Velocity P-wave (km/s) = 6.52634 7.32599 6.93770
#
# Compressibility (1/GPa) = 0.01776453
#
# Stress axis : x y z
#
# Youngs Moduli (GPa) = 68.46437 159.76535 163.61860
#
# Poissons Ratio (x) = 0.38533 0.15906
# Poissons Ratio (y) = 0.16513 0.19999
# Poissons Ratio (z) = 0.06656 0.19528
#
# Static dielectric constant tensor:
#      x y z
#    x 2.070640 0.000000 0.093330 
#    y 0.000000 1.999320 0.000000 
#    z 0.093330 0.000000 1.692460 
# 
# From -- ./inp_files/35784.got.cif
#   From: 2010.05.17/outbox.cif.g08.bks.cpg/sg14_18_cif.got.tgz:35784.got - 2010.06.03 17:49:19.
