data_PCOD9252007
_publ_section_title
;
Structure prediction by ZEFSAII (Michael W. Deem and Ramdas Pophale) SiO2 
 PCOD9252007
Probable space group: P 21/C
;
_chemical_formula_sum "Si O2"
_cell_formula_units_Z 28
_cell_length_a 7.955987
_cell_length_b 12.139356
_cell_length_c 13.929192
_cell_angle_alpha 90.000000
_cell_angle_beta 58.413557
_cell_angle_gamma 90.000000
_cell_volume 1145.985758
_symmetry_space_group_name_H-M "P 21/C"
_symmetry_group_IT_number 14
_symmetry_cell_setting 'monoclinic'
loop_
_space_group_symop_operation_xyz
x,y,z
-x,1/2+y,1/2-z
-x,-y,-z
x,1/2-y,1/2+z
loop_
_atom_site_type_symbol
_atom_site_label
_atom_site_fract_x
_atom_site_fract_y
_atom_site_fract_z
Si Si1 0.917226 0.997495 0.370305
Si Si2 0.732574 0.720315 0.946595
Si Si3 0.421752 0.604515 0.908565
Si Si4 0.935789 0.383569 0.679524
Si Si5 0.302859 0.666573 0.424525
Si Si6 0.662475 0.198948 0.860388
Si Si7 0.649429 0.974305 0.744839
O O1 0.722922 0.058986 0.466467
O O2 0.927810 0.011681 0.251936
O O3 0.893436 0.874369 0.418694
O O4 0.121560 0.052548 0.344184
O O5 0.612926 0.660541 0.896559
O O6 0.846008 0.832364 0.890235
O O7 0.558449 0.749287 0.072411
O O8 0.309122 0.705626 0.892235
O O9 0.454570 0.508432 0.823445
O O10 0.853314 0.394807 0.596450
O O11 0.806602 0.289386 0.772035
O O12 0.278485 0.671815 0.546531
O O13 0.514340 0.614080 0.336858
O O14 0.658376 0.083935 0.806656
#
# Coordination Sequence:
#
# PCOD9252007 Si02
#       7
#     4   4   4   4   4   4   4
#     4  12  23  42  73 102 140 187 241 293 356 418
#     4  11  24  44  71 102 145 180 238 297 355 416
#     4  11  23  41  66 107 135 183 241 289 349 424
#     4  12  24  47  70 106 144 186 236 304 350 419
#     4  11  24  45  68 100 142 183 238 288 357 423
#     4  11  24  48  67 100 149 181 237 299 349 429
#     4  12  25  45  74 103 146 193 232 296 362 414
#
# _framework density 24.433112999999999
#
# number of rings (size 3 to 8) (size 9 to 14) (size 15 to 20)
#    0.000    0.571    5.714    3.857    2.000    0.000 
#    2.571    1.429    0.000    0.000    0.000    0.000 
#    0.000    0.000    0.000    0.000    0.000    0.000 
#
# Total GULP energy -156675.281494 kJ/mol
# GULP energy per Si atom -5595.545768 kJ/mol
# Density = 2.437750 g / cm^3
# Si number density = 24.433113 Si / 1000 Ang^3
#
#
#
# Elastic Constant Matrix: (Units=GPa)
#
#
# Indices 1 2 3 4 5 6 
#
# 1 108.5311 0.0745 28.2081 0.0000 -8.7557 0.0000
# 2 0.0745 63.2285 18.5738 0.0000 -1.1551 0.0000
# 3 28.2081 18.5738 79.8122 0.0000 -1.8881 0.0000
# 4 0.0000 0.0000 0.0000 41.1726 0.0000 -11.8325
# 5 -8.7557 -1.1551 -1.8881 0.0000 41.3652 0.0000
# 6 0.0000 0.0000 0.0000 -11.8325 0.0000 37.2547
#
#
#
# Elastic Compliance Matrix: (Units=1/GPa)
#
#
# Indices 1 2 3 4 5 6 
#
# 1 0.010392 0.001170 -0.003896 0.000000 0.002054 0.000000
# 2 0.001170 0.017111 -0.004383 0.000000 0.000525 0.000000
# 3 -0.003896 -0.004383 0.014920 0.000000 -0.000266 0.000000
# 4 0.000000 0.000000 0.000000 0.026728 0.000000 0.008489
# 5 0.002054 0.000525 -0.000266 0.000000 0.024612 0.000000
# 6 0.000000 0.000000 0.000000 0.008489 0.000000 0.029538
#
#
# Mechanical properties :
#
#
# Convention : Reuss Voigt Hill
#
# Bulk Modulus (GPa) = 35.45607 38.36497 36.91052
# Shear Modulus (GPa) = 34.03158 37.60620 35.81889
#
# Velocity S-wave (km/s) = 3.73613 3.92746 3.83299
# Velocity P-wave (km/s) = 5.75800 6.02517 5.89310
#
# Compressibility (1/GPa) = 0.02820392
#
# Stress axis : x y z
#
# Youngs Moduli (GPa) = 96.23182 58.44035 67.02292
#
# Poissons Ratio (x) = -0.06837 0.26115
# Poissons Ratio (y) = -0.11258 0.29378
# Poissons Ratio (z) = 0.37495 0.25616
#
# Static dielectric constant tensor:
#      x y z
#    x 2.023030 0.000000 0.011650 
#    y 0.000000 1.958040 0.000000 
#    z 0.011650 0.000000 1.927050 
# 
# From -- ./inp_files/41150.got.cif
#   From: 2010.05.17/outbox.cif.g08.bks.cpg/sg14_21_cif.got.tgz:41150.got - 2010.06.03 17:49:19.
