data_PCOD9252282
_publ_section_title
;
Structure prediction by ZEFSAII (Michael W. Deem and Ramdas Pophale) SiO2 
 PCOD9252282
Probable space group: P 21/C
;
_chemical_formula_sum "Si O2"
_cell_formula_units_Z 26
_cell_length_a 14.730348
_cell_length_b 5.190340
_cell_length_c 14.207696
_cell_angle_alpha 90.000000
_cell_angle_beta 90.264465
_cell_angle_gamma 90.000000
_cell_volume 1086.245135
_symmetry_space_group_name_H-M "P 21/C"
_symmetry_group_IT_number 14
_symmetry_cell_setting 'monoclinic'
loop_
_space_group_symop_operation_xyz
x,y,z
-x,1/2+y,1/2-z
-x,-y,-z
x,1/2-y,1/2+z
loop_
_atom_site_type_symbol
_atom_site_label
_atom_site_fract_x
_atom_site_fract_y
_atom_site_fract_z
Si Si1 0.449114 0.530354 0.787447
Si Si2 0.003371 0.097623 0.684557
Si Si3 0.252436 0.756366 0.748818
Si Si4 0.845147 0.573141 0.398375
Si Si5 0.297567 0.076091 0.569951
Si Si6 0.840729 0.269693 0.062977
Si Si7 0.500000 0.000000 0.500000
O O1 0.494478 0.294853 0.730663
O O2 0.344437 0.591999 0.762933
O O3 0.453743 0.456099 0.896161
O O4 0.920856 0.066886 0.611147
O O5 0.987125 0.348108 0.750674
O O6 0.093652 0.182172 0.627697
O O7 0.176241 0.586317 0.695543
O O8 0.278105 0.976812 0.675197
O O9 0.212446 0.852065 0.847840
O O10 0.885473 0.417871 0.486007
O O11 0.743553 0.639982 0.433758
O O12 0.234732 0.925104 0.495449
O O13 0.401593 0.045669 0.549602
#
# Coordination Sequence:
#
# PCOD9252282 Si02
#       7
#     4   4   4   4   4   4   2
#     4  12  27  47  76 108 151 200 256 318 383 455
#     4  12  27  49  79 112 155 198 248 314 382 456
#     4  11  23  47  67 106 148 196 246 314 378 452
#     4  11  26  45  75 107 149 201 253 309 382 458
#     4  11  25  45  72 105 152 195 259 309 379 454
#     4  11  25  45  72 109 145 199 252 315 376 449
#     4  12  24  48  72 118 150 208 258 316 386 454
#
# _framework density 23.935663000000002
#
# number of rings (size 3 to 8) (size 9 to 14) (size 15 to 20)
#    0.000    0.615    4.615    2.308    4.308    3.692 
#    0.000    0.000    0.000    0.000    0.000    0.000 
#    0.000    0.000    0.000    0.000    0.000    0.000 
#
# Total GULP energy -145001.717136 kJ/mol
# GULP energy per Si atom -5576.989121 kJ/mol
# Density = 2.388118 g / cm^3
# Si number density = 23.935663 Si / 1000 Ang^3
#
#
#
# Elastic Constant Matrix: (Units=GPa)
#
#
# Indices 1 2 3 4 5 6 
#
# 1 119.5149 29.2875 39.5833 0.0000 -11.9954 0.0000
# 2 29.2875 60.7476 9.1772 0.0000 -2.1995 0.0000
# 3 39.5833 9.1772 140.5776 0.0000 13.6332 0.0000
# 4 0.0000 0.0000 0.0000 -13.1584 0.0000 41.0517
# 5 -11.9954 -2.1995 13.6332 0.0000 29.4980 0.0000
# 6 0.0000 0.0000 0.0000 41.0517 0.0000 -37.2003
#
#
#
# Elastic Compliance Matrix: (Units=1/GPa)
#
#
# Indices 1 2 3 4 5 6 
#
# 1 0.011230 -0.004688 -0.003418 0.000000 0.005797 0.000000
# 2 -0.004688 0.018677 0.000158 0.000000 -0.000587 0.000000
# 3 -0.003418 0.000158 0.008584 0.000000 -0.005346 0.000000
# 4 0.000000 0.000000 0.000000 0.031110 0.000000 0.034331
# 5 0.005797 -0.000587 -0.005346 0.000000 0.038685 0.000000
# 6 0.000000 0.000000 0.000000 0.034331 0.000000 0.011004
#
#
# Mechanical properties :
#
#
# Convention : Reuss Voigt Hill
#
# Bulk Modulus (GPa) = 44.26007 52.99289 48.62648
# Shear Modulus (GPa) = 35.03406 12.01401 23.52403
#
# Velocity S-wave (km/s) = 3.82995 2.24281 3.13837
# Velocity P-wave (km/s) = 6.17167 5.37538 5.78723
#
# Compressibility (1/GPa) = 0.02259373
#
# Stress axis : x y z
#
# Youngs Moduli (GPa) = 89.04832 53.54295 116.49419
#
# Poissons Ratio (x) = 0.25100 0.39820
# Poissons Ratio (y) = 0.41744 -0.01836
# Poissons Ratio (z) = 0.30439 -0.00844
#
# Static dielectric constant tensor:
#      x y z
#    x 1.884900 0.000000 -0.028340 
#    y 0.000000 1.943310 0.000000 
#    z -0.028340 0.000000 1.898980 
# 
# From -- ./inp_files/45876.got.cif
#   From: 2010.05.17/outbox.cif.g08.bks.cpg/sg14_23_cif.got.tgz:45876.got - 2010.06.03 17:49:19.
