data_PCOD9252092
_publ_section_title
;
Structure prediction by ZEFSAII (Michael W. Deem and Ramdas Pophale) SiO2 
 PCOD9252092
Probable space group: P 21/C
;
_chemical_formula_sum "Si O2"
_cell_formula_units_Z 28
_cell_length_a 27.756819
_cell_length_b 5.399659
_cell_length_c 9.090937
_cell_angle_alpha 90.000000
_cell_angle_beta 64.844771
_cell_angle_gamma 90.000000
_cell_volume 1233.302978
_symmetry_space_group_name_H-M "P 21/C"
_symmetry_group_IT_number 14
_symmetry_cell_setting 'monoclinic'
loop_
_space_group_symop_operation_xyz
x,y,z
-x,1/2+y,1/2-z
-x,-y,-z
x,1/2-y,1/2+z
loop_
_atom_site_type_symbol
_atom_site_label
_atom_site_fract_x
_atom_site_fract_y
_atom_site_fract_z
Si Si1 0.480110 0.479673 0.357271
Si Si2 0.808658 0.523321 0.640732
Si Si3 0.913834 0.268364 0.471819
Si Si4 0.050968 0.514168 0.830765
Si Si5 0.135415 0.379954 0.135080
Si Si6 0.685877 0.471033 0.744657
Si Si7 0.352948 0.025168 0.041013
O O1 0.496824 0.730724 0.249170
O O2 0.500000 0.500000 0.500000
O O3 0.416395 0.458594 0.440318
O O4 0.854739 0.355706 0.508528
O O5 0.822798 0.778057 0.541026
O O6 0.824888 0.522297 0.789999
O O7 0.749127 0.447905 0.686882
O O8 0.921953 0.259361 0.633281
O O9 0.957284 0.427337 0.329683
O O10 0.910146 0.997584 0.410845
O O11 0.097165 0.311845 0.774127
O O12 0.000000 0.500000 0.000000
O O13 0.672359 0.497633 0.589191
O O14 0.667118 0.722721 0.852948
O O15 0.660202 0.221990 0.847094
#
# Coordination Sequence:
#
# PCOD9252092 Si02
#       7
#     4   4   4   4   4   4   4
#     4  12  24  44  74 103 145 197 240 295 354 419
#     4  11  25  41  68  89 126 171 215 264 337 395
#     4  11  24  42  61  90 122 157 209 257 311 409
#     4  11  26  41  64  92 122 162 201 269 330 387
#     4  11  23  43  62  91 123 159 215 259 313 414
#     4  12  27  44  73 101 148 187 234 305 354 419
#     4  12  26  47  68 112 144 187 246 295 354 419
#
# _framework density 22.703263
#
# number of rings (size 3 to 8) (size 9 to 14) (size 15 to 20)
#    0.000    0.571    2.857    4.714    6.000    0.571 
#    0.000    0.000    0.000    0.000    0.000    0.000 
#    0.000    0.000    0.000    0.000    0.000    0.000 
#
# Total GULP energy -156182.922864 kJ/mol
# GULP energy per Si atom -5577.961531 kJ/mol
# Density = 2.265159 g / cm^3
# Si number density = 22.703263 Si / 1000 Ang^3
#
#
#
# Elastic Constant Matrix: (Units=GPa)
#
#
# Indices 1 2 3 4 5 6 
#
# 1 81.1340 -9.5931 6.6485 0.0000 0.6379 0.0000
# 2 -9.5931 91.9476 28.6369 0.0000 4.1253 0.0000
# 3 6.6485 28.6369 77.9225 0.0000 17.9757 0.0000
# 4 0.0000 0.0000 0.0000 44.7079 0.0000 3.4717
# 5 0.6379 4.1253 17.9757 0.0000 62.2877 0.0000
# 6 0.0000 0.0000 0.0000 3.4717 0.0000 24.9606
#
#
#
# Elastic Compliance Matrix: (Units=1/GPa)
#
#
# Indices 1 2 3 4 5 6 
#
# 1 0.012697 0.001885 -0.001840 0.000000 0.000276 0.000000
# 2 0.001885 0.012577 -0.004914 0.000000 0.000566 0.000000
# 3 -0.001840 -0.004914 0.015766 0.000000 -0.004206 0.000000
# 4 0.000000 0.000000 0.000000 0.022612 0.000000 -0.003145
# 5 0.000276 0.000566 -0.004206 0.000000 0.017228 0.000000
# 6 0.000000 0.000000 0.000000 -0.003145 0.000000 0.040501
#
#
# Mechanical properties :
#
#
# Convention : Reuss Voigt Hill
#
# Bulk Modulus (GPa) = 31.94469 33.59874 32.77172
# Shear Modulus (GPa) = 35.32280 41.41204 38.36742
#
# Velocity S-wave (km/s) = 3.94870 4.27553 4.11536
# Velocity P-wave (km/s) = 5.90684 6.26137 6.08669
#
# Compressibility (1/GPa) = 0.03130411
#
# Stress axis : x y z
#
# Youngs Moduli (GPa) = 78.75996 79.50757 63.42665
#
# Poissons Ratio (x) = -0.14990 0.11670
# Poissons Ratio (y) = -0.14849 0.31165
# Poissons Ratio (z) = 0.14491 0.39067
#
# Static dielectric constant tensor:
#      x y z
#    x 1.822850 0.000000 0.003740 
#    y 0.000000 2.271530 0.000000 
#    z 0.003740 0.000000 1.827260 
# 
# From -- ./inp_files/19873.got.cif
#   From: 2010.05.17/outbox.cif.g08.bks.cpg/sg14_10_cif.got.tgz:19873.got - 2010.06.03 17:49:19.
