data_PCOD9252199
_publ_section_title
;
Structure prediction by ZEFSAII (Michael W. Deem and Ramdas Pophale) SiO2 
 PCOD9252199
Probable space group: P 21/C
;
_chemical_formula_sum "Si O2"
_cell_formula_units_Z 20
_cell_length_a 6.972604
_cell_length_b 5.771667
_cell_length_c 22.207156
_cell_angle_alpha 90.000000
_cell_angle_beta 76.373394
_cell_angle_gamma 90.000000
_cell_volume 868.538774
_symmetry_space_group_name_H-M "P 21/C"
_symmetry_group_IT_number 14
_symmetry_cell_setting 'monoclinic'
loop_
_space_group_symop_operation_xyz
x,y,z
-x,1/2+y,1/2-z
-x,-y,-z
x,1/2-y,1/2+z
loop_
_atom_site_type_symbol
_atom_site_label
_atom_site_fract_x
_atom_site_fract_y
_atom_site_fract_z
Si Si1 0.513021 0.281395 0.088355
Si Si2 0.845166 0.030822 0.869729
Si Si3 0.905614 0.252399 0.985694
Si Si4 0.440998 0.673027 0.175963
Si Si5 0.720661 0.465765 0.685420
O O1 0.448720 0.534790 0.113239
O O2 0.315560 0.139429 0.088408
O O3 0.613933 0.191252 0.143241
O O4 0.681685 0.261105 0.026645
O O5 0.906275 0.222598 0.914002
O O6 0.725461 0.133050 0.822585
O O7 0.048165 0.917007 0.833518
O O8 0.000000 0.500000 0.000000
O O9 0.000000 0.000000 0.000000
O O10 0.371796 0.550634 0.241639
O O11 0.657116 0.778166 0.169351
#
# Coordination Sequence:
#
# PCOD9252199 Si02
#       5
#     4   4   4   4   4
#     4  11  25  46  73 101 142 186 242 298 363 433
#     4  11  27  43  71 106 137 188 246 299 364 434
#     4  12  27  50  78 104 147 196 243 304 367 431
#     4  11  25  41  69 102 141 189 235 303 357 444
#     4  11  23  45  65 102 145 184 238 295 372 427
#
# _framework density 23.027180999999999
#
# number of rings (size 3 to 8) (size 9 to 14) (size 15 to 20)
#    0.000    0.800    4.000    1.800    8.400    2.400 
#    0.000    0.000    0.000    0.000    0.000    0.000 
#    0.000    0.000    0.000    0.000    0.000    0.000 
#
# Total GULP energy -111649.709899 kJ/mol
# GULP energy per Si atom -5582.485495 kJ/mol
# Density = 2.297477 g / cm^3
# Si number density = 23.027181 Si / 1000 Ang^3
#
#
#
# Elastic Constant Matrix: (Units=GPa)
#
#
# Indices 1 2 3 4 5 6 
#
# 1 141.4664 35.4069 13.6526 0.0000 -33.4445 0.0000
# 2 35.4069 68.5618 -5.1503 0.0000 -5.9275 0.0000
# 3 13.6526 -5.1503 57.2995 0.0000 -13.7714 0.0000
# 4 0.0000 0.0000 0.0000 32.6272 0.0000 6.9198
# 5 -33.4445 -5.9275 -13.7714 0.0000 36.8247 0.0000
# 6 0.0000 0.0000 0.0000 6.9198 0.0000 35.5611
#
#
#
# Elastic Compliance Matrix: (Units=1/GPa)
#
#
# Indices 1 2 3 4 5 6 
#
# 1 0.010269 -0.004657 -0.000883 0.000000 0.008247 0.000000
# 2 -0.004657 0.017134 0.002523 0.000000 -0.000528 0.000000
# 3 -0.000883 0.002523 0.019551 0.000000 0.006915 0.000000
# 4 0.000000 0.000000 0.000000 0.031969 0.000000 -0.006221
# 5 0.008247 -0.000528 0.006915 0.000000 0.037147 0.000000
# 6 0.000000 0.000000 0.000000 -0.006221 0.000000 0.029331
#
#
# Mechanical properties :
#
#
# Convention : Reuss Voigt Hill
#
# Bulk Modulus (GPa) = 24.43783 39.46068 31.94926
# Shear Modulus (GPa) = 30.28917 35.89716 33.09316
#
# Velocity S-wave (km/s) = 3.63073 3.95258 3.79507
# Velocity P-wave (km/s) = 5.31149 6.16476 5.75396
#
# Compressibility (1/GPa) = 0.04092016
#
# Stress axis : x y z
#
# Youngs Moduli (GPa) = 97.37890 58.36334 51.14711
#
# Poissons Ratio (x) = 0.27178 0.04518
# Poissons Ratio (y) = 0.45346 -0.12903
# Poissons Ratio (z) = 0.08602 -0.14724
#
# Static dielectric constant tensor:
#      x y z
#    x 1.851650 0.000000 0.014920 
#    y 0.000000 2.027200 0.000000 
#    z 0.014920 0.000000 1.818230 
# 
# From -- ./inp_files/75426.got.cif
#   From: 2010.05.17/outbox.cif.g08.bks.cpg/sg14_38_cif.got.tgz:75426.got - 2010.06.03 17:49:19.
