data_PCOD9252536
_publ_section_title
;
Structure prediction by ZEFSAII (Michael W. Deem and Ramdas Pophale) SiO2 
 PCOD9252536
Probable space group: P 21/C
;
_chemical_formula_sum "Si O2"
_cell_formula_units_Z 20
_cell_length_a 21.692776
_cell_length_b 4.904100
_cell_length_c 13.683124
_cell_angle_alpha 90.000000
_cell_angle_beta 27.942709
_cell_angle_gamma 90.000000
_cell_volume 682.105098
_symmetry_space_group_name_H-M "P 21/C"
_symmetry_group_IT_number 14
_symmetry_cell_setting 'monoclinic'
loop_
_space_group_symop_operation_xyz
x,y,z
-x,1/2+y,1/2-z
-x,-y,-z
x,1/2-y,1/2+z
loop_
_atom_site_type_symbol
_atom_site_label
_atom_site_fract_x
_atom_site_fract_y
_atom_site_fract_z
Si Si1 0.845428 0.781700 0.478772
Si Si2 0.910797 0.311549 0.237384
Si Si3 0.201685 0.712871 0.803160
Si Si4 0.611935 0.789750 0.494542
Si Si5 0.637851 0.006196 0.669505
O O1 0.884638 0.601049 0.327990
O O2 0.845513 0.091718 0.527921
O O3 0.686752 0.789846 0.680817
O O4 0.958567 0.675652 0.397281
O O5 0.912256 0.289359 0.118045
O O6 0.776927 0.140452 0.444251
O O7 0.289685 0.981314 0.685483
O O8 0.301473 0.482088 0.624915
O O9 0.584989 0.871040 0.644874
O O10 0.472305 0.716865 0.642692
#
# Coordination Sequence:
#
# PCOD9252536 Si02
#       5
#     4   4   4   4   4
#     4  12  25  44  74 105 143 195 242 300 355 437
#     4  11  24  47  68 108 143 194 240 295 364 428
#     4  11  27  46  73 107 148 186 242 300 360 423
#     4  11  25  46  71 106 141 194 237 298 359 422
#     4  11  24  45  74 100 147 193 241 292 365 427
#
# _framework density 29.320995
#
# number of rings (size 3 to 8) (size 9 to 14) (size 15 to 20)
#    0.000    0.800    4.000    3.000    5.600    1.600 
#    0.000    4.000    0.000    0.000    0.000    0.000 
#    0.000    0.000    0.000    0.000    0.000    0.000 
#
# Total GULP energy -111641.653747 kJ/mol
# GULP energy per Si atom -5582.082687 kJ/mol
# Density = 2.925426 g / cm^3
# Si number density = 29.320995 Si / 1000 Ang^3
#
#
#
# Elastic Constant Matrix: (Units=GPa)
#
#
# Indices 1 2 3 4 5 6 
#
# 1 182.4985 85.1952 20.1270 0.0000 4.2205 0.0000
# 2 85.1952 164.4990 77.5161 0.0000 -25.8048 0.0000
# 3 20.1270 77.5161 120.9148 0.0000 -19.9497 0.0000
# 4 0.0000 0.0000 0.0000 57.4759 0.0000 -11.4867
# 5 4.2205 -25.8048 -19.9497 0.0000 40.5002 0.0000
# 6 0.0000 0.0000 0.0000 -11.4867 0.0000 64.0545
#
#
#
# Elastic Compliance Matrix: (Units=1/GPa)
#
#
# Indices 1 2 3 4 5 6 
#
# 1 0.007893 -0.005364 0.001552 0.000000 -0.003476 0.000000
# 2 -0.005364 0.012716 -0.006346 0.000000 0.005535 0.000000
# 3 0.001552 -0.006346 0.012394 0.000000 0.001900 0.000000
# 4 0.000000 0.000000 0.000000 0.018045 0.000000 0.003236
# 5 -0.003476 0.005535 0.001900 0.000000 0.029516 0.000000
# 6 0.000000 0.000000 0.000000 0.003236 0.000000 0.016192
#
#
# Mechanical properties :
#
#
# Convention : Reuss Voigt Hill
#
# Bulk Modulus (GPa) = 78.82961 92.62099 85.72530
# Shear Modulus (GPa) = 41.21981 51.41107 46.31544
#
# Velocity S-wave (km/s) = 3.75348 4.19189 3.97873
# Velocity P-wave (km/s) = 6.76227 7.42202 7.09981
#
# Compressibility (1/GPa) = 0.01268559
#
# Stress axis : x y z
#
# Youngs Moduli (GPa) = 126.69560 78.64258 80.68689
#
# Poissons Ratio (x) = 0.42186 -0.12519
# Poissons Ratio (y) = 0.67962 0.51201
# Poissons Ratio (z) = -0.19657 0.49904
#
# Static dielectric constant tensor:
#      x y z
#    x 2.534810 0.000000 0.199070 
#    y 0.000000 2.734500 0.000000 
#    z 0.199070 0.000000 2.359030 
# 
# From -- ./inp_files/49562.got.cif
#   From: 2010.05.17/outbox.cif.g08.bks.cpg/sg14_25_cif.got.tgz:49562.got - 2010.06.03 17:49:19.
