data_PCOD9252644
_publ_section_title
;
Structure prediction by ZEFSAII (Michael W. Deem and Ramdas Pophale) SiO2 
 PCOD9252644
Probable space group: P 21/C
;
_chemical_formula_sum "Si O2"
_cell_formula_units_Z 28
_cell_length_a 5.198398
_cell_length_b 20.909762
_cell_length_c 10.295097
_cell_angle_alpha 90.000000
_cell_angle_beta 67.182915
_cell_angle_gamma 90.000000
_cell_volume 1031.480578
_symmetry_space_group_name_H-M "P 21/C"
_symmetry_group_IT_number 14
_symmetry_cell_setting 'monoclinic'
loop_
_space_group_symop_operation_xyz
x,y,z
-x,1/2+y,1/2-z
-x,-y,-z
x,1/2-y,1/2+z
loop_
_atom_site_type_symbol
_atom_site_label
_atom_site_fract_x
_atom_site_fract_y
_atom_site_fract_z
Si Si1 0.862933 0.191888 0.218085
Si Si2 0.078867 0.042415 0.859872
Si Si3 0.125707 0.122313 0.482500
Si Si4 0.480113 0.939543 0.405866
Si Si5 0.345460 0.252445 0.971333
Si Si6 0.646539 0.140499 0.993075
Si Si7 0.204883 0.065435 0.213853
O O1 0.639860 0.213028 0.370413
O O2 0.704594 0.184830 0.108731
O O3 0.979124 0.120941 0.224011
O O4 0.136514 0.236371 0.136397
O O5 0.400224 0.044483 0.759530
O O6 0.940177 0.001658 0.771694
O O7 0.938296 0.111305 0.895048
O O8 0.000000 0.000000 0.000000
O O9 0.822229 0.091655 0.543954
O O10 0.301433 0.112287 0.578391
O O11 0.140186 0.196887 0.442268
O O12 0.290744 0.082987 0.341231
O O13 0.500000 0.000000 0.500000
O O14 0.463574 0.180744 0.927773
O O15 0.461189 0.079916 0.070547
#
# Coordination Sequence:
#
# PCOD9252644 Si02
#       7
#     4   4   4   4   4   4   4
#     4  11  25  48  73 111 151 217 274 342 425 503
#     4  12  27  49  82 121 169 213 279 357 427 513
#     4  12  27  51  83 115 165 223 274 346 427 501
#     4  12  29  49  81 123 165 215 283 342 422 514
#     4  11  28  46  78 107 158 212 276 343 412 500
#     4  11  26  47  74 114 154 209 282 338 427 503
#     4  11  24  48  79 109 160 220 267 338 439 508
#
# _framework density 27.145443
#
# number of rings (size 3 to 8) (size 9 to 14) (size 15 to 20)
#    0.000    0.571    4.286    1.714    8.000    2.286 
#    0.000    0.000    0.000    0.000    0.000    0.000 
#    0.000    0.000    0.000    0.000    0.000    0.000 
#
# Total GULP energy -156477.409036 kJ/mol
# GULP energy per Si atom -5588.478894 kJ/mol
# Density = 2.708366 g / cm^3
# Si number density = 27.145443 Si / 1000 Ang^3
#
#
#
# Elastic Constant Matrix: (Units=GPa)
#
#
# Indices 1 2 3 4 5 6 
#
# 1 132.1191 70.1854 45.5714 0.0000 -35.3131 0.0000
# 2 70.1854 107.8194 51.5009 0.0000 -13.5643 0.0000
# 3 45.5714 51.5009 140.2089 0.0000 -43.2688 0.0000
# 4 0.0000 0.0000 0.0000 45.7044 0.0000 -13.6249
# 5 -35.3131 -13.5643 -43.2688 0.0000 53.5681 0.0000
# 6 0.0000 0.0000 0.0000 -13.6249 0.0000 45.9662
#
#
#
# Elastic Compliance Matrix: (Units=1/GPa)
#
#
# Indices 1 2 3 4 5 6 
#
# 1 0.013812 -0.008508 0.001040 0.000000 0.007791 0.000000
# 2 -0.008508 0.016506 -0.004980 0.000000 -0.005451 0.000000
# 3 0.001040 -0.004980 0.011250 0.000000 0.008512 0.000000
# 4 0.000000 0.000000 0.000000 0.024000 0.000000 0.007114
# 5 0.007791 -0.005451 0.008512 0.000000 0.029299 0.000000
# 6 0.000000 0.000000 0.000000 0.007114 0.000000 0.023864
#
#
# Mechanical properties :
#
#
# Convention : Reuss Voigt Hill
#
# Bulk Modulus (GPa) = 59.97762 79.40700 69.69231
# Shear Modulus (GPa) = 33.51577 43.24039 38.37808
#
# Velocity S-wave (km/s) = 3.51760 3.99546 3.76413
# Velocity P-wave (km/s) = 6.21618 7.11343 6.67989
#
# Compressibility (1/GPa) = 0.01667289
#
# Stress axis : x y z
#
# Youngs Moduli (GPa) = 72.40040 60.58500 88.88796
#
# Poissons Ratio (x) = 0.51544 -0.09245
# Poissons Ratio (y) = 0.61596 0.44265
# Poissons Ratio (z) = -0.07530 0.30171
#
# Static dielectric constant tensor:
#      x y z
#    x 2.161390 0.000000 0.105570 
#    y 0.000000 2.174940 0.000000 
#    z 0.105570 0.000000 2.171640 
# 
# From -- ./inp_files/21685.got.cif
#   From: 2010.05.17/outbox.cif.g08.bks.cpg/sg14_11_cif.got.tgz:21685.got - 2010.06.03 17:49:19.
