data_PCOD9252440
_publ_section_title
;
Structure prediction by ZEFSAII (Michael W. Deem and Ramdas Pophale) SiO2 
 PCOD9252440
Probable space group: P 21/C
;
_chemical_formula_sum "Si O2"
_cell_formula_units_Z 20
_cell_length_a 10.676513
_cell_length_b 14.312410
_cell_length_c 9.867687
_cell_angle_alpha 90.000000
_cell_angle_beta 141.548653
_cell_angle_gamma 90.000000
_cell_volume 937.655069
_symmetry_space_group_name_H-M "P 21/C"
_symmetry_group_IT_number 14
_symmetry_cell_setting 'monoclinic'
loop_
_space_group_symop_operation_xyz
x,y,z
-x,1/2+y,1/2-z
-x,-y,-z
x,1/2-y,1/2+z
loop_
_atom_site_type_symbol
_atom_site_label
_atom_site_fract_x
_atom_site_fract_y
_atom_site_fract_z
Si Si1 0.406244 0.078746 0.081468
Si Si2 0.912532 0.267993 0.331710
Si Si3 0.190438 0.551728 0.226529
Si Si4 0.204307 0.243779 0.326430
Si Si5 0.488419 0.609035 0.023464
O O1 0.622000 0.040819 0.216714
O O2 0.427142 0.116861 0.251035
O O3 0.333495 0.161366 0.919081
O O4 0.247643 0.996550 0.917737
O O5 0.834713 0.161854 0.276942
O O6 0.066710 0.266507 0.338000
O O7 0.046903 0.283086 0.577638
O O8 0.730978 0.341839 0.164837
O O9 0.000000 0.500000 0.000000
O O10 0.370203 0.162681 0.464543
O O11 0.500000 0.500000 0.000000
#
# Coordination Sequence:
#
# PCOD9252440 Si02
#       5
#     4   4   4   4   4
#     4  11  25  46  71 108 147 190 252 308 372 447
#     4  12  27  46  75 105 146 195 248 304 386 443
#     4  11  24  43  76 106 141 190 246 307 370 448
#     4  12  26  47  74 105 147 193 250 308 371 450
#     4  12  30  47  71 108 155 195 251 316 378 450
#
# _framework density 21.329806000000001
#
# number of rings (size 3 to 8) (size 9 to 14) (size 15 to 20)
#    0.000    0.400    6.000    1.200    5.600    0.800 
#    0.000    0.000    0.000    0.000    0.000    0.000 
#    0.000    0.000    0.000    0.000    0.000    0.000 
#
# Total GULP energy -111737.016755 kJ/mol
# GULP energy per Si atom -5586.850838 kJ/mol
# Density = 2.128126 g / cm^3
# Si number density = 21.329806 Si / 1000 Ang^3
#
#
#
# Elastic Constant Matrix: (Units=GPa)
#
#
# Indices 1 2 3 4 5 6 
#
# 1 76.4007 24.4933 55.1721 0.0000 15.2998 0.0000
# 2 24.4933 132.3615 38.2745 0.0000 30.0741 0.0000
# 3 55.1721 38.2745 128.1385 0.0000 14.9568 0.0000
# 4 0.0000 0.0000 0.0000 39.7412 0.0000 -2.3060
# 5 15.2998 30.0741 14.9568 0.0000 28.8588 0.0000
# 6 0.0000 0.0000 0.0000 -2.3060 0.0000 19.7953
#
#
#
# Elastic Compliance Matrix: (Units=1/GPa)
#
#
# Indices 1 2 3 4 5 6 
#
# 1 0.020101 0.000074 -0.007902 0.000000 -0.006638 0.000000
# 2 0.000074 0.010337 -0.001977 0.000000 -0.009786 0.000000
# 3 -0.007902 -0.001977 0.011780 0.000000 0.000144 0.000000
# 4 0.000000 0.000000 0.000000 0.025334 0.000000 0.002951
# 5 -0.006638 -0.009786 0.000144 0.000000 0.048294 0.000000
# 6 0.000000 0.000000 0.000000 0.002951 0.000000 0.050861
#
#
# Mechanical properties :
#
#
# Convention : Reuss Voigt Hill
#
# Bulk Modulus (GPa) = 44.23391 63.64226 53.93809
# Shear Modulus (GPa) = 25.79269 32.27644 29.03457
#
# Velocity S-wave (km/s) = 3.48117 3.89422 3.69347
# Velocity P-wave (km/s) = 6.07793 7.07968 6.59785
#
# Compressibility (1/GPa) = 0.02260709
#
# Stress axis : x y z
#
# Youngs Moduli (GPa) = 49.74892 96.74281 84.88939
#
# Poissons Ratio (x) = -0.00712 0.67079
# Poissons Ratio (y) = -0.00366 0.16782
# Poissons Ratio (z) = 0.39311 0.19125
#
# Static dielectric constant tensor:
#      x y z
#    x 1.902870 0.000000 0.058540 
#    y 0.000000 1.821160 0.000000 
#    z 0.058540 0.000000 1.817840 
# 
# From -- ./inp_files/29915.got.cif
#   From: 2010.05.17/outbox.cif.g08.bks.cpg/sg14_15_cif.got.tgz:29915.got - 2010.06.03 17:49:19.
