data_PCOD9252397
_publ_section_title
;
Structure prediction by ZEFSAII (Michael W. Deem and Ramdas Pophale) SiO2 
 PCOD9252397
Probable space group: P 21/C
;
_chemical_formula_sum "Si O2"
_cell_formula_units_Z 24
_cell_length_a 21.938888
_cell_length_b 8.900811
_cell_length_c 11.072096
_cell_angle_alpha 90.000000
_cell_angle_beta 29.309287
_cell_angle_gamma 90.000000
_cell_volume 1058.395154
_symmetry_space_group_name_H-M "P 21/C"
_symmetry_group_IT_number 14
_symmetry_cell_setting 'monoclinic'
loop_
_space_group_symop_operation_xyz
x,y,z
-x,1/2+y,1/2-z
-x,-y,-z
x,1/2-y,1/2+z
loop_
_atom_site_type_symbol
_atom_site_label
_atom_site_fract_x
_atom_site_fract_y
_atom_site_fract_z
Si Si1 0.206627 0.842711 0.438265
Si Si2 0.399065 0.392273 0.111646
Si Si3 0.823291 0.697014 0.966125
Si Si4 0.224114 0.587051 0.242176
Si Si5 0.568490 0.364297 0.313356
Si Si6 0.949575 0.821714 0.994346
O O1 0.188095 0.754313 0.345656
O O2 0.344288 0.789963 0.236407
O O3 0.202420 0.022544 0.455903
O O4 0.094886 0.793604 0.719595
O O5 0.305350 0.282716 0.346101
O O6 0.300906 0.493247 0.209500
O O7 0.500000 0.500000 0.000000
O O8 0.480746 0.261582 0.904702
O O9 0.903943 0.725569 0.705871
O O10 0.884000 0.753052 0.987225
O O11 0.099266 0.493938 0.430013
O O12 0.325515 0.583453 0.961547
O O13 0.500000 0.500000 0.500000
#
# Coordination Sequence:
#
# PCOD9252397 Si02
#       6
#     4   4   4   4   4   4
#     4  12  24  44  72  99 141 185 232 288 357 425
#     4  11  24  43  66  97 138 175 236 287 348 420
#     4  11  25  47  73 101 146 188 236 299 356 420
#     4  11  26  43  69 102 136 187 230 293 351 426
#     4  12  25  44  68  99 137 182 235 283 362 415
#     4  11  25  47  72 104 143 184 241 295 360 419
#
# _framework density 22.675840000000001
#
# number of rings (size 3 to 8) (size 9 to 14) (size 15 to 20)
#    0.000    0.667    5.000    1.500    4.667    4.000 
#    0.000    4.167    0.000    0.000    0.000    0.000 
#    0.000    0.000    0.000    0.000    0.000    0.000 
#
# Total GULP energy -133712.601099 kJ/mol
# GULP energy per Si atom -5571.358379 kJ/mol
# Density = 2.262423 g / cm^3
# Si number density = 22.675840 Si / 1000 Ang^3
#
#
#
# Elastic Constant Matrix: (Units=GPa)
#
#
# Indices 1 2 3 4 5 6 
#
# 1 72.5074 33.2811 37.3604 0.0000 -1.3835 0.0000
# 2 33.2811 104.3203 55.2244 0.0000 11.7958 0.0000
# 3 37.3604 55.2244 139.0614 0.0000 -1.1788 0.0000
# 4 0.0000 0.0000 0.0000 24.0012 0.0000 0.8746
# 5 -1.3835 11.7958 -1.1788 0.0000 46.0499 0.0000
# 6 0.0000 0.0000 0.0000 0.8746 0.0000 28.4170
#
#
#
# Elastic Compliance Matrix: (Units=1/GPa)
#
#
# Indices 1 2 3 4 5 6 
#
# 1 0.017238 -0.004080 -0.002998 0.000000 0.001486 0.000000
# 2 -0.004080 0.013604 -0.004338 0.000000 -0.003718 0.000000
# 3 -0.002998 -0.004338 0.009730 0.000000 0.001270 0.000000
# 4 0.000000 0.000000 0.000000 0.041711 0.000000 -0.001284
# 5 0.001486 -0.003718 0.001270 0.000000 0.022745 0.000000
# 6 0.000000 0.000000 0.000000 -0.001284 0.000000 0.035230
#
#
# Mechanical properties :
#
#
# Convention : Reuss Voigt Hill
#
# Bulk Modulus (GPa) = 56.37135 63.06897 59.72016
# Shear Modulus (GPa) = 29.58506 32.36183 30.97344
#
# Velocity S-wave (km/s) = 3.61597 3.78186 3.69985
# Velocity P-wave (km/s) = 6.50748 6.85154 6.68173
#
# Compressibility (1/GPa) = 0.01773951
#
# Stress axis : x y z
#
# Youngs Moduli (GPa) = 58.01232 73.50562 102.77474
#
# Poissons Ratio (x) = 0.29992 0.30813
# Poissons Ratio (y) = 0.23670 0.44583
# Poissons Ratio (z) = 0.17393 0.31886
#
# Static dielectric constant tensor:
#      x y z
#    x 2.069910 0.000000 -0.013110 
#    y 0.000000 1.896990 0.000000 
#    z -0.013110 0.000000 1.823110 
# 
# From -- ./inp_files/28101.got.cif
#   From: 2010.05.17/outbox.cif.g08.bks.cpg/sg14_15_cif.got.tgz:28101.got - 2010.06.03 17:49:19.
