data_PCOD9252561
_publ_section_title
;
Structure prediction by ZEFSAII (Michael W. Deem and Ramdas Pophale) SiO2 
 PCOD9252561
Probable space group: P 21/C
;
_chemical_formula_sum "Si O2"
_cell_formula_units_Z 24
_cell_length_a 19.391285
_cell_length_b 5.467851
_cell_length_c 14.277571
_cell_angle_alpha 90.000000
_cell_angle_beta 137.602367
_cell_angle_gamma 90.000000
_cell_volume 1020.734132
_symmetry_space_group_name_H-M "P 21/C"
_symmetry_group_IT_number 14
_symmetry_cell_setting 'monoclinic'
loop_
_space_group_symop_operation_xyz
x,y,z
-x,1/2+y,1/2-z
-x,-y,-z
x,1/2-y,1/2+z
loop_
_atom_site_type_symbol
_atom_site_label
_atom_site_fract_x
_atom_site_fract_y
_atom_site_fract_z
Si Si1 0.207687 0.831421 0.713982
Si Si2 0.909160 0.006384 0.768365
Si Si3 0.557361 0.248119 0.585690
Si Si4 0.478331 0.403899 0.691860
Si Si5 0.111187 0.733000 0.433421
Si Si6 0.763010 0.617868 0.568987
O O1 0.138848 0.614539 0.686667
O O2 0.325990 0.752028 0.829555
O O3 0.169502 0.893703 0.571059
O O4 0.200145 0.024391 0.791316
O O5 0.815021 0.880352 0.618370
O O6 0.010151 0.854150 0.886850
O O7 0.940832 0.192296 0.717949
O O8 0.500000 0.500000 0.500000
O O9 0.550909 0.265299 0.690743
O O10 0.500000 0.000000 0.500000
O O11 0.506172 0.693078 0.712915
O O12 0.358529 0.382821 0.550185
O O13 0.193852 0.539353 0.474833
#
# Coordination Sequence:
#
# PCOD9252561 Si02
#       6
#     4   4   4   4   4   4
#     4  11  26  43  72 103 139 189 240 297 367 437
#     4  11  24  46  71 100 145 179 239 305 362 437
#     4  12  25  47  71 105 150 191 241 305 364 431
#     4  12  27  46  75 107 147 196 247 300 369 439
#     4  11  24  46  70 103 137 187 241 295 371 432
#     4  11  25  45  70 103 143 187 236 306 356 434
#
# _framework density 23.512488999999999
#
# number of rings (size 3 to 8) (size 9 to 14) (size 15 to 20)
#    0.000    0.667    3.333    3.500    7.000    2.000 
#    0.000    0.000    0.000    0.000    0.000    0.000 
#    0.000    0.000    0.000    0.000    0.000    0.000 
#
# Total GULP energy -133718.208886 kJ/mol
# GULP energy per Si atom -5571.592037 kJ/mol
# Density = 2.345897 g / cm^3
# Si number density = 23.512489 Si / 1000 Ang^3
#
#
#
# Elastic Constant Matrix: (Units=GPa)
#
#
# Indices 1 2 3 4 5 6 
#
# 1 33.0175 -37.0884 30.2474 0.0000 58.0029 0.0000
# 2 -37.0884 29.7406 10.6226 0.0000 26.1280 0.0000
# 3 30.2474 10.6226 93.2576 0.0000 -0.0947 0.0000
# 4 0.0000 0.0000 0.0000 24.6882 0.0000 1.7355
# 5 58.0029 26.1280 -0.0947 0.0000 11.8709 0.0000
# 6 0.0000 0.0000 0.0000 1.7355 0.0000 29.2349
#
#
#
# Elastic Compliance Matrix: (Units=1/GPa)
#
#
# Indices 1 2 3 4 5 6 
#
# 1 0.001397 -0.008104 0.000481 0.000000 0.011012 0.000000
# 2 -0.008104 0.012542 0.001212 0.000000 0.012001 0.000000
# 3 0.000481 0.001212 0.010424 0.000000 -0.004935 0.000000
# 4 0.000000 0.000000 0.000000 0.040675 0.000000 -0.002415
# 5 0.011012 0.012001 -0.004935 0.000000 0.003978 0.000000
# 6 0.000000 0.000000 0.000000 -0.002415 0.000000 0.034349
#
#
# Mechanical properties :
#
#
# Convention : Reuss Voigt Hill
#
# Bulk Modulus (GPa) = 86.64165 18.17543 52.40854
# Shear Modulus (GPa) = 41.65466 23.30776 32.48121
#
# Velocity S-wave (km/s) = 4.21360 3.15190 3.72081
# Velocity P-wave (km/s) = 7.78471 4.58179 6.38728
#
# Compressibility (1/GPa) = 0.01154179
#
# Stress axis : x y z
#
# Youngs Moduli (GPa) = 715.60015 79.73108 95.93327
#
# Poissons Ratio (x) = 0.64613 -0.04615
# Poissons Ratio (y) = 5.79910 -0.11627
# Poissons Ratio (z) = -0.34421 -0.09663
#
# Static dielectric constant tensor:
#      x y z
#    x 2.014050 0.000000 -0.174080 
#    y 0.000000 2.138030 0.000000 
#    z -0.174080 0.000000 1.956800 
# 
# From -- ./inp_files/49599.got.cif
#   From: 2010.05.17/outbox.cif.g08.bks.cpg/sg14_25_cif.got.tgz:49599.got - 2010.06.03 17:49:19.
