data_PCOD9252743
_publ_section_title
;
Structure prediction by ZEFSAII (Michael W. Deem and Ramdas Pophale) SiO2 
 PCOD9252743
Probable space group: P 21/C
;
_chemical_formula_sum "Si O2"
_cell_formula_units_Z 20
_cell_length_a 14.547133
_cell_length_b 11.791596
_cell_length_c 11.056257
_cell_angle_alpha 90.000000
_cell_angle_beta 28.352903
_cell_angle_gamma 90.000000
_cell_volume 900.660655
_symmetry_space_group_name_H-M "P 21/C"
_symmetry_group_IT_number 14
_symmetry_cell_setting 'monoclinic'
loop_
_space_group_symop_operation_xyz
x,y,z
-x,1/2+y,1/2-z
-x,-y,-z
x,1/2-y,1/2+z
loop_
_atom_site_type_symbol
_atom_site_label
_atom_site_fract_x
_atom_site_fract_y
_atom_site_fract_z
Si Si1 0.569886 0.390849 0.656354
Si Si2 0.198174 0.531149 0.835961
Si Si3 0.167080 0.808456 0.604431
Si Si4 0.470949 0.589105 0.926444
Si Si5 0.740452 0.797028 0.620623
O O1 0.672333 0.398875 0.407307
O O2 0.693569 0.298719 0.586140
O O3 0.569680 0.518620 0.703400
O O4 0.350197 0.345261 0.900274
O O5 0.277827 0.406894 0.774769
O O6 0.166562 0.602495 0.995059
O O7 0.000000 0.500000 0.000000
O O8 0.265656 0.868918 0.608297
O O9 0.954961 0.754685 0.869188
O O10 0.594751 0.697004 0.820046
O O11 0.500000 0.500000 0.000000
#
# Coordination Sequence:
#
# PCOD9252743 Si02
#       5
#     4   4   4   4   4
#     4  11  25  46  73 105 142 194 242 295 364 431
#     4  12  24  47  77 103 145 193 243 296 363 444
#     4  11  26  46  69 110 140 185 244 295 362 433
#     4  11  27  45  71 104 146 188 241 305 362 422
#     4  11  25  45  71 104 142 190 235 296 360 434
#
# _framework density 22.205922000000001
#
# number of rings (size 3 to 8) (size 9 to 14) (size 15 to 20)
#    0.000    0.800    4.000    1.800    5.600    4.000 
#    0.000    0.000    0.000    0.000    0.000    0.000 
#    0.000    0.000    0.000    0.000    0.000    0.000 
#
# Total GULP energy -111666.437308 kJ/mol
# GULP energy per Si atom -5583.321865 kJ/mol
# Density = 2.215538 g / cm^3
# Si number density = 22.205922 Si / 1000 Ang^3
#
#
#
# Elastic Constant Matrix: (Units=GPa)
#
#
# Indices 1 2 3 4 5 6 
#
# 1 105.0012 50.9334 52.4369 0.0000 -35.7738 0.0000
# 2 50.9334 175.0103 32.6371 0.0000 -13.7129 0.0000
# 3 52.4369 32.6371 65.1883 0.0000 -28.7370 0.0000
# 4 0.0000 0.0000 0.0000 23.6946 0.0000 -23.2050
# 5 -35.7738 -13.7129 -28.7370 0.0000 42.7101 0.0000
# 6 0.0000 0.0000 0.0000 -23.2050 0.0000 41.2507
#
#
#
# Elastic Compliance Matrix: (Units=1/GPa)
#
#
# Indices 1 2 3 4 5 6 
#
# 1 0.018671 -0.002938 -0.010051 0.000000 0.007933 0.000000
# 2 -0.002938 0.006765 -0.001637 0.000000 -0.001390 0.000000
# 3 -0.010051 -0.001637 0.028862 0.000000 0.010476 0.000000
# 4 0.000000 0.000000 0.000000 0.093977 0.000000 0.052865
# 5 0.007933 -0.001390 0.010476 0.000000 0.036660 0.000000
# 6 0.000000 0.000000 0.000000 0.052865 0.000000 0.053981
#
#
# Mechanical properties :
#
#
# Convention : Reuss Voigt Hill
#
# Bulk Modulus (GPa) = 39.92325 68.57938 54.25131
# Shear Modulus (GPa) = 18.08219 35.47722 26.77971
#
# Velocity S-wave (km/s) = 2.85668 4.00139 3.47648
# Velocity P-wave (km/s) = 5.37573 7.23178 6.37170
#
# Compressibility (1/GPa) = 0.02504806
#
# Stress axis : x y z
#
# Youngs Moduli (GPa) = 53.55991 147.81404 34.64733
#
# Poissons Ratio (x) = 0.43426 0.34823
# Poissons Ratio (y) = 0.15735 0.05670
# Poissons Ratio (z) = 0.53831 0.24190
#
# Static dielectric constant tensor:
#      x y z
#    x 1.921650 0.000000 -0.097290 
#    y 0.000000 1.825020 0.000000 
#    z -0.097290 0.000000 1.624760 
# 
# From -- ./inp_files/32111.got.cif
#   From: 2010.05.17/outbox.cif.g08.bks.cpg/sg14_17_cif.got.tgz:32111.got - 2010.06.03 17:49:19.
