data_PCOD9252907
_publ_section_title
;
Structure prediction by ZEFSAII (Michael W. Deem and Ramdas Pophale) SiO2 
 PCOD9252907
Probable space group: P 21/C
;
_chemical_formula_sum "Si O2"
_cell_formula_units_Z 16
_cell_length_a 5.171591
_cell_length_b 13.959916
_cell_length_c 13.103031
_cell_angle_alpha 90.000000
_cell_angle_beta 48.398339
_cell_angle_gamma 90.000000
_cell_volume 707.378601
_symmetry_space_group_name_H-M "P 21/C"
_symmetry_group_IT_number 14
_symmetry_cell_setting 'monoclinic'
loop_
_space_group_symop_operation_xyz
x,y,z
-x,1/2+y,1/2-z
-x,-y,-z
x,1/2-y,1/2+z
loop_
_atom_site_type_symbol
_atom_site_label
_atom_site_fract_x
_atom_site_fract_y
_atom_site_fract_z
Si Si1 0.807124 0.902944 0.677143
Si Si2 0.847269 0.792298 0.237533
Si Si3 0.271222 0.565369 0.484903
Si Si4 0.074768 0.872635 0.386763
O O1 0.002766 0.814044 0.677329
O O2 0.470752 0.891720 0.835627
O O3 0.838879 0.877486 0.549729
O O4 0.894305 0.015800 0.658550
O O5 0.452167 0.825653 0.311667
O O6 0.898438 0.815800 0.342139
O O7 0.085180 0.858322 0.104250
O O8 0.500000 0.500000 0.500000
O O9 0.000000 0.500000 0.500000
#
# Coordination Sequence:
#
# PCOD9252907 Si02
#       4
#     4   4   4   4
#     4  11  26  47  75 103 149 187 238 299 351 434
#     4  12  25  47  73 107 140 190 241 288 364 423
#     4  12  24  46  70 102 141 186 231 294 350 414
#     4  11  27  47  71 108 142 191 236 298 359 416
#
# _framework density 22.618718999999999
#
# number of rings (size 3 to 8) (size 9 to 14) (size 15 to 20)
#    0.000    0.500    5.000    1.500    0.000   16.000 
#    0.000    0.000    0.000    0.000    0.000    0.000 
#    0.000    0.000    0.000    0.000    0.000    0.000 
#
# Total GULP energy -89232.274404 kJ/mol
# GULP energy per Si atom -5577.017150 kJ/mol
# Density = 2.256724 g / cm^3
# Si number density = 22.618719 Si / 1000 Ang^3
#
#
#
# Elastic Constant Matrix: (Units=GPa)
#
#
# Indices 1 2 3 4 5 6 
#
# 1 122.8271 39.4928 18.4512 0.0000 11.9728 0.0000
# 2 39.4928 96.7309 22.6611 0.0000 15.6161 0.0000
# 3 18.4512 22.6611 149.0078 0.0000 11.0084 0.0000
# 4 0.0000 0.0000 0.0000 30.4233 0.0000 3.2531
# 5 11.9728 15.6161 11.0084 0.0000 33.0481 0.0000
# 6 0.0000 0.0000 0.0000 3.2531 0.0000 10.9641
#
#
#
# Elastic Compliance Matrix: (Units=1/GPa)
#
#
# Indices 1 2 3 4 5 6 
#
# 1 0.009502 -0.003495 -0.000526 0.000000 -0.001616 0.000000
# 2 -0.003495 0.012747 -0.001183 0.000000 -0.004363 0.000000
# 3 -0.000526 -0.001183 0.007075 0.000000 -0.001607 0.000000
# 4 0.000000 0.000000 0.000000 0.033947 0.000000 -0.010072
# 5 -0.001616 -0.004363 -0.001607 0.000000 0.033441 0.000000
# 6 0.000000 0.000000 0.000000 -0.010072 0.000000 0.094195
#
#
# Mechanical properties :
#
#
# Convention : Reuss Voigt Hill
#
# Bulk Modulus (GPa) = 52.86976 58.86399 55.86687
# Shear Modulus (GPa) = 24.08250 34.08449 29.08350
#
# Velocity S-wave (km/s) = 3.26654 3.88611 3.58972
# Velocity P-wave (km/s) = 6.13613 6.79829 6.47568
#
# Compressibility (1/GPa) = 0.01891440
#
# Stress axis : x y z
#
# Youngs Moduli (GPa) = 105.24259 78.45262 141.34592
#
# Poissons Ratio (x) = 0.27422 0.07430
# Poissons Ratio (y) = 0.36786 0.16726
# Poissons Ratio (z) = 0.05532 0.09284
#
# Static dielectric constant tensor:
#      x y z
#    x 1.859050 0.000000 -0.029860 
#    y 0.000000 2.338860 0.000000 
#    z -0.029860 0.000000 1.746370 
# 
# From -- ./inp_files/20587.got.cif
#   From: 2010.05.17/outbox.cif.g08.bks.cpg/sg14_11_cif.got.tgz:20587.got - 2010.06.03 17:49:19.
