data_PCOD9252976
_publ_section_title
;
Structure prediction by ZEFSAII (Michael W. Deem and Ramdas Pophale) SiO2 
 PCOD9252976
Probable space group: P 21/C
;
_chemical_formula_sum "Si O2"
_cell_formula_units_Z 20
_cell_length_a 10.934682
_cell_length_b 7.686516
_cell_length_c 9.255989
_cell_angle_alpha 90.000000
_cell_angle_beta 90.209876
_cell_angle_gamma 90.000000
_cell_volume 777.957029
_symmetry_space_group_name_H-M "P 21/C"
_symmetry_group_IT_number 14
_symmetry_cell_setting 'monoclinic'
loop_
_space_group_symop_operation_xyz
x,y,z
-x,1/2+y,1/2-z
-x,-y,-z
x,1/2-y,1/2+z
loop_
_atom_site_type_symbol
_atom_site_label
_atom_site_fract_x
_atom_site_fract_y
_atom_site_fract_z
Si Si1 0.862456 0.189438 0.824594
Si Si2 0.386530 0.608554 0.838837
Si Si3 0.459471 0.272323 0.421940
Si Si4 0.213061 0.388754 0.471612
Si Si5 0.108377 0.086923 0.662098
O O1 0.739934 0.170326 0.729412
O O2 0.976286 0.133325 0.726124
O O3 0.851287 0.720250 0.960204
O O4 0.849128 0.055193 0.956162
O O5 0.492784 0.639063 0.722002
O O6 0.389934 0.407396 0.882988
O O7 0.426904 0.718461 0.978261
O O8 0.357648 0.383906 0.504152
O O9 0.117575 0.885345 0.621075
O O10 0.197486 0.389658 0.300175
#
# Coordination Sequence:
#
# PCOD9252976 Si02
#       5
#     4   4   4   4   4
#     4  12  28  48  80 115 156 207 260 323 387 469
#     4  11  27  47  76 115 152 203 261 321 391 464
#     4  11  27  49  78 113 153 204 255 327 389 461
#     4  12  28  54  77 116 161 202 264 327 386 473
#     4  12  29  50  81 116 154 213 262 322 400 453
#
# _framework density 25.708361
#
# number of rings (size 3 to 8) (size 9 to 14) (size 15 to 20)
#    0.000    0.400    2.000    4.200   11.200    4.000 
#    0.000    0.000    0.000    0.000    0.000    0.000 
#    0.000    0.000    0.000    0.000    0.000    0.000 
#
# Total GULP energy -112488.722292 kJ/mol
# GULP energy per Si atom -5624.436115 kJ/mol
# Density = 2.564985 g / cm^3
# Si number density = 25.708361 Si / 1000 Ang^3
#
#
#
# Elastic Constant Matrix: (Units=GPa)
#
#
# Indices 1 2 3 4 5 6 
#
# 1 75.7469 16.2861 -6.9252 0.0000 -1.9510 0.0000
# 2 16.2861 210.2635 30.4623 0.0000 -12.3288 0.0000
# 3 -6.9252 30.4623 66.2435 0.0000 4.2125 0.0000
# 4 0.0000 0.0000 0.0000 41.8918 0.0000 -4.5129
# 5 -1.9510 -12.3288 4.2125 0.0000 32.6228 0.0000
# 6 0.0000 0.0000 0.0000 -4.5129 0.0000 28.9594
#
#
#
# Elastic Compliance Matrix: (Units=1/GPa)
#
#
# Indices 1 2 3 4 5 6 
#
# 1 0.013682 -0.001354 0.002050 0.000000 0.000042 0.000000
# 2 -0.001354 0.005398 -0.002771 0.000000 0.002317 0.000000
# 3 0.002050 -0.002771 0.016781 0.000000 -0.003092 0.000000
# 4 0.000000 0.000000 0.000000 0.024279 0.000000 0.003783
# 5 0.000042 0.002317 -0.003092 0.000000 0.031931 0.000000
# 6 0.000000 0.000000 0.000000 0.003783 0.000000 0.035121
#
#
# Mechanical properties :
#
#
# Convention : Reuss Voigt Hill
#
# Bulk Modulus (GPa) = 31.53525 47.98893 39.76209
# Shear Modulus (GPa) = 35.23322 41.52352 38.37837
#
# Velocity S-wave (km/s) = 3.70604 4.02328 3.86792
# Velocity P-wave (km/s) = 5.53228 6.34741 5.95381
#
# Compressibility (1/GPa) = 0.03171055
#
# Stress axis : x y z
#
# Youngs Moduli (GPa) = 73.09094 185.24733 59.59063
#
# Poissons Ratio (x) = 0.25089 -0.12219
# Poissons Ratio (y) = 0.09899 0.16514
# Poissons Ratio (z) = -0.14987 0.51338
#
# Static dielectric constant tensor:
#      x y z
#    x 1.981190 0.000000 0.043760 
#    y 0.000000 1.982100 0.000000 
#    z 0.043760 0.000000 1.956800 
# 
# From -- ./inp_files/11857.got.cif
#   From: 2010.05.17/outbox.cif.g08.bks.cpg/sg14_6_cif.got.tgz:11857.got - 2010.06.03 17:49:19.
