data_PCOD9252250
_publ_section_title
;
Structure prediction by ZEFSAII (Michael W. Deem and Ramdas Pophale) SiO2 
 PCOD9252250
Probable space group: P 21/C
;
_chemical_formula_sum "Si O2"
_cell_formula_units_Z 20
_cell_length_a 11.129674
_cell_length_b 16.015214
_cell_length_c 14.228459
_cell_angle_alpha 90.000000
_cell_angle_beta 19.177554
_cell_angle_gamma 90.000000
_cell_volume 833.113188
_symmetry_space_group_name_H-M "P 21/C"
_symmetry_group_IT_number 14
_symmetry_cell_setting 'monoclinic'
loop_
_space_group_symop_operation_xyz
x,y,z
-x,1/2+y,1/2-z
-x,-y,-z
x,1/2-y,1/2+z
loop_
_atom_site_type_symbol
_atom_site_label
_atom_site_fract_x
_atom_site_fract_y
_atom_site_fract_z
Si Si1 0.025346 0.605385 0.006614
Si Si2 0.142244 0.062460 0.164376
Si Si3 0.275000 0.891033 0.978754
Si Si4 0.708516 0.222075 0.189453
Si Si5 0.892879 0.268901 0.765857
O O1 0.915480 0.557841 0.182014
O O2 0.707542 0.590394 0.166723
O O3 0.434446 0.587203 0.669490
O O4 0.018579 0.703396 0.036930
O O5 0.894569 0.139960 0.312431
O O6 0.076210 0.973668 0.163369
O O7 0.216679 0.810160 0.089015
O O8 0.175626 0.862534 0.947282
O O9 0.320827 0.248436 0.432092
O O10 0.693005 0.222684 0.313535
#
# Coordination Sequence:
#
# PCOD9252250 Si02
#       5
#     4   4   4   4   4
#     4  11  23  46  69 108 138 188 238 293 343 428
#     4  11  26  44  73 107 146 179 244 292 350 426
#     4  12  24  43  74 101 142 193 232 293 360 412
#     4  11  24  43  73  97 145 189 233 289 360 420
#     4  11  25  46  68 106 141 189 236 292 355 425
#
# _framework density 24.006343000000001
#
# number of rings (size 3 to 8) (size 9 to 14) (size 15 to 20)
#    0.000    0.800    4.000    3.600    2.800    0.800 
#    0.000    1.000    0.000    0.000    0.000    0.000 
#    0.000    0.000    0.000    0.000    0.000    0.000 
#
# Total GULP energy -111904.797566 kJ/mol
# GULP energy per Si atom -5595.239878 kJ/mol
# Density = 2.395170 g / cm^3
# Si number density = 24.006343 Si / 1000 Ang^3
#
#
#
# Elastic Constant Matrix: (Units=GPa)
#
#
# Indices 1 2 3 4 5 6 
#
# 1 94.2085 48.5619 0.8939 0.0000 19.2510 0.0000
# 2 48.5619 179.8802 20.4658 0.0000 14.8644 0.0000
# 3 0.8939 20.4658 68.5329 0.0000 13.9219 0.0000
# 4 0.0000 0.0000 0.0000 40.8912 0.0000 14.4468
# 5 19.2510 14.8644 13.9219 0.0000 18.7596 0.0000
# 6 0.0000 0.0000 0.0000 14.4468 0.0000 43.6703
#
#
#
# Elastic Compliance Matrix: (Units=1/GPa)
#
#
# Indices 1 2 3 4 5 6 
#
# 1 0.015670 -0.003338 0.004147 0.000000 -0.016514 0.000000
# 2 -0.003338 0.006714 -0.001856 0.000000 -0.000517 0.000000
# 3 0.004147 -0.001856 0.018437 0.000000 -0.016467 0.000000
# 4 0.000000 0.000000 0.000000 0.027692 0.000000 -0.009161
# 5 -0.016514 -0.000517 -0.016467 0.000000 0.082883 0.000000
# 6 0.000000 0.000000 0.000000 -0.009161 0.000000 0.025929
#
#
# Mechanical properties :
#
#
# Convention : Reuss Voigt Hill
#
# Bulk Modulus (GPa) = 25.82159 53.60721 39.71440
# Shear Modulus (GPa) = 25.99710 38.84423 32.42066
#
# Velocity S-wave (km/s) = 3.29435 4.02690 3.67891
# Velocity P-wave (km/s) = 5.02492 6.63326 5.88430
#
# Compressibility (1/GPa) = 0.03872728
#
# Stress axis : x y z
#
# Youngs Moduli (GPa) = 63.81463 148.93606 54.23884
#
# Poissons Ratio (x) = 0.49710 -0.22493
# Poissons Ratio (y) = 0.21299 0.10069
# Poissons Ratio (z) = -0.26464 0.27649
#
# Static dielectric constant tensor:
#      x y z
#    x 1.902120 0.000000 0.002360 
#    y 0.000000 2.002890 0.000000 
#    z 0.002360 0.000000 1.914390 
# 
# From -- ./inp_files/5515.got.cif
#   From: 2010.05.17/outbox.cif.g08.bks.cpg/sg14_3_cif.got.tgz:5515.got - 2010.06.03 17:49:19.
