data_PCOD9252528
_publ_section_title
;
Structure prediction by ZEFSAII (Michael W. Deem and Ramdas Pophale) SiO2 
 PCOD9252528
Probable space group: P 21/C
;
_chemical_formula_sum "Si O2"
_cell_formula_units_Z 20
_cell_length_a 4.861762
_cell_length_b 10.912816
_cell_length_c 14.172153
_cell_angle_alpha 90.000000
_cell_angle_beta 82.871587
_cell_angle_gamma 90.000000
_cell_volume 746.098985
_symmetry_space_group_name_H-M "P 21/C"
_symmetry_group_IT_number 14
_symmetry_cell_setting 'monoclinic'
loop_
_space_group_symop_operation_xyz
x,y,z
-x,1/2+y,1/2-z
-x,-y,-z
x,1/2-y,1/2+z
loop_
_atom_site_type_symbol
_atom_site_label
_atom_site_fract_x
_atom_site_fract_y
_atom_site_fract_z
Si Si1 0.000715 0.813073 0.259059
Si Si2 0.401401 0.443535 0.103159
Si Si3 0.500431 0.140200 0.238671
Si Si4 0.159428 0.107374 0.936680
Si Si5 0.656722 0.187817 0.038600
O O1 0.909093 0.901337 0.349486
O O2 0.806272 0.691520 0.266394
O O3 0.305006 0.755121 0.239067
O O4 0.911806 0.885232 0.169447
O O5 0.492973 0.536874 0.181951
O O6 0.540443 0.311336 0.087388
O O7 0.500000 0.500000 0.000000
O O8 0.620739 0.098197 0.131463
O O9 0.961310 0.215817 0.988109
O O10 0.461010 0.137216 0.964129
O O11 0.000000 0.000000 0.000000
#
# Coordination Sequence:
#
# PCOD9252528 Si02
#       5
#     4   4   4   4   4
#     4  11  25  43  66  99 135 178 230 284 352 429
#     4  11  24  45  72 101 139 184 234 298 353 415
#     4  11  25  45  68  99 140 179 227 292 356 412
#     4  12  24  43  69  98 138 184 229 286 348 419
#     4  11  25  44  69 105 137 181 241 286 349 433
#
# _framework density 26.806096
#
# number of rings (size 3 to 8) (size 9 to 14) (size 15 to 20)
#    0.000    0.800    0.000    7.800    0.000    8.000 
#    0.000   12.000    0.000    0.000    0.000    0.000 
#    0.000    0.000    0.000    0.000    0.000    0.000 
#
# Total GULP energy -111837.028130 kJ/mol
# GULP energy per Si atom -5591.851406 kJ/mol
# Density = 2.674508 g / cm^3
# Si number density = 26.806096 Si / 1000 Ang^3
#
#
#
# Elastic Constant Matrix: (Units=GPa)
#
#
# Indices 1 2 3 4 5 6 
#
# 1 88.1189 -4.3852 13.3224 0.0000 12.0794 0.0000
# 2 -4.3852 69.3283 18.7144 0.0000 10.1197 0.0000
# 3 13.3224 18.7144 183.3209 0.0000 2.7311 0.0000
# 4 0.0000 0.0000 0.0000 46.6372 0.0000 11.0303
# 5 12.0794 10.1197 2.7311 0.0000 42.9384 0.0000
# 6 0.0000 0.0000 0.0000 11.0303 0.0000 34.4428
#
#
#
# Elastic Compliance Matrix: (Units=1/GPa)
#
#
# Indices 1 2 3 4 5 6 
#
# 1 0.012083 0.001571 -0.000983 0.000000 -0.003707 0.000000
# 2 0.001571 0.015551 -0.001642 0.000000 -0.004002 0.000000
# 3 -0.000983 -0.001642 0.005690 0.000000 0.000302 0.000000
# 4 0.000000 0.000000 0.000000 0.023199 0.000000 -0.007430
# 5 -0.003707 -0.004002 0.000302 0.000000 0.025256 0.000000
# 6 0.000000 0.000000 0.000000 -0.007430 0.000000 0.031413
#
#
# Mechanical properties :
#
#
# Convention : Reuss Voigt Hill
#
# Bulk Modulus (GPa) = 32.03614 44.00792 38.02203
# Shear Modulus (GPa) = 39.77532 45.67811 42.72672
#
# Velocity S-wave (km/s) = 3.85621 4.13246 3.99672
# Velocity P-wave (km/s) = 5.63952 6.26278 5.95930
#
# Compressibility (1/GPa) = 0.03121475
#
# Stress axis : x y z
#
# Youngs Moduli (GPa) = 82.75903 64.30467 175.76217
#
# Poissons Ratio (x) = -0.10101 0.17282
# Poissons Ratio (y) = -0.13000 0.28861
# Poissons Ratio (z) = 0.08137 0.10559
#
# Static dielectric constant tensor:
#      x y z
#    x 2.360740 0.000000 -0.069870 
#    y 0.000000 2.356110 0.000000 
#    z -0.069870 0.000000 2.169700 
# 
# From -- ./inp_files/36961.got.cif
#   From: 2010.05.17/outbox.cif.g08.bks.cpg/sg14_19_cif.got.tgz:36961.got - 2010.06.03 17:49:19.
