data_PCOD9252782
_publ_section_title
;
Structure prediction by ZEFSAII (Michael W. Deem and Ramdas Pophale) SiO2 
 PCOD9252782
Probable space group: P 21/C
;
_chemical_formula_sum "Si O2"
_cell_formula_units_Z 32
_cell_length_a 11.954208
_cell_length_b 8.222695
_cell_length_c 14.294312
_cell_angle_alpha 90.000000
_cell_angle_beta 67.312572
_cell_angle_gamma 90.000000
_cell_volume 1296.350391
_symmetry_space_group_name_H-M "P 21/C"
_symmetry_group_IT_number 14
_symmetry_cell_setting 'monoclinic'
loop_
_space_group_symop_operation_xyz
x,y,z
-x,1/2+y,1/2-z
-x,-y,-z
x,1/2-y,1/2+z
loop_
_atom_site_type_symbol
_atom_site_label
_atom_site_fract_x
_atom_site_fract_y
_atom_site_fract_z
Si Si1 0.340586 0.087965 0.213803
Si Si2 0.556148 0.927489 0.619983
Si Si3 0.983207 0.666295 0.621835
Si Si4 0.408467 0.803035 0.918326
Si Si5 0.071495 0.972818 0.684328
Si Si6 0.747463 0.772149 0.427132
Si Si7 0.695321 0.241602 0.341899
Si Si8 0.196921 0.994435 0.945105
O O1 0.371234 0.129033 0.310939
O O2 0.472972 0.085633 0.120702
O O3 0.269453 0.218537 0.174515
O O4 0.285400 0.908870 0.220337
O O5 0.632562 0.869757 0.504880
O O6 0.423006 0.852931 0.656796
O O7 0.553633 0.122427 0.623657
O O8 0.000180 0.555711 0.708341
O O9 0.859591 0.608253 0.615119
O O10 0.991658 0.852106 0.648969
O O11 0.090238 0.623088 0.515609
O O12 0.310408 0.884768 0.882069
O O13 0.342562 0.788430 0.039364
O O14 0.183957 0.866864 0.689513
O O15 0.135079 0.114350 0.604254
O O16 0.762401 0.612562 0.484392
#
# Coordination Sequence:
#
# PCOD9252782 Si02
#       8
#     4   4   4   4   4   4   4   4
#     4  12  26  41  72 108 152 194 239 291 367 458
#     4  12  26  41  69 112 149 190 243 286 363 460
#     4  11  26  47  71 103 133 187 246 311 369 424
#     4  12  22  47  69 102 152 192 235 299 365 441
#     4  12  26  47  75  99 143 187 243 311 370 433
#     4  12  24  47  71 106 145 193 234 301 368 446
#     4  12  23  46  69 105 145 197 237 295 368 438
#     4  11  25  46  73 101 140 186 244 304 369 430
#
# _framework density 24.684683
#
# number of rings (size 3 to 8) (size 9 to 14) (size 15 to 20)
#    0.000    0.250    5.000    3.750    5.250    0.500 
#    0.000    0.000    0.000    0.000    0.000    0.000 
#    0.000    0.000    0.000    0.000    0.000    0.000 
#
# Total GULP energy -179549.591890 kJ/mol
# GULP energy per Si atom -5610.924747 kJ/mol
# Density = 2.462850 g / cm^3
# Si number density = 24.684683 Si / 1000 Ang^3
#
#
#
# Elastic Constant Matrix: (Units=GPa)
#
#
# Indices 1 2 3 4 5 6 
#
# 1 70.0391 41.4288 16.8760 0.0000 10.0305 0.0000
# 2 41.4288 123.2337 23.2251 0.0000 9.9883 0.0000
# 3 16.8760 23.2251 76.2208 0.0000 9.2272 0.0000
# 4 0.0000 0.0000 0.0000 29.9125 0.0000 -4.0188
# 5 10.0305 9.9883 9.2272 0.0000 35.4332 0.0000
# 6 0.0000 0.0000 0.0000 -4.0188 0.0000 51.9629
#
#
#
# Elastic Compliance Matrix: (Units=1/GPa)
#
#
# Indices 1 2 3 4 5 6 
#
# 1 0.018521 -0.005592 -0.002017 0.000000 -0.003142 0.000000
# 2 -0.005592 0.010410 -0.001828 0.000000 -0.000876 0.000000
# 3 -0.002017 -0.001828 0.014447 0.000000 -0.002676 0.000000
# 4 0.000000 0.000000 0.000000 0.033782 0.000000 0.002613
# 5 -0.003142 -0.000876 -0.002676 0.000000 0.030055 0.000000
# 6 0.000000 0.000000 0.000000 0.002613 0.000000 0.019447
#
#
# Mechanical properties :
#
#
# Convention : Reuss Voigt Hill
#
# Bulk Modulus (GPa) = 40.80677 48.06151 44.43414
# Shear Modulus (GPa) = 32.53025 35.99263 34.26144
#
# Velocity S-wave (km/s) = 3.63413 3.82264 3.72958
# Velocity P-wave (km/s) = 5.84605 6.24467 6.04865
#
# Compressibility (1/GPa) = 0.02450574
#
# Stress axis : x y z
#
# Youngs Moduli (GPa) = 53.99231 96.06168 69.21746
#
# Poissons Ratio (x) = 0.53716 0.13958
# Poissons Ratio (y) = 0.30191 0.12653
# Poissons Ratio (z) = 0.10888 0.17560
#
# Static dielectric constant tensor:
#      x y z
#    x 1.957760 0.000000 0.027230 
#    y 0.000000 1.906690 0.000000 
#    z 0.027230 0.000000 1.942780 
# 
# From -- ./inp_files/43674.got.cif
#   From: 2010.05.17/outbox.cif.g08.bks.cpg/sg14_22_cif.got.tgz:43674.got - 2010.06.03 17:49:19.
