data_PCOD9252966
_publ_section_title
;
Structure prediction by ZEFSAII (Michael W. Deem and Ramdas Pophale) SiO2 
 PCOD9252966
Probable space group: P 21/C
;
_chemical_formula_sum "Si O2"
_cell_formula_units_Z 28
_cell_length_a 5.372798
_cell_length_b 14.469387
_cell_length_c 13.728575
_cell_angle_alpha 90.000000
_cell_angle_beta 72.425116
_cell_angle_gamma 90.000000
_cell_volume 1017.457395
_symmetry_space_group_name_H-M "P 21/C"
_symmetry_group_IT_number 14
_symmetry_cell_setting 'monoclinic'
loop_
_space_group_symop_operation_xyz
x,y,z
-x,1/2+y,1/2-z
-x,-y,-z
x,1/2-y,1/2+z
loop_
_atom_site_type_symbol
_atom_site_label
_atom_site_fract_x
_atom_site_fract_y
_atom_site_fract_z
Si Si1 0.500000 0.000000 0.500000
Si Si2 0.936467 0.112414 0.559639
Si Si3 0.649275 0.220070 0.024264
Si Si4 0.706162 0.881701 0.808214
Si Si5 0.101216 0.114571 0.918288
Si Si6 0.127563 0.491888 0.215344
Si Si7 0.379438 0.309107 0.888756
Si Si8 0.500000 0.000000 0.000000
O O1 0.769687 0.061188 0.497330
O O2 0.395654 0.009175 0.625720
O O3 0.819406 0.215428 0.573656
O O4 0.939936 0.064776 0.663059
O O5 0.239217 0.121021 0.483588
O O6 0.378245 0.202498 0.111467
O O7 0.790877 0.121565 0.984571
O O8 0.610864 0.266287 0.924255
O O9 0.583270 0.855397 0.718843
O O10 0.003148 0.908059 0.751328
O O11 0.590337 0.971326 0.875262
O O12 0.137281 0.062671 0.814243
O O13 0.190973 0.220745 0.895185
O O14 0.735585 0.931294 0.015683
#
# Coordination Sequence:
#
# PCOD9252966 Si02
#       8
#     2   4   4   4   4   4   4   2
#     4  12  26  50  76 118 166 218 272 358 406 526
#     4  11  27  49  78 119 165 214 283 349 423 518
#     4  11  27  52  82 117 173 215 283 355 428 539
#     4  12  28  50  84 119 167 217 284 349 436 511
#     4  11  29  53  82 119 164 227 279 355 445 511
#     4  12  29  48  82 120 161 217 279 350 433 505
#     4  11  26  54  78 123 161 227 279 352 435 528
#     4  12  28  56  78 124 176 212 296 372 418 540
#
# _framework density 27.519577000000002
#
# number of rings (size 3 to 8) (size 9 to 14) (size 15 to 20)
#    0.000    0.571    2.857    2.143   10.000    2.286 
#    2.571    0.000    0.000    0.000    0.000    0.000 
#    0.000    0.000    0.000    0.000    0.000    0.000 
#
# Total GULP energy -156369.873445 kJ/mol
# GULP energy per Si atom -5584.638337 kJ/mol
# Density = 2.745694 g / cm^3
# Si number density = 27.519577 Si / 1000 Ang^3
#
#
#
# Elastic Constant Matrix: (Units=GPa)
#
#
# Indices 1 2 3 4 5 6 
#
# 1 138.9114 26.8659 65.4007 0.0000 12.5370 0.0000
# 2 26.8659 105.2394 69.5610 0.0000 13.3278 0.0000
# 3 65.4007 69.5610 190.8872 0.0000 16.6470 0.0000
# 4 0.0000 0.0000 0.0000 50.1070 0.0000 7.3468
# 5 12.5370 13.3278 16.6470 0.0000 57.0334 0.0000
# 6 0.0000 0.0000 0.0000 7.3468 0.0000 50.6420
#
#
#
# Elastic Compliance Matrix: (Units=1/GPa)
#
#
# Indices 1 2 3 4 5 6 
#
# 1 0.008650 -0.000235 -0.002788 0.000000 -0.001033 0.000000
# 2 -0.000235 0.012674 -0.004396 0.000000 -0.001627 0.000000
# 3 -0.002788 -0.004396 0.007853 0.000000 -0.000652 0.000000
# 4 0.000000 0.000000 0.000000 0.020391 0.000000 -0.002958
# 5 -0.001033 -0.001627 -0.000652 0.000000 0.018331 0.000000
# 6 0.000000 0.000000 0.000000 -0.002958 0.000000 0.020176
#
#
# Mechanical properties :
#
#
# Convention : Reuss Voigt Hill
#
# Bulk Modulus (GPa) = 69.73979 84.29923 77.01951
# Shear Modulus (GPa) = 46.42874 49.77051 48.09963
#
# Velocity S-wave (km/s) = 4.11191 4.25732 4.18524
# Velocity P-wave (km/s) = 6.92392 7.40711 7.16959
#
# Compressibility (1/GPa) = 0.01433902
#
# Stress axis : x y z
#
# Youngs Moduli (GPa) = 115.60597 78.90241 127.34289
#
# Poissons Ratio (x) = 0.01851 0.35504
# Poissons Ratio (y) = 0.02712 0.55983
# Poissons Ratio (z) = 0.32232 0.34687
#
# Static dielectric constant tensor:
#      x y z
#    x 1.878530 0.000000 -0.134180 
#    y 0.000000 1.779880 0.000000 
#    z -0.134180 0.000000 2.032360 
# 
# From -- ./inp_files/37652.got.cif
#   From: 2010.05.17/outbox.cif.g08.bks.cpg/sg14_19_cif.got.tgz:37652.got - 2010.06.03 17:49:19.
