data_PCOD9252051
_publ_section_title
;
Structure prediction by ZEFSAII (Michael W. Deem and Ramdas Pophale) SiO2 
 PCOD9252051
Probable space group: P 21/C
;
_chemical_formula_sum "Si O2"
_cell_formula_units_Z 28
_cell_length_a 14.759941
_cell_length_b 7.885087
_cell_length_c 12.666492
_cell_angle_alpha 90.000000
_cell_angle_beta 51.183949
_cell_angle_gamma 90.000000
_cell_volume 1148.617552
_symmetry_space_group_name_H-M "P 21/C"
_symmetry_group_IT_number 14
_symmetry_cell_setting 'monoclinic'
loop_
_space_group_symop_operation_xyz
x,y,z
-x,1/2+y,1/2-z
-x,-y,-z
x,1/2-y,1/2+z
loop_
_atom_site_type_symbol
_atom_site_label
_atom_site_fract_x
_atom_site_fract_y
_atom_site_fract_z
Si Si1 0.300642 0.029254 0.585294
Si Si2 0.047544 0.135897 0.691166
Si Si3 0.144213 0.165011 0.946920
Si Si4 0.620511 0.731522 0.288889
Si Si5 0.053611 0.688421 0.054584
Si Si6 0.269543 0.813618 0.799104
Si Si7 0.555556 0.080233 0.722863
O O1 0.302604 0.859229 0.655403
O O2 0.366108 0.997919 0.428619
O O3 0.164843 0.071887 0.664592
O O4 0.363973 0.176087 0.609150
O O5 0.091654 0.304653 0.599496
O O6 0.943340 0.196105 0.841657
O O7 0.019176 0.996119 0.623293
O O8 0.248296 0.294481 0.846671
O O9 0.041583 0.212063 0.943198
O O10 0.204445 0.985304 0.884168
O O11 0.560797 0.862137 0.250698
O O12 0.552515 0.556114 0.320155
O O13 0.169789 0.679312 0.901144
O O14 0.381475 0.747914 0.778751
#
# Coordination Sequence:
#
# PCOD9252051 Si02
#       7
#     4   4   4   4   4   4   4
#     4  11  24  47  68 104 146 184 240 298 354 429
#     4  12  24  43  69 105 141 192 233 293 360 421
#     4  11  23  42  66  99 140 182 236 294 350 423
#     4  11  23  45  73 100 140 185 237 295 355 425
#     4  12  24  42  68 100 143 187 235 296 354 426
#     4  11  24  44  69 103 141 187 237 295 357 425
#     4  12  25  49  74 105 144 191 237 301 364 421
#
# _framework density 24.377130999999999
#
# number of rings (size 3 to 8) (size 9 to 14) (size 15 to 20)
#    0.000    0.571    5.714    3.857    2.000    0.000 
#    2.571    1.429    0.000    0.000    0.000    0.000 
#    0.000    0.000    0.000    0.000    0.000    0.000 
#
# Total GULP energy -156549.438796 kJ/mol
# GULP energy per Si atom -5591.051386 kJ/mol
# Density = 2.432165 g / cm^3
# Si number density = 24.377131 Si / 1000 Ang^3
#
#
#
# Elastic Constant Matrix: (Units=GPa)
#
#
# Indices 1 2 3 4 5 6 
#
# 1 97.9241 16.7023 2.8676 0.0000 11.9379 0.0000
# 2 16.7023 118.6034 7.0065 0.0000 18.2003 0.0000
# 3 2.8676 7.0065 59.5437 0.0000 16.6867 0.0000
# 4 0.0000 0.0000 0.0000 29.7485 0.0000 -2.3078
# 5 11.9379 18.2003 16.6867 0.0000 30.9380 0.0000
# 6 0.0000 0.0000 0.0000 -2.3078 0.0000 30.3908
#
#
#
# Elastic Compliance Matrix: (Units=1/GPa)
#
#
# Indices 1 2 3 4 5 6 
#
# 1 0.010842 -0.000954 0.000713 0.000000 -0.004007 0.000000
# 2 -0.000954 0.009366 0.000453 0.000000 -0.005386 0.000000
# 3 0.000713 0.000453 0.019860 0.000000 -0.011254 0.000000
# 4 0.000000 0.000000 0.000000 0.033814 0.000000 0.002568
# 5 -0.004007 -0.005386 -0.011254 0.000000 0.043107 0.000000
# 6 0.000000 0.000000 0.000000 0.002568 0.000000 0.033100
#
#
# Mechanical properties :
#
#
# Convention : Reuss Voigt Hill
#
# Bulk Modulus (GPa) = 24.69575 36.58044 30.63809
# Shear Modulus (GPa) = 30.64426 34.84845 32.74635
#
# Velocity S-wave (km/s) = 3.54939 3.78505 3.66911
# Velocity P-wave (km/s) = 5.19137 5.84301 5.52680
#
# Compressibility (1/GPa) = 0.04049281
#
# Stress axis : x y z
#
# Youngs Moduli (GPa) = 92.23105 106.77433 50.35121
#
# Poissons Ratio (x) = 0.10187 -0.03590
# Poissons Ratio (y) = 0.08800 -0.02282
# Poissons Ratio (z) = -0.06576 -0.04840
#
# Static dielectric constant tensor:
#      x y z
#    x 1.943180 0.000000 0.001890 
#    y 0.000000 2.043450 0.000000 
#    z 0.001890 0.000000 1.945120 
# 
# From -- ./inp_files/31725.got.cif
#   From: 2010.05.17/outbox.cif.g08.bks.cpg/sg14_16_cif.got.tgz:31725.got - 2010.06.03 17:49:19.
