data_PCOD9252114
_publ_section_title
;
Structure prediction by ZEFSAII (Michael W. Deem and Ramdas Pophale) SiO2 
 PCOD9252114
Probable space group: P 21/C
;
_chemical_formula_sum "Si O2"
_cell_formula_units_Z 24
_cell_length_a 8.162128
_cell_length_b 8.566537
_cell_length_c 14.719155
_cell_angle_alpha 90.000000
_cell_angle_beta 106.691303
_cell_angle_gamma 90.000000
_cell_volume 985.817173
_symmetry_space_group_name_H-M "P 21/C"
_symmetry_group_IT_number 14
_symmetry_cell_setting 'monoclinic'
loop_
_space_group_symop_operation_xyz
x,y,z
-x,1/2+y,1/2-z
-x,-y,-z
x,1/2-y,1/2+z
loop_
_atom_site_type_symbol
_atom_site_label
_atom_site_fract_x
_atom_site_fract_y
_atom_site_fract_z
Si Si1 0.133863 0.122545 0.134003
Si Si2 0.870641 0.217168 0.943062
Si Si3 0.893280 0.153729 0.257229
Si Si4 0.629003 0.621518 0.738770
Si Si5 0.623951 0.118113 0.643731
Si Si6 0.503023 0.704848 0.053486
O O1 0.280024 0.235218 0.194866
O O2 0.028435 0.085071 0.208977
O O3 0.177190 0.962697 0.088640
O O4 0.007986 0.214177 0.045237
O O5 0.953467 0.287379 0.864895
O O6 0.695147 0.304741 0.943224
O O7 0.800466 0.295824 0.189912
O O8 0.750051 0.026523 0.256693
O O9 0.462150 0.594462 0.772513
O O10 0.586724 0.663955 0.628691
O O11 0.513449 0.225710 0.556794
O O12 0.610928 0.951089 0.592814
#
# Coordination Sequence:
#
# PCOD9252114 Si02
#       6
#     4   4   4   4   4   4
#     4  11  27  44  68 100 141 185 226 286 341 415
#     4  11  23  46  69  97 142 182 229 281 345 407
#     4  12  24  44  70 101 139 182 230 283 348 409
#     4  12  25  42  69 104 129 181 231 283 344 402
#     4  11  23  43  70 101 134 172 230 279 344 408
#     4  11  24  43  71 100 132 182 223 285 346 402
#
# _framework density 24.345282000000001
#
# number of rings (size 3 to 8) (size 9 to 14) (size 15 to 20)
#    0.000    0.667    5.000    2.000    2.333    5.333 
#    0.000    0.000    0.000    0.000    0.000    0.000 
#    0.000    0.000    0.000    0.000    0.000    0.000 
#
# Total GULP energy -134386.420519 kJ/mol
# GULP energy per Si atom -5599.434188 kJ/mol
# Density = 2.428987 g / cm^3
# Si number density = 24.345282 Si / 1000 Ang^3
#
#
#
# Elastic Constant Matrix: (Units=GPa)
#
#
# Indices 1 2 3 4 5 6 
#
# 1 37.6936 11.9976 4.2653 0.0000 -3.8017 0.0000
# 2 11.9976 59.5975 26.7695 0.0000 3.9404 0.0000
# 3 4.2653 26.7695 150.5505 0.0000 6.1483 0.0000
# 4 0.0000 0.0000 0.0000 22.7679 0.0000 -3.9109
# 5 -3.8017 3.9404 6.1483 0.0000 33.4234 0.0000
# 6 0.0000 0.0000 0.0000 -3.9109 0.0000 34.0664
#
#
#
# Elastic Compliance Matrix: (Units=1/GPa)
#
#
# Indices 1 2 3 4 5 6 
#
# 1 0.028869 -0.006124 0.000108 0.000000 0.003986 0.000000
# 2 -0.006124 0.019616 -0.003216 0.000000 -0.002418 0.000000
# 3 0.000108 -0.003216 0.007249 0.000000 -0.000942 0.000000
# 4 0.000000 0.000000 0.000000 0.044805 0.000000 0.005144
# 5 0.003986 -0.002418 -0.000942 0.000000 0.030831 0.000000
# 6 0.000000 0.000000 0.000000 0.005144 0.000000 0.029945
#
#
# Mechanical properties :
#
#
# Convention : Reuss Voigt Hill
#
# Bulk Modulus (GPa) = 26.82987 37.10070 31.96529
# Shear Modulus (GPa) = 26.01437 31.70549 28.85993
#
# Velocity S-wave (km/s) = 3.27243 3.61269 3.44676
# Velocity P-wave (km/s) = 5.03218 5.71616 5.38504
#
# Compressibility (1/GPa) = 0.03727190
#
# Stress axis : x y z
#
# Youngs Moduli (GPa) = 34.63975 50.97816 137.94057
#
# Poissons Ratio (x) = 0.31217 -0.01492
# Poissons Ratio (y) = 0.21212 0.44358
# Poissons Ratio (z) = -0.00375 0.16393
#
# Static dielectric constant tensor:
#      x y z
#    x 1.935910 0.000000 0.022550 
#    y 0.000000 1.940470 0.000000 
#    z 0.022550 0.000000 1.905470 
# 
# From -- ./inp_files/39071.got.cif
#   From: 2010.05.17/outbox.cif.g08.bks.cpg/sg14_20_cif.got.tgz:39071.got - 2010.06.03 17:49:19.
