data_PCOD9252874
_publ_section_title
;
Structure prediction by ZEFSAII (Michael W. Deem and Ramdas Pophale) SiO2 
 PCOD9252874
Probable space group: P 21/C
;
_chemical_formula_sum "Si O2"
_cell_formula_units_Z 24
_cell_length_a 24.067223
_cell_length_b 4.870117
_cell_length_c 21.763695
_cell_angle_alpha 90.000000
_cell_angle_beta 21.786320
_cell_angle_gamma 90.000000
_cell_volume 946.766657
_symmetry_space_group_name_H-M "P 21/C"
_symmetry_group_IT_number 14
_symmetry_cell_setting 'monoclinic'
loop_
_space_group_symop_operation_xyz
x,y,z
-x,1/2+y,1/2-z
-x,-y,-z
x,1/2-y,1/2+z
loop_
_atom_site_type_symbol
_atom_site_label
_atom_site_fract_x
_atom_site_fract_y
_atom_site_fract_z
Si Si1 0.389015 0.307535 0.149655
Si Si2 0.900340 0.638977 0.363381
Si Si3 0.584518 0.825061 0.633676
Si Si4 0.370804 0.450417 0.539337
Si Si5 0.959539 0.116810 0.609560
Si Si6 0.121329 0.882389 0.983449
O O1 0.337689 0.123244 0.145066
O O2 0.264880 0.512341 0.300883
O O3 0.500000 0.500000 0.000000
O O4 0.482106 0.141424 0.104902
O O5 0.752945 0.755443 0.482309
O O6 0.858471 0.490389 0.469228
O O7 0.987404 0.391949 0.240335
O O8 0.470072 0.620934 0.787047
O O9 0.587387 0.767515 0.557025
O O10 0.206943 0.570965 0.693021
O O11 0.081568 0.935214 0.521266
O O12 0.000000 0.000000 0.500000
O O13 0.989225 0.439539 0.587375
#
# Coordination Sequence:
#
# PCOD9252874 Si02
#       6
#     4   4   4   4   4   4
#     4  11  26  44  71 104 141 186 226 293 360 416
#     4  12  26  49  72 106 141 193 240 293 352 419
#     4  12  28  48  73 106 142 191 242 293 350 422
#     4  11  26  45  71 102 144 181 236 289 354 420
#     4  12  25  46  70 108 137 182 229 288 354 419
#     4  12  26  45  75 101 145 181 237 287 352 423
#
# _framework density 25.349436000000001
#
# number of rings (size 3 to 8) (size 9 to 14) (size 15 to 20)
#    0.000    0.333    1.667    6.500    9.333    0.000 
#    0.000    0.000    0.000    0.000    0.000    0.000 
#    0.000    0.000    0.000    0.000    0.000    0.000 
#
# Total GULP energy -134339.672639 kJ/mol
# GULP energy per Si atom -5597.486360 kJ/mol
# Density = 2.529174 g / cm^3
# Si number density = 25.349436 Si / 1000 Ang^3
#
#
#
# Elastic Constant Matrix: (Units=GPa)
#
#
# Indices 1 2 3 4 5 6 
#
# 1 88.4038 -0.4041 14.0513 0.0000 9.5383 0.0000
# 2 -0.4041 58.8727 -1.9700 0.0000 1.1269 0.0000
# 3 14.0513 -1.9700 115.8410 0.0000 -1.0454 0.0000
# 4 0.0000 0.0000 0.0000 1.2997 0.0000 -2.2051
# 5 9.5383 1.1269 -1.0454 0.0000 46.2871 0.0000
# 6 0.0000 0.0000 0.0000 -2.2051 0.0000 25.5206
#
#
#
# Elastic Compliance Matrix: (Units=1/GPa)
#
#
# Indices 1 2 3 4 5 6 
#
# 1 0.011809 0.000080 -0.001453 0.000000 -0.002468 0.000000
# 2 0.000080 0.017004 0.000276 0.000000 -0.000424 0.000000
# 3 -0.001453 0.000276 0.008818 0.000000 0.000492 0.000000
# 4 0.000000 0.000000 0.000000 0.901604 0.000000 0.077901
# 5 -0.002468 -0.000424 0.000492 0.000000 0.022134 0.000000
# 6 0.000000 0.000000 0.000000 0.077901 0.000000 0.045915
#
#
# Mechanical properties :
#
#
# Convention : Reuss Voigt Hill
#
# Bulk Modulus (GPa) = 28.22068 31.83021 30.02544
# Shear Modulus (GPa) = 4.89576 31.38417 18.13997
#
# Velocity S-wave (km/s) = 1.39122 3.52243 2.67797
# Velocity P-wave (km/s) = 3.70641 5.39696 4.62951
#
# Compressibility (1/GPa) = 0.03543500
#
# Stress axis : x y z
#
# Youngs Moduli (GPa) = 84.67821 58.81072 113.40519
#
# Poissons Ratio (x) = -0.00469 0.16482
# Poissons Ratio (y) = -0.00675 -0.03126
# Poissons Ratio (z) = 0.12307 -0.01621
#
# Static dielectric constant tensor:
#      x y z
#    x 1.925060 0.000000 -0.050680 
#    y 0.000000 2.456720 0.000000 
#    z -0.050680 0.000000 1.295470 
# 
# From -- ./inp_files/75086.got.cif
#   From: 2010.05.17/outbox.cif.g08.bks.cpg/sg14_38_cif.got.tgz:75086.got - 2010.06.03 17:49:19.
