data_PCOD9252178
_publ_section_title
;
Structure prediction by ZEFSAII (Michael W. Deem and Ramdas Pophale) SiO2 
 PCOD9252178
Probable space group: P 21/C
;
_chemical_formula_sum "Si O2"
_cell_formula_units_Z 26
_cell_length_a 10.497080
_cell_length_b 10.959045
_cell_length_c 16.392510
_cell_angle_alpha 90.000000
_cell_angle_beta 147.612724
_cell_angle_gamma 90.000000
_cell_volume 1010.087717
_symmetry_space_group_name_H-M "P 21/C"
_symmetry_group_IT_number 14
_symmetry_cell_setting 'monoclinic'
loop_
_space_group_symop_operation_xyz
x,y,z
-x,1/2+y,1/2-z
-x,-y,-z
x,1/2-y,1/2+z
loop_
_atom_site_type_symbol
_atom_site_label
_atom_site_fract_x
_atom_site_fract_y
_atom_site_fract_z
Si Si1 0.723637 0.143861 0.757140
Si Si2 0.722383 0.743652 0.671863
Si Si3 0.178581 0.844896 0.365715
Si Si4 0.766550 0.970120 0.464029
Si Si5 0.500000 0.500000 0.500000
Si Si6 0.138705 0.220495 0.067464
Si Si7 0.448301 0.592573 0.301637
O O1 0.852125 0.108002 0.743137
O O2 0.498843 0.060448 0.649246
O O3 0.639435 0.283851 0.702268
O O4 0.888623 0.152164 0.925680
O O5 0.464747 0.813791 0.525821
O O6 0.665272 0.621482 0.591274
O O7 0.779596 0.742575 0.798895
O O8 0.992359 0.767711 0.780284
O O9 0.125586 0.946170 0.406710
O O10 0.866798 0.837354 0.495955
O O11 0.741553 0.043023 0.366225
O O12 0.501824 0.496958 0.400205
O O13 0.330331 0.131421 0.132434
#
# Coordination Sequence:
#
# PCOD9252178 Si02
#       7
#     4   4   4   4   2   4   4
#     4  11  26  46  73 111 155 197 263 331 393 472
#     4  12  27  48  81 112 159 203 271 324 397 472
#     4  12  27  51  76 119 153 213 260 332 393 478
#     4  11  25  46  78 108 153 205 262 322 404 470
#     4  12  24  46  72 116 150 210 256 330 394 478
#     4  11  25  46  74 109 153 206 259 336 383 482
#     4  11  23  44  71 107 147 197 263 312 397 467
#
# _framework density 25.740338000000001
#
# number of rings (size 3 to 8) (size 9 to 14) (size 15 to 20)
#    0.000    0.615    4.615    2.308    6.462    1.846 
#    5.538    0.000    0.000    0.000    0.000    0.000 
#    0.000    0.000    0.000    0.000    0.000    0.000 
#
# Total GULP energy -144855.500861 kJ/mol
# GULP energy per Si atom -5571.365418 kJ/mol
# Density = 2.568175 g / cm^3
# Si number density = 25.740338 Si / 1000 Ang^3
#
#
#
# Elastic Constant Matrix: (Units=GPa)
#
#
# Indices 1 2 3 4 5 6 
#
# 1 102.7757 15.6488 24.1451 0.0000 -13.6757 0.0000
# 2 15.6488 46.2784 28.4361 0.0000 4.8156 0.0000
# 3 24.1451 28.4361 124.7446 0.0000 -9.2609 0.0000
# 4 0.0000 0.0000 0.0000 42.6721 0.0000 3.5714
# 5 -13.6757 4.8156 -9.2609 0.0000 56.2846 0.0000
# 6 0.0000 0.0000 0.0000 3.5714 0.0000 13.1397
#
#
#
# Elastic Compliance Matrix: (Units=1/GPa)
#
#
# Indices 1 2 3 4 5 6 
#
# 1 0.010859 -0.003242 -0.001160 0.000000 0.002725 0.000000
# 2 -0.003242 0.026653 -0.005746 0.000000 -0.004014 0.000000
# 3 -0.001160 -0.005746 0.009685 0.000000 0.001803 0.000000
# 4 0.000000 0.000000 0.000000 0.023980 0.000000 -0.006518
# 5 0.002725 -0.004014 0.001803 0.000000 0.019069 0.000000
# 6 0.000000 0.000000 0.000000 -0.006518 0.000000 0.077876
#
#
# Mechanical properties :
#
#
# Convention : Reuss Voigt Hill
#
# Bulk Modulus (GPa) = 37.17625 45.58432 41.38029
# Shear Modulus (GPa) = 25.33105 36.12385 30.72745
#
# Velocity S-wave (km/s) = 3.14044 3.75026 3.45881
# Velocity P-wave (km/s) = 5.25585 6.04155 5.66234
#
# Compressibility (1/GPa) = 0.02689889
#
# Stress axis : x y z
#
# Youngs Moduli (GPa) = 92.09104 37.51906 103.25569
#
# Poissons Ratio (x) = 0.12165 0.11982
# Poissons Ratio (y) = 0.29860 0.59332
# Poissons Ratio (z) = 0.10686 0.21559
#
# Static dielectric constant tensor:
#      x y z
#    x 1.990200 0.000000 0.140020 
#    y 0.000000 2.034060 0.000000 
#    z 0.140020 0.000000 2.008290 
# 
# From -- ./inp_files/57763.got.cif
#   From: 2010.05.17/outbox.cif.g08.bks.cpg/sg14_29_cif.got.tgz:57763.got - 2010.06.03 17:49:19.
