data_PCOD9252747
_publ_section_title
;
Structure prediction by ZEFSAII (Michael W. Deem and Ramdas Pophale) SiO2 
 PCOD9252747
Probable space group: P 21/C
;
_chemical_formula_sum "Si O2"
_cell_formula_units_Z 16
_cell_length_a 7.380437
_cell_length_b 10.168308
_cell_length_c 9.180180
_cell_angle_alpha 90.000000
_cell_angle_beta 118.533655
_cell_angle_gamma 90.000000
_cell_volume 605.259851
_symmetry_space_group_name_H-M "P 21/C"
_symmetry_group_IT_number 14
_symmetry_cell_setting 'monoclinic'
loop_
_space_group_symop_operation_xyz
x,y,z
-x,1/2+y,1/2-z
-x,-y,-z
x,1/2-y,1/2+z
loop_
_atom_site_type_symbol
_atom_site_label
_atom_site_fract_x
_atom_site_fract_y
_atom_site_fract_z
Si Si1 0.701624 0.948721 0.386077
Si Si2 0.101001 0.165062 0.015812
Si Si3 0.224789 0.928579 0.899389
Si Si4 0.722038 0.352097 0.146638
O O1 0.808929 0.807752 0.430183
O O2 0.466138 0.914798 0.337247
O O3 0.742272 0.017959 0.248822
O O4 0.778145 0.048752 0.539283
O O5 0.002408 0.114008 0.128872
O O6 0.912409 0.172265 0.828095
O O7 0.259139 0.056353 0.014500
O O8 0.340208 0.788241 0.949564
#
# Coordination Sequence:
#
# PCOD9252747 Si02
#       4
#     4   4   4   4
#     4  11  27  48  72 107 146 187 240 298 358 426
#     4  11  25  45  73 105 142 190 240 294 358 426
#     4  11  25  45  72 103 144 188 238 294 356 422
#     4  11  25  46  73 104 142 188 240 299 358 424
#
# _framework density 26.434926999999998
#
# number of rings (size 3 to 8) (size 9 to 14) (size 15 to 20)
#    0.000    1.000    0.000    4.500    0.000   19.000 
#    0.000    0.000    0.000    1.500    0.000    0.000 
#    0.000    0.000    0.000    0.000    0.000    0.000 
#
# Total GULP energy -89792.285070 kJ/mol
# GULP energy per Si atom -5612.017817 kJ/mol
# Density = 2.637476 g / cm^3
# Si number density = 26.434927 Si / 1000 Ang^3
#
#
#
# Elastic Constant Matrix: (Units=GPa)
#
#
# Indices 1 2 3 4 5 6 
#
# 1 112.7634 57.7536 75.8793 0.0000 -48.8422 0.0000
# 2 57.7536 245.7287 67.5353 0.0000 -41.8790 0.0000
# 3 75.8793 67.5353 95.0908 0.0000 -41.2901 0.0000
# 4 0.0000 0.0000 0.0000 49.9415 0.0000 -16.0271
# 5 -48.8422 -41.8790 -41.2901 0.0000 59.1696 0.0000
# 6 0.0000 0.0000 0.0000 -16.0271 0.0000 72.3350
#
#
#
# Elastic Compliance Matrix: (Units=1/GPa)
#
#
# Indices 1 2 3 4 5 6 
#
# 1 0.021700 0.000109 -0.013747 0.000000 0.008396 0.000000
# 2 0.000109 0.005157 -0.003050 0.000000 0.001612 0.000000
# 3 -0.013747 -0.003050 0.025520 0.000000 0.004302 0.000000
# 4 0.000000 0.000000 0.000000 0.021556 0.000000 0.004776
# 5 0.008396 0.001612 0.004302 0.000000 0.027974 0.000000
# 6 0.000000 0.000000 0.000000 0.004776 0.000000 0.014883
#
#
# Mechanical properties :
#
#
# Convention : Reuss Voigt Hill
#
# Bulk Modulus (GPa) = 52.62886 95.10213 73.86550
# Shear Modulus (GPa) = 31.94904 53.11685 42.53295
#
# Velocity S-wave (km/s) = 3.48025 4.48743 4.01555
# Velocity P-wave (km/s) = 6.00846 7.93117 7.03580
#
# Compressibility (1/GPa) = 0.01900098
#
# Stress axis : x y z
#
# Youngs Moduli (GPa) = 46.08374 193.92167 39.18464
#
# Poissons Ratio (x) = -0.02117 0.53868
# Poissons Ratio (y) = -0.00503 0.11950
# Poissons Ratio (z) = 0.63353 0.59139
#
# Static dielectric constant tensor:
#      x y z
#    x 2.074150 0.000000 0.074650 
#    y 0.000000 2.049580 0.000000 
#    z 0.074650 0.000000 2.098560 
# 
# From -- ./inp_files/7738.got.cif
#   From: 2010.05.17/outbox.cif.g08.bks.cpg/sg14_4_cif.got.tgz:7738.got - 2010.06.03 17:49:19.
