data_PCOD9252547
_publ_section_title
;
Structure prediction by ZEFSAII (Michael W. Deem and Ramdas Pophale) SiO2 
 PCOD9252547
Probable space group: P 21/C
;
_chemical_formula_sum "Si O2"
_cell_formula_units_Z 32
_cell_length_a 12.012602
_cell_length_b 5.504794
_cell_length_c 18.126146
_cell_angle_alpha 90.000000
_cell_angle_beta 92.651817
_cell_angle_gamma 90.000000
_cell_volume 1197.342268
_symmetry_space_group_name_H-M "P 21/C"
_symmetry_group_IT_number 14
_symmetry_cell_setting 'monoclinic'
loop_
_space_group_symop_operation_xyz
x,y,z
-x,1/2+y,1/2-z
-x,-y,-z
x,1/2-y,1/2+z
loop_
_atom_site_type_symbol
_atom_site_label
_atom_site_fract_x
_atom_site_fract_y
_atom_site_fract_z
Si Si1 0.915656 0.154039 0.811570
Si Si2 0.713414 0.180135 0.389171
Si Si3 0.562663 0.355144 0.269338
Si Si4 0.452702 0.191473 0.556374
Si Si5 0.102925 0.485674 0.856861
Si Si6 0.258839 0.454781 0.483638
Si Si7 0.689118 0.239574 0.637939
Si Si8 0.059133 0.191898 0.057281
O O1 0.823689 0.338285 0.842500
O O2 0.908122 0.121543 0.723721
O O3 0.898446 0.920716 0.863458
O O4 0.039366 0.239126 0.836990
O O5 0.620446 0.363834 0.350937
O O6 0.752203 0.300944 0.466859
O O7 0.640704 0.939366 0.396244
O O8 0.521103 0.621605 0.240799
O O9 0.666266 0.267196 0.223013
O O10 0.383729 0.374823 0.504376
O O11 0.562873 0.252212 0.605049
O O12 0.500000 0.000000 0.500000
O O13 0.233941 0.507892 0.877677
O O14 0.029872 0.610625 0.919148
O O15 0.247807 0.540300 0.399472
O O16 0.170543 0.263466 0.513099
O O17 0.000000 0.000000 0.000000
#
# Coordination Sequence:
#
# PCOD9252547 Si02
#       8
#     4   4   4   4   4   4   4   4
#     4  11  25  45  71  99 139 191 237 302 374 444
#     4  11  24  46  66  99 140 188 242 289 374 444
#     4  12  27  47  73 108 152 194 247 309 374 447
#     4  12  25  43  69 102 134 189 236 296 375 442
#     4  12  24  47  68 104 142 184 246 299 376 443
#     4  11  25  45  71  98 143 186 235 304 372 446
#     4  12  25  45  68 107 142 184 244 308 364 450
#     4  11  24  46  73 103 138 185 243 301 367 441
#
# _framework density 26.725857999999999
#
# number of rings (size 3 to 8) (size 9 to 14) (size 15 to 20)
#    0.000    0.500    6.250    1.875    1.750    1.500 
#    4.500    0.000    0.000    0.000    0.000    0.000 
#    0.000    0.000    0.000    0.000    0.000    0.000 
#
# Total GULP energy -178935.521552 kJ/mol
# GULP energy per Si atom -5591.735048 kJ/mol
# Density = 2.666503 g / cm^3
# Si number density = 26.725858 Si / 1000 Ang^3
#
#
#
# Elastic Constant Matrix: (Units=GPa)
#
#
# Indices 1 2 3 4 5 6 
#
# 1 163.9445 30.1554 26.5271 0.0000 -2.0168 0.0000
# 2 30.1554 70.7292 23.1830 0.0000 -3.1142 0.0000
# 3 26.5271 23.1830 97.0938 0.0000 -22.6796 0.0000
# 4 0.0000 0.0000 0.0000 35.4030 0.0000 3.7789
# 5 -2.0168 -3.1142 -22.6796 0.0000 43.9794 0.0000
# 6 0.0000 0.0000 0.0000 3.7789 0.0000 49.2359
#
#
#
# Elastic Compliance Matrix: (Units=1/GPa)
#
#
# Indices 1 2 3 4 5 6 
#
# 1 0.006770 -0.002453 -0.001401 0.000000 -0.000586 0.000000
# 2 -0.002453 0.016260 -0.003376 0.000000 -0.000702 0.000000
# 3 -0.001401 -0.003376 0.012981 0.000000 0.006391 0.000000
# 4 0.000000 0.000000 0.000000 0.028480 0.000000 -0.002186
# 5 -0.000586 -0.000702 0.006391 0.000000 0.025957 0.000000
# 6 0.000000 0.000000 0.000000 -0.002186 0.000000 0.020478
#
#
# Mechanical properties :
#
#
# Convention : Reuss Voigt Hill
#
# Bulk Modulus (GPa) = 46.40143 54.61093 50.50618
# Shear Modulus (GPa) = 37.71596 42.51713 40.11654
#
# Velocity S-wave (km/s) = 3.76069 3.99289 3.87853
# Velocity P-wave (km/s) = 6.02136 6.46031 6.24469
#
# Compressibility (1/GPa) = 0.02155106
#
# Stress axis : x y z
#
# Youngs Moduli (GPa) = 147.70396 61.50048 77.03598
#
# Poissons Ratio (x) = 0.15087 0.10791
# Poissons Ratio (y) = 0.36234 0.26009
# Poissons Ratio (z) = 0.20690 0.20764
#
# Static dielectric constant tensor:
#      x y z
#    x 2.159640 0.000000 0.105740 
#    y 0.000000 2.163170 0.000000 
#    z 0.105740 0.000000 2.225430 
# 
# From -- ./inp_files/66499.got.cif
#   From: 2010.05.17/outbox.cif.g08.bks.cpg/sg14_34_cif.got.tgz:66499.got - 2010.06.03 17:49:19.
