data_PCOD9252809
_publ_section_title
;
Structure prediction by ZEFSAII (Michael W. Deem and Ramdas Pophale) SiO2 
 PCOD9252809
Probable space group: P 21/C
;
_chemical_formula_sum "Si O2"
_cell_formula_units_Z 28
_cell_length_a 19.597707
_cell_length_b 8.177666
_cell_length_c 15.558861
_cell_angle_alpha 90.000000
_cell_angle_beta 28.119591
_cell_angle_gamma 90.000000
_cell_volume 1175.228429
_symmetry_space_group_name_H-M "P 21/C"
_symmetry_group_IT_number 14
_symmetry_cell_setting 'monoclinic'
loop_
_space_group_symop_operation_xyz
x,y,z
-x,1/2+y,1/2-z
-x,-y,-z
x,1/2-y,1/2+z
loop_
_atom_site_type_symbol
_atom_site_label
_atom_site_fract_x
_atom_site_fract_y
_atom_site_fract_z
Si Si1 0.687081 0.849443 0.408380
Si Si2 0.201596 0.176326 0.048452
Si Si3 0.104081 0.650120 0.033778
Si Si4 0.154740 0.682861 0.305487
Si Si5 0.422757 0.821532 0.251632
Si Si6 0.359223 0.605932 0.471559
Si Si7 0.861286 0.714162 0.063139
O O1 0.735874 0.804169 0.451076
O O2 0.515658 0.815927 0.597829
O O3 0.748343 0.023580 0.313860
O O4 0.765216 0.726771 0.255278
O O5 0.225571 0.222608 0.923427
O O6 0.029166 0.175816 0.254867
O O7 0.268494 0.003684 0.003968
O O8 0.104698 0.783207 0.957726
O O9 0.259602 0.658454 0.904578
O O10 0.089517 0.470810 0.008520
O O11 0.006915 0.680444 0.415400
O O12 0.253633 0.832538 0.162919
O O13 0.419484 0.762606 0.353959
O O14 0.512713 0.987735 0.140804
#
# Coordination Sequence:
#
# PCOD9252809 Si02
#       7
#     4   4   4   4   4   4   4
#     4  11  27  49  69 109 145 191 238 301 361 437
#     4  11  26  45  77 103 140 187 243 294 363 427
#     4  12  26  45  72 107 143 187 244 299 360 428
#     4  12  25  45  77 102 149 186 245 303 356 426
#     4  11  27  46  71 105 148 185 242 295 367 435
#     4  11  25  47  71 102 143 192 235 296 361 434
#     4  12  26  44  76 106 143 189 246 301 360 427
#
# _framework density 23.825156
#
# number of rings (size 3 to 8) (size 9 to 14) (size 15 to 20)
#    0.000    0.571    2.857    4.286   10.000    2.857 
#    0.000    0.000    0.000    0.000    0.000    0.000 
#    0.000    0.000    0.000    0.000    0.000    0.000 
#
# Total GULP energy -156948.100902 kJ/mol
# GULP energy per Si atom -5605.289318 kJ/mol
# Density = 2.377093 g / cm^3
# Si number density = 23.825156 Si / 1000 Ang^3
#
#
#
# Elastic Constant Matrix: (Units=GPa)
#
#
# Indices 1 2 3 4 5 6 
#
# 1 79.7874 0.6450 15.8374 0.0000 -9.9430 0.0000
# 2 0.6450 66.3332 -4.3080 0.0000 -7.5762 0.0000
# 3 15.8374 -4.3080 87.1367 0.0000 -20.9933 0.0000
# 4 0.0000 0.0000 0.0000 45.1595 0.0000 -3.4831
# 5 -9.9430 -7.5762 -20.9933 0.0000 40.3411 0.0000
# 6 0.0000 0.0000 0.0000 -3.4831 0.0000 12.7339
#
#
#
# Elastic Compliance Matrix: (Units=1/GPa)
#
#
# Indices 1 2 3 4 5 6 
#
# 1 0.013185 0.000014 -0.001843 0.000000 0.002293 0.000000
# 2 0.000014 0.015621 0.001689 0.000000 0.003816 0.000000
# 3 -0.001843 0.001689 0.013562 0.000000 0.006921 0.000000
# 4 0.000000 0.000000 0.000000 0.022621 0.000000 0.006187
# 5 0.002293 0.003816 0.006921 0.000000 0.029672 0.000000
# 6 0.000000 0.000000 0.000000 0.006187 0.000000 0.080223
#
#
# Mechanical properties :
#
#
# Convention : Reuss Voigt Hill
#
# Bulk Modulus (GPa) = 23.76000 28.62290 26.19145
# Shear Modulus (GPa) = 26.42809 34.38577 30.40693
#
# Velocity S-wave (km/s) = 3.33416 3.80314 3.57634
# Velocity P-wave (km/s) = 4.98161 5.59687 5.29818
#
# Compressibility (1/GPa) = 0.04208753
#
# Stress axis : x y z
#
# Youngs Moduli (GPa) = 75.84478 64.01710 73.73505
#
# Poissons Ratio (x) = -0.00090 0.13591
# Poissons Ratio (y) = -0.00106 -0.12455
# Poissons Ratio (z) = 0.13980 -0.10813
#
# Static dielectric constant tensor:
#      x y z
#    x 1.905390 0.000000 -0.021970 
#    y 0.000000 1.935260 0.000000 
#    z -0.021970 0.000000 1.868500 
# 
# From -- ./inp_files/50214.got.cif
#   From: 2010.05.17/outbox.cif.g08.bks.cpg/sg14_26_cif.got.tgz:50214.got - 2010.06.03 17:49:19.
