data_PCOD9252500
_publ_section_title
;
Structure prediction by ZEFSAII (Michael W. Deem and Ramdas Pophale) SiO2 
 PCOD9252500
Probable space group: P 21/C
;
_chemical_formula_sum "Si O2"
_cell_formula_units_Z 24
_cell_length_a 14.134059
_cell_length_b 5.151212
_cell_length_c 19.950444
_cell_angle_alpha 90.000000
_cell_angle_beta 39.342894
_cell_angle_gamma 90.000000
_cell_volume 920.853965
_symmetry_space_group_name_H-M "P 21/C"
_symmetry_group_IT_number 14
_symmetry_cell_setting 'monoclinic'
loop_
_space_group_symop_operation_xyz
x,y,z
-x,1/2+y,1/2-z
-x,-y,-z
x,1/2-y,1/2+z
loop_
_atom_site_type_symbol
_atom_site_label
_atom_site_fract_x
_atom_site_fract_y
_atom_site_fract_z
Si Si1 0.681203 0.640752 0.336449
Si Si2 0.139287 0.328948 0.518261
Si Si3 0.092347 0.160189 0.681133
Si Si4 0.203271 0.631069 0.305527
Si Si5 0.413591 0.838625 0.905454
Si Si6 0.658992 0.482493 0.165812
O O1 0.761561 0.739502 0.359413
O O2 0.750838 0.371105 0.270199
O O3 0.501211 0.635860 0.427089
O O4 0.720932 0.871751 0.262655
O O5 0.118437 0.116067 0.588628
O O6 0.252318 0.532342 0.490254
O O7 0.972852 0.419450 0.595510
O O8 0.216850 0.200573 0.411844
O O9 0.975029 0.397582 0.751893
O O10 0.258509 0.736949 0.346850
O O11 0.521637 0.971383 0.790516
O O12 0.399350 0.559747 0.877881
#
# Coordination Sequence:
#
# PCOD9252500 Si02
#       6
#     4   4   4   4   4   4
#     4  11  24  48  72 104 144 195 232 299 360 418
#     4  12  26  43  74 109 137 198 239 294 359 424
#     4  12  25  49  74 104 143 185 245 306 347 418
#     4  11  25  44  76 103 144 188 245 292 354 425
#     4  11  25  43  71 100 154 184 238 291 370 426
#     4  11  24  45  67 106 148 192 231 300 356 434
#
# _framework density 26.062763
#
# number of rings (size 3 to 8) (size 9 to 14) (size 15 to 20)
#    0.000    0.667    5.000    1.500    9.333    1.333 
#    0.000    0.833    0.000    0.000    0.000    0.000 
#    0.000    0.000    0.000    0.000    0.000    0.000 
#
# Total GULP energy -134375.022993 kJ/mol
# GULP energy per Si atom -5598.959291 kJ/mol
# Density = 2.600344 g / cm^3
# Si number density = 26.062763 Si / 1000 Ang^3
#
#
#
# Elastic Constant Matrix: (Units=GPa)
#
#
# Indices 1 2 3 4 5 6 
#
# 1 131.2720 -6.2021 8.1239 0.0000 -22.0844 0.0000
# 2 -6.2021 122.5459 20.8904 0.0000 -10.1835 0.0000
# 3 8.1239 20.8904 49.2756 0.0000 -20.4028 0.0000
# 4 0.0000 0.0000 0.0000 38.7045 0.0000 1.1932
# 5 -22.0844 -10.1835 -20.4028 0.0000 59.2174 0.0000
# 6 0.0000 0.0000 0.0000 1.1932 0.0000 39.0729
#
#
#
# Elastic Compliance Matrix: (Units=1/GPa)
#
#
# Indices 1 2 3 4 5 6 
#
# 1 0.008189 0.000736 -0.000403 0.000000 0.003042 0.000000
# 2 0.000736 0.008866 -0.003657 0.000000 0.000539 0.000000
# 3 -0.000403 -0.003657 0.025180 0.000000 0.007897 0.000000
# 4 0.000000 0.000000 0.000000 0.025861 0.000000 -0.000790
# 5 0.003042 0.000539 0.007897 0.000000 0.020835 0.000000
# 6 0.000000 0.000000 0.000000 -0.000790 0.000000 0.025617
#
#
# Mechanical properties :
#
#
# Convention : Reuss Voigt Hill
#
# Bulk Modulus (GPa) = 28.09906 38.74645 33.42275
# Shear Modulus (GPa) = 37.57761 46.08437 41.83099
#
# Velocity S-wave (km/s) = 3.80124 4.20957 4.01060
# Velocity P-wave (km/s) = 5.48367 6.20694 5.85648
#
# Compressibility (1/GPa) = 0.03558838
#
# Stress axis : x y z
#
# Youngs Moduli (GPa) = 122.11201 112.79542 39.71356
#
# Poissons Ratio (x) = -0.08300 0.01599
# Poissons Ratio (y) = -0.08986 0.14522
# Poissons Ratio (z) = 0.04916 0.41245
#
# Static dielectric constant tensor:
#      x y z
#    x 2.108280 0.000000 0.019760 
#    y 0.000000 2.065340 0.000000 
#    z 0.019760 0.000000 2.028020 
# 
# From -- ./inp_files/67807.got.cif
#   From: 2010.05.17/outbox.cif.g08.bks.cpg/sg14_34_cif.got.tgz:67807.got - 2010.06.03 17:49:19.
