data_PCOD9252730
_publ_section_title
;
Structure prediction by ZEFSAII (Michael W. Deem and Ramdas Pophale) SiO2 
 PCOD9252730
Probable space group: P 21/C
;
_chemical_formula_sum "Si O2"
_cell_formula_units_Z 20
_cell_length_a 7.270641
_cell_length_b 6.845364
_cell_length_c 21.685696
_cell_angle_alpha 90.000000
_cell_angle_beta 98.667803
_cell_angle_gamma 90.000000
_cell_volume 1066.974095
_symmetry_space_group_name_H-M "P 21/C"
_symmetry_group_IT_number 14
_symmetry_cell_setting 'monoclinic'
loop_
_space_group_symop_operation_xyz
x,y,z
-x,1/2+y,1/2-z
-x,-y,-z
x,1/2-y,1/2+z
loop_
_atom_site_type_symbol
_atom_site_label
_atom_site_fract_x
_atom_site_fract_y
_atom_site_fract_z
Si Si1 0.349829 0.185016 0.665574
Si Si2 0.693546 0.523930 0.974454
Si Si3 0.063213 0.530715 0.677256
Si Si4 0.725515 0.141156 0.235765
Si Si5 0.986580 0.197928 0.960405
O O1 0.543076 0.292262 0.690110
O O2 0.184681 0.339114 0.668752
O O3 0.341025 0.108466 0.595534
O O4 0.328411 0.006024 0.711973
O O5 0.807093 0.322200 0.972493
O O6 0.500000 0.500000 0.000000
O O7 0.832779 0.670149 0.017001
O O8 0.871319 0.466022 0.698751
O O9 0.029584 0.645553 0.612129
O O10 0.175122 0.670567 0.729388
O O11 0.000000 0.000000 0.000000
#
# Coordination Sequence:
#
# PCOD9252730 Si02
#       5
#     4   4   4   4   4
#     4  12  25  44  66 103 138 171 224 284 324 403
#     4  11  27  44  69 101 136 174 229 277 331 394
#     4  12  25  44  69 100 138 174 225 276 337 397
#     4  12  26  42  71 100 134 178 221 274 342 394
#     4  11  25  45  69  99 137 178 220 278 332 395
#
# _framework density 18.744596000000001
#
# number of rings (size 3 to 8) (size 9 to 14) (size 15 to 20)
#    0.000    0.400    8.000    0.000    2.800    5.600 
#    0.000    0.000    0.000    0.000    0.000    0.000 
#    0.000    0.000    0.000    0.000    0.000    0.000 
#
# Total GULP energy -111918.612106 kJ/mol
# GULP energy per Si atom -5595.930605 kJ/mol
# Density = 1.870193 g / cm^3
# Si number density = 18.744596 Si / 1000 Ang^3
#
#
#
# Elastic Constant Matrix: (Units=GPa)
#
#
# Indices 1 2 3 4 5 6 
#
# 1 148.8550 42.9002 43.4957 0.0000 -1.3804 0.0000
# 2 42.9002 90.4962 25.5536 0.0000 0.7201 0.0000
# 3 43.4957 25.5536 75.1483 0.0000 11.1395 0.0000
# 4 0.0000 0.0000 0.0000 48.9691 0.0000 3.5340
# 5 -1.3804 0.7201 11.1395 0.0000 24.8153 0.0000
# 6 0.0000 0.0000 0.0000 3.5340 0.0000 31.4467
#
#
#
# Elastic Compliance Matrix: (Units=1/GPa)
#
#
# Indices 1 2 3 4 5 6 
#
# 1 0.008926 -0.002969 -0.004546 0.000000 0.002623 0.000000
# 2 -0.002969 0.013272 -0.002907 0.000000 0.000755 0.000000
# 3 -0.004546 -0.002907 0.018160 0.000000 -0.008320 0.000000
# 4 0.000000 0.000000 0.000000 0.020588 0.000000 -0.002314
# 5 0.002623 0.000755 -0.008320 0.000000 0.044157 0.000000
# 6 0.000000 0.000000 0.000000 -0.002314 0.000000 0.032060
#
#
# Mechanical properties :
#
#
# Convention : Reuss Voigt Hill
#
# Bulk Modulus (GPa) = 51.24034 59.82207 55.53121
# Shear Modulus (GPa) = 30.39315 34.54955 32.47135
#
# Velocity S-wave (km/s) = 4.03107 4.29788 4.16661
# Velocity P-wave (km/s) = 7.00439 7.52413 7.26891
#
# Compressibility (1/GPa) = 0.01951587
#
# Stress axis : x y z
#
# Youngs Moduli (GPa) = 112.03018 75.34489 55.06639
#
# Poissons Ratio (x) = 0.22368 0.25032
# Poissons Ratio (y) = 0.33259 0.16006
# Poissons Ratio (z) = 0.50927 0.21900
#
# Static dielectric constant tensor:
#      x y z
#    x 1.595240 0.000000 0.007070 
#    y 0.000000 1.633480 0.000000 
#    z 0.007070 0.000000 1.613840 
# 
# From -- ./inp_files/70814.got.cif
#   From: 2010.05.17/outbox.cif.g08.bks.cpg/sg14_36_cif.got.tgz:70814.got - 2010.06.03 17:49:19.
