data_PCOD9252576
_publ_section_title
;
Structure prediction by ZEFSAII (Michael W. Deem and Ramdas Pophale) SiO2 
 PCOD9252576
Probable space group: P 21/C
;
_chemical_formula_sum "Si O2"
_cell_formula_units_Z 18
_cell_length_a 9.331467
_cell_length_b 4.827245
_cell_length_c 17.919095
_cell_angle_alpha 90.000000
_cell_angle_beta 48.536349
_cell_angle_gamma 90.000000
_cell_volume 604.874233
_symmetry_space_group_name_H-M "P 21/C"
_symmetry_group_IT_number 14
_symmetry_cell_setting 'monoclinic'
loop_
_space_group_symop_operation_xyz
x,y,z
-x,1/2+y,1/2-z
-x,-y,-z
x,1/2-y,1/2+z
loop_
_atom_site_type_symbol
_atom_site_label
_atom_site_fract_x
_atom_site_fract_y
_atom_site_fract_z
Si Si1 0.534274 0.025146 0.858070
Si Si2 0.500000 0.000000 0.000000
Si Si3 0.172843 0.161565 0.514293
Si Si4 0.767566 0.261758 0.142180
Si Si5 0.890877 0.197826 0.321411
O O1 0.696528 0.141518 0.747131
O O2 0.384367 0.939657 0.842912
O O3 0.533098 0.763661 0.916322
O O4 0.357701 0.163407 0.977000
O O5 0.318926 0.838608 0.112234
O O6 0.983484 0.347237 0.574103
O O7 0.217469 0.016811 0.420862
O O8 0.113192 0.935150 0.595438
O O9 0.040649 0.445907 0.254919
#
# Coordination Sequence:
#
# PCOD9252576 Si02
#       5
#     4   2   4   4   4
#     4  12  24  49  74 117 154 210 269 332 403 485
#     4  12  28  50  82 116 166 210 266 338 406 484
#     4  11  25  47  76 107 156 207 264 333 392 477
#     4  11  24  46  74 109 152 206 269 326 400 474
#     4  12  28  53  79 124 166 215 271 333 416 487
#
# _framework density 29.758254000000001
#
# number of rings (size 3 to 8) (size 9 to 14) (size 15 to 20)
#    0.000    0.444    4.444    3.333    0.000    3.556 
#   12.000    0.000    0.000    0.000    0.000    0.000 
#    0.000    0.000    0.000    0.000    0.000    0.000 
#
# Total GULP energy -100599.888331 kJ/mol
# GULP energy per Si atom -5588.882685 kJ/mol
# Density = 2.969052 g / cm^3
# Si number density = 29.758254 Si / 1000 Ang^3
#
#
#
# Elastic Constant Matrix: (Units=GPa)
#
#
# Indices 1 2 3 4 5 6 
#
# 1 178.2305 35.7056 148.5573 0.0000 -3.2429 0.0000
# 2 35.7056 134.8569 96.4050 0.0000 3.4546 0.0000
# 3 148.5573 96.4050 334.2993 0.0000 28.4798 0.0000
# 4 0.0000 0.0000 0.0000 71.1350 0.0000 4.2564
# 5 -3.2429 3.4546 28.4798 0.0000 109.2582 0.0000
# 6 0.0000 0.0000 0.0000 4.2564 0.0000 60.2630
#
#
#
# Elastic Compliance Matrix: (Units=1/GPa)
#
#
# Indices 1 2 3 4 5 6 
#
# 1 0.009151 0.000672 -0.004379 0.000000 0.001392 0.000000
# 2 0.000672 0.009409 -0.003056 0.000000 0.000519 0.000000
# 3 -0.004379 -0.003056 0.005954 0.000000 -0.001585 0.000000
# 4 0.000000 0.000000 0.000000 0.014117 0.000000 -0.000997
# 5 0.001392 0.000519 -0.001585 0.000000 0.009591 0.000000
# 6 0.000000 0.000000 0.000000 -0.000997 0.000000 0.016664
#
#
# Mechanical properties :
#
#
# Convention : Reuss Voigt Hill
#
# Bulk Modulus (GPa) = 91.01437 134.30248 112.65842
# Shear Modulus (GPa) = 60.91947 72.57915 66.74931
#
# Velocity S-wave (km/s) = 4.52945 4.94394 4.74123
# Velocity P-wave (km/s) = 7.61613 8.82152 8.24089
#
# Compressibility (1/GPa) = 0.01098728
#
# Stress axis : x y z
#
# Youngs Moduli (GPa) = 109.27211 106.28369 167.96332
#
# Poissons Ratio (x) = -0.07140 0.73552
# Poissons Ratio (y) = -0.07341 0.51331
# Poissons Ratio (z) = 0.47851 0.32481
#
# Static dielectric constant tensor:
#      x y z
#    x 2.502610 0.000000 -0.036250 
#    y 0.000000 2.227230 0.000000 
#    z -0.036250 0.000000 2.204150 
# 
# From -- ./inp_files/66136.got.cif
#   From: 2010.05.17/outbox.cif.g08.bks.cpg/sg14_34_cif.got.tgz:66136.got - 2010.06.03 17:49:19.
