data_PCOD9252543
_publ_section_title
;
Structure prediction by ZEFSAII (Michael W. Deem and Ramdas Pophale) SiO2 
 PCOD9252543
Probable space group: P 21/C
;
_chemical_formula_sum "Si O2"
_cell_formula_units_Z 20
_cell_length_a 8.428529
_cell_length_b 5.344144
_cell_length_c 19.582109
_cell_angle_alpha 90.000000
_cell_angle_beta 118.364509
_cell_angle_gamma 90.000000
_cell_volume 776.146946
_symmetry_space_group_name_H-M "P 21/C"
_symmetry_group_IT_number 14
_symmetry_cell_setting 'monoclinic'
loop_
_space_group_symop_operation_xyz
x,y,z
-x,1/2+y,1/2-z
-x,-y,-z
x,1/2-y,1/2+z
loop_
_atom_site_type_symbol
_atom_site_label
_atom_site_fract_x
_atom_site_fract_y
_atom_site_fract_z
Si Si1 0.153844 0.470192 0.344448
Si Si2 0.437049 0.738130 0.670702
Si Si3 0.605208 0.026068 0.592007
Si Si4 0.887462 0.916851 0.911203
Si Si5 0.195604 0.471862 0.204991
O O1 0.288092 0.710543 0.380564
O O2 0.084648 0.488372 0.251721
O O3 0.997310 0.472073 0.368349
O O4 0.261742 0.213629 0.377758
O O5 0.316484 0.513768 0.615506
O O6 0.637835 0.704666 0.739001
O O7 0.460700 0.962123 0.621888
O O8 0.314222 0.791263 0.710868
O O9 0.500000 0.000000 0.500000
O O10 0.887103 0.631416 0.882226
O O11 0.000000 0.000000 0.000000
#
# Coordination Sequence:
#
# PCOD9252543 Si02
#       5
#     4   4   4   4   4
#     4  11  28  46  75 113 153 203 261 325 395 471
#     4  11  24  45  77 104 146 204 259 312 383 480
#     4  11  25  47  77 108 156 202 258 318 395 478
#     4  12  29  47  74 118 160 199 258 344 402 454
#     4  11  25  45  77 102 149 203 268 302 385 481
#
# _framework density 25.768318000000001
#
# number of rings (size 3 to 8) (size 9 to 14) (size 15 to 20)
#    0.000    0.800    2.000    3.000   14.000    0.800 
#    0.000    0.000    0.000    0.000    0.000    0.000 
#    0.000    0.000    0.000    0.000    0.000    0.000 
#
# Total GULP energy -111662.820078 kJ/mol
# GULP energy per Si atom -5583.141004 kJ/mol
# Density = 2.570967 g / cm^3
# Si number density = 25.768318 Si / 1000 Ang^3
#
#
#
# Elastic Constant Matrix: (Units=GPa)
#
#
# Indices 1 2 3 4 5 6 
#
# 1 148.2935 38.1298 27.8918 0.0000 -23.0392 0.0000
# 2 38.1298 126.7705 36.5523 0.0000 11.3385 0.0000
# 3 27.8918 36.5523 106.3924 0.0000 -7.5515 0.0000
# 4 0.0000 0.0000 0.0000 29.9809 0.0000 8.5707
# 5 -23.0392 11.3385 -7.5515 0.0000 32.0314 0.0000
# 6 0.0000 0.0000 0.0000 8.5707 0.0000 58.3430
#
#
#
# Elastic Compliance Matrix: (Units=1/GPa)
#
#
# Indices 1 2 3 4 5 6 
#
# 1 0.008800 -0.003084 -0.000733 0.000000 0.007249 0.000000
# 2 -0.003084 0.010336 -0.003213 0.000000 -0.006634 0.000000
# 3 -0.000733 -0.003213 0.010921 0.000000 0.003185 0.000000
# 4 0.000000 0.000000 0.000000 0.034817 0.000000 -0.005115
# 5 0.007249 -0.006634 0.003185 0.000000 0.039532 0.000000
# 6 0.000000 0.000000 0.000000 -0.005115 0.000000 0.017891
#
#
# Mechanical properties :
#
#
# Convention : Reuss Voigt Hill
#
# Bulk Modulus (GPa) = 62.51265 65.17824 63.84545
# Shear Modulus (GPa) = 35.28801 42.66322 38.97561
#
# Velocity S-wave (km/s) = 3.70460 4.07338 3.89336
# Velocity P-wave (km/s) = 6.52770 6.89000 6.71130
#
# Compressibility (1/GPa) = 0.01599676
#
# Stress axis : x y z
#
# Youngs Moduli (GPa) = 113.63132 96.75138 91.56323
#
# Poissons Ratio (x) = 0.29837 0.06712
# Poissons Ratio (y) = 0.35043 0.29423
# Poissons Ratio (z) = 0.08330 0.31090
#
# Static dielectric constant tensor:
#      x y z
#    x 2.201030 0.000000 0.028620 
#    y 0.000000 2.674770 0.000000 
#    z 0.028620 0.000000 2.081640 
# 
# From -- ./inp_files/64228.got.cif
#   From: 2010.05.17/outbox.cif.g08.bks.cpg/sg14_33_cif.got.tgz:64228.got - 2010.06.03 17:49:19.
