data_PCOD9253447
_publ_section_title
;
Structure prediction by ZEFSAII (Michael W. Deem and Ramdas Pophale) SiO2 
 PCOD9253447
Probable space group: P 21/C
;
_chemical_formula_sum "Si O2"
_cell_formula_units_Z 32
_cell_length_a 9.424704
_cell_length_b 9.231250
_cell_length_c 13.696830
_cell_angle_alpha 90.000000
_cell_angle_beta 68.206940
_cell_angle_gamma 90.000000
_cell_volume 1106.482661
_symmetry_space_group_name_H-M "P 21/C"
_symmetry_group_IT_number 14
_symmetry_cell_setting 'monoclinic'
loop_
_space_group_symop_operation_xyz
x,y,z
-x,1/2+y,1/2-z
-x,-y,-z
x,1/2-y,1/2+z
loop_
_atom_site_type_symbol
_atom_site_label
_atom_site_fract_x
_atom_site_fract_y
_atom_site_fract_z
Si Si1 0.592535 0.913857 0.240247
Si Si2 0.584562 0.831331 0.912556
Si Si3 0.250000 0.657886 0.500000
Si Si4 0.736926 0.399118 0.168793
Si Si5 0.236927 0.600883 0.168793
Si Si6 0.749999 0.636795 0.000000
Si Si7 0.092534 0.086142 0.240248
Si Si8 0.915439 0.831330 0.087443
O O1 0.583770 0.780737 0.320360
O O2 0.748223 0.902492 0.139325
O O3 0.426423 0.906154 0.234903
O O4 0.626087 0.058505 0.294960
O O5 0.606978 0.732349 0.002715
O O6 0.751777 0.902493 0.860674
O O7 0.420178 0.908546 0.953534
O O8 0.255229 0.761730 0.594671
O O9 0.079823 0.591455 0.546465
O O10 0.244772 0.761734 0.405331
O O11 0.873914 0.441495 0.205039
O O12 0.719978 0.532699 0.098148
O O13 0.219980 0.467305 0.098145
O O14 0.073578 0.593844 0.265096
O O15 0.893022 0.732349 0.997283
O O16 0.083769 0.219262 0.320361
#
# Coordination Sequence:
#
# PCOD9253447 Si02
#       8
#     4   4   4   4   4   4   4   4
#     4   9  17  29  46  69  94 118 148 187 226 264
#     4   9  17  29  46  69  94 118 148 187 226 264
#     4   9  16  28  48  71  92 116 148 185 224 266
#     4   9  16  28  48  71  92 116 148 185 224 266
#     4   9  16  28  48  71  92 116 148 185 224 266
#     4   9  16  28  48  71  92 116 148 185 224 266
#     4   9  17  29  46  69  94 118 148 187 226 264
#     4   9  17  29  46  69  94 118 148 187 226 264
#
# _framework density 28.920470000000002
#
# number of rings (size 3 to 8) (size 9 to 14) (size 15 to 20)
#    0.000    3.000    0.000    1.500    0.000    6.000 
#    0.000    2.500    0.000   16.500    0.000    0.000 
#    0.000    0.000    0.000    0.000    0.000    0.000 
#
# Total GULP energy -179185.756905 kJ/mol
# GULP energy per Si atom -5599.554903 kJ/mol
# Density = 2.885465 g / cm^3
# Si number density = 28.920470 Si / 1000 Ang^3
#
#
#
# Elastic Constant Matrix: (Units=GPa)
#
#
# Indices 1 2 3 4 5 6 
#
# 1 166.1453 47.7748 40.0988 0.0000 -39.2769 0.0000
# 2 47.7748 62.7533 44.2005 0.0000 -1.8341 0.0000
# 3 40.0988 44.2005 121.0263 0.0000 -40.6448 0.0000
# 4 0.0000 0.0000 0.0000 46.5449 0.0000 19.7687
# 5 -39.2769 -1.8341 -40.6448 0.0000 52.9197 0.0000
# 6 0.0000 0.0000 0.0000 19.7687 0.0000 37.8316
#
#
#
# Elastic Compliance Matrix: (Units=1/GPa)
#
#
# Indices 1 2 3 4 5 6 
#
# 1 0.010546 -0.010391 0.003785 0.000000 0.010374 0.000000
# 2 -0.010391 0.033880 -0.014994 0.000000 -0.018054 0.000000
# 3 0.003785 -0.014994 0.017860 0.000000 0.016007 0.000000
# 4 0.000000 0.000000 0.000000 0.027613 0.000000 -0.014429
# 5 0.010374 -0.018054 0.016007 0.000000 0.038264 0.000000
# 6 0.000000 0.000000 0.000000 -0.014429 0.000000 0.033973
#
#
# Mechanical properties :
#
#
# Convention : Reuss Voigt Hill
#
# Bulk Modulus (GPa) = 52.39559 68.23034 60.31297
# Shear Modulus (GPa) = 23.61862 41.98264 32.80063
#
# Velocity S-wave (km/s) = 2.86085 3.81420 3.37139
# Velocity P-wave (km/s) = 5.39158 6.56057 6.00459
#
# Compressibility (1/GPa) = 0.01908558
#
# Stress axis : x y z
#
# Youngs Moduli (GPa) = 94.82487 29.51635 55.99050
#
# Poissons Ratio (x) = 0.30671 -0.21192
# Poissons Ratio (y) = 0.98536 0.83950
# Poissons Ratio (z) = -0.35890 0.44255
#
# Static dielectric constant tensor:
#      x y z
#    x 2.136190 0.000000 0.034720 
#    y 0.000000 2.316530 0.000000 
#    z 0.034720 0.000000 2.246200 
# 
# From -- ./inp_files/19085.got.cif
#   From: 2010.05.17/outbox.cif.g08.bks.cpg/sg14_10_cif.got.tgz:19085.got - 2010.06.03 17:49:19.
