data_PCOD9253875
_publ_section_title
;
Structure prediction by ZEFSAII (Michael W. Deem and Ramdas Pophale) SiO2 
 PCOD9253875
Probable space group: C 2/C
;
_chemical_formula_sum "Si O2"
_cell_formula_units_Z 56
_cell_length_a 12.971713
_cell_length_b 14.091222
_cell_length_c 13.146741
_cell_angle_alpha 90.000000
_cell_angle_beta 91.736625
_cell_angle_gamma 90.000000
_cell_volume 2401.953386
_symmetry_space_group_name_H-M "C 2/C"
_symmetry_group_IT_number 15
_symmetry_cell_setting 'monoclinic'
loop_
_space_group_symop_operation_xyz
x,y,z
-x,y,1/2-z
-x,-y,-z
x,-y,1/2+z
1/2+x,1/2+y,z
1/2-x,1/2+y,1/2-z
1/2-x,1/2-y,-z
1/2+x,1/2-y,1/2+z
loop_
_atom_site_type_symbol
_atom_site_label
_atom_site_fract_x
_atom_site_fract_y
_atom_site_fract_z
Si Si1 0.389283 0.809059 0.936812
Si Si2 0.692948 0.998839 0.807956
Si Si3 0.841697 0.367534 0.371171
Si Si4 0.500000 0.000000 0.500000
Si Si5 0.486111 0.688938 0.408114
Si Si6 0.817261 0.880712 0.646594
Si Si7 0.000000 0.386233 0.750000
Si Si8 0.174421 0.052090 0.000800
O O1 0.267619 0.817381 0.914203
O O2 0.439037 0.822785 0.826914
O O3 0.442789 0.721617 0.993692
O O4 0.431825 0.900536 0.998603
O O5 0.757074 0.925477 0.739746
O O6 0.578531 0.952800 0.817234
O O7 0.751464 0.997625 0.914727
O O8 0.683636 0.095296 0.743318
O O9 0.911935 0.449882 0.422809
O O10 0.904534 0.270926 0.379092
O O11 0.739453 0.369233 0.438665
O O12 0.576569 0.671958 0.329144
O O13 0.419235 0.599725 0.442680
O O14 0.850886 0.970844 0.580208
#
# Coordination Sequence:
#
# PCOD9253875 Si02
#       8
#     8   8   8   4   8   8   4   8
#     4  10  20  36  63  91 122 162 211 256 310 364
#     4  10  21  37  63  88 121 160 206 252 306 377
#     4  10  21  38  65  93 120 158 211 258 303 366
#     4  10  14  34  60  86 110 156 198 246 308 346
#     4  11  23  38  62  90 124 162 206 264 309 359
#     4  10  22  42  61  87 127 167 205 250 315 372
#     4  10  18  34  60  92 120 156 202 256 318 360
#     4  11  22  41  65  88 124 170 205 246 315 381
#
# _framework density 23.314357000000001
#
# number of rings (size 3 to 8) (size 9 to 14) (size 15 to 20)
#    0.000    1.714    4.286    3.000    0.000    0.571 
#    0.000   10.000    0.000    1.714    0.000    0.000 
#    0.000    0.000    0.000    0.000    0.000    0.000 
#
# Total GULP energy -156173.068288 kJ/mol
# GULP energy per Si atom -5577.609582 kJ/mol
# Density = 2.326129 g / cm^3
# Si number density = 23.314357 Si / 1000 Ang^3
#
#
#
# Elastic Constant Matrix: (Units=GPa)
#
#
# Indices 1 2 3 4 5 6 
#
# 1 153.0021 21.4678 29.3555 0.0000 -11.7850 0.0000
# 2 21.4678 18.8094 18.1534 0.0000 -4.3116 0.0000
# 3 29.3555 18.1534 37.0199 0.0000 7.3594 0.0000
# 4 0.0000 0.0000 0.0000 12.9810 0.0000 -2.3673
# 5 -11.7850 -4.3116 7.3594 0.0000 37.9642 0.0000
# 6 0.0000 0.0000 0.0000 -2.3673 0.0000 36.5699
#
#
#
# Elastic Compliance Matrix: (Units=1/GPa)
#
#
# Indices 1 2 3 4 5 6 
#
# 1 0.008338 -0.003308 -0.005647 0.000000 0.003307 0.000000
# 2 -0.003308 0.123431 -0.062910 0.000000 0.025186 0.000000
# 3 -0.005647 -0.062910 0.066678 0.000000 -0.021823 0.000000
# 4 0.000000 0.000000 0.000000 0.077956 0.000000 0.005046
# 5 0.003307 0.025186 -0.021823 0.000000 0.034458 0.000000
# 6 0.000000 0.000000 0.000000 0.005046 0.000000 0.027672
#
#
# Mechanical properties :
#
#
# Convention : Reuss Voigt Hill
#
# Bulk Modulus (GPa) = 18.27631 38.53164 28.40397
# Shear Modulus (GPa) = 9.98995 26.82667 18.40831
#
# Velocity S-wave (km/s) = 2.07224 3.39580 2.81298
# Velocity P-wave (km/s) = 3.68533 5.65139 4.77074
#
# Compressibility (1/GPa) = 0.05471565
#
# Stress axis : x y z
#
# Youngs Moduli (GPa) = 119.92872 8.10171 14.99741
#
# Poissons Ratio (x) = 0.02680 0.08469
# Poissons Ratio (y) = 0.39678 0.94349
# Poissons Ratio (z) = 0.67725 0.50968
#
# Static dielectric constant tensor:
#      x y z
#    x 1.786870 0.000000 0.036130 
#    y 0.000000 1.845860 0.000000 
#    z 0.036130 0.000000 1.874530 
# 
# From -- ./inp_files/144288.got.cif
#   From: 2010.05.17/outbox.cif.g08.bks.cpg/sg15_73_cif.got.tgz:144288.got - 2010.06.03 18:47:42.
