data_PCOD9253855
_publ_section_title
;
Structure prediction by ZEFSAII (Michael W. Deem and Ramdas Pophale) SiO2 
 PCOD9253855
Probable space group: C 2/C
;
_chemical_formula_sum "Si O2"
_cell_formula_units_Z 60
_cell_length_a 17.826351
_cell_length_b 9.522739
_cell_length_c 26.972338
_cell_angle_alpha 90.000000
_cell_angle_beta 147.697769
_cell_angle_gamma 90.000000
_cell_volume 2446.793963
_symmetry_space_group_name_H-M "C 2/C"
_symmetry_group_IT_number 15
_symmetry_cell_setting 'monoclinic'
loop_
_space_group_symop_operation_xyz
x,y,z
-x,y,1/2-z
-x,-y,-z
x,-y,1/2+z
1/2+x,1/2+y,z
1/2-x,1/2+y,1/2-z
1/2-x,1/2-y,-z
1/2+x,1/2-y,1/2+z
loop_
_atom_site_type_symbol
_atom_site_label
_atom_site_fract_x
_atom_site_fract_y
_atom_site_fract_z
Si Si1 0.593844 0.516666 0.903325
Si Si2 0.120654 0.991723 0.132772
Si Si3 0.591840 0.043788 0.450141
Si Si4 0.740372 0.867954 0.375280
Si Si5 0.538418 0.812053 0.347521
Si Si6 0.805447 0.570611 0.397870
Si Si7 0.679885 0.185990 0.201286
Si Si8 0.000000 0.959460 0.250000
O O1 0.527210 0.519514 0.920927
O O2 0.571344 0.351234 0.875611
O O3 0.517106 0.602241 0.815208
O O4 0.754167 0.562508 0.986621
O O5 0.160555 0.979426 0.097030
O O6 0.191238 0.847704 0.193474
O O7 0.201228 0.129267 0.196500
O O8 0.535814 0.897222 0.396898
O O9 0.608306 0.034849 0.519203
O O10 0.478666 0.156920 0.370381
O O11 0.663800 0.881062 0.384926
O O12 0.604360 0.835676 0.263523
O O13 0.835624 0.729068 0.431757
O O14 0.808469 0.583989 0.340647
O O15 0.645049 0.541867 0.323884
#
# Coordination Sequence:
#
# PCOD9253855 Si02
#       8
#     8   8   8   8   8   8   8   4
#     4  11  20  35  61  95 125 167 213 268 320 383
#     4  11  23  40  67  91 131 168 215 261 333 383
#     4  11  23  34  62  95 127 165 216 265 319 384
#     4  10  18  34  61  89 122 165 216 263 308 377
#     4  11  18  36  61  93 124 165 218 263 314 385
#     4  10  18  34  59  91 123 158 216 264 302 369
#     4  11  23  41  62  95 128 168 209 272 322 389
#     4  10  14  30  58  86 116 160 214 258 296 378
#
# _framework density 24.521885000000001
#
# number of rings (size 3 to 8) (size 9 to 14) (size 15 to 20)
#    0.000    1.333    6.667    1.600    0.000    0.533 
#    0.000    0.667    2.933    0.000    0.000    0.000 
#    0.000    0.000    0.000    0.000    0.000    0.000 
#
# Total GULP energy -167293.819269 kJ/mol
# GULP energy per Si atom -5576.460642 kJ/mol
# Density = 2.446607 g / cm^3
# Si number density = 24.521885 Si / 1000 Ang^3
#
#
#
# Elastic Constant Matrix: (Units=GPa)
#
#
# Indices 1 2 3 4 5 6 
#
# 1 144.4764 14.4658 27.6429 0.0000 2.6254 0.0000
# 2 14.4658 32.7543 1.7085 0.0000 -0.8836 0.0000
# 3 27.6429 1.7085 42.0354 0.0001 11.6253 0.0000
# 4 0.0000 0.0000 0.0001 16.2692 0.0000 -2.4074
# 5 2.6254 -0.8836 11.6253 0.0000 30.3449 0.0000
# 6 0.0000 0.0000 0.0000 -2.4074 0.0000 35.4404
#
#
#
# Elastic Compliance Matrix: (Units=1/GPa)
#
#
# Indices 1 2 3 4 5 6 
#
# 1 0.008325 -0.003341 -0.005719 0.000000 0.001373 0.000000
# 2 -0.003341 0.032000 0.000625 0.000000 0.000981 0.000000
# 3 -0.005719 0.000625 0.030628 0.000000 -0.011221 0.000000
# 4 0.000000 0.000000 0.000000 0.062090 0.000000 0.004218
# 5 0.001373 0.000981 -0.011221 0.000000 0.037163 0.000000
# 6 0.000000 0.000000 0.000000 0.004218 0.000000 0.028503
#
#
# Mechanical properties :
#
#
# Convention : Reuss Voigt Hill
#
# Bulk Modulus (GPa) = 18.48996 34.10006 26.29501
# Shear Modulus (GPa) = 21.40349 28.10749 24.75549
#
# Velocity S-wave (km/s) = 2.95758 3.38926 3.18075
# Velocity P-wave (km/s) = 4.38401 5.40854 4.92300
#
# Compressibility (1/GPa) = 0.05408340
#
# Stress axis : x y z
#
# Youngs Moduli (GPa) = 120.11506 31.25009 32.64983
#
# Poissons Ratio (x) = 0.10442 0.18672
# Poissons Ratio (y) = 0.40136 -0.02042
# Poissons Ratio (z) = 0.68692 -0.01954
#
# Static dielectric constant tensor:
#      x y z
#    x 2.054610 0.000000 -0.008090 
#    y 0.000000 1.957540 0.000000 
#    z -0.008090 0.000000 2.015690 
# 
# From -- ./inp_files/316075.got.cif
#   From: 2010.05.17/outbox.cif.g08.bks.cpg/sg15_159_cif.got.tgz:316075.got - 2010.06.03 18:47:42.
