data_PCOD9253348
_publ_section_title
;
Structure prediction by ZEFSAII (Michael W. Deem and Ramdas Pophale) SiO2 
 PCOD9253348
Probable space group: P 21/C
;
_chemical_formula_sum "Si O2"
_cell_formula_units_Z 20
_cell_length_a 7.007153
_cell_length_b 7.391101
_cell_length_c 14.420407
_cell_angle_alpha 90.000000
_cell_angle_beta 106.761006
_cell_angle_gamma 90.000000
_cell_volume 715.112365
_symmetry_space_group_name_H-M "P 21/C"
_symmetry_group_IT_number 14
_symmetry_cell_setting 'monoclinic'
loop_
_space_group_symop_operation_xyz
x,y,z
-x,1/2+y,1/2-z
-x,-y,-z
x,1/2-y,1/2+z
loop_
_atom_site_type_symbol
_atom_site_label
_atom_site_fract_x
_atom_site_fract_y
_atom_site_fract_z
Si Si1 0.608855 0.944630 0.152811
Si Si2 0.182337 0.593847 0.080032
Si Si3 0.926256 0.851423 0.727925
Si Si4 0.156486 0.919162 0.951557
Si Si5 0.426435 0.631513 0.809011
O O1 0.965696 0.127462 0.158384
O O2 0.677777 0.934635 0.055288
O O3 0.797007 0.830812 0.219184
O O4 0.440666 0.871995 0.198530
O O5 0.372264 0.466061 0.126579
O O6 0.075982 0.657620 0.161449
O O7 0.000000 0.500000 0.000000
O O8 0.248426 0.748274 0.016337
O O9 0.763334 0.010192 0.690230
O O10 0.416068 0.838916 0.838000
O O11 0.000000 0.000000 0.000000
#
# Coordination Sequence:
#
# PCOD9253348 Si02
#       5
#     4   4   4   4   4
#     4  12  26  51  85 121 168 228 286 360 436 524
#     4  12  28  54  83 123 171 226 298 365 437 537
#     4  12  28  54  85 123 176 230 288 364 449 528
#     4  12  28  50  86 127 169 230 296 357 446 531
#     4  12  28  52  86 123 170 229 290 364 443 526
#
# _framework density 27.967631999999998
#
# number of rings (size 3 to 8) (size 9 to 14) (size 15 to 20)
#    0.000    0.000    6.000    2.400    5.600    3.200 
#    0.000    3.000    0.000    1.200    0.000    0.000 
#    0.000    0.000    0.000    0.000    0.000    0.000 
#
# Total GULP energy -112091.097458 kJ/mol
# GULP energy per Si atom -5604.554873 kJ/mol
# Density = 2.790398 g / cm^3
# Si number density = 27.967632 Si / 1000 Ang^3
#
#
#
# Elastic Constant Matrix: (Units=GPa)
#
#
# Indices 1 2 3 4 5 6 
#
# 1 198.7623 39.5846 67.6969 0.0000 -19.6761 0.0000
# 2 39.5846 127.0611 46.9283 0.0000 -5.7705 0.0000
# 3 67.6969 46.9283 176.2590 0.0000 0.7239 0.0000
# 4 0.0000 0.0000 0.0000 49.7717 0.0000 -7.2692
# 5 -19.6761 -5.7705 0.7239 0.0000 81.2619 0.0000
# 6 0.0000 0.0000 0.0000 -7.2692 0.0000 67.5771
#
#
#
# Elastic Compliance Matrix: (Units=1/GPa)
#
#
# Indices 1 2 3 4 5 6 
#
# 1 0.006086 -0.001072 -0.002058 0.000000 0.001416 0.000000
# 2 -0.001072 0.008951 -0.001973 0.000000 0.000394 0.000000
# 3 -0.002058 -0.001973 0.006992 0.000000 -0.000701 0.000000
# 4 0.000000 0.000000 0.000000 0.020412 0.000000 0.002196
# 5 0.001416 0.000394 -0.000701 0.000000 0.012683 0.000000
# 6 0.000000 0.000000 0.000000 0.002196 0.000000 0.015034
#
#
# Mechanical properties :
#
#
# Convention : Reuss Voigt Hill
#
# Bulk Modulus (GPa) = 84.57924 90.05577 87.31750
# Shear Modulus (GPa) = 59.30921 62.91366 61.11144
#
# Velocity S-wave (km/s) = 4.61003 4.74805 4.67955
# Velocity P-wave (km/s) = 7.65794 7.89484 7.77729
#
# Compressibility (1/GPa) = 0.01182323
#
# Stress axis : x y z
#
# Youngs Moduli (GPa) = 164.32298 111.72308 143.01941
#
# Poissons Ratio (x) = 0.11972 0.29431
# Poissons Ratio (y) = 0.17608 0.28220
# Poissons Ratio (z) = 0.33815 0.22045
#
# Static dielectric constant tensor:
#      x y z
#    x 2.260170 0.000000 0.074260 
#    y 0.000000 2.355200 0.000000 
#    z 0.074260 0.000000 2.278760 
# 
# From -- ./inp_files/52713.got.cif
#   From: 2010.05.17/outbox.cif.g08.bks.cpg/sg14_27_cif.got.tgz:52713.got - 2010.06.03 17:49:19.
