data_PCOD9253430
_publ_section_title
;
Structure prediction by ZEFSAII (Michael W. Deem and Ramdas Pophale) SiO2 
 PCOD9253430
Probable space group: P 21/C
;
_chemical_formula_sum "Si O2"
_cell_formula_units_Z 24
_cell_length_a 25.428203
_cell_length_b 7.109111
_cell_length_c 18.835860
_cell_angle_alpha 90.000000
_cell_angle_beta 160.737796
_cell_angle_gamma 90.000000
_cell_volume 1123.279533
_symmetry_space_group_name_H-M "P 21/C"
_symmetry_group_IT_number 14
_symmetry_cell_setting 'monoclinic'
loop_
_space_group_symop_operation_xyz
x,y,z
-x,1/2+y,1/2-z
-x,-y,-z
x,1/2-y,1/2+z
loop_
_atom_site_type_symbol
_atom_site_label
_atom_site_fract_x
_atom_site_fract_y
_atom_site_fract_z
Si Si1 0.429964 0.262130 0.968730
Si Si2 0.630074 0.377432 0.351906
Si Si3 0.195574 0.690178 0.294321
Si Si4 0.862784 0.760698 0.807660
Si Si5 0.506995 0.341457 0.419154
Si Si6 0.681659 0.688242 0.947635
O O1 0.578966 0.321354 0.207926
O O2 0.418829 0.034585 0.957919
O O3 0.268164 0.326437 0.801404
O O4 0.455760 0.292654 0.918062
O O5 0.763528 0.275875 0.570638
O O6 0.468541 0.346921 0.191776
O O7 0.677686 0.594696 0.418057
O O8 0.170141 0.463767 0.249733
O O9 0.353311 0.745761 0.451197
O O10 0.038011 0.781990 0.062100
O O11 0.829406 0.849299 0.687579
O O12 0.363533 0.406826 0.184203
#
# Coordination Sequence:
#
# PCOD9253430 Si02
#       6
#     4   4   4   4   4   4
#     4   9  17  29  45  64  86 113 143 175 211 250
#     4   9  16  27  45  65  85 112 144 175 208 250
#     4   8  14  26  44  63  82 109 144 175 206 249
#     4   8  14  26  44  63  82 109 144 175 206 249
#     4   9  17  29  45  64  86 113 143 175 211 250
#     4   9  16  27  45  65  85 112 144 175 208 250
#
# _framework density 21.366007
#
# number of rings (size 3 to 8) (size 9 to 14) (size 15 to 20)
#    0.000    3.333    0.000    3.000    0.000    0.667 
#    0.000    1.667    0.000   25.000    0.000    0.000 
#    0.000    0.000    0.000    0.000    0.000    0.000 
#
# Total GULP energy -133670.066984 kJ/mol
# GULP energy per Si atom -5569.586124 kJ/mol
# Density = 2.131738 g / cm^3
# Si number density = 21.366007 Si / 1000 Ang^3
#
#
#
# Elastic Constant Matrix: (Units=GPa)
#
#
# Indices 1 2 3 4 5 6 
#
# 1 111.0689 0.7340 55.7026 0.0000 -31.9306 0.0000
# 2 0.7340 51.6010 -0.9935 0.0000 1.8274 0.0000
# 3 55.7026 -0.9935 143.4116 0.0000 -33.8091 0.0000
# 4 0.0000 0.0000 0.0000 13.5612 0.0000 -23.5411
# 5 -31.9306 1.8274 -33.8091 0.0000 26.0952 0.0000
# 6 0.0000 0.0000 0.0000 -23.5411 0.0000 3.9223
#
#
#
# Elastic Compliance Matrix: (Units=1/GPa)
#
#
# Indices 1 2 3 4 5 6 
#
# 1 0.014329 -0.000772 -0.002051 0.000000 0.014930 0.000000
# 2 -0.000772 0.019476 -0.000158 0.000000 -0.002513 0.000000
# 3 -0.002051 -0.000158 0.010337 0.000000 0.010893 0.000000
# 4 0.000000 0.000000 0.000000 -0.007829 0.000000 -0.046989
# 5 0.014930 -0.002513 0.010893 0.000000 0.070880 0.000000
# 6 0.000000 0.000000 0.000000 -0.046989 0.000000 -0.027069
#
#
# Mechanical properties :
#
#
# Convention : Reuss Voigt Hill
#
# Bulk Modulus (GPa) = 26.19121 46.32974 36.26048
# Shear Modulus (GPa) = 50.60060 25.42497 38.01278
#
# Velocity S-wave (km/s) = 4.87177 3.45334 4.22254
# Velocity P-wave (km/s) = 6.62801 6.13447 6.38601
#
# Compressibility (1/GPa) = 0.03818075
#
# Stress axis : x y z
#
# Youngs Moduli (GPa) = 69.78613 51.34418 96.74295
#
# Poissons Ratio (x) = 0.03964 0.19845
# Poissons Ratio (y) = 0.05388 0.01524
# Poissons Ratio (z) = 0.14315 0.00809
#
# Static dielectric constant tensor:
#      x y z
#    x 1.807080 0.000000 -0.054560 
#    y 0.000000 1.907410 0.000000 
#    z -0.054560 0.000000 1.779870 
# 
# From -- ./inp_files/56747.got.cif
#   From: 2010.05.17/outbox.cif.g08.bks.cpg/sg14_29_cif.got.tgz:56747.got - 2010.06.03 17:49:19.
