data_PCOD9253449
_publ_section_title
;
Structure prediction by ZEFSAII (Michael W. Deem and Ramdas Pophale) SiO2 
 PCOD9253449
Probable space group: P 21/C
;
_chemical_formula_sum "Si O2"
_cell_formula_units_Z 24
_cell_length_a 7.757338
_cell_length_b 16.657333
_cell_length_c 11.796900
_cell_angle_alpha 90.000000
_cell_angle_beta 39.718808
_cell_angle_gamma 90.000000
_cell_volume 974.093774
_symmetry_space_group_name_H-M "P 21/C"
_symmetry_group_IT_number 14
_symmetry_cell_setting 'monoclinic'
loop_
_space_group_symop_operation_xyz
x,y,z
-x,1/2+y,1/2-z
-x,-y,-z
x,1/2-y,1/2+z
loop_
_atom_site_type_symbol
_atom_site_label
_atom_site_fract_x
_atom_site_fract_y
_atom_site_fract_z
Si Si1 0.633386 0.837591 0.968668
Si Si2 0.804581 0.735339 0.610371
Si Si3 0.352133 0.023859 0.204860
Si Si4 0.236190 0.694358 0.127747
Si Si5 0.833726 0.381094 0.063477
Si Si6 0.697155 0.353987 0.646859
O O1 0.912545 0.800393 0.773323
O O2 0.688984 0.821297 0.071116
O O3 0.620743 0.928860 0.929351
O O4 0.390266 0.778149 0.061238
O O5 0.548334 0.793423 0.762504
O O6 0.025402 0.801794 0.457260
O O7 0.599238 0.060045 0.152715
O O8 0.076699 0.065791 0.390121
O O9 0.297909 0.933210 0.271080
O O10 0.331764 0.645917 0.966231
O O11 0.023985 0.826192 0.053274
O O12 0.279937 0.649911 0.227008
#
# Coordination Sequence:
#
# PCOD9253449 Si02
#       6
#     4   4   4   4   4   4
#     4   9  17  30  48  68  90 120 155 188 222 266
#     4   9  17  30  48  68  90 120 155 188 222 266
#     4   9  17  29  46  69  95 120 149 188 230 267
#     4   9  17  29  48  70  91 119 153 188 223 265
#     4   9  17  29  46  69  95 120 149 188 230 267
#     4   9  17  29  48  70  91 119 153 188 223 265
#
# _framework density 24.638283999999999
#
# number of rings (size 3 to 8) (size 9 to 14) (size 15 to 20)
#    0.000    3.000    0.000    1.000    0.000    0.667 
#    0.000    5.000    0.000   13.000    0.000    0.000 
#    0.000    0.000    0.000    0.000    0.000    0.000 
#
# Total GULP energy -133679.422388 kJ/mol
# GULP energy per Si atom -5569.975933 kJ/mol
# Density = 2.458221 g / cm^3
# Si number density = 24.638284 Si / 1000 Ang^3
#
#
#
# Elastic Constant Matrix: (Units=GPa)
#
#
# Indices 1 2 3 4 5 6 
#
# 1 129.9483 -12.3079 -29.5026 0.0000 -6.2909 0.0000
# 2 -12.3079 0.3677 -111.3433 0.0000 -8.8809 0.0000
# 3 -29.5026 -111.3433 5.0398 0.0000 8.3383 0.0000
# 4 0.0000 0.0000 0.0000 3.4086 0.0000 -17.9105
# 5 -6.2909 -8.8809 8.3383 0.0000 38.3248 0.0000
# 6 0.0000 0.0000 0.0000 -17.9105 0.0000 31.4688
#
#
#
# Elastic Compliance Matrix: (Units=1/GPa)
#
#
# Indices 1 2 3 4 5 6 
#
# 1 0.007357 -0.001918 -0.000896 0.000000 0.000958 0.000000
# 2 -0.001918 0.000231 -0.008902 0.000000 0.001675 0.000000
# 3 -0.000896 -0.008902 0.000250 0.000000 -0.002264 0.000000
# 4 0.000000 0.000000 0.000000 -0.147380 0.000000 -0.083882
# 5 0.000958 0.001675 -0.002264 0.000000 0.027131 0.000000
# 6 0.000000 0.000000 0.000000 -0.083882 0.000000 -0.015964
#
#
# Mechanical properties :
#
#
# Convention : Reuss Voigt Hill
#
# Bulk Modulus (GPa) = -64.12479 -18.99465 -41.55972
# Shear Modulus (GPa) = -45.39607 33.87444 -5.76082
#
# Velocity S-wave (km/s) = -4.29709 3.71195 -1.53076
# Velocity P-wave (km/s) = 7.12060 3.26271 4.47536
#
# Compressibility (1/GPa) = -0.01559459
#
# Stress axis : x y z
#
# Youngs Moduli (GPa) = 135.93120 4333.36209 3996.01345
#
# Poissons Ratio (x) = 8.31184 3.58025
# Poissons Ratio (y) = 0.26073 35.57282
# Poissons Ratio (z) = 0.12179 38.57592
#
# Static dielectric constant tensor:
#      x y z
#    x 1.974610 0.000000 0.031130 
#    y 0.000000 1.959060 0.000000 
#    z 0.031130 0.000000 2.250980 
# 
# From -- ./inp_files/24810.got.cif
#   From: 2010.05.17/outbox.cif.g08.bks.cpg/sg14_13_cif.got.tgz:24810.got - 2010.06.03 17:49:19.
