data_PCOD9253130
_publ_section_title
;
Structure prediction by ZEFSAII (Michael W. Deem and Ramdas Pophale) SiO2 
 PCOD9253130
Probable space group: P 21/C
;
_chemical_formula_sum "Si O2"
_cell_formula_units_Z 20
_cell_length_a 24.977685
_cell_length_b 4.974848
_cell_length_c 8.391766
_cell_angle_alpha 90.000000
_cell_angle_beta 54.698651
_cell_angle_gamma 90.000000
_cell_volume 851.023410
_symmetry_space_group_name_H-M "P 21/C"
_symmetry_group_IT_number 14
_symmetry_cell_setting 'monoclinic'
loop_
_space_group_symop_operation_xyz
x,y,z
-x,1/2+y,1/2-z
-x,-y,-z
x,1/2-y,1/2+z
loop_
_atom_site_type_symbol
_atom_site_label
_atom_site_fract_x
_atom_site_fract_y
_atom_site_fract_z
Si Si1 0.973250 0.118473 0.710473
Si Si2 0.431019 0.451893 0.032933
Si Si3 0.617909 0.448517 0.219666
Si Si4 0.234397 0.101079 0.564106
Si Si5 0.817794 0.389292 0.515466
O O1 0.894848 0.123584 0.848098
O O2 0.001343 0.412101 0.698754
O O3 0.000000 0.000000 0.500000
O O4 0.381227 0.651361 0.210402
O O5 0.408570 0.147889 0.098972
O O6 0.500000 0.500000 0.000000
O O7 0.429705 0.528082 0.850367
O O8 0.688679 0.551718 0.042778
O O9 0.212697 0.903937 0.458165
O O10 0.216375 0.402031 0.546721
O O11 0.195719 0.000997 0.785542
#
# Coordination Sequence:
#
# PCOD9253130 Si02
#       5
#     4   4   4   4   4
#     4  12  24  43  67  96 130 170 214 264 318 378
#     4  12  25  44  67  96 129 168 213 264 319 380
#     4  12  24  42  66  94 128 169 213 264 319 379
#     4  12  24  42  64  94 129 169 214 264 318 379
#     4  12  25  43  66  96 130 170 214 264 318 378
#
# _framework density 23.501114999999999
#
# number of rings (size 3 to 8) (size 9 to 14) (size 15 to 20)
#    0.000    0.000    0.000   12.000    0.000    0.000 
#    0.000    0.000    0.000    0.000    0.000    0.000 
#    0.000    0.000    0.000    0.000    0.000    0.000 
#
# Total GULP energy -112231.071102 kJ/mol
# GULP energy per Si atom -5611.553555 kJ/mol
# Density = 2.344763 g / cm^3
# Si number density = 23.501115 Si / 1000 Ang^3
#
#
#
# Elastic Constant Matrix: (Units=GPa)
#
#
# Indices 1 2 3 4 5 6 
#
# 1 59.1892 19.0208 8.5575 0.0000 -11.7521 0.0000
# 2 19.0208 83.4249 -5.5955 0.0000 -4.7651 0.0000
# 3 8.5575 -5.5955 30.0200 0.0000 2.5695 0.0000
# 4 0.0000 0.0000 0.0000 24.9044 0.0000 13.8829
# 5 -11.7521 -4.7651 2.5695 0.0000 58.6044 0.0000
# 6 0.0000 0.0000 0.0000 13.8829 0.0000 29.3212
#
#
#
# Elastic Compliance Matrix: (Units=1/GPa)
#
#
# Indices 1 2 3 4 5 6 
#
# 1 0.020263 -0.004864 -0.007023 0.000000 0.003976 0.000000
# 2 -0.004864 0.013353 0.003880 0.000000 -0.000060 0.000000
# 3 -0.007023 0.003880 0.036266 0.000000 -0.002683 0.000000
# 4 0.000000 0.000000 0.000000 0.054552 0.000000 -0.025829
# 5 0.003976 -0.000060 -0.002683 0.000000 0.017974 0.000000
# 6 0.000000 0.000000 0.000000 -0.025829 0.000000 0.046334
#
#
# Mechanical properties :
#
#
# Convention : Reuss Voigt Hill
#
# Bulk Modulus (GPa) = 18.56365 24.06662 21.31514
# Shear Modulus (GPa) = 22.45069 32.60944 27.53006
#
# Velocity S-wave (km/s) = 3.09415 3.72905 3.42634
# Velocity P-wave (km/s) = 4.54766 5.36693 4.97419
#
# Compressibility (1/GPa) = 0.05386871
#
# Stress axis : x y z
#
# Youngs Moduli (GPa) = 49.35154 74.89158 27.57399
#
# Poissons Ratio (x) = 0.36426 0.19365
# Poissons Ratio (y) = 0.24004 -0.10700
# Poissons Ratio (z) = 0.34660 -0.29061
#
# Static dielectric constant tensor:
#      x y z
#    x 1.870420 0.000000 0.012070 
#    y 0.000000 1.819420 0.000000 
#    z 0.012070 0.000000 1.841420 
# 
# From -- ./inp_files/17255.got.cif
#   From: 2010.05.17/outbox.cif.g08.bks.cpg/sg14_9_cif.got.tgz:17255.got - 2010.06.03 17:49:19.
