data_PCOD9253058
_publ_section_title
;
Structure prediction by ZEFSAII (Michael W. Deem and Ramdas Pophale) SiO2 
 PCOD9253058
Probable space group: P 21/C
;
_chemical_formula_sum "Si O2"
_cell_formula_units_Z 28
_cell_length_a 13.005507
_cell_length_b 16.321786
_cell_length_c 8.722883
_cell_angle_alpha 90.000000
_cell_angle_beta 134.982364
_cell_angle_gamma 90.000000
_cell_volume 1309.705507
_symmetry_space_group_name_H-M "P 21/C"
_symmetry_group_IT_number 14
_symmetry_cell_setting 'monoclinic'
loop_
_space_group_symop_operation_xyz
x,y,z
-x,1/2+y,1/2-z
-x,-y,-z
x,1/2-y,1/2+z
loop_
_atom_site_type_symbol
_atom_site_label
_atom_site_fract_x
_atom_site_fract_y
_atom_site_fract_z
Si Si1 0.150113 0.656043 0.186935
Si Si2 0.803390 0.836660 0.276522
Si Si3 0.748155 0.995524 0.381688
Si Si4 0.198609 0.825787 0.091230
Si Si5 0.918911 0.924398 0.839213
Si Si6 0.710359 0.671349 0.335046
Si Si7 0.428760 0.570411 0.030179
O O1 0.191369 0.571019 0.151143
O O2 0.214211 0.731892 0.157563
O O3 0.214013 0.661389 0.425825
O O4 0.974157 0.662497 0.001524
O O5 0.720206 0.919473 0.239839
O O6 0.726096 0.759961 0.275511
O O7 0.793426 0.828291 0.083535
O O8 0.867037 0.956698 0.621553
O O9 0.627030 0.029409 0.371072
O O10 0.299655 0.885534 0.298745
O O11 0.032413 0.850849 0.949843
O O12 0.785864 0.893151 0.800022
O O13 0.000000 0.000000 0.000000
O O14 0.547646 0.640186 0.188126
O O15 0.500000 0.500000 0.000000
#
# Coordination Sequence:
#
# PCOD9253058 Si02
#       7
#     4   4   4   4   4   4   4
#     4  12  26  45  76 115 143 186 252 311 366 422
#     4  12  26  46  77 109 147 188 248 301 364 435
#     4  12  26  45  73 112 145 186 242 307 364 428
#     4  12  26  46  75 107 148 191 244 308 363 430
#     4  12  22  43  76 103 141 191 241 303 357 414
#     4  12  27  47  73 105 147 198 238 294 362 442
#     4  12  28  50  74 104 149 193 242 294 366 445
#
# _framework density 21.378851000000001
#
# number of rings (size 3 to 8) (size 9 to 14) (size 15 to 20)
#    0.000    0.000    5.714    3.857    4.000    2.857 
#    0.000    0.000    0.000    0.000    0.000    0.000 
#    0.000    0.000    0.000    0.000    0.000    0.000 
#
# Total GULP energy -156735.738837 kJ/mol
# GULP energy per Si atom -5597.704958 kJ/mol
# Density = 2.133019 g / cm^3
# Si number density = 21.378851 Si / 1000 Ang^3
#
#
#
# Elastic Constant Matrix: (Units=GPa)
#
#
# Indices 1 2 3 4 5 6 
#
# 1 77.6905 58.7372 23.7252 0.0000 -6.4902 0.0000
# 2 58.7372 162.5187 17.1830 0.0000 -9.5625 0.0000
# 3 23.7252 17.1830 43.9075 0.0000 -16.6244 0.0000
# 4 0.0000 0.0000 0.0000 11.8352 0.0000 4.3972
# 5 -6.4902 -9.5625 -16.6244 0.0000 39.2700 0.0000
# 6 0.0000 0.0000 0.0000 4.3972 0.0000 44.4182
#
#
#
# Elastic Compliance Matrix: (Units=1/GPa)
#
#
# Indices 1 2 3 4 5 6 
#
# 1 0.020488 -0.006546 -0.009325 0.000000 -0.002155 0.000000
# 2 -0.006546 0.008522 0.000688 0.000000 0.001285 0.000000
# 3 -0.009325 0.000688 0.032183 0.000000 0.012251 0.000000
# 4 0.000000 0.000000 0.000000 0.087720 0.000000 -0.008684
# 5 -0.002155 0.001285 0.012251 0.000000 0.030607 0.000000
# 6 0.000000 0.000000 0.000000 -0.008684 0.000000 0.023373
#
#
# Mechanical properties :
#
#
# Convention : Reuss Voigt Hill
#
# Bulk Modulus (GPa) = 32.43809 53.71192 43.07501
# Shear Modulus (GPa) = 20.53106 31.40277 25.96692
#
# Velocity S-wave (km/s) = 3.10230 3.83674 3.48890
# Velocity P-wave (km/s) = 5.29512 6.69372 6.03507
#
# Compressibility (1/GPa) = 0.03082795
#
# Stress axis : x y z
#
# Youngs Moduli (GPa) = 48.80906 117.34813 31.07235
#
# Poissons Ratio (x) = 0.76812 0.28975
# Poissons Ratio (y) = 0.31949 -0.02139
# Poissons Ratio (z) = 0.45515 -0.08078
#
# Static dielectric constant tensor:
#      x y z
#    x 1.778390 0.000000 0.001060 
#    y 0.000000 1.742100 0.000000 
#    z 0.001060 0.000000 1.757410 
# 
# From -- ./inp_files/16434.got.cif
#   From: 2010.05.17/outbox.cif.g08.bks.cpg/sg14_9_cif.got.tgz:16434.got - 2010.06.03 17:49:19.
