data_PCOD9253577
_publ_section_title
;
Structure prediction by ZEFSAII (Michael W. Deem and Ramdas Pophale) SiO2 
 PCOD9253577
Probable space group: P 21/C
;
_chemical_formula_sum "Si O2"
_cell_formula_units_Z 24
_cell_length_a 9.000000
_cell_length_b 9.000000
_cell_length_c 30.000000
_cell_angle_alpha 90.000000
_cell_angle_beta 30.000000
_cell_angle_gamma 90.000000
_cell_volume 1215.000000
_symmetry_space_group_name_H-M "P 21/C"
_symmetry_group_IT_number 14
_symmetry_cell_setting 'monoclinic'
loop_
_space_group_symop_operation_xyz
x,y,z
-x,1/2+y,1/2-z
-x,-y,-z
x,1/2-y,1/2+z
loop_
_atom_site_type_symbol
_atom_site_label
_atom_site_fract_x
_atom_site_fract_y
_atom_site_fract_z
Si Si1 0.091797 0.814342 0.689280
Si Si2 0.862417 0.613227 0.149197
Si Si3 0.606722 0.483086 0.353827
Si Si4 0.636999 0.924889 0.508694
Si Si5 0.739992 0.570690 0.471321
Si Si6 0.640294 0.575738 0.679277
O O1 0.193117 0.655106 0.680883
O O2 0.387937 0.916951 0.611554
O O3 0.997596 0.822367 0.661210
O O4 0.828697 0.881335 0.786910
O O5 0.642094 0.482735 0.220567
O O6 0.698952 0.751651 0.170474
O O7 0.089564 0.535686 0.056023
O O8 0.361273 0.498813 0.455376
O O9 0.439182 0.452908 0.351332
O O10 0.719260 0.751115 0.478159
O O11 0.500000 0.000000 0.500000
O O12 0.500000 0.500000 0.500000
O O13 0.073728 0.515313 0.377665
#
# Coordination Sequence:
#
# PCOD9253577 Si02
#       6
#     4   4   4   4   4   4
#     4   9  20  37  56  81 112 149 187 228 281 339
#     4  10  21  37  58  82 114 151 189 231 281 341
#     4  10  22  37  56  84 117 147 189 238 281 333
#     4   9  18  36  57  82 109 144 193 233 270 336
#     4  11  22  38  60  83 112 153 194 235 289 343
#     4  11  22  37  57  86 117 150 190 237 283 334
#
# _framework density 19.753086
#
# number of rings (size 3 to 8) (size 9 to 14) (size 15 to 20)
#    0.000    2.000    0.000    4.500    0.000    8.000 
#    0.000    3.333    0.000    0.000    0.000    0.000 
#    0.000    0.000    0.000    0.000    0.000    0.000 
#
# Total GULP energy -133794.504523 kJ/mol
# GULP energy per Si atom -5574.771022 kJ/mol
# Density = 1.970813 g / cm^3
# Si number density = 19.753086 Si / 1000 Ang^3
#
#
#
# Elastic Constant Matrix: (Units=GPa)
#
#
# Indices 1 2 3 4 5 6 
#
# 1 21.3229 -8.7531 0.3127 0.0000 -19.3761 0.0000
# 2 -8.7531 34.3214 -25.9556 0.0000 -11.1537 0.0000
# 3 0.3127 -25.9556 16.7251 0.0000 -3.5254 0.0000
# 4 0.0000 0.0000 0.0000 29.3081 0.0000 -10.8634
# 5 -19.3761 -11.1537 -3.5254 0.0000 19.4504 0.0000
# 6 0.0000 0.0000 0.0000 -10.8634 0.0000 28.4925
#
#
#
# Elastic Compliance Matrix: (Units=1/GPa)
#
#
# Indices 1 2 3 4 5 6 
#
# 1 0.030702 -0.037654 -0.059383 0.000000 -0.001772 0.000000
# 2 -0.037654 -0.002050 -0.011054 0.000000 -0.040690 0.000000
# 3 -0.059383 -0.011054 0.031129 0.000000 -0.059854 0.000000
# 4 0.000000 0.000000 0.000000 0.039736 0.000000 0.015150
# 5 -0.001772 -0.040690 -0.059854 0.000000 0.015466 0.000000
# 6 0.000000 0.000000 0.000000 0.015150 0.000000 0.040873
#
#
# Mechanical properties :
#
#
# Convention : Reuss Voigt Hill
#
# Bulk Modulus (GPa) = -6.39369 0.39749 -2.99810
# Shear Modulus (GPa) = 15.62962 22.56789 19.09875
#
# Velocity S-wave (km/s) = 2.81597 3.38375 3.11283
# Velocity P-wave (km/s) = 2.70722 3.93295 3.37618
#
# Compressibility (1/GPa) = -0.15640410
#
# Stress axis : x y z
#
# Youngs Moduli (GPa) = 32.57155 -487.75640 32.12432
#
# Poissons Ratio (x) = -18.36622 1.90765
# Poissons Ratio (y) = 1.22646 0.35512
# Poissons Ratio (z) = 1.93421 -5.39190
#
# Static dielectric constant tensor:
#      x y z
#    x 1.714480 0.000000 -0.033450 
#    y 0.000000 1.663930 0.000000 
#    z -0.033450 0.000000 1.753880 
# 
# From -- ./inp_files/58986.got.cif
#   From: 2010.05.17/outbox.ucp.g08.bks.cvg/sg14_30_cif.got.tgz:58986.got - 2010.06.11 12:31:08.
