data_PCOD9253071
_publ_section_title
;
Structure prediction by ZEFSAII (Michael W. Deem and Ramdas Pophale) SiO2 
 PCOD9253071
Probable space group: P 21/C
;
_chemical_formula_sum "Si O2"
_cell_formula_units_Z 28
_cell_length_a 28.993036
_cell_length_b 8.246895
_cell_length_c 28.955264
_cell_angle_alpha 90.000000
_cell_angle_beta 10.302989
_cell_angle_gamma 90.000000
_cell_volume 1238.252560
_symmetry_space_group_name_H-M "P 21/C"
_symmetry_group_IT_number 14
_symmetry_cell_setting 'monoclinic'
loop_
_space_group_symop_operation_xyz
x,y,z
-x,1/2+y,1/2-z
-x,-y,-z
x,1/2-y,1/2+z
loop_
_atom_site_type_symbol
_atom_site_label
_atom_site_fract_x
_atom_site_fract_y
_atom_site_fract_z
Si Si1 0.162165 0.475946 0.691999
Si Si2 0.243918 0.305578 0.184616
Si Si3 0.163569 0.230200 0.096986
Si Si4 0.323762 0.593522 0.395928
Si Si5 0.255995 0.398329 0.757775
Si Si6 0.674183 0.830006 0.702940
Si Si7 0.268148 0.550474 0.346966
O O1 0.186915 0.360902 0.712670
O O2 0.176771 0.360368 0.633353
O O3 0.403362 0.596525 0.454308
O O4 0.901404 0.579769 0.951530
O O5 0.246834 0.263212 0.235653
O O6 0.012098 0.423756 0.398814
O O7 0.514197 0.374285 0.900306
O O8 0.878069 0.302505 0.375046
O O9 0.382158 0.368732 0.880923
O O10 0.241815 0.091814 0.984130
O O11 0.283922 0.636950 0.381384
O O12 0.500000 0.500000 0.500000
O O13 0.282732 0.368640 0.785480
O O14 0.000000 0.500000 0.000000
O O15 0.678801 0.637099 0.695815
#
# Coordination Sequence:
#
# PCOD9253071 Si02
#       7
#     4   4   4   4   4   4   4
#     4  12  23  44  70  95 129 181 221 257 334 401
#     4  12  23  44  71  93 134 183 214 270 330 395
#     4  12  27  44  71  98 133 172 221 271 334 394
#     4  12  26  46  66 100 131 171 217 276 326 396
#     4  12  23  40  67 101 131 169 230 277 318 385
#     4  12  26  42  69 102 132 176 224 276 323 389
#     4  12  26  44  66  97 138 172 217 273 337 392
#
# _framework density 22.612511000000001
#
# number of rings (size 3 to 8) (size 9 to 14) (size 15 to 20)
#    0.000    0.000    5.714    4.286    4.000    1.143 
#    0.000    0.000    0.000    0.000    0.000    0.000 
#    0.000    0.000    0.000    0.000    0.000    0.000 
#
# Total GULP energy -157000.555131 kJ/mol
# GULP energy per Si atom -5607.162683 kJ/mol
# Density = 2.256104 g / cm^3
# Si number density = 22.612511 Si / 1000 Ang^3
#
#
#
# Elastic Constant Matrix: (Units=GPa)
#
#
# Indices 1 2 3 4 5 6 
#
# 1 68.1475 -16.5088 19.4921 0.0000 10.4809 0.0000
# 2 -16.5088 76.4325 19.8827 0.0000 8.8860 0.0000
# 3 19.4921 19.8827 125.8692 0.0000 19.1736 0.0000
# 4 0.0000 0.0000 0.0000 35.5973 0.0000 -2.8691
# 5 10.4809 8.8860 19.1736 0.0000 24.0753 0.0000
# 6 0.0000 0.0000 0.0000 -2.8691 0.0000 31.7116
#
#
#
# Elastic Compliance Matrix: (Units=1/GPa)
#
#
# Indices 1 2 3 4 5 6 
#
# 1 0.017886 0.005407 -0.002428 0.000000 -0.007848 0.000000
# 2 0.005407 0.015588 -0.002350 0.000000 -0.006236 0.000000
# 3 -0.002428 -0.002350 0.009558 0.000000 -0.005688 0.000000
# 4 0.000000 0.000000 0.000000 0.028298 0.000000 0.002560
# 5 -0.007848 -0.006236 -0.005688 0.000000 0.051784 0.000000
# 6 0.000000 0.000000 0.000000 0.002560 0.000000 0.031766
#
#
# Mechanical properties :
#
#
# Convention : Reuss Voigt Hill
#
# Bulk Modulus (GPa) = 22.57855 35.13124 28.85490
# Shear Modulus (GPa) = 29.69381 34.78237 32.23809
#
# Velocity S-wave (km/s) = 3.62768 3.92623 3.77991
# Velocity P-wave (km/s) = 5.24914 6.01030 5.64257
#
# Compressibility (1/GPa) = 0.04428981
#
# Stress axis : x y z
#
# Youngs Moduli (GPa) = 55.91102 64.15360 104.61971
#
# Poissons Ratio (x) = -0.34689 0.25406
# Poissons Ratio (y) = -0.30233 0.24583
# Poissons Ratio (z) = 0.13578 0.15074
#
# Static dielectric constant tensor:
#      x y z
#    x 1.859320 0.000000 0.021440 
#    y 0.000000 1.820720 0.000000 
#    z 0.021440 0.000000 1.780110 
# 
# From -- ./inp_files/80871.got.cif
#   From: 2010.05.17/outbox.cif.g08.bks.cpg/sg14_41_cif.got.tgz:80871.got - 2010.06.03 17:49:19.
