data_PCOD9253152
_publ_section_title
;
Structure prediction by ZEFSAII (Michael W. Deem and Ramdas Pophale) SiO2 
 PCOD9253152
Probable space group: P 21/C
;
_chemical_formula_sum "Si O2"
_cell_formula_units_Z 16
_cell_length_a 15.518309
_cell_length_b 4.832586
_cell_length_c 23.823367
_cell_angle_alpha 90.000000
_cell_angle_beta 160.022370
_cell_angle_gamma 90.000000
_cell_volume 610.397382
_symmetry_space_group_name_H-M "P 21/C"
_symmetry_group_IT_number 14
_symmetry_cell_setting 'monoclinic'
loop_
_space_group_symop_operation_xyz
x,y,z
-x,1/2+y,1/2-z
-x,-y,-z
x,1/2-y,1/2+z
loop_
_atom_site_type_symbol
_atom_site_label
_atom_site_fract_x
_atom_site_fract_y
_atom_site_fract_z
Si Si1 0.364049 0.956583 0.643337
Si Si2 0.451675 0.264521 0.357569
Si Si3 0.131323 0.613371 0.805917
Si Si4 0.132586 0.774769 0.175844
O O1 0.426202 0.697614 0.721149
O O2 0.374774 0.821292 0.588265
O O3 0.108215 0.123410 0.497186
O O4 0.593453 0.180379 0.501264
O O5 0.374037 0.581498 0.311972
O O6 0.199863 0.081367 0.197437
O O7 0.095270 0.700124 0.719904
O O8 0.059555 0.297392 0.773404
#
# Coordination Sequence:
#
# PCOD9253152 Si02
#       4
#     4   4   4   4
#     4  12  28  48  72 102 144 194 242 292 342 416
#     4  12  26  46  74 107 141 186 236 293 358 421
#     4  12  24  44  76 106 146 186 226 294 368 422
#     4  12  26  46  74 107 141 186 236 293 358 421
#
# _framework density 26.212430999999999
#
# number of rings (size 3 to 8) (size 9 to 14) (size 15 to 20)
#    0.000    0.000    2.500    7.500    3.500    6.000 
#    0.000    0.000    0.000    0.000    0.000    0.000 
#    0.000    0.000    0.000    0.000    0.000    0.000 
#
# Total GULP energy -89825.240705 kJ/mol
# GULP energy per Si atom -5614.077544 kJ/mol
# Density = 2.615277 g / cm^3
# Si number density = 26.212431 Si / 1000 Ang^3
#
#
#
# Elastic Constant Matrix: (Units=GPa)
#
#
# Indices 1 2 3 4 5 6 
#
# 1 73.0891 12.5535 -8.6833 0.0000 -11.3395 0.0000
# 2 12.5535 103.8081 11.3818 0.0000 -7.1858 0.0000
# 3 -8.6833 11.3818 83.0933 0.0000 -4.2902 0.0000
# 4 0.0000 0.0000 0.0000 51.8921 0.0000 10.0305
# 5 -11.3395 -7.1858 -4.2902 0.0000 23.5541 0.0000
# 6 0.0000 0.0000 0.0000 10.0305 0.0000 40.3647
#
#
#
# Elastic Compliance Matrix: (Units=1/GPa)
#
#
# Indices 1 2 3 4 5 6 
#
# 1 0.015350 -0.001592 0.002199 0.000000 0.007305 0.000000
# 2 -0.001592 0.010127 -0.001447 0.000000 0.002060 0.000000
# 3 0.002199 -0.001447 0.012613 0.000000 0.002915 0.000000
# 4 0.000000 0.000000 0.000000 0.020243 0.000000 -0.005030
# 5 0.007305 0.002060 0.002915 0.000000 0.047131 0.000000
# 6 0.000000 0.000000 0.000000 -0.005030 0.000000 0.026024
#
#
# Mechanical properties :
#
#
# Convention : Reuss Voigt Hill
#
# Bulk Modulus (GPa) = 27.46440 32.27715 29.87077
# Shear Modulus (GPa) = 34.41044 39.47809 36.94426
#
# Velocity S-wave (km/s) = 3.62712 3.88504 3.75829
# Velocity P-wave (km/s) = 5.29544 5.69782 5.50031
#
# Compressibility (1/GPa) = 0.03641078
#
# Stress axis : x y z
#
# Youngs Moduli (GPa) = 65.14696 98.74710 79.28201
#
# Poissons Ratio (x) = 0.15718 -0.17436
# Poissons Ratio (y) = 0.10370 0.11473
# Poissons Ratio (z) = -0.14328 0.14290
#
# Static dielectric constant tensor:
#      x y z
#    x 2.024560 0.000000 0.043000 
#    y 0.000000 1.916380 0.000000 
#    z 0.043000 0.000000 2.083450 
# 
# From -- ./inp_files/27287.got.cif
#   From: 2010.05.17/outbox.cif.g08.bks.cpg/sg14_14_cif.got.tgz:27287.got - 2010.06.03 17:49:19.
