data_PCOD9253607
_publ_section_title
;
Structure prediction by ZEFSAII (Michael W. Deem and Ramdas Pophale) SiO2 
 PCOD9253607
Probable space group: P 21/C
;
_chemical_formula_sum "Si O2"
_cell_formula_units_Z 32
_cell_length_a 15.000000
_cell_length_b 18.000000
_cell_length_c 12.000000
_cell_angle_alpha 90.000000
_cell_angle_beta 30.000000
_cell_angle_gamma 90.000000
_cell_volume 1620.000000
_symmetry_space_group_name_H-M "P 21/C"
_symmetry_group_IT_number 14
_symmetry_cell_setting 'monoclinic'
loop_
_space_group_symop_operation_xyz
x,y,z
-x,1/2+y,1/2-z
-x,-y,-z
x,1/2-y,1/2+z
loop_
_atom_site_type_symbol
_atom_site_label
_atom_site_fract_x
_atom_site_fract_y
_atom_site_fract_z
Si Si1 0.395507 0.936757 0.222079
Si Si2 0.240640 0.070057 0.254848
Si Si3 0.614584 0.394555 0.901424
Si Si4 0.192715 0.345933 0.031406
Si Si5 0.431662 0.467573 0.895231
Si Si6 0.981487 0.368087 0.859189
Si Si7 0.038473 0.703892 0.520616
Si Si8 0.760197 0.684884 0.617450
O O1 0.218991 0.893867 0.455129
O O2 0.309799 0.989159 0.218758
O O3 0.476475 0.987552 0.233693
O O4 0.569024 0.892746 0.989186
O O5 0.164034 0.109291 0.448139
O O6 0.093285 0.076588 0.318619
O O7 0.575680 0.429732 0.821122
O O8 0.778122 0.335929 0.717662
O O9 0.655680 0.466911 0.934057
O O10 0.427546 0.356630 0.149065
O O11 0.315311 0.399015 0.975055
O O12 0.270692 0.266080 0.906500
O O13 0.023842 0.330678 0.293375
O O14 0.953236 0.291612 0.959613
O O15 0.111045 0.355679 0.612507
O O16 0.882409 0.693298 0.596598
#
# Coordination Sequence:
#
# PCOD9253607 Si02
#       8
#     4   4   4   4   4   4   4   4
#     4  10  22  41  65  98 128 175 222 267 330 402
#     4  10  21  42  62  93 135 173 217 269 332 392
#     4  11  24  44  70  96 131 179 224 272 329 401
#     4  10  22  44  66  94 139 170 212 281 326 387
#     4  10  22  46  65  99 132 173 224 270 336 385
#     4  11  23  40  65  95 131 168 219 275 330 394
#     4  11  24  43  65 101 125 171 227 262 339 396
#     4  11  23  44  66  95 134 170 216 281 328 387
#
# _framework density 19.753086
#
# number of rings (size 3 to 8) (size 9 to 14) (size 15 to 20)
#    0.000    1.500    2.500    1.875    1.750    0.500 
#   27.000    0.000    0.000    0.000    0.000    0.000 
#    0.000    0.000    0.000    0.000    0.000    0.000 
#
# Total GULP energy -178449.773352 kJ/mol
# GULP energy per Si atom -5576.555417 kJ/mol
# Density = 1.970813 g / cm^3
# Si number density = 19.753086 Si / 1000 Ang^3
#
#
#
# Elastic Constant Matrix: (Units=GPa)
#
#
# Indices 1 2 3 4 5 6 
#
# 1 94.2606 24.4938 35.9170 0.0000 7.7289 0.0000
# 2 24.4938 65.6261 34.3362 0.0000 -2.3417 0.0000
# 3 35.9170 34.3362 120.7480 0.0000 -2.7778 0.0000
# 4 0.0000 0.0000 0.0000 31.6070 0.0000 3.9967
# 5 7.7289 -2.3417 -2.7778 0.0000 31.1362 0.0000
# 6 0.0000 0.0000 0.0000 3.9967 0.0000 39.2947
#
#
#
# Elastic Compliance Matrix: (Units=1/GPa)
#
#
# Indices 1 2 3 4 5 6 
#
# 1 0.012929 -0.003409 -0.002962 0.000000 -0.003730 0.000000
# 2 -0.003409 0.018825 -0.004296 0.000000 0.001879 0.000000
# 3 -0.002962 -0.004296 0.010415 0.000000 0.001341 0.000000
# 4 0.000000 0.000000 0.000000 0.032051 0.000000 -0.003260
# 5 -0.003730 0.001879 0.001341 0.000000 0.033304 0.000000
# 6 0.000000 0.000000 0.000000 -0.003260 0.000000 0.025780
#
#
# Mechanical properties :
#
#
# Convention : Reuss Voigt Hill
#
# Bulk Modulus (GPa) = 47.99538 52.23652 50.11595
# Shear Modulus (GPa) = 30.94375 32.80009 31.87192
#
# Velocity S-wave (km/s) = 3.96223 4.07935 4.02122
# Velocity P-wave (km/s) = 6.72925 6.97784 6.85467
#
# Compressibility (1/GPa) = 0.02083534
#
# Stress axis : x y z
#
# Youngs Moduli (GPa) = 77.34377 53.12144 96.01246
#
# Poissons Ratio (x) = 0.18108 0.28442
# Poissons Ratio (y) = 0.26365 0.41246
# Poissons Ratio (z) = 0.22912 0.22820
#
# Static dielectric constant tensor:
#      x y z
#    x 1.694500 0.000000 0.029230 
#    y 0.000000 1.728210 0.000000 
#    z 0.029230 0.000000 1.715120 
# 
# From -- ./inp_files/33026.got.cif
#   From: 2010.05.17/outbox.ucp.g08.bks.cvg/sg14_17_cif.got.tgz:33026.got - 2010.06.11 12:31:08.
