data_PCOD9253349
_publ_section_title
;
Structure prediction by ZEFSAII (Michael W. Deem and Ramdas Pophale) SiO2 
 PCOD9253349
Probable space group: P 21/C
;
_chemical_formula_sum "Si O2"
_cell_formula_units_Z 18
_cell_length_a 10.901510
_cell_length_b 5.523139
_cell_length_c 16.954798
_cell_angle_alpha 90.000000
_cell_angle_beta 142.311568
_cell_angle_gamma 90.000000
_cell_volume 624.119055
_symmetry_space_group_name_H-M "P 21/C"
_symmetry_group_IT_number 14
_symmetry_cell_setting 'monoclinic'
loop_
_space_group_symop_operation_xyz
x,y,z
-x,1/2+y,1/2-z
-x,-y,-z
x,1/2-y,1/2+z
loop_
_atom_site_type_symbol
_atom_site_label
_atom_site_fract_x
_atom_site_fract_y
_atom_site_fract_z
Si Si1 0.696755 0.403904 0.293259
Si Si2 0.000000 0.500000 0.000000
Si Si3 0.266500 0.263566 0.315390
Si Si4 0.605949 0.958308 0.922172
Si Si5 0.899693 0.604124 0.115463
O O1 0.774912 0.649592 0.292683
O O2 0.533639 0.282093 0.153204
O O3 0.605268 0.459650 0.331449
O O4 0.876511 0.217581 0.395689
O O5 0.143922 0.520409 0.991269
O O6 0.492548 0.356827 0.420843
O O7 0.221986 0.079426 0.363388
O O8 0.114381 0.488730 0.245754
O O9 0.825896 0.879996 0.060256
#
# Coordination Sequence:
#
# PCOD9253349 Si02
#       5
#     4   2   4   4   4
#     4  12  26  54  82 119 166 213 280 334 417 494
#     4  12  26  52  78 120 158 218 264 340 406 494
#     4  12  28  54  79 124 168 214 280 345 405 500
#     4  12  26  53  82 120 163 222 275 342 410 500
#     4  12  28  50  83 119 163 219 274 343 413 479
#
# _framework density 28.840651999999999
#
# number of rings (size 3 to 8) (size 9 to 14) (size 15 to 20)
#    0.000    0.000    4.444    4.667    0.000    6.222 
#    0.000    0.000    0.000    0.000    0.000    0.000 
#    0.000    0.000    0.000    0.000    0.000    0.000 
#
# Total GULP energy -100354.199093 kJ/mol
# GULP energy per Si atom -5575.233283 kJ/mol
# Density = 2.877501 g / cm^3
# Si number density = 28.840652 Si / 1000 Ang^3
#
#
#
# Elastic Constant Matrix: (Units=GPa)
#
#
# Indices 1 2 3 4 5 6 
#
# 1 261.9465 75.8097 63.5185 0.0000 -20.5641 0.0000
# 2 75.8097 108.6539 50.1848 0.0000 19.7620 0.0000
# 3 63.5185 50.1848 104.8061 0.0000 -9.5646 0.0000
# 4 0.0000 0.0000 0.0000 64.3593 0.0000 1.8975
# 5 -20.5641 19.7620 -9.5646 0.0000 55.0909 0.0000
# 6 0.0000 0.0000 0.0000 1.8975 0.0000 59.8525
#
#
#
# Elastic Compliance Matrix: (Units=1/GPa)
#
#
# Indices 1 2 3 4 5 6 
#
# 1 0.005473 -0.003864 -0.001173 0.000000 0.003226 0.000000
# 2 -0.003864 0.016297 -0.006226 0.000000 -0.008369 0.000000
# 3 -0.001173 -0.006226 0.013613 0.000000 0.004159 0.000000
# 4 0.000000 0.000000 0.000000 0.015552 0.000000 -0.000493
# 5 0.003226 -0.008369 0.004159 0.000000 0.023080 0.000000
# 6 0.000000 0.000000 0.000000 -0.000493 0.000000 0.016723
#
#
# Mechanical properties :
#
#
# Convention : Reuss Voigt Hill
#
# Bulk Modulus (GPa) = 77.76771 94.93696 86.35234
# Shear Modulus (GPa) = 42.53516 54.92012 48.72764
#
# Velocity S-wave (km/s) = 3.84452 4.36852 4.11487
# Velocity P-wave (km/s) = 6.83596 7.64425 7.25137
#
# Compressibility (1/GPa) = 0.01285881
#
# Stress axis : x y z
#
# Youngs Moduli (GPa) = 182.70163 61.36034 73.46066
#
# Poissons Ratio (x) = 0.23709 0.08614
# Poissons Ratio (y) = 0.70595 0.45734
# Poissons Ratio (z) = 0.21424 0.38201
#
# Static dielectric constant tensor:
#      x y z
#    x 2.397390 0.000000 0.036130 
#    y 0.000000 2.391620 0.000000 
#    z 0.036130 0.000000 2.355160 
# 
# From -- ./inp_files/56497.got.cif
#   From: 2010.05.17/outbox.cif.g08.bks.cpg/sg14_29_cif.got.tgz:56497.got - 2010.06.03 17:49:19.
