data_PCOD9253221
_publ_section_title
;
Structure prediction by ZEFSAII (Michael W. Deem and Ramdas Pophale) SiO2 
 PCOD9253221
Probable space group: P 21/C
;
_chemical_formula_sum "Si O2"
_cell_formula_units_Z 20
_cell_length_a 19.083354
_cell_length_b 6.660031
_cell_length_c 10.258165
_cell_angle_alpha 90.000000
_cell_angle_beta 136.316043
_cell_angle_gamma 90.000000
_cell_volume 900.487082
_symmetry_space_group_name_H-M "P 21/C"
_symmetry_group_IT_number 14
_symmetry_cell_setting 'monoclinic'
loop_
_space_group_symop_operation_xyz
x,y,z
-x,1/2+y,1/2-z
-x,-y,-z
x,1/2-y,1/2+z
loop_
_atom_site_type_symbol
_atom_site_label
_atom_site_fract_x
_atom_site_fract_y
_atom_site_fract_z
Si Si1 0.119733 0.032314 0.164514
Si Si2 0.199344 0.306015 0.039562
Si Si3 0.426939 0.936416 0.516673
Si Si4 0.629114 0.807532 0.898768
Si Si5 0.747704 0.348129 0.707655
O O1 0.153196 0.142242 0.075283
O O2 0.147195 0.166483 0.328423
O O3 0.178107 0.818681 0.252630
O O4 0.000000 0.000000 0.000000
O O5 0.316533 0.256032 0.162184
O O6 0.196227 0.517154 0.110603
O O7 0.509577 0.852262 0.730231
O O8 0.347138 0.773264 0.361175
O O9 0.500000 0.000000 0.500000
O O10 0.365153 0.115367 0.500090
O O11 0.693815 0.996180 0.036429
#
# Coordination Sequence:
#
# PCOD9253221 Si02
#       5
#     4   4   4   4   4
#     4  12  31  51  83 113 148 202 257 328 395 462
#     4  12  28  52  76 114 156 197 264 320 386 461
#     4  12  26  41  71 110 152 206 253 305 379 454
#     4  12  25  46  71 113 153 201 255 312 374 460
#     4  12  26  48  76 105 155 203 253 318 381 451
#
# _framework density 22.210203
#
# number of rings (size 3 to 8) (size 9 to 14) (size 15 to 20)
#    0.000    0.000    6.000    2.400   11.200    2.400 
#    0.000    0.000    0.000    0.000    0.000    0.000 
#    0.000    0.000    0.000    0.000    0.000    0.000 
#
# Total GULP energy -111894.006455 kJ/mol
# GULP energy per Si atom -5594.700323 kJ/mol
# Density = 2.215965 g / cm^3
# Si number density = 22.210203 Si / 1000 Ang^3
#
#
#
# Elastic Constant Matrix: (Units=GPa)
#
#
# Indices 1 2 3 4 5 6 
#
# 1 103.3747 35.7170 14.7345 0.0000 4.8569 0.0000
# 2 35.7170 100.5693 6.2522 0.0000 7.5034 0.0000
# 3 14.7345 6.2522 70.7534 0.0000 14.7456 0.0000
# 4 0.0000 0.0000 0.0000 34.7182 0.0000 -3.6885
# 5 4.8569 7.5034 14.7456 0.0000 43.9327 0.0000
# 6 0.0000 0.0000 0.0000 -3.6885 0.0000 32.4410
#
#
#
# Elastic Compliance Matrix: (Units=1/GPa)
#
#
# Indices 1 2 3 4 5 6 
#
# 1 0.011304 -0.003896 -0.002030 0.000000 0.000097 0.000000
# 2 -0.003896 0.011436 0.000127 0.000000 -0.001565 0.000000
# 3 -0.002030 0.000127 0.015594 0.000000 -0.005031 0.000000
# 4 0.000000 0.000000 0.000000 0.029156 0.000000 0.003315
# 5 0.000097 -0.001565 -0.005031 0.000000 0.024707 0.000000
# 6 0.000000 0.000000 0.000000 0.003315 0.000000 0.031202
#
#
# Mechanical properties :
#
#
# Convention : Reuss Voigt Hill
#
# Bulk Modulus (GPa) = 37.40276 43.12277 40.26277
# Shear Modulus (GPa) = 34.74424 36.75129 35.74776
#
# Velocity S-wave (km/s) = 3.95946 4.07222 4.01623
# Velocity P-wave (km/s) = 6.14655 6.44736 6.29875
#
# Compressibility (1/GPa) = 0.02673599
#
# Stress axis : x y z
#
# Youngs Moduli (GPa) = 88.46135 87.44443 64.12853
#
# Poissons Ratio (x) = 0.34066 0.13019
# Poissons Ratio (y) = 0.34462 -0.00814
# Poissons Ratio (z) = 0.17959 -0.01110
#
# Static dielectric constant tensor:
#      x y z
#    x 1.777380 0.000000 -0.016060 
#    y 0.000000 1.853820 0.000000 
#    z -0.016060 0.000000 1.939280 
# 
# From -- ./inp_files/33314.got.cif
#   From: 2010.05.17/outbox.cif.g08.bks.cpg/sg14_17_cif.got.tgz:33314.got - 2010.06.03 17:49:19.
