data_PCOD9253721
_publ_section_title
;
Structure prediction by ZEFSAII (Michael W. Deem and Ramdas Pophale) SiO2 
 PCOD9253721
Probable space group: P 21/C
;
_chemical_formula_sum "Si O2"
_cell_formula_units_Z 28
_cell_length_a 15.000000
_cell_length_b 15.000000
_cell_length_c 9.000000
_cell_angle_alpha 90.000000
_cell_angle_beta 40.000000
_cell_angle_gamma 90.000000
_cell_volume 1301.644910
_symmetry_space_group_name_H-M "P 21/C"
_symmetry_group_IT_number 14
_symmetry_cell_setting 'monoclinic'
loop_
_space_group_symop_operation_xyz
x,y,z
-x,1/2+y,1/2-z
-x,-y,-z
x,1/2-y,1/2+z
loop_
_atom_site_type_symbol
_atom_site_label
_atom_site_fract_x
_atom_site_fract_y
_atom_site_fract_z
Si Si1 0.796032 0.503822 0.470433
Si Si2 0.215978 0.616043 0.825189
Si Si3 0.223916 0.975749 0.651362
Si Si4 0.509976 0.793254 0.009731
Si Si5 0.072304 0.328220 0.852445
Si Si6 0.483297 0.381444 0.175586
Si Si7 0.796403 0.661692 0.986694
O O1 0.788558 0.441749 0.326956
O O2 0.896544 0.582572 0.283002
O O3 0.647757 0.553717 0.674258
O O4 0.832320 0.470165 0.597441
O O5 0.366616 0.661312 0.641763
O O6 0.192265 0.573403 0.025281
O O7 0.091869 0.686064 0.956588
O O8 0.380034 0.941112 0.478457
O O9 0.198841 0.076981 0.629503
O O10 0.531089 0.821667 0.154940
O O11 0.504470 0.687983 0.977258
O O12 0.640420 0.829742 0.749398
O O13 0.155789 0.247343 0.669862
O O14 0.114114 0.342899 0.972793
#
# Coordination Sequence:
#
# PCOD9253721 Si02
#       7
#     4   4   4   4   4   4   4
#     4  12  23  45  74 103 145 194 240 301 366 438
#     4  11  27  49  69 109 147 190 239 309 366 431
#     4  11  26  44  76 106 145 189 250 297 366 434
#     4  11  23  43  73 100 150 185 246 302 358 428
#     4  12  26  46  74 105 151 191 244 301 377 430
#     4  11  24  42  71 114 141 194 247 306 364 426
#     4  12  23  47  72 107 144 194 244 304 358 449
#
# _framework density 21.511243
#
# number of rings (size 3 to 8) (size 9 to 14) (size 15 to 20)
#    0.000    0.571    4.286    2.571    4.000    5.143 
#    2.571    0.000    0.000    0.000    0.000    0.000 
#    0.000    0.000    0.000    0.000    0.000    0.000 
#
# Total GULP energy -156191.917518 kJ/mol
# GULP energy per Si atom -5578.282769 kJ/mol
# Density = 2.146228 g / cm^3
# Si number density = 21.511243 Si / 1000 Ang^3
#
#
#
# Elastic Constant Matrix: (Units=GPa)
#
#
# Indices 1 2 3 4 5 6 
#
# 1 124.7748 11.6177 38.2067 0.0000 13.1506 0.0000
# 2 11.6177 39.7521 15.1756 0.0000 2.3222 0.0000
# 3 38.2067 15.1756 68.6712 0.0000 19.1459 0.0000
# 4 0.0000 0.0000 0.0000 24.7276 0.0000 18.4517
# 5 13.1506 2.3222 19.1459 0.0000 58.3950 0.0000
# 6 0.0000 0.0000 0.0000 18.4517 0.0000 34.9952
#
#
#
# Elastic Compliance Matrix: (Units=1/GPa)
#
#
# Indices 1 2 3 4 5 6 
#
# 1 0.009699 -0.000871 -0.005067 0.000000 -0.000488 0.000000
# 2 -0.000871 0.027604 -0.005904 0.000000 0.001034 0.000000
# 3 -0.005067 -0.005904 0.020144 0.000000 -0.005229 0.000000
# 4 0.000000 0.000000 0.000000 0.066672 0.000000 -0.035154
# 5 -0.000488 0.001034 -0.005229 0.000000 0.018908 0.000000
# 6 0.000000 0.000000 0.000000 -0.035154 0.000000 0.047111
#
#
# Mechanical properties :
#
#
# Convention : Reuss Voigt Hill
#
# Bulk Modulus (GPa) = 29.61953 40.35532 34.98742
# Shear Modulus (GPa) = 22.21467 34.83677 28.52572
#
# Velocity S-wave (km/s) = 3.21705 4.02863 3.64549
# Velocity P-wave (km/s) = 5.25342 6.35929 5.83263
#
# Compressibility (1/GPa) = 0.03376151
#
# Stress axis : x y z
#
# Youngs Moduli (GPa) = 103.10675 36.22674 49.64279
#
# Poissons Ratio (x) = 0.03157 0.25156
# Poissons Ratio (y) = 0.08985 0.29307
# Poissons Ratio (z) = 0.52249 0.21387
#
# Static dielectric constant tensor:
#      x y z
#    x 1.806110 0.000000 0.007220 
#    y 0.000000 1.794260 0.000000 
#    z 0.007220 0.000000 1.819380 
# 
# From -- ./inp_files/16404.got.cif
#   From: 2010.05.17/outbox.ucp.g08.bks.cvg/sg14_9_cif.got.tgz:16404.got - 2010.06.11 12:31:08.
