data_PCOD9253485
_publ_section_title
;
Structure prediction by ZEFSAII (Michael W. Deem and Ramdas Pophale) SiO2 
 PCOD9253485
Probable space group: P 21/C
;
_chemical_formula_sum "Si O2"
_cell_formula_units_Z 32
_cell_length_a 9.000000
_cell_length_b 24.000000
_cell_length_c 15.000000
_cell_angle_alpha 90.000000
_cell_angle_beta 150.000000
_cell_angle_gamma 90.000000
_cell_volume 1620.000000
_symmetry_space_group_name_H-M "P 21/C"
_symmetry_group_IT_number 14
_symmetry_cell_setting 'monoclinic'
loop_
_space_group_symop_operation_xyz
x,y,z
-x,1/2+y,1/2-z
-x,-y,-z
x,1/2-y,1/2+z
loop_
_atom_site_type_symbol
_atom_site_label
_atom_site_fract_x
_atom_site_fract_y
_atom_site_fract_z
Si Si1 0.582846 0.091481 0.071984
Si Si2 0.806504 0.005068 0.041590
Si Si3 0.441735 0.261790 0.161919
Si Si4 0.006321 0.330247 0.507889
Si Si5 0.571554 0.215461 0.033868
Si Si6 0.812177 0.627847 0.036043
Si Si7 0.706030 0.055680 0.796342
Si Si8 0.785956 0.685301 0.197207
O O1 0.849606 0.110111 0.275548
O O2 0.363050 0.048974 0.006783
O O3 0.735062 0.055843 0.071431
O O4 0.453093 0.151466 0.971716
O O5 0.700419 0.024512 0.888437
O O6 0.143024 0.984832 0.197688
O O7 0.722569 0.288379 0.359213
O O8 0.542147 0.243226 0.115446
O O9 0.223431 0.315199 0.038365
O O10 0.271601 0.207380 0.107444
O O11 0.906004 0.387412 0.408424
O O12 0.113869 0.345506 0.662314
O O13 0.418076 0.261143 0.891064
O O14 0.914398 0.210838 0.188254
O O15 0.677624 0.643879 0.063776
O O16 0.616702 0.578621 0.894964
#
# Coordination Sequence:
#
# PCOD9253485 Si02
#       8
#     4   4   4   4   4   4   4   4
#     4  10  20  37  56  77 106 139 177 221 262 305
#     4  10  22  37  56  78 100 139 186 221 261 304
#     4  10  20  33  54  82 107 138 171 205 263 327
#     4  11  20  34  54  80 111 137 170 215 259 312
#     4  10  19  35  54  77 110 141 169 209 260 316
#     4   9  20  36  56  78 107 139 171 215 267 315
#     4  10  21  37  56  77 105 139 178 222 261 303
#     4  10  20  33  54  82 110 139 170 205 261 325
#
# _framework density 19.753086
#
# number of rings (size 3 to 8) (size 9 to 14) (size 15 to 20)
#    0.000    2.000    0.000    5.250    0.000    4.000 
#    0.000    0.000    0.000    6.000    0.000    0.000 
#    0.000    0.000    0.000    0.000    0.000    0.000 
#
# Total GULP energy -178413.231270 kJ/mol
# GULP energy per Si atom -5575.413477 kJ/mol
# Density = 1.970813 g / cm^3
# Si number density = 19.753086 Si / 1000 Ang^3
#
#
#
# Elastic Constant Matrix: (Units=GPa)
#
#
# Indices 1 2 3 4 5 6 
#
# 1 32.4537 -18.8202 -6.6316 0.0000 3.3364 0.0000
# 2 -18.8202 38.4601 -5.4675 0.0000 -1.2937 0.0000
# 3 -6.6316 -5.4675 19.7442 0.0000 -6.0473 0.0000
# 4 0.0000 0.0000 0.0000 34.1096 0.0000 4.4639
# 5 3.3364 -1.2937 -6.0473 0.0000 14.2990 0.0000
# 6 0.0000 0.0000 0.0000 4.4639 0.0000 32.9270
#
#
#
# Elastic Compliance Matrix: (Units=1/GPa)
#
#
# Indices 1 2 3 4 5 6 
#
# 1 0.053571 0.030076 0.026798 0.000000 0.001555 0.000000
# 2 0.030076 0.044481 0.024703 0.000000 0.007454 0.000000
# 3 0.026798 0.024703 0.074970 0.000000 0.027688 0.000000
# 4 0.000000 0.000000 0.000000 0.029847 0.000000 -0.004046
# 5 0.001555 0.007454 0.027688 0.000000 0.081957 0.000000
# 6 0.000000 0.000000 0.000000 -0.004046 0.000000 0.030919
#
#
# Mechanical properties :
#
#
# Convention : Reuss Voigt Hill
#
# Bulk Modulus (GPa) = 2.97463 3.20215 3.08839
# Shear Modulus (GPa) = 18.89302 24.37227 21.63264
#
# Velocity S-wave (km/s) = 3.09602 3.51643 3.31290
# Velocity P-wave (km/s) = 3.78016 4.25577 4.02500
#
# Compressibility (1/GPa) = 0.33617651
#
# Stress axis : x y z
#
# Youngs Moduli (GPa) = 18.66686 22.48144 13.33872
#
# Poissons Ratio (x) = -0.67616 -0.35745
# Poissons Ratio (y) = -0.56143 -0.32950
# Poissons Ratio (z) = -0.50024 -0.55535
#
# Static dielectric constant tensor:
#      x y z
#    x 1.726070 0.000000 -0.030750 
#    y 0.000000 1.691420 0.000000 
#    z -0.030750 0.000000 1.723920 
# 
# From -- ./inp_files/10808.got.cif
#   From: 2010.05.17/outbox.ucp.g08.bks.cvg/sg14_6_cif.got.tgz:10808.got - 2010.06.11 12:31:08.
