data_PCOD9253173
_publ_section_title
;
Structure prediction by ZEFSAII (Michael W. Deem and Ramdas Pophale) SiO2 
 PCOD9253173
Probable space group: P 21/C
;
_chemical_formula_sum "Si O2"
_cell_formula_units_Z 20
_cell_length_a 11.731765
_cell_length_b 11.681681
_cell_length_c 14.626939
_cell_angle_alpha 90.000000
_cell_angle_beta 27.370962
_cell_angle_gamma 90.000000
_cell_volume 921.602558
_symmetry_space_group_name_H-M "P 21/C"
_symmetry_group_IT_number 14
_symmetry_cell_setting 'monoclinic'
loop_
_space_group_symop_operation_xyz
x,y,z
-x,1/2+y,1/2-z
-x,-y,-z
x,1/2-y,1/2+z
loop_
_atom_site_type_symbol
_atom_site_label
_atom_site_fract_x
_atom_site_fract_y
_atom_site_fract_z
Si Si1 0.661108 0.972468 0.105863
Si Si2 0.466545 0.090743 0.604377
Si Si3 0.976740 0.302826 0.379374
Si Si4 0.825737 0.110523 0.627409
Si Si5 0.948779 0.224926 0.208467
O O1 0.534302 0.966162 0.295678
O O2 0.456405 0.934024 0.178123
O O3 0.886655 0.881696 0.942216
O O4 0.770681 0.098623 0.015495
O O5 0.688102 0.179571 0.433245
O O6 0.201698 0.149344 0.779048
O O7 0.500000 0.000000 0.500000
O O8 0.873107 0.193010 0.506581
O O9 0.077925 0.277576 0.205941
O O10 0.893445 0.185180 0.668141
O O11 0.000000 0.000000 0.500000
#
# Coordination Sequence:
#
# PCOD9253173 Si02
#       5
#     4   4   4   4   4
#     4  12  27  50  76 109 149 195 254 308 372 451
#     4  12  24  47  78 106 141 191 254 304 371 441
#     4  12  27  48  77 108 149 197 249 309 377 444
#     4  12  30  48  77 111 156 195 250 314 375 447
#     4  12  27  49  77 109 147 200 243 311 377 445
#
# _framework density 21.701329000000001
#
# number of rings (size 3 to 8) (size 9 to 14) (size 15 to 20)
#    0.000    0.000    6.000    3.000   11.200    0.800 
#    0.000    0.000    0.000    0.000    0.000    0.000 
#    0.000    0.000    0.000    0.000    0.000    0.000 
#
# Total GULP energy -111988.042679 kJ/mol
# GULP energy per Si atom -5599.402134 kJ/mol
# Density = 2.165194 g / cm^3
# Si number density = 21.701329 Si / 1000 Ang^3
#
#
#
# Elastic Constant Matrix: (Units=GPa)
#
#
# Indices 1 2 3 4 5 6 
#
# 1 81.8810 36.3404 9.6897 0.0000 16.2515 0.0000
# 2 36.3404 144.3846 46.4595 0.0000 5.3346 0.0000
# 3 9.6897 46.4595 72.0464 0.0000 0.0766 0.0000
# 4 0.0000 0.0000 0.0000 42.5773 0.0000 4.4751
# 5 16.2515 5.3346 0.0766 0.0000 56.1513 0.0000
# 6 0.0000 0.0000 0.0000 4.4751 0.0000 23.0011
#
#
#
# Elastic Compliance Matrix: (Units=1/GPa)
#
#
# Indices 1 2 3 4 5 6 
#
# 1 0.014552 -0.003648 0.000400 0.000000 -0.003866 0.000000
# 2 -0.003648 0.009692 -0.005760 0.000000 0.000143 0.000000
# 3 0.000400 -0.005760 0.017540 0.000000 0.000408 0.000000
# 4 0.000000 0.000000 0.000000 0.023977 0.000000 -0.004665
# 5 -0.003866 0.000143 0.000408 0.000000 0.018914 0.000000
# 6 0.000000 0.000000 0.000000 -0.004665 0.000000 0.044384
#
#
# Mechanical properties :
#
#
# Convention : Reuss Voigt Hill
#
# Bulk Modulus (GPa) = 42.07428 53.69903 47.88665
# Shear Modulus (GPa) = 32.25855 38.06743 35.16299
#
# Velocity S-wave (km/s) = 3.85967 4.19280 4.02968
# Velocity P-wave (km/s) = 6.26839 6.94534 6.61553
#
# Compressibility (1/GPa) = 0.02376749
#
# Stress axis : x y z
#
# Youngs Moduli (GPa) = 68.71905 103.17555 57.01313
#
# Poissons Ratio (x) = 0.37643 -0.02279
# Poissons Ratio (y) = 0.25071 0.32837
# Poissons Ratio (z) = -0.02746 0.59424
#
# Static dielectric constant tensor:
#      x y z
#    x 1.832340 0.000000 -0.027430 
#    y 0.000000 1.798500 0.000000 
#    z -0.027430 0.000000 1.781630 
# 
# From -- ./inp_files/28882.got.cif
#   From: 2010.05.17/outbox.cif.g08.bks.cpg/sg14_15_cif.got.tgz:28882.got - 2010.06.03 17:49:19.
