data_PCOD9253808
_publ_section_title
;
Structure prediction by ZEFSAII (Michael W. Deem and Ramdas Pophale) SiO2 
 PCOD9253808
Probable space group: C 2/C
;
_chemical_formula_sum "Si O2"
_cell_formula_units_Z 60
_cell_length_a 36.411181
_cell_length_b 10.963561
_cell_length_c 5.399169
_cell_angle_alpha 90.000000
_cell_angle_beta 93.923163
_cell_angle_gamma 90.000000
_cell_volume 2150.277191
_symmetry_space_group_name_H-M "C 2/C"
_symmetry_group_IT_number 15
_symmetry_cell_setting 'monoclinic'
loop_
_space_group_symop_operation_xyz
x,y,z
-x,y,1/2-z
-x,-y,-z
x,-y,1/2+z
1/2+x,1/2+y,z
1/2-x,1/2+y,1/2-z
1/2-x,1/2-y,-z
1/2+x,1/2-y,1/2+z
loop_
_atom_site_type_symbol
_atom_site_label
_atom_site_fract_x
_atom_site_fract_y
_atom_site_fract_z
Si Si1 0.143464 0.151390 0.656281
Si Si2 0.800087 0.423051 0.307719
Si Si3 0.541378 0.857767 0.370174
Si Si4 0.000000 0.703080 0.250000
Si Si5 0.534532 0.387899 0.652876
Si Si6 0.885703 0.885773 0.861689
Si Si7 0.778372 0.916779 0.311554
Si Si8 0.378339 0.927475 0.219786
O O1 0.122265 0.189286 0.894285
O O2 0.186825 0.174003 0.684084
O O3 0.140688 0.002739 0.655515
O O4 0.121963 0.183815 0.397091
O O5 0.799158 0.472933 0.589171
O O6 0.839317 0.362437 0.272189
O O7 0.761679 0.354613 0.238216
O O8 0.500000 0.883878 0.250000
O O9 0.532561 0.882482 0.653375
O O10 0.543106 0.709125 0.373948
O O11 0.578389 0.891411 0.247069
O O12 0.022690 0.794227 0.435949
O O13 0.500000 0.461285 0.750000
O O14 0.573415 0.442589 0.603606
O O15 0.780445 0.009407 0.074290
O O16 0.375401 0.033676 0.429580
#
# Coordination Sequence:
#
# PCOD9253808 Si02
#       8
#     8   8   8   4   8   8   8   8
#     4  10  18  30  45  74 104 123 155 208 248 297
#     4   8  16  27  44  67  99 127 159 185 231 291
#     4   9  20  35  52  72  96 129 169 205 239 288
#     4   8  18  36  52  68  88 126 172 208 236 280
#     4   9  20  35  52  69  90 131 171 209 234 291
#     4  10  19  31  48  71  99 126 161 205 250 282
#     4  10  14  26  44  67  98 130 155 191 239 283
#     4  10  21  34  50  78 107 128 156 197 249 296
#
# _framework density 27.903379000000001
#
# number of rings (size 3 to 8) (size 9 to 14) (size 15 to 20)
#    0.000    2.933    2.667    0.000    7.467    0.533 
#    0.000    2.667    0.000    0.000    0.000    1.867 
#    0.000    0.000    0.000    0.000    0.000    0.000 
#
# Total GULP energy -167236.050811 kJ/mol
# GULP energy per Si atom -5574.535027 kJ/mol
# Density = 2.783987 g / cm^3
# Si number density = 27.903379 Si / 1000 Ang^3
#
#
#
# Elastic Constant Matrix: (Units=GPa)
#
#
# Indices 1 2 3 4 5 6 
#
# 1 263.5256 22.2857 49.2842 0.0000 -13.1576 0.0000
# 2 22.2857 31.8746 -1.5022 0.0000 1.5078 0.0000
# 3 49.2842 -1.5022 177.6705 0.0000 -5.0050 0.0000
# 4 0.0000 0.0000 0.0000 18.5516 0.0000 8.2735
# 5 -13.1576 1.5078 -5.0050 0.0000 39.0427 0.0000
# 6 0.0000 0.0000 0.0000 8.2735 0.0000 -12.5432
#
#
#
# Elastic Compliance Matrix: (Units=1/GPa)
#
#
# Indices 1 2 3 4 5 6 
#
# 1 0.004358 -0.003171 -0.001195 0.000000 0.001438 0.000000
# 2 -0.003171 0.033748 0.001102 0.000000 -0.002231 0.000000
# 3 -0.001195 0.001102 0.005978 0.000000 0.000321 0.000000
# 4 0.000000 0.000000 0.000000 0.041651 0.000000 0.027473
# 5 0.001438 -0.002231 0.000321 0.000000 0.026225 0.000000
# 6 0.000000 0.000000 0.000000 0.027473 0.000000 -0.061603
#
#
# Mechanical properties :
#
#
# Convention : Reuss Voigt Hill
#
# Bulk Modulus (GPa) = 26.62736 68.13400 47.38068
# Shear Modulus (GPa) = 72.04099 35.87709 53.95904
#
# Velocity S-wave (km/s) = 5.08666 3.58964 4.40225
# Velocity P-wave (km/s) = 6.63793 6.45380 6.54651
#
# Compressibility (1/GPa) = 0.03755535
#
# Stress axis : x y z
#
# Youngs Moduli (GPa) = 229.45083 29.63158 167.27139
#
# Poissons Ratio (x) = 0.09398 0.19993
# Poissons Ratio (y) = 0.72770 -0.18437
# Poissons Ratio (z) = 0.27425 -0.03266
#
# Static dielectric constant tensor:
#      x y z
#    x 2.251850 0.000000 -0.098770 
#    y 0.000000 2.346100 0.000000 
#    z -0.098770 0.000000 2.526940 
# 
# From -- ./inp_files/18548.got.cif
#   From: 2010.05.17/outbox.cif.g08.bks.cpg/sg15_10_cif.got.tgz:18548.got - 2010.06.03 18:47:42.
