data_PCOD9253568
_publ_section_title
;
Structure prediction by ZEFSAII (Michael W. Deem and Ramdas Pophale) SiO2 
 PCOD9253568
Probable space group: P 21/C
;
_chemical_formula_sum "Si O2"
_cell_formula_units_Z 24
_cell_length_a 21.000000
_cell_length_b 12.000000
_cell_length_c 15.000000
_cell_angle_alpha 90.000000
_cell_angle_beta 20.000000
_cell_angle_gamma 90.000000
_cell_volume 1292.836142
_symmetry_space_group_name_H-M "P 21/C"
_symmetry_group_IT_number 14
_symmetry_cell_setting 'monoclinic'
loop_
_space_group_symop_operation_xyz
x,y,z
-x,1/2+y,1/2-z
-x,-y,-z
x,1/2-y,1/2+z
loop_
_atom_site_type_symbol
_atom_site_label
_atom_site_fract_x
_atom_site_fract_y
_atom_site_fract_z
Si Si1 0.621317 0.546392 0.423804
Si Si2 0.355699 0.795455 0.076543
Si Si3 0.037311 0.043571 0.053994
Si Si4 0.678286 0.314446 0.072966
Si Si5 0.762916 0.741892 0.131111
Si Si6 0.887877 0.310706 0.449404
O O1 0.500000 0.500000 0.500000
O O2 0.674960 0.428331 0.396624
O O3 0.495715 0.620979 0.654884
O O4 0.770837 0.631892 0.184475
O O5 0.353470 0.736848 0.983055
O O6 0.553609 0.763627 0.864627
O O7 0.193477 0.754649 0.357480
O O8 0.843351 0.095214 0.344098
O O9 0.096043 0.937896 0.037434
O O10 0.182383 0.146801 0.883473
O O11 0.000000 0.000000 0.000000
O O12 0.747797 0.220839 0.052365
O O13 0.912711 0.727794 0.853778
#
# Coordination Sequence:
#
# PCOD9253568 Si02
#       6
#     4   4   4   4   4   4
#     4  10  20  42  67  90 132 170 217 272 330 389
#     4  11  23  44  68 100 131 176 221 278 333 402
#     4  11  23  42  65  95 136 176 221 278 331 388
#     4  11  23  43  68  98 129 179 220 275 341 393
#     4  10  24  40  70  97 128 185 222 267 345 392
#     4  11  23  43  65  95 138 169 224 276 330 398
#
# _framework density 18.563836999999999
#
# number of rings (size 3 to 8) (size 9 to 14) (size 15 to 20)
#    0.000    1.333    5.000    2.000    2.333    4.667 
#    0.000    5.000    0.000    0.000    0.000    0.000 
#    0.000    0.000    0.000    0.000    0.000    0.000 
#
# Total GULP energy -133820.778088 kJ/mol
# GULP energy per Si atom -5575.865754 kJ/mol
# Density = 1.852159 g / cm^3
# Si number density = 18.563837 Si / 1000 Ang^3
#
#
#
# Elastic Constant Matrix: (Units=GPa)
#
#
# Indices 1 2 3 4 5 6 
#
# 1 114.7084 67.9812 36.1874 0.0000 25.9197 0.0000
# 2 67.9812 168.9085 55.9200 0.0000 6.9165 0.0000
# 3 36.1874 55.9200 112.3400 0.0000 25.1591 0.0000
# 4 0.0000 0.0000 0.0000 34.1411 0.0000 4.0059
# 5 25.9197 6.9165 25.1591 0.0000 31.2978 0.0000
# 6 0.0000 0.0000 0.0000 4.0059 0.0000 48.6939
#
#
#
# Elastic Compliance Matrix: (Units=1/GPa)
#
#
# Indices 1 2 3 4 5 6 
#
# 1 0.014298 -0.005507 0.000628 0.000000 -0.011129 0.000000
# 2 -0.005507 0.009271 -0.004151 0.000000 0.005848 0.000000
# 3 0.000628 -0.004151 0.013021 0.000000 -0.010069 0.000000
# 4 0.000000 0.000000 0.000000 0.029576 0.000000 -0.002433
# 5 -0.011129 0.005848 -0.010069 0.000000 0.047969 0.000000
# 6 0.000000 0.000000 0.000000 -0.002433 0.000000 0.020737
#
#
# Mechanical properties :
#
#
# Convention : Reuss Voigt Hill
#
# Bulk Modulus (GPa) = 53.96645 79.57046 66.76846
# Shear Modulus (GPa) = 31.42517 38.55110 34.98813
#
# Velocity S-wave (km/s) = 4.11885 4.56200 4.34608
# Velocity P-wave (km/s) = 7.19401 8.40865 7.82493
#
# Compressibility (1/GPa) = 0.01853003
#
# Stress axis : x y z
#
# Youngs Moduli (GPa) = 69.94072 107.85848 76.80080
#
# Poissons Ratio (x) = 0.59393 -0.04820
# Poissons Ratio (y) = 0.38514 0.31880
# Poissons Ratio (z) = -0.04390 0.44772
#
# Static dielectric constant tensor:
#      x y z
#    x 1.649990 0.000000 -0.013680 
#    y 0.000000 1.658800 0.000000 
#    z -0.013680 0.000000 1.653960 
# 
# From -- ./inp_files/50411.got.cif
#   From: 2010.05.17/outbox.ucp.g08.bks.cvg/sg14_26_cif.got.tgz:50411.got - 2010.06.11 12:31:08.
