data_PCOD9253524
_publ_section_title
;
Structure prediction by ZEFSAII (Michael W. Deem and Ramdas Pophale) SiO2 
 PCOD9253524
Probable space group: P 21/C
;
_chemical_formula_sum "Si O2"
_cell_formula_units_Z 28
_cell_length_a 30.000000
_cell_length_b 9.000000
_cell_length_c 30.000000
_cell_angle_alpha 90.000000
_cell_angle_beta 10.000000
_cell_angle_gamma 90.000000
_cell_volume 1406.550239
_symmetry_space_group_name_H-M "P 21/C"
_symmetry_group_IT_number 14
_symmetry_cell_setting 'monoclinic'
loop_
_space_group_symop_operation_xyz
x,y,z
-x,1/2+y,1/2-z
-x,-y,-z
x,1/2-y,1/2+z
loop_
_atom_site_type_symbol
_atom_site_label
_atom_site_fract_x
_atom_site_fract_y
_atom_site_fract_z
Si Si1 0.890222 0.986063 0.453880
Si Si2 0.191803 0.800756 0.687491
Si Si3 0.314536 0.443936 0.348012
Si Si4 0.743068 0.342674 0.288333
Si Si5 0.256951 0.968970 0.301058
Si Si6 0.101016 0.715811 0.606710
Si Si7 0.365135 0.208454 0.368598
O O1 0.971438 0.128546 0.345203
O O2 0.761967 0.042489 0.626688
O O3 0.688281 0.901169 0.620473
O O4 0.117699 0.866238 0.241582
O O5 0.416864 0.888205 0.438812
O O6 0.253527 0.790643 0.679388
O O7 0.918145 0.879026 0.951534
O O8 0.227114 0.611671 0.444224
O O9 0.298947 0.368260 0.412403
O O10 0.733609 0.330591 0.243516
O O11 0.503690 0.438120 0.542419
O O12 0.003466 0.434919 0.040124
O O13 0.341636 0.720964 0.404055
O O14 0.842428 0.667728 0.888272
#
# Coordination Sequence:
#
# PCOD9253524 Si02
#       7
#     4   4   4   4   4   4   4
#     4  10  22  38  59  83 111 146 190 234 278 328
#     4  10  20  36  58  80 110 146 183 222 275 341
#     4  11  22  37  55  79 110 148 185 226 281 336
#     4   9  16  31  53  82 108 135 173 220 272 325
#     4   9  18  30  53  83 109 132 173 230 273 313
#     4  12  24  37  55  80 112 145 189 237 277 325
#     4  11  22  37  55  77 108 148 189 231 280 330
#
# _framework density 19.906860999999999
#
# number of rings (size 3 to 8) (size 9 to 14) (size 15 to 20)
#    0.000    1.714    0.000    6.857    0.000    5.714 
#    0.000    0.000    0.000    1.714    0.000    0.000 
#    0.000    0.000    0.000    0.000    0.000    0.000 
#
# Total GULP energy -155990.732405 kJ/mol
# GULP energy per Si atom -5571.097586 kJ/mol
# Density = 1.986155 g / cm^3
# Si number density = 19.906861 Si / 1000 Ang^3
#
#
#
# Elastic Constant Matrix: (Units=GPa)
#
#
# Indices 1 2 3 4 5 6 
#
# 1 94.5544 1.7277 9.4820 0.0000 14.9959 0.0000
# 2 1.7277 42.0578 -15.1116 0.0000 -1.8064 0.0000
# 3 9.4820 -15.1116 118.4149 0.0000 7.4943 0.0000
# 4 0.0000 0.0000 0.0000 17.8000 0.0000 5.9549
# 5 14.9959 -1.8064 7.4943 0.0000 35.8734 0.0000
# 6 0.0000 0.0000 0.0000 5.9549 0.0000 9.7970
#
#
#
# Elastic Compliance Matrix: (Units=1/GPa)
#
#
# Indices 1 2 3 4 5 6 
#
# 1 0.011406 -0.000934 -0.000738 0.000000 -0.004661 0.000000
# 2 -0.000934 0.025009 0.003204 0.000000 0.000980 0.000000
# 3 -0.000738 0.003204 0.009002 0.000000 -0.001411 0.000000
# 4 0.000000 0.000000 0.000000 0.070520 0.000000 -0.042864
# 5 -0.004661 0.000980 -0.001411 0.000000 0.030168 0.000000
# 6 0.000000 0.000000 0.000000 -0.042864 0.000000 0.128126
#
#
# Mechanical properties :
#
#
# Convention : Reuss Voigt Hill
#
# Bulk Modulus (GPa) = 20.62588 27.46926 24.04757
# Shear Modulus (GPa) = 17.40186 29.95602 23.67894
#
# Velocity S-wave (km/s) = 2.95983 3.88340 3.45263
# Velocity P-wave (km/s) = 4.69729 5.82551 5.29155
#
# Compressibility (1/GPa) = 0.04848278
#
# Stress axis : x y z
#
# Youngs Moduli (GPa) = 87.67198 39.98631 111.08461
#
# Poissons Ratio (x) = 0.03734 0.08193
# Poissons Ratio (y) = 0.08186 -0.35594
# Poissons Ratio (z) = 0.06466 -0.12812
#
# Static dielectric constant tensor:
#      x y z
#    x 1.775790 0.000000 -0.019460 
#    y 0.000000 1.788450 0.000000 
#    z -0.019460 0.000000 1.680460 
# 
# From -- ./inp_files/80976.got.cif
#   From: 2010.05.17/outbox.ucp.g08.bks.cvg/sg14_41_cif.got.tgz:80976.got - 2010.06.11 12:31:08.
