data_PCOD9253539
_publ_section_title
;
Structure prediction by ZEFSAII (Michael W. Deem and Ramdas Pophale) SiO2 
 PCOD9253539
Probable space group: P 21/C
;
_chemical_formula_sum "Si O2"
_cell_formula_units_Z 28
_cell_length_a 9.000000
_cell_length_b 21.000000
_cell_length_c 15.000000
_cell_angle_alpha 90.000000
_cell_angle_beta 150.000000
_cell_angle_gamma 90.000000
_cell_volume 1417.500000
_symmetry_space_group_name_H-M "P 21/C"
_symmetry_group_IT_number 14
_symmetry_cell_setting 'monoclinic'
loop_
_space_group_symop_operation_xyz
x,y,z
-x,1/2+y,1/2-z
-x,-y,-z
x,1/2-y,1/2+z
loop_
_atom_site_type_symbol
_atom_site_label
_atom_site_fract_x
_atom_site_fract_y
_atom_site_fract_z
Si Si1 0.273621 0.951709 0.628014
Si Si2 0.530463 0.460941 0.107467
Si Si3 0.158838 0.397383 0.489268
Si Si4 0.826026 0.816466 0.821213
Si Si5 0.853374 0.837428 0.638829
Si Si6 0.788718 0.195131 0.438706
Si Si7 0.519378 0.285760 0.609881
O O1 0.143436 0.879668 0.544735
O O2 0.443641 0.986152 0.635394
O O3 0.541563 0.940069 0.839139
O O4 0.000000 0.000000 0.500000
O O5 0.861743 0.432970 0.301657
O O6 0.500000 0.500000 0.000000
O O7 0.299464 0.400687 0.982551
O O8 0.109503 0.361541 0.559674
O O9 0.265928 0.340602 0.479283
O O10 0.921019 0.847676 0.778323
O O11 0.472412 0.808644 0.625419
O O12 0.964610 0.746261 0.907485
O O13 0.623140 0.778586 0.502721
O O14 0.172346 0.813680 0.767955
O O15 0.615225 0.223697 0.262763
#
# Coordination Sequence:
#
# PCOD9253539 Si02
#       7
#     4   4   4   4   4   4   4
#     4  10  22  40  62  89 124 162 203 246 302 380
#     4  12  24  41  62  85 123 166 206 252 300 361
#     4  10  23  43  63  87 119 164 208 248 305 365
#     4  10  21  37  60  88 118 150 198 253 300 355
#     4  12  22  37  60  93 121 155 198 256 310 352
#     4  10  20  38  58  87 116 155 196 237 300 363
#     4  10  21  38  63  91 121 152 199 258 309 356
#
# _framework density 19.753086
#
# number of rings (size 3 to 8) (size 9 to 14) (size 15 to 20)
#    0.000    1.714    0.000    8.143    0.000    2.286 
#    0.000    5.714    0.000    0.000    0.000    0.000 
#    0.000    0.000    0.000    0.000    0.000    0.000 
#
# Total GULP energy -156105.502615 kJ/mol
# GULP energy per Si atom -5575.196522 kJ/mol
# Density = 1.970813 g / cm^3
# Si number density = 19.753086 Si / 1000 Ang^3
#
#
#
# Elastic Constant Matrix: (Units=GPa)
#
#
# Indices 1 2 3 4 5 6 
#
# 1 55.2315 4.4939 15.0018 0.0000 0.8961 0.0000
# 2 4.4939 110.3310 53.4460 0.0000 -6.7619 0.0000
# 3 15.0018 53.4460 80.9201 0.0000 4.0670 0.0000
# 4 0.0000 0.0000 0.0000 56.8818 0.0000 10.5169
# 5 0.8961 -6.7619 4.0670 0.0000 19.3931 0.0000
# 6 0.0000 0.0000 0.0000 10.5169 0.0000 23.8759
#
#
#
# Elastic Compliance Matrix: (Units=1/GPa)
#
#
# Indices 1 2 3 4 5 6 
#
# 1 0.019215 0.001459 -0.004555 0.000000 0.000576 0.000000
# 2 0.001459 0.014320 -0.010082 0.000000 0.007040 0.000000
# 3 -0.004555 -0.010082 0.020241 0.000000 -0.007550 0.000000
# 4 0.000000 0.000000 0.000000 0.019139 0.000000 -0.008430
# 5 0.000576 0.007040 -0.007550 0.000000 0.055576 0.000000
# 6 0.000000 0.000000 0.000000 -0.008430 0.000000 0.045597
#
#
# Mechanical properties :
#
#
# Convention : Reuss Voigt Hill
#
# Bulk Modulus (GPa) = 36.47065 43.59623 40.03344
# Shear Modulus (GPa) = 23.85696 31.59954 27.72825
#
# Velocity S-wave (km/s) = 3.47905 4.00400 3.75072
# Velocity P-wave (km/s) = 5.88572 6.59504 6.25045
#
# Compressibility (1/GPa) = 0.02741931
#
# Stress axis : x y z
#
# Youngs Moduli (GPa) = 52.04341 69.83430 49.40512
#
# Poissons Ratio (x) = -0.10190 0.22504
# Poissons Ratio (y) = -0.07594 0.49811
# Poissons Ratio (z) = 0.23705 0.70408
#
# Static dielectric constant tensor:
#      x y z
#    x 1.803750 0.000000 0.014860 
#    y 0.000000 1.685520 0.000000 
#    z 0.014860 0.000000 1.671630 
# 
# From -- ./inp_files/42076.got.cif
#   From: 2010.05.17/outbox.ucp.g08.bks.cvg/sg14_22_cif.got.tgz:42076.got - 2010.06.11 12:31:08.
