data_PCOD9253017
_publ_section_title
;
Structure prediction by ZEFSAII (Michael W. Deem and Ramdas Pophale) SiO2 
 PCOD9253017
Probable space group: P 21/C
;
_chemical_formula_sum "Si O2"
_cell_formula_units_Z 18
_cell_length_a 4.978866
_cell_length_b 10.777613
_cell_length_c 12.421363
_cell_angle_alpha 90.000000
_cell_angle_beta 72.155682
_cell_angle_gamma 90.000000
_cell_volume 634.468773
_symmetry_space_group_name_H-M "P 21/C"
_symmetry_group_IT_number 14
_symmetry_cell_setting 'monoclinic'
loop_
_space_group_symop_operation_xyz
x,y,z
-x,1/2+y,1/2-z
-x,-y,-z
x,1/2-y,1/2+z
loop_
_atom_site_type_symbol
_atom_site_label
_atom_site_fract_x
_atom_site_fract_y
_atom_site_fract_z
Si Si1 0.443384 0.339370 0.957547
Si Si2 0.313004 0.154384 0.132977
Si Si3 0.311531 0.600743 0.666239
Si Si4 0.000000 0.000000 0.000000
Si Si5 0.983649 0.548883 0.133249
O O1 0.525429 0.226165 0.867508
O O2 0.151504 0.400234 0.959087
O O3 0.684419 0.439451 0.904763
O O4 0.456826 0.277771 0.073966
O O5 0.132066 0.148795 0.262246
O O6 0.509182 0.026635 0.122783
O O7 0.109994 0.119932 0.058800
O O8 0.095646 0.588172 0.593937
O O9 0.151575 0.573097 0.796154
#
# Coordination Sequence:
#
# PCOD9253017 Si02
#       5
#     4   4   4   2   4
#     4  12  19  38  61  78 118 156 174 239 305 312
#     4   8  19  35  55  91 112 138 195 243 278 332
#     4   8  19  35  55  91 112 138 195 243 278 333
#     4   6  14  30  56  78 106 136 166 254 286 296
#     4   9  25  32  54  92 111 145 190 237 276 356
#
# _framework density 28.370194999999999
#
# number of rings (size 3 to 8) (size 9 to 14) (size 15 to 20)
#    2.667    0.000    0.000    2.000    0.000   10.667 
#    0.000    0.000    0.000    8.000    0.000    0.000 
#    0.000    0.000    0.000    0.000    0.000    0.000 
#
# Total GULP energy -100259.077541 kJ/mol
# GULP energy per Si atom -5569.948752 kJ/mol
# Density = 2.830562 g / cm^3
# Si number density = 28.370195 Si / 1000 Ang^3
#
#
#
# Elastic Constant Matrix: (Units=GPa)
#
#
# Indices 1 2 3 4 5 6 
#
# 1 81.8477 52.5360 -0.9350 0.0000 12.3492 0.0000
# 2 52.5360 126.6382 18.7013 0.0000 -9.8287 0.0000
# 3 -0.9350 18.7013 68.4480 0.0000 -13.4823 0.0000
# 4 0.0000 0.0000 0.0000 49.7301 0.0000 -4.3448
# 5 12.3492 -9.8287 -13.4823 0.0000 44.5419 0.0000
# 6 0.0000 0.0000 0.0000 -4.3448 0.0000 51.5842
#
#
#
# Elastic Compliance Matrix: (Units=1/GPa)
#
#
# Indices 1 2 3 4 5 6 
#
# 1 0.018653 -0.008439 0.001250 0.000000 -0.006656 0.000000
# 2 -0.008439 0.012108 -0.002591 0.000000 0.004227 0.000000
# 3 0.001250 -0.002591 0.016114 0.000000 0.003960 0.000000
# 4 0.000000 0.000000 0.000000 0.020258 0.000000 0.001706
# 5 -0.006656 0.004227 0.003960 0.000000 0.026427 0.000000
# 6 0.000000 0.000000 0.000000 0.001706 0.000000 0.019529
#
#
# Mechanical properties :
#
#
# Convention : Reuss Voigt Hill
#
# Bulk Modulus (GPa) = 36.61003 46.39317 41.50160
# Shear Modulus (GPa) = 35.27161 42.94666 39.10914
#
# Velocity S-wave (km/s) = 3.52982 3.89497 3.71688
# Velocity P-wave (km/s) = 5.43555 6.05112 5.75158
#
# Compressibility (1/GPa) = 0.02731492
#
# Stress axis : x y z
#
# Youngs Moduli (GPa) = 53.60951 82.58760 62.05595
#
# Poissons Ratio (x) = 0.69700 -0.07755
# Poissons Ratio (y) = 0.45244 0.16078
# Poissons Ratio (z) = -0.06699 0.21397
#
# Static dielectric constant tensor:
#      x y z
#    x 1.425780 0.000000 0.258250 
#    y 0.000000 2.438550 0.000000 
#    z 0.258250 0.000000 2.123560 
# 
# From -- ./inp_files/37096.got.cif
#   From: 2010.05.17/outbox.cif.g08.bks.cpg/sg14_19_cif.got.tgz:37096.got - 2010.06.03 17:49:19.
