data_PCOD9253438
_publ_section_title
;
Structure prediction by ZEFSAII (Michael W. Deem and Ramdas Pophale) SiO2 
 PCOD9253438
Probable space group: P 21/C
;
_chemical_formula_sum "Si O2"
_cell_formula_units_Z 24
_cell_length_a 8.565545
_cell_length_b 8.110291
_cell_length_c 16.683678
_cell_angle_alpha 90.000000
_cell_angle_beta 49.287401
_cell_angle_gamma 90.000000
_cell_volume 878.511081
_symmetry_space_group_name_H-M "P 21/C"
_symmetry_group_IT_number 14
_symmetry_cell_setting 'monoclinic'
loop_
_space_group_symop_operation_xyz
x,y,z
-x,1/2+y,1/2-z
-x,-y,-z
x,1/2-y,1/2+z
loop_
_atom_site_type_symbol
_atom_site_label
_atom_site_fract_x
_atom_site_fract_y
_atom_site_fract_z
Si Si1 0.901451 0.181245 0.441961
Si Si2 0.386876 0.654766 0.677628
Si Si3 0.752398 0.477722 0.850018
Si Si4 0.293555 0.360380 0.287663
Si Si5 0.062116 0.712183 0.392566
Si Si6 0.799112 0.978454 0.886919
O O1 0.145509 0.203876 0.345574
O O2 0.786687 0.036125 0.433395
O O3 0.891657 0.199349 0.539897
O O4 0.818918 0.347854 0.426566
O O5 0.393013 0.825341 0.626657
O O6 0.528254 0.653152 0.707713
O O7 0.160129 0.674515 0.792182
O O8 0.381921 0.504882 0.616523
O O9 0.666911 0.621223 0.820959
O O10 0.987105 0.454587 0.735978
O O11 0.180315 0.533097 0.353116
O O12 0.829953 0.660376 0.444752
#
# Coordination Sequence:
#
# PCOD9253438 Si02
#       6
#     4   4   4   4   4   4
#     4   9  16  32  51  70  98 126 162 205 239 290
#     4   9  17  30  49  73  97 124 167 206 239 288
#     4   8  17  30  48  70  95 133 163 189 243 301
#     4   9  17  30  51  74  95 128 165 201 243 289
#     4   9  18  32  50  73  96 127 163 203 245 287
#     4   8  15  30  50  66  92 132 162 186 235 301
#
# _framework density 27.318950999999998
#
# number of rings (size 3 to 8) (size 9 to 14) (size 15 to 20)
#    0.000    4.000    0.000    2.000    0.000    2.667 
#    0.000    9.167    0.000    0.000    0.000    1.167 
#    0.000    0.000    0.000    0.000    0.000    0.000 
#
# Total GULP energy -133881.434252 kJ/mol
# GULP energy per Si atom -5578.393094 kJ/mol
# Density = 2.725677 g / cm^3
# Si number density = 27.318951 Si / 1000 Ang^3
#
#
#
# Elastic Constant Matrix: (Units=GPa)
#
#
# Indices 1 2 3 4 5 6 
#
# 1 189.1538 46.4490 26.5841 0.0000 50.0641 0.0000
# 2 46.4490 108.8263 20.0245 0.0000 7.1734 0.0000
# 3 26.5841 20.0245 76.4251 0.0000 26.0727 0.0000
# 4 0.0000 0.0000 0.0000 23.5487 0.0000 2.3126
# 5 50.0641 7.1734 26.0727 0.0000 45.5622 0.0000
# 6 0.0000 0.0000 0.0000 2.3126 0.0000 17.8783
#
#
#
# Elastic Compliance Matrix: (Units=1/GPa)
#
#
# Indices 1 2 3 4 5 6 
#
# 1 0.008381 -0.003164 0.001100 0.000000 -0.009341 0.000000
# 2 -0.003164 0.010849 -0.002914 0.000000 0.003436 0.000000
# 3 0.001100 -0.002914 0.017050 0.000000 -0.010507 0.000000
# 4 0.000000 0.000000 0.000000 0.043012 0.000000 -0.005564
# 5 -0.009341 0.003436 -0.010507 0.000000 0.037683 0.000000
# 6 0.000000 0.000000 0.000000 -0.005564 0.000000 0.056653
#
#
# Mechanical properties :
#
#
# Convention : Reuss Voigt Hill
#
# Bulk Modulus (GPa) = 37.98748 62.28004 50.13376
# Shear Modulus (GPa) = 25.99294 36.15436 31.07365
#
# Velocity S-wave (km/s) = 3.08792 3.64183 3.37625
# Velocity P-wave (km/s) = 5.16227 6.36638 5.79568
#
# Compressibility (1/GPa) = 0.02632446
#
# Stress axis : x y z
#
# Youngs Moduli (GPa) = 119.31251 92.17296 58.65079
#
# Poissons Ratio (x) = 0.29164 -0.06454
# Poissons Ratio (y) = 0.37751 0.17093
# Poissons Ratio (z) = -0.13128 0.26862
#
# Static dielectric constant tensor:
#      x y z
#    x 2.163970 0.000000 -0.045760 
#    y 0.000000 2.157860 0.000000 
#    z -0.045760 0.000000 2.261610 
# 
# From -- ./inp_files/55022.got.cif
#   From: 2010.05.17/outbox.cif.g08.bks.cpg/sg14_28_cif.got.tgz:55022.got - 2010.06.03 17:49:19.
