data_PCOD9253955
_publ_section_title
;
Structure prediction by ZEFSAII (Michael W. Deem and Ramdas Pophale) SiO2 
 PCOD9253955
Probable space group: C 2/C
;
_chemical_formula_sum "Si O2"
_cell_formula_units_Z 56
_cell_length_a 7.007912
_cell_length_b 20.652320
_cell_length_c 18.880309
_cell_angle_alpha 90.000000
_cell_angle_beta 53.552252
_cell_angle_gamma 90.000000
_cell_volume 2198.052685
_symmetry_space_group_name_H-M "C 2/C"
_symmetry_group_IT_number 15
_symmetry_cell_setting 'monoclinic'
loop_
_space_group_symop_operation_xyz
x,y,z
-x,y,1/2-z
-x,-y,-z
x,-y,1/2+z
1/2+x,1/2+y,z
1/2-x,1/2+y,1/2-z
1/2-x,1/2-y,-z
1/2+x,1/2-y,1/2+z
loop_
_atom_site_type_symbol
_atom_site_label
_atom_site_fract_x
_atom_site_fract_y
_atom_site_fract_z
Si Si1 0.481071 0.232373 0.529128
Si Si2 0.327070 0.246057 0.707566
Si Si3 0.677401 0.962754 0.858421
Si Si4 0.960283 0.075276 0.496332
Si Si5 0.560824 0.083004 0.957397
Si Si6 0.345098 0.394594 0.695104
Si Si7 0.351515 0.686106 0.626238
O O1 0.750000 0.250000 0.500000
O O2 0.311784 0.257458 0.627597
O O3 0.405217 0.158412 0.542852
O O4 0.490470 0.262796 0.450462
O O5 0.310165 0.321752 0.733313
O O6 0.581856 0.209728 0.664183
O O7 0.153974 0.199389 0.789209
O O8 0.671915 0.942972 0.777466
O O9 0.894620 0.920084 0.839740
O O10 0.719242 0.037484 0.871926
O O11 0.458795 0.944379 0.958169
O O12 0.697171 0.080843 0.521971
O O13 0.932942 0.118247 0.574012
O O14 0.136220 0.100320 0.394753
O O15 0.000000 0.000000 0.500000
#
# Coordination Sequence:
#
# PCOD9253955 Si02
#       7
#     8   8   8   8   8   8   8
#     4  10  15  28  47  69  99 117 157 231 249 279
#     4  10  17  27  54  73  96 123 167 231 254 294
#     4   9  18  30  52  73 101 134 167 217 245 312
#     4  11  21  33  47  71 118 145 160 201 264 327
#     4  10  18  32  50  77 102 130 176 209 262 290
#     4  10  18  35  51  80 104 132 172 204 278 298
#     4  10  17  29  45  74  99 126 168 212 268 294
#
# _framework density 25.477094999999998
#
# number of rings (size 3 to 8) (size 9 to 14) (size 15 to 20)
#    0.000    2.000    4.286    5.143    0.000    1.143 
#    0.000    0.000    0.000    0.000    0.000   29.000 
#    0.000    0.000    0.000    0.000    0.000    0.000 
#
# Total GULP energy -156106.273809 kJ/mol
# GULP energy per Si atom -5575.224065 kJ/mol
# Density = 2.541911 g / cm^3
# Si number density = 25.477095 Si / 1000 Ang^3
#
#
#
# Elastic Constant Matrix: (Units=GPa)
#
#
# Indices 1 2 3 4 5 6 
#
# 1 62.2354 -1.3237 24.0327 0.0000 -10.2451 0.0000
# 2 -1.3237 217.1375 85.9678 0.0000 11.0941 0.0000
# 3 24.0327 85.9678 210.2052 0.0000 32.2981 0.0000
# 4 0.0000 0.0000 0.0000 59.0636 0.0000 2.4826
# 5 -10.2451 11.0941 32.2981 0.0000 37.4409 0.0000
# 6 0.0000 0.0000 0.0000 2.4826 0.0000 25.7837
#
#
#
# Elastic Compliance Matrix: (Units=1/GPa)
#
#
# Indices 1 2 3 4 5 6 
#
# 1 0.018973 0.001258 -0.003947 0.000000 0.008224 0.000000
# 2 0.001258 0.005583 -0.002566 0.000000 0.000904 0.000000
# 3 -0.003947 -0.002566 0.007271 0.000000 -0.006592 0.000000
# 4 0.000000 0.000000 0.000000 0.017000 0.000000 -0.001637
# 5 0.008224 0.000904 -0.006592 0.000000 0.034378 0.000000
# 6 0.000000 0.000000 0.000000 -0.001637 0.000000 0.038942
#
#
# Mechanical properties :
#
#
# Convention : Reuss Voigt Hill
#
# Bulk Modulus (GPa) = 46.91192 78.54796 62.72994
# Shear Modulus (GPa) = 35.77528 49.85104 42.81316
#
# Velocity S-wave (km/s) = 3.75135 4.42826 4.10378
# Velocity P-wave (km/s) = 6.10056 7.55273 6.86515
#
# Compressibility (1/GPa) = 0.02131654
#
# Stress axis : x y z
#
# Youngs Moduli (GPa) = 52.70668 179.12321 137.53688
#
# Poissons Ratio (x) = -0.22539 0.54291
# Poissons Ratio (y) = -0.06632 0.35290
# Poissons Ratio (z) = 0.20805 0.45961
#
# Static dielectric constant tensor:
#      x y z
#    x 2.120210 0.000000 -0.016780 
#    y 0.000000 2.154720 0.000000 
#    z -0.016780 0.000000 2.050290 
# 
# From -- ./inp_files/270370.got.cif
#   From: 2010.05.17/outbox.cif.g08.bks.cpg/sg15_136_cif.got.tgz:270370.got - 2010.06.03 18:47:42.
