data_PCOD9253440
_publ_section_title
;
Structure prediction by ZEFSAII (Michael W. Deem and Ramdas Pophale) SiO2 
 PCOD9253440
Probable space group: P 21/C
;
_chemical_formula_sum "Si O2"
_cell_formula_units_Z 24
_cell_length_a 12.234926
_cell_length_b 11.346071
_cell_length_c 10.054222
_cell_angle_alpha 90.000000
_cell_angle_beta 44.508865
_cell_angle_gamma 90.000000
_cell_volume 978.420363
_symmetry_space_group_name_H-M "P 21/C"
_symmetry_group_IT_number 14
_symmetry_cell_setting 'monoclinic'
loop_
_space_group_symop_operation_xyz
x,y,z
-x,1/2+y,1/2-z
-x,-y,-z
x,1/2-y,1/2+z
loop_
_atom_site_type_symbol
_atom_site_label
_atom_site_fract_x
_atom_site_fract_y
_atom_site_fract_z
Si Si1 0.102087 0.608174 0.464957
Si Si2 0.896381 0.149374 0.625274
Si Si3 0.387700 0.448013 0.211613
Si Si4 0.343266 0.983644 0.335781
Si Si5 0.218698 0.420125 0.708648
Si Si6 0.204657 0.178713 0.652676
O O1 0.124656 0.712311 0.336575
O O2 0.267174 0.551458 0.353686
O O3 0.000000 0.500000 0.500000
O O4 0.981520 0.665404 0.673858
O O5 0.073741 0.122409 0.429094
O O6 0.784427 0.113269 0.597262
O O7 0.838392 0.050843 0.780183
O O8 0.504569 0.427101 0.232263
O O9 0.288966 0.346139 0.222523
O O10 0.500000 0.500000 0.000000
O O11 0.362601 0.058290 0.182624
O O12 0.271092 0.078000 0.500743
O O13 0.236492 0.314883 0.590308
#
# Coordination Sequence:
#
# PCOD9253440 Si02
#       6
#     4   4   4   4   4   4
#     4   9  17  32  53  77 101 136 181 222 260 321
#     4   8  16  32  53  75 105 143 177 225 275 322
#     4   9  18  31  49  75 105 139 176 224 273 315
#     4   9  17  31  53  78 106 145 175 225 283 319
#     4   8  16  32  53  76 104 144 177 222 275 326
#     4   9  17  32  53  80 104 141 187 224 265 327
#
# _framework density 24.529337000000002
#
# number of rings (size 3 to 8) (size 9 to 14) (size 15 to 20)
#    1.000    2.333    0.000    0.000    0.000    1.333 
#    0.000   23.333    0.000    6.000    0.000    0.000 
#    0.000    0.000    0.000    0.000    0.000    0.000 
#
# Total GULP energy -133735.712122 kJ/mol
# GULP energy per Si atom -5572.321338 kJ/mol
# Density = 2.447351 g / cm^3
# Si number density = 24.529337 Si / 1000 Ang^3
#
#
#
# Elastic Constant Matrix: (Units=GPa)
#
#
# Indices 1 2 3 4 5 6 
#
# 1 141.7899 30.6573 31.2597 0.0000 -33.5563 0.0000
# 2 30.6573 154.1992 25.0062 0.0000 -4.2509 0.0000
# 3 31.2597 25.0062 109.2937 0.0000 -16.3973 0.0000
# 4 0.0000 0.0000 0.0000 25.5350 0.0000 -3.2866
# 5 -33.5563 -4.2509 -16.3973 0.0000 32.3660 0.0000
# 6 0.0000 0.0000 0.0000 -3.2866 0.0000 27.4259
#
#
#
# Elastic Compliance Matrix: (Units=1/GPa)
#
#
# Indices 1 2 3 4 5 6 
#
# 1 0.009860 -0.001529 -0.001046 0.000000 0.009492 0.000000
# 2 -0.001529 0.006973 -0.001362 0.000000 -0.001360 0.000000
# 3 -0.001046 -0.001362 0.010358 0.000000 0.003984 0.000000
# 4 0.000000 0.000000 0.000000 0.039776 0.000000 0.004767
# 5 0.009492 -0.001360 0.003984 0.000000 0.042578 0.000000
# 6 0.000000 0.000000 0.000000 0.004767 0.000000 0.037033
#
#
# Mechanical properties :
#
#
# Convention : Reuss Voigt Hill
#
# Bulk Modulus (GPa) = 51.76893 64.34768 58.05830
# Shear Modulus (GPa) = 31.07699 38.28935 34.68317
#
# Velocity S-wave (km/s) = 3.56326 3.95519 3.76433
# Velocity P-wave (km/s) = 6.17088 6.86643 6.52793
#
# Compressibility (1/GPa) = 0.01931661
#
# Stress axis : x y z
#
# Youngs Moduli (GPa) = 101.41597 143.42052 96.54143
#
# Poissons Ratio (x) = 0.21930 0.10101
# Poissons Ratio (y) = 0.15507 0.13148
# Poissons Ratio (z) = 0.10611 0.19533
#
# Static dielectric constant tensor:
#      x y z
#    x 2.046690 0.000000 0.147300 
#    y 0.000000 2.023510 0.000000 
#    z 0.147300 0.000000 2.109330 
# 
# From -- ./inp_files/46805.got.cif
#   From: 2010.05.17/outbox.cif.g08.bks.cpg/sg14_24_cif.got.tgz:46805.got - 2010.06.03 17:49:19.
