data_PCOD9253370
_publ_section_title
;
Structure prediction by ZEFSAII (Michael W. Deem and Ramdas Pophale) SiO2 
 PCOD9253370
Probable space group: P 21/C
;
_chemical_formula_sum "Si O2"
_cell_formula_units_Z 20
_cell_length_a 9.584235
_cell_length_b 5.356023
_cell_length_c 17.794698
_cell_angle_alpha 90.000000
_cell_angle_beta 57.051841
_cell_angle_gamma 90.000000
_cell_volume 766.543565
_symmetry_space_group_name_H-M "P 21/C"
_symmetry_group_IT_number 14
_symmetry_cell_setting 'monoclinic'
loop_
_space_group_symop_operation_xyz
x,y,z
-x,1/2+y,1/2-z
-x,-y,-z
x,1/2-y,1/2+z
loop_
_atom_site_type_symbol
_atom_site_label
_atom_site_fract_x
_atom_site_fract_y
_atom_site_fract_z
Si Si1 0.186166 0.471197 0.476244
Si Si2 0.630312 0.032563 0.635403
Si Si3 0.910318 0.750426 0.843140
Si Si4 0.627633 0.412529 0.899859
Si Si5 0.254661 0.530332 0.733225
O O1 0.273502 0.215399 0.422177
O O2 0.163423 0.431742 0.572007
O O3 0.000000 0.500000 0.500000
O O4 0.282611 0.717083 0.420797
O O5 0.445225 0.039533 0.655005
O O6 0.641061 0.006849 0.721978
O O7 0.804653 0.496103 0.879955
O O8 0.106604 0.727109 0.796514
O O9 0.860781 0.826219 0.773098
O O10 0.633672 0.131629 0.868057
O O11 0.500000 0.500000 0.000000
#
# Coordination Sequence:
#
# PCOD9253370 Si02
#       5
#     4   4   4   4   4
#     4  12  27  50  82 115 162 209 263 323 399 484
#     4  12  30  49  82 119 157 207 269 332 398 461
#     4  12  27  49  81 109 159 210 267 319 398 474
#     4  12  28  53  77 115 160 208 263 331 403 467
#     4  12  29  47  80 115 158 210 269 328 389 481
#
# _framework density 26.091145000000001
#
# number of rings (size 3 to 8) (size 9 to 14) (size 15 to 20)
#    0.000    0.000    6.000    1.800   11.200    1.600 
#    0.000    0.000    0.000    0.000    0.000    0.000 
#    0.000    0.000    0.000    0.000    0.000    0.000 
#
# Total GULP energy -111902.340523 kJ/mol
# GULP energy per Si atom -5595.117026 kJ/mol
# Density = 2.603176 g / cm^3
# Si number density = 26.091145 Si / 1000 Ang^3
#
#
#
# Elastic Constant Matrix: (Units=GPa)
#
#
# Indices 1 2 3 4 5 6 
#
# 1 162.6787 8.0000 32.0716 0.0000 24.1924 0.0000
# 2 8.0000 113.7141 24.3664 0.0000 -0.0215 0.0000
# 3 32.0716 24.3664 107.5169 0.0000 22.0662 0.0000
# 4 0.0000 0.0000 0.0000 46.9438 0.0000 1.3485
# 5 24.1924 -0.0215 22.0662 0.0000 61.4147 0.0000
# 6 0.0000 0.0000 0.0000 1.3485 0.0000 38.4947
#
#
#
# Elastic Compliance Matrix: (Units=1/GPa)
#
#
# Indices 1 2 3 4 5 6 
#
# 1 0.006775 -0.000144 -0.001555 0.000000 -0.002110 0.000000
# 2 -0.000144 0.009284 -0.002238 0.000000 0.000864 0.000000
# 3 -0.001555 -0.002238 0.010954 0.000000 -0.003324 0.000000
# 4 0.000000 0.000000 0.000000 0.021324 0.000000 -0.000747
# 5 -0.002110 0.000864 -0.003324 0.000000 0.018308 0.000000
# 6 0.000000 0.000000 0.000000 -0.000747 0.000000 0.026004
#
#
# Mechanical properties :
#
#
# Convention : Reuss Voigt Hill
#
# Bulk Modulus (GPa) = 52.25248 56.97622 54.61435
# Shear Modulus (GPa) = 46.77154 50.66876 48.72015
#
# Velocity S-wave (km/s) = 4.23853 4.41158 4.32592
# Velocity P-wave (km/s) = 6.63505 6.91623 6.77710
#
# Compressibility (1/GPa) = 0.01913785
#
# Stress axis : x y z
#
# Youngs Moduli (GPa) = 147.61188 107.71317 91.28855
#
# Poissons Ratio (x) = 0.01548 0.14197
# Poissons Ratio (y) = 0.02122 0.20435
# Poissons Ratio (z) = 0.22957 0.24111
#
# Static dielectric constant tensor:
#      x y z
#    x 2.000720 0.000000 -0.024460 
#    y 0.000000 2.215570 0.000000 
#    z -0.024460 0.000000 2.085560 
# 
# From -- ./inp_files/56508.got.cif
#   From: 2010.05.17/outbox.cif.g08.bks.cpg/sg14_29_cif.got.tgz:56508.got - 2010.06.03 17:49:19.
