data_PCOD9253431
_publ_section_title
;
Structure prediction by ZEFSAII (Michael W. Deem and Ramdas Pophale) SiO2 
 PCOD9253431
Probable space group: P 21/C
;
_chemical_formula_sum "Si O2"
_cell_formula_units_Z 32
_cell_length_a 8.411973
_cell_length_b 9.378228
_cell_length_c 14.481697
_cell_angle_alpha 90.000000
_cell_angle_beta 68.538416
_cell_angle_gamma 90.000000
_cell_volume 1063.238282
_symmetry_space_group_name_H-M "P 21/C"
_symmetry_group_IT_number 14
_symmetry_cell_setting 'monoclinic'
loop_
_space_group_symop_operation_xyz
x,y,z
-x,1/2+y,1/2-z
-x,-y,-z
x,1/2-y,1/2+z
loop_
_atom_site_type_symbol
_atom_site_label
_atom_site_fract_x
_atom_site_fract_y
_atom_site_fract_z
Si Si1 0.939963 0.941019 0.636300
Si Si2 0.195898 0.136570 0.027261
Si Si3 0.705271 0.167523 0.515223
Si Si4 0.347188 0.603851 0.605285
Si Si5 0.645980 0.656209 0.865666
Si Si6 0.432524 0.417625 0.754749
Si Si7 0.801078 0.428073 0.631927
Si Si8 0.006278 0.178702 0.745020
O O1 0.743696 0.911969 0.648194
O O2 0.959054 0.836499 0.722033
O O3 0.113563 0.908179 0.543056
O O4 0.938455 0.106854 0.664735
O O5 0.262391 0.282035 0.060614
O O6 0.001469 0.110475 0.103221
O O7 0.339389 0.031090 0.039009
O O8 0.194784 0.083103 0.921502
O O9 0.613375 0.243001 0.445827
O O10 0.537363 0.082141 0.586704
O O11 0.752766 0.304968 0.566250
O O12 0.419707 0.556887 0.688831
O O13 0.144391 0.627951 0.658892
O O14 0.598488 0.787374 0.809596
O O15 0.816167 0.594003 0.781991
O O16 0.634236 0.408140 0.733932
#
# Coordination Sequence:
#
# PCOD9253431 Si02
#       8
#     4   4   4   4   4   4   4   4
#     4   9  17  29  47  68  94 122 156 195 233 274
#     4   9  16  26  44  70  96 121 154 195 232 270
#     4   9  16  26  43  66  92 122 152 187 233 279
#     4   8  14  26  44  65  90 117 153 197 232 266
#     4   9  16  26  43  66  90 118 150 188 234 280
#     4   8  14  26  44  64  88 120 157 191 230 274
#     4   9  16  26  44  69  95 123 156 194 231 270
#     4   9  17  29  47  70  93 118 152 195 235 271
#
# _framework density 30.096736
#
# number of rings (size 3 to 8) (size 9 to 14) (size 15 to 20)
#    0.000    3.250    0.000    1.500    0.000    3.500 
#    0.000    0.000    0.000   26.250    0.000    0.000 
#    0.000    0.000    0.000    0.000    0.000    0.000 
#
# Total GULP energy -178262.474252 kJ/mol
# GULP energy per Si atom -5570.702320 kJ/mol
# Density = 3.002823 g / cm^3
# Si number density = 30.096736 Si / 1000 Ang^3
#
#
#
# Elastic Constant Matrix: (Units=GPa)
#
#
# Indices 1 2 3 4 5 6 
#
# 1 156.4215 35.3706 52.1254 0.0000 -54.2839 0.0000
# 2 35.3706 87.1496 1.5367 0.0000 -3.0161 0.0000
# 3 52.1254 1.5367 80.1503 0.0000 -49.8388 0.0000
# 4 0.0000 0.0000 0.0000 21.1244 0.0000 -7.7303
# 5 -54.2839 -3.0161 -49.8388 0.0000 60.1139 0.0000
# 6 0.0000 0.0000 0.0000 -7.7303 0.0000 43.7549
#
#
#
# Elastic Compliance Matrix: (Units=1/GPa)
#
#
# Indices 1 2 3 4 5 6 
#
# 1 0.010671 -0.004027 -0.002057 0.000000 0.007729 0.000000
# 2 -0.004027 0.013018 0.001062 0.000000 -0.002103 0.000000
# 3 -0.002057 0.001062 0.026156 0.000000 0.019882 0.000000
# 4 0.000000 0.000000 0.000000 0.050611 0.000000 0.008942
# 5 0.007729 -0.002103 0.019882 0.000000 0.039992 0.000000
# 6 0.000000 0.000000 0.000000 0.008942 0.000000 0.024434
#
#
# Mechanical properties :
#
#
# Convention : Reuss Voigt Hill
#
# Bulk Modulus (GPa) = 25.12532 55.75410 40.43971
# Shear Modulus (GPa) = 26.56827 40.64455 33.60641
#
# Velocity S-wave (km/s) = 2.97436 3.67885 3.34520
# Velocity P-wave (km/s) = 4.49022 6.05066 5.32787
#
# Compressibility (1/GPa) = 0.03980049
#
# Stress axis : x y z
#
# Youngs Moduli (GPa) = 93.70904 76.81946 38.23143
#
# Poissons Ratio (x) = 0.30938 0.07863
# Poissons Ratio (y) = 0.37740 -0.04059
# Poissons Ratio (z) = 0.19273 -0.08155
#
# Static dielectric constant tensor:
#      x y z
#    x 2.323920 0.000000 0.155170 
#    y 0.000000 2.391330 0.000000 
#    z 0.155170 0.000000 2.699910 
# 
# From -- ./inp_files/65238.got.cif
#   From: 2010.05.17/outbox.cif.g08.bks.cpg/sg14_33_cif.got.tgz:65238.got - 2010.06.03 17:49:19.
