data_PCOD9253969
_publ_section_title
;
Structure prediction by ZEFSAII (Michael W. Deem and Ramdas Pophale) SiO2 
 PCOD9253969
Probable space group: C 2/C
;
_chemical_formula_sum "Si O2"
_cell_formula_units_Z 64
_cell_length_a 17.695620
_cell_length_b 12.162735
_cell_length_c 14.736474
_cell_angle_alpha 90.000000
_cell_angle_beta 93.389405
_cell_angle_gamma 90.000000
_cell_volume 3166.141115
_symmetry_space_group_name_H-M "C 2/C"
_symmetry_group_IT_number 15
_symmetry_cell_setting 'monoclinic'
loop_
_space_group_symop_operation_xyz
x,y,z
-x,y,1/2-z
-x,-y,-z
x,-y,1/2+z
1/2+x,1/2+y,z
1/2-x,1/2+y,1/2-z
1/2-x,1/2-y,-z
1/2+x,1/2-y,1/2+z
loop_
_atom_site_type_symbol
_atom_site_label
_atom_site_fract_x
_atom_site_fract_y
_atom_site_fract_z
Si Si1 0.450716 0.271870 0.330387
Si Si2 0.616170 0.452766 0.491574
Si Si3 0.135779 0.492346 0.870380
Si Si4 0.248170 0.617929 0.007939
Si Si5 0.083018 0.279620 0.976236
Si Si6 0.513980 0.518522 0.154156
Si Si7 0.162481 0.587887 0.180342
Si Si8 0.023760 0.555665 0.597952
O O1 0.500000 0.226145 0.250000
O O2 0.502789 0.250216 0.421953
O O3 0.446282 0.402020 0.318884
O O4 0.371108 0.211460 0.322465
O O5 0.677624 0.547112 0.511177
O O6 0.637271 0.326222 0.473259
O O7 0.563929 0.492475 0.404201
O O8 0.566221 0.434569 0.578665
O O9 0.120435 0.379392 0.923623
O O10 0.177952 0.458708 0.781044
O O11 0.052976 0.547605 0.849602
O O12 0.182956 0.573314 0.937042
O O13 0.226907 0.584498 0.109595
O O14 0.250000 0.750000 0.000000
O O15 0.058872 0.327302 0.072422
O O16 0.500000 0.575898 0.250000
O O17 0.090453 0.517651 0.141825
O O18 0.000000 0.500000 0.500000
#
# Coordination Sequence:
#
# PCOD9253969 Si02
#       8
#     8   8   8   8   8   8   8   8
#     4  10  15  28  60  94 117 153 208 258 301 371
#     4  10  23  41  62  92 125 167 211 258 316 385
#     4  11  22  39  64  97 126 169 217 270 317 379
#     4  12  27  46  62  88 134 182 219 264 324 390
#     4  10  18  35  61  91 124 159 200 263 318 367
#     4   9  20  38  64  91 120 160 207 257 315 381
#     4  12  20  37  64  96 128 164 219 265 318 381
#     4  10  17  34  62  94 128 155 204 269 324 373
#
# _framework density 20.21388
#
# number of rings (size 3 to 8) (size 9 to 14) (size 15 to 20)
#    0.000    1.500    6.250    1.125    0.000    3.500 
#    2.250    2.500    0.000    0.000    0.000    0.000 
#    0.000    0.000    0.000    0.000    0.000    0.000 
#
# Total GULP energy -178408.101873 kJ/mol
# GULP energy per Si atom -5575.253184 kJ/mol
# Density = 2.016787 g / cm^3
# Si number density = 20.213880 Si / 1000 Ang^3
#
#
#
# Elastic Constant Matrix: (Units=GPa)
#
#
# Indices 1 2 3 4 5 6 
#
# 1 43.6919 28.6535 11.4451 0.0000 -6.2694 0.0000
# 2 28.6535 95.1628 16.2188 0.0000 4.2013 0.0000
# 3 11.4451 16.2188 93.7616 0.0000 -18.1521 0.0000
# 4 0.0000 0.0000 0.0000 17.1051 0.0000 -0.9727
# 5 -6.2694 4.2013 -18.1521 0.0000 15.0549 0.0000
# 6 0.0000 0.0000 0.0000 -0.9727 0.0000 22.4119
#
#
#
# Elastic Compliance Matrix: (Units=1/GPa)
#
#
# Indices 1 2 3 4 5 6 
#
# 1 0.032141 -0.010722 0.001437 0.000000 0.018110 0.000000
# 2 -0.010722 0.014981 -0.003857 0.000000 -0.013296 0.000000
# 3 0.001437 -0.003857 0.014977 0.000000 0.019733 0.000000
# 4 0.000000 0.000000 0.000000 0.058607 0.000000 0.002543
# 5 0.018110 -0.013296 0.019733 0.000000 0.101469 0.000000
# 6 0.000000 0.000000 0.000000 0.002543 0.000000 0.044729
#
#
# Mechanical properties :
#
#
# Convention : Reuss Voigt Hill
#
# Bulk Modulus (GPa) = 27.91982 38.36124 33.14053
# Shear Modulus (GPa) = 16.38664 22.66764 19.52714
#
# Velocity S-wave (km/s) = 2.85030 3.35235 3.11147
# Velocity P-wave (km/s) = 4.96734 5.83123 5.41653
#
# Compressibility (1/GPa) = 0.03581685
#
# Stress axis : x y z
#
# Youngs Moduli (GPa) = 31.11250 66.75085 66.76750
#
# Poissons Ratio (x) = 0.71572 -0.09597
# Poissons Ratio (y) = 0.33360 0.25750
# Poissons Ratio (z) = -0.04472 0.25743
#
# Static dielectric constant tensor:
#      x y z
#    x 1.738530 0.000000 -0.039740 
#    y 0.000000 1.760300 0.000000 
#    z -0.039740 0.000000 1.783740 
# 
# From -- ./inp_files/161356.got.cif
#   From: 2010.05.17/outbox.cif.g08.bks.cpg/sg15_81_cif.got.tgz:161356.got - 2010.06.03 18:47:42.
