data_PCOD9253657
_publ_section_title
;
Structure prediction by ZEFSAII (Michael W. Deem and Ramdas Pophale) SiO2 
 PCOD9253657
Probable space group: P 21/C
;
_chemical_formula_sum "Si O2"
_cell_formula_units_Z 28
_cell_length_a 30.000000
_cell_length_b 9.000000
_cell_length_c 30.000000
_cell_angle_alpha 90.000000
_cell_angle_beta 10.000000
_cell_angle_gamma 90.000000
_cell_volume 1406.550239
_symmetry_space_group_name_H-M "P 21/C"
_symmetry_group_IT_number 14
_symmetry_cell_setting 'monoclinic'
loop_
_space_group_symop_operation_xyz
x,y,z
-x,1/2+y,1/2-z
-x,-y,-z
x,1/2-y,1/2+z
loop_
_atom_site_type_symbol
_atom_site_label
_atom_site_fract_x
_atom_site_fract_y
_atom_site_fract_z
Si Si1 0.098032 0.183279 0.819238
Si Si2 0.183146 0.885874 0.683464
Si Si3 0.984852 0.938756 0.661866
Si Si4 0.383934 0.676308 0.654210
Si Si5 0.630989 0.636701 0.672738
Si Si6 0.484336 0.982240 0.810286
Si Si7 0.699641 0.392564 0.368588
O O1 0.080347 0.272608 0.789698
O O2 0.350421 0.231373 0.599306
O O3 0.116856 0.013829 0.784652
O O4 0.844648 0.236008 0.095748
O O5 0.414979 0.921997 0.420570
O O6 0.302470 0.751322 0.596778
O O7 0.917067 0.862255 0.915483
O O8 0.261900 0.951780 0.413486
O O9 0.934864 0.023663 0.663266
O O10 0.763740 0.995181 0.913463
O O11 0.469665 0.516939 0.592348
O O12 0.295500 0.651635 0.689259
O O13 0.591259 0.549812 0.664248
O O14 0.553760 0.807833 0.738620
#
# Coordination Sequence:
#
# PCOD9253657 Si02
#       7
#     4   4   4   4   4   4   4
#     4  11  25  42  65 102 137 180 218 279 343 406
#     4  12  26  44  69  98 142 175 229 276 351 403
#     4  11  23  42  69  93 131 177 219 271 331 405
#     4  10  24  42  69 100 135 180 229 277 341 401
#     4  12  27  44  68 101 129 180 221 285 336 406
#     4  12  25  44  68  96 130 171 224 275 338 398
#     4  10  22  44  70  99 134 180 231 283 327 422
#
# _framework density 19.906860999999999
#
# number of rings (size 3 to 8) (size 9 to 14) (size 15 to 20)
#    0.000    0.857    2.857    3.429    4.000    8.571 
#    0.000    0.000    0.000    0.000    0.000    0.000 
#    0.000    0.000    0.000    0.000    0.000    0.000 
#
# Total GULP energy -156104.085123 kJ/mol
# GULP energy per Si atom -5575.145897 kJ/mol
# Density = 1.986155 g / cm^3
# Si number density = 19.906861 Si / 1000 Ang^3
#
#
#
# Elastic Constant Matrix: (Units=GPa)
#
#
# Indices 1 2 3 4 5 6 
#
# 1 172.1448 32.3609 59.8206 0.0000 -23.4604 0.0000
# 2 32.3609 64.4076 2.6794 0.0000 -5.8696 0.0000
# 3 59.8206 2.6794 147.6112 0.0000 -16.2120 0.0000
# 4 0.0000 0.0000 0.0000 24.1386 0.0000 -0.2665
# 5 -23.4604 -5.8696 -16.2120 0.0000 38.7569 0.0000
# 6 0.0000 0.0000 0.0000 -0.2665 0.0000 48.4363
#
#
#
# Elastic Compliance Matrix: (Units=1/GPa)
#
#
# Indices 1 2 3 4 5 6 
#
# 1 0.007862 -0.003556 -0.002786 0.000000 0.003055 0.000000
# 2 -0.003556 0.017352 0.001235 0.000000 0.000992 0.000000
# 3 -0.002786 0.001235 0.008088 0.000000 0.001884 0.000000
# 4 0.000000 0.000000 0.000000 0.041430 0.000000 0.000228
# 5 0.003055 0.000992 0.001884 0.000000 0.028589 0.000000
# 6 0.000000 0.000000 0.000000 0.000228 0.000000 0.020647
#
#
# Mechanical properties :
#
#
# Convention : Reuss Voigt Hill
#
# Bulk Modulus (GPa) = 43.31236 63.76504 53.53870
# Shear Modulus (GPa) = 35.24152 41.55321 38.39737
#
# Velocity S-wave (km/s) = 4.21208 4.57374 4.39663
# Velocity P-wave (km/s) = 6.74242 7.74554 7.26132
#
# Compressibility (1/GPa) = 0.02308810
#
# Stress axis : x y z
#
# Youngs Moduli (GPa) = 127.19334 57.63105 123.63831
#
# Poissons Ratio (x) = 0.20493 0.34446
# Poissons Ratio (y) = 0.45228 -0.15270
# Poissons Ratio (z) = 0.35437 -0.07118
#
# Static dielectric constant tensor:
#      x y z
#    x 1.690200 0.000000 0.022690 
#    y 0.000000 1.794960 0.000000 
#    z 0.022690 0.000000 1.716390 
# 
# From -- ./inp_files/80959.got.cif
#   From: 2010.05.17/outbox.ucp.g08.bks.cvg/sg14_41_cif.got.tgz:80959.got - 2010.06.11 12:31:08.
