data_PCOD9253771
_publ_section_title
;
Structure prediction by ZEFSAII (Michael W. Deem and Ramdas Pophale) SiO2 
 PCOD9253771
Probable space group: C 2/C
;
_chemical_formula_sum "Si O2"
_cell_formula_units_Z 48
_cell_length_a 19.549276
_cell_length_b 11.000424
_cell_length_c 12.209079
_cell_angle_alpha 90.000000
_cell_angle_beta 133.110160
_cell_angle_gamma 90.000000
_cell_volume 1916.771396
_symmetry_space_group_name_H-M "C 2/C"
_symmetry_group_IT_number 15
_symmetry_cell_setting 'monoclinic'
loop_
_space_group_symop_operation_xyz
x,y,z
-x,y,1/2-z
-x,-y,-z
x,-y,1/2+z
1/2+x,1/2+y,z
1/2-x,1/2+y,1/2-z
1/2-x,1/2-y,-z
1/2+x,1/2-y,1/2+z
loop_
_atom_site_type_symbol
_atom_site_label
_atom_site_fract_x
_atom_site_fract_y
_atom_site_fract_z
Si Si1 0.500000 0.972372 0.750000
Si Si2 0.500000 0.368333 0.750000
Si Si3 0.795887 0.792385 0.877758
Si Si4 0.886862 0.033170 0.774248
Si Si5 0.863054 0.795861 0.440374
Si Si6 0.003592 0.257250 0.588467
Si Si7 0.795191 0.445554 0.536028
O O1 0.495202 0.882016 0.641336
O O2 0.392828 0.018950 0.642427
O O3 0.467600 0.445905 0.820048
O O4 0.405064 0.304626 0.606124
O O5 0.735496 0.758945 0.704449
O O6 0.904692 0.810115 0.968101
O O7 0.740423 0.895455 0.885363
O O8 0.800511 0.674649 0.963728
O O9 0.792609 0.988920 0.614618
O O10 0.866206 0.074936 0.875836
O O11 0.923871 0.166009 0.770163
O O12 0.944770 0.719625 0.468629
#
# Coordination Sequence:
#
# PCOD9253771 Si02
#       7
#     4   4   8   8   8   8   8
#     4  10  13  22  44  72 100 107 122 184 246 272
#     4  12  19  32  44  58  96 127 150 182 208 260
#     4   9  14  26  41  65  94 113 137 180 230 272
#     4   9  18  29  43  69  90 117 149 181 219 261
#     4   9  20  29  42  69  88 120 150 178 223 269
#     4   9  16  26  44  67  93 113 136 187 227 267
#     4   9  14  23  43  69  94 112 134 180 241 264
#
# _framework density 25.042110000000001
#
# number of rings (size 3 to 8) (size 9 to 14) (size 15 to 20)
#    1.000    1.667    1.667    4.000    0.000    0.000 
#    0.000    0.833    0.000    0.000    0.000   12.833 
#    0.000    0.000    0.000    0.000    0.000    0.000 
#
# Total GULP energy -133667.571299 kJ/mol
# GULP energy per Si atom -5569.482137 kJ/mol
# Density = 2.498511 g / cm^3
# Si number density = 25.042110 Si / 1000 Ang^3
#
#
#
# Elastic Constant Matrix: (Units=GPa)
#
#
# Indices 1 2 3 4 5 6 
#
# 1 61.3033 15.8288 26.5268 0.0000 28.5930 0.0000
# 2 15.8288 39.6460 13.0140 0.0000 -1.1237 0.0000
# 3 26.5268 13.0140 214.0940 0.0000 37.6428 0.0000
# 4 0.0000 0.0000 0.0000 11.4913 0.0000 1.3909
# 5 28.5930 -1.1237 37.6428 0.0000 52.2761 0.0000
# 6 0.0000 0.0000 0.0000 1.3909 0.0000 14.5005
#
#
#
# Elastic Compliance Matrix: (Units=1/GPa)
#
#
# Indices 1 2 3 4 5 6 
#
# 1 0.025747 -0.010675 -0.000028 0.000000 -0.014292 0.000000
# 2 -0.010675 0.030333 -0.001903 0.000000 0.007862 0.000000
# 3 -0.000028 -0.001903 0.005490 0.000000 -0.003978 0.000000
# 4 0.000000 0.000000 0.000000 0.088045 0.000000 -0.008445
# 5 -0.014292 0.007862 -0.003978 0.000000 0.029980 0.000000
# 6 0.000000 0.000000 0.000000 -0.008445 0.000000 0.069773
#
#
# Mechanical properties :
#
#
# Convention : Reuss Voigt Hill
#
# Bulk Modulus (GPa) = 27.50632 47.30917 37.40774
# Shear Modulus (GPa) = 17.43983 32.96515 25.20249
#
# Velocity S-wave (km/s) = 2.64184 3.63214 3.17583
# Velocity P-wave (km/s) = 4.50706 6.04341 5.33087
#
# Compressibility (1/GPa) = 0.03635528
#
# Stress axis : x y z
#
# Youngs Moduli (GPa) = 38.83956 32.96741 182.16464
#
# Poissons Ratio (x) = 0.35194 0.00517
# Poissons Ratio (y) = 0.41462 0.34673
# Poissons Ratio (z) = 0.00110 0.06275
#
# Static dielectric constant tensor:
#      x y z
#    x 2.354960 0.000000 -0.275920 
#    y 0.000000 2.010060 0.000000 
#    z -0.275920 0.000000 2.236170 
# 
# From -- ./inp_files/173940.got.cif
#   From: 2010.05.17/outbox.cif.g08.bks.cpg/sg15_87_cif.got.tgz:173940.got - 2010.06.03 18:47:42.
