data_PCOD9253862
_publ_section_title
;
Structure prediction by ZEFSAII (Michael W. Deem and Ramdas Pophale) SiO2 
 PCOD9253862
Probable space group: C 2/C
;
_chemical_formula_sum "Si O2"
_cell_formula_units_Z 56
_cell_length_a 7.886129
_cell_length_b 20.028890
_cell_length_c 14.099891
_cell_angle_alpha 90.000000
_cell_angle_beta 73.532112
_cell_angle_gamma 90.000000
_cell_volume 2135.725847
_symmetry_space_group_name_H-M "C 2/C"
_symmetry_group_IT_number 15
_symmetry_cell_setting 'monoclinic'
loop_
_space_group_symop_operation_xyz
x,y,z
-x,y,1/2-z
-x,-y,-z
x,-y,1/2+z
1/2+x,1/2+y,z
1/2-x,1/2+y,1/2-z
1/2-x,1/2-y,-z
1/2+x,1/2-y,1/2+z
loop_
_atom_site_type_symbol
_atom_site_label
_atom_site_fract_x
_atom_site_fract_y
_atom_site_fract_z
Si Si1 0.571040 0.339593 0.872092
Si Si2 0.348201 0.215456 0.191363
Si Si3 0.128444 0.889920 0.141972
Si Si4 0.124446 0.530573 0.640761
Si Si5 0.097263 0.386414 0.549660
Si Si6 0.501514 0.515521 0.387498
Si Si7 0.322138 0.338100 0.061457
O O1 0.669385 0.306292 0.770395
O O2 0.743680 0.360291 0.907524
O O3 0.474949 0.408926 0.866285
O O4 0.416355 0.303259 0.955666
O O5 0.500000 0.226514 0.250000
O O6 0.433213 0.159285 0.108542
O O7 0.293829 0.281582 0.143595
O O8 0.000000 0.870662 0.250000
O O9 0.139821 0.969635 0.140535
O O10 0.994433 0.874279 0.078344
O O11 0.320066 0.870006 0.069015
O O12 0.074555 0.465633 0.582300
O O13 0.300126 0.505057 0.666456
O O14 0.181850 0.600290 0.578697
O O15 0.000000 0.545939 0.750000
O O16 0.500000 0.500000 0.500000
#
# Coordination Sequence:
#
# PCOD9253862 Si02
#       7
#     8   8   8   8   8   8   8
#     4   9  16  30  49  69 100 135 175 215 261 322
#     4  10  20  29  48  77 107 138 169 218 282 327
#     4  10  18  27  48  76 110 137 166 218 282 329
#     4  10  17  30  55  76  95 130 189 232 251 304
#     4   9  16  30  47  76 103 131 173 222 266 319
#     4  10  14  31  52  77  99 133 178 229 264 317
#     4  10  19  31  46  73 106 139 175 218 265 327
#
# _framework density 26.220592
#
# number of rings (size 3 to 8) (size 9 to 14) (size 15 to 20)
#    0.000    2.286    5.714    2.571    0.000    6.286 
#    0.000    0.000    0.000   11.143    0.000    0.000 
#    0.000    0.000    0.000    0.000    0.000    0.000 
#
# Total GULP energy -155957.911077 kJ/mol
# GULP energy per Si atom -5569.925396 kJ/mol
# Density = 2.616091 g / cm^3
# Si number density = 26.220592 Si / 1000 Ang^3
#
#
#
# Elastic Constant Matrix: (Units=GPa)
#
#
# Indices 1 2 3 4 5 6 
#
# 1 58.1574 6.3419 13.6957 0.0000 -9.3618 0.0000
# 2 6.3419 127.7051 80.5286 0.0000 -12.7698 0.0000
# 3 13.6957 80.5286 235.7449 0.0000 -44.4861 0.0000
# 4 0.0000 0.0000 0.0000 26.0381 0.0000 -13.6338
# 5 -9.3618 -12.7698 -44.4861 0.0000 39.6770 0.0000
# 6 0.0000 0.0000 0.0000 -13.6338 0.0000 1.8436
#
#
#
# Elastic Compliance Matrix: (Units=1/GPa)
#
#
# Indices 1 2 3 4 5 6 
#
# 1 0.017907 -0.000392 -0.000169 0.000000 0.003910 0.000000
# 2 -0.000392 0.010008 -0.003558 0.000000 -0.000861 0.000000
# 3 -0.000169 -0.003558 0.006651 0.000000 0.006272 0.000000
# 4 0.000000 0.000000 0.000000 -0.013371 0.000000 -0.098884
# 5 0.003910 -0.000861 0.006272 0.000000 0.032881 0.000000
# 6 0.000000 0.000000 0.000000 -0.098884 0.000000 -0.188851
#
#
# Mechanical properties :
#
#
# Convention : Reuss Voigt Hill
#
# Bulk Modulus (GPa) = 37.98348 69.19329 53.58839
# Shear Modulus (GPa) = -42.45823 34.91449 -3.77187
#
# Velocity S-wave (km/s) = -4.02838 3.65302 -1.20068
# Velocity P-wave (km/s) = 2.66825 6.65124 4.30810
#
# Compressibility (1/GPa) = 0.02632723
#
# Stress axis : x y z
#
# Youngs Moduli (GPa) = 55.84546 99.92325 150.36122
#
# Poissons Ratio (x) = 0.03917 0.02535
# Poissons Ratio (y) = 0.02189 0.53503
# Poissons Ratio (z) = 0.00941 0.35555
#
# Static dielectric constant tensor:
#      x y z
#    x 2.068700 0.000000 0.047580 
#    y 0.000000 2.160260 0.000000 
#    z 0.047580 0.000000 2.340700 
# 
# From -- ./inp_files/200115.got.cif
#   From: 2010.05.17/outbox.cif.g08.bks.cpg/sg15_101_cif.got.tgz:200115.got - 2010.06.03 18:47:42.
