data_PCOD9253575
_publ_section_title
;
Structure prediction by ZEFSAII (Michael W. Deem and Ramdas Pophale) SiO2 
 PCOD9253575
Probable space group: P 21/C
;
_chemical_formula_sum "Si O2"
_cell_formula_units_Z 32
_cell_length_a 27.000000
_cell_length_b 15.000000
_cell_length_c 9.000000
_cell_angle_alpha 90.000000
_cell_angle_beta 30.000000
_cell_angle_gamma 90.000000
_cell_volume 1822.500000
_symmetry_space_group_name_H-M "P 21/C"
_symmetry_group_IT_number 14
_symmetry_cell_setting 'monoclinic'
loop_
_space_group_symop_operation_xyz
x,y,z
-x,1/2+y,1/2-z
-x,-y,-z
x,1/2-y,1/2+z
loop_
_atom_site_type_symbol
_atom_site_label
_atom_site_fract_x
_atom_site_fract_y
_atom_site_fract_z
Si Si1 0.644917 0.511351 0.059358
Si Si2 0.150853 0.015494 0.804803
Si Si3 0.151819 0.027812 0.445002
Si Si4 0.360141 0.009990 0.780598
Si Si5 0.030378 0.646324 0.230298
Si Si6 0.473032 0.847919 0.996307
Si Si7 0.028857 0.841524 0.089974
Si Si8 0.464897 0.850040 0.661306
O O1 0.605205 0.420583 0.239010
O O2 0.575213 0.598360 0.266018
O O3 0.751957 0.529043 0.850624
O O4 0.639268 0.495563 0.897538
O O5 0.165043 0.022348 0.589287
O O6 0.108702 0.915045 0.937975
O O7 0.070132 0.092390 0.048594
O O8 0.073886 0.106063 0.611921
O O9 0.112108 0.931216 0.492887
O O10 0.254717 0.045910 0.102114
O O11 0.381779 0.916348 0.808664
O O12 0.438804 0.087362 0.617009
O O13 0.038623 0.742227 0.130112
O O14 0.033815 0.663637 0.398319
O O15 0.458063 0.840095 0.857407
O O16 0.468080 0.748779 0.080509
#
# Coordination Sequence:
#
# PCOD9253575 Si02
#       8
#     4   4   4   4   4   4   4   4
#     4  10  21  36  55  80 107 137 175 217 262 311
#     4   9  19  36  54  74 105 141 173 210 260 313
#     4   9  19  36  54  74 105 141 173 210 260 313
#     4  10  21  36  55  80 107 137 175 217 262 311
#     4   9  19  35  54  76 103 137 175 214 258 308
#     4  10  21  37  56  78 106 139 175 216 261 311
#     4   9  19  35  54  76 103 137 175 214 258 308
#     4  10  21  37  56  78 106 139 175 216 261 311
#
# _framework density 17.558299000000002
#
# number of rings (size 3 to 8) (size 9 to 14) (size 15 to 20)
#    0.000    2.500    0.000    3.000    0.000    7.000 
#    0.000   10.000    0.000    0.000    0.000    0.000 
#    0.000    0.000    0.000    0.000    0.000    0.000 
#
# Total GULP energy -178296.850410 kJ/mol
# GULP energy per Si atom -5571.776575 kJ/mol
# Density = 1.751834 g / cm^3
# Si number density = 17.558299 Si / 1000 Ang^3
#
#
#
# Elastic Constant Matrix: (Units=GPa)
#
#
# Indices 1 2 3 4 5 6 
#
# 1 60.3666 8.7876 -4.1414 0.0000 -11.7184 0.0000
# 2 8.7876 68.8903 -26.2975 0.0000 17.6380 0.0000
# 3 -4.1414 -26.2975 25.0234 0.0000 1.1446 0.0000
# 4 0.0000 0.0000 0.0000 17.5077 0.0000 14.2367
# 5 -11.7184 17.6380 1.1446 0.0000 19.5122 0.0000
# 6 0.0000 0.0000 0.0000 14.2367 0.0000 32.9601
#
#
#
# Elastic Compliance Matrix: (Units=1/GPa)
#
#
# Indices 1 2 3 4 5 6 
#
# 1 0.023653 -0.016032 -0.014284 0.000000 0.029535 0.000000
# 2 -0.016032 0.054322 0.057274 0.000000 -0.062092 0.000000
# 3 -0.014284 0.057274 0.100820 0.000000 -0.066266 0.000000
# 4 0.000000 0.000000 0.000000 0.088041 0.000000 -0.038028
# 5 0.029535 -0.062092 -0.066266 0.000000 0.129003 0.000000
# 6 0.000000 0.000000 0.000000 -0.038028 0.000000 0.046765
#
#
# Mechanical properties :
#
#
# Convention : Reuss Voigt Hill
#
# Bulk Modulus (GPa) = 4.29718 12.33086 8.31402
# Shear Modulus (GPa) = 10.72367 25.72477 18.22422
#
# Velocity S-wave (km/s) = 2.47401 3.83182 3.22518
# Velocity P-wave (km/s) = 3.25786 5.15899 4.31445
#
# Compressibility (1/GPa) = 0.23271056
#
# Stress axis : x y z
#
# Youngs Moduli (GPa) = 42.27865 18.40885 9.91866
#
# Poissons Ratio (x) = 0.29513 0.14168
# Poissons Ratio (y) = 0.67780 -0.56809
# Poissons Ratio (z) = 0.60393 -1.05436
#
# Static dielectric constant tensor:
#      x y z
#    x 1.601530 0.000000 -0.005670 
#    y 0.000000 1.555780 0.000000 
#    z -0.005670 0.000000 1.631000 
# 
# From -- ./inp_files/19841.got.cif
#   From: 2010.05.17/outbox.ucp.g08.bks.cvg/sg14_10_cif.got.tgz:19841.got - 2010.06.11 12:31:08.
