data_PCOD9253549
_publ_section_title
;
Structure prediction by ZEFSAII (Michael W. Deem and Ramdas Pophale) SiO2 
 PCOD9253549
Probable space group: P 21/C
;
_chemical_formula_sum "Si O2"
_cell_formula_units_Z 28
_cell_length_a 9.000000
_cell_length_b 15.000000
_cell_length_c 12.000000
_cell_angle_alpha 90.000000
_cell_angle_beta 120.000000
_cell_angle_gamma 90.000000
_cell_volume 1402.961154
_symmetry_space_group_name_H-M "P 21/C"
_symmetry_group_IT_number 14
_symmetry_cell_setting 'monoclinic'
loop_
_space_group_symop_operation_xyz
x,y,z
-x,1/2+y,1/2-z
-x,-y,-z
x,1/2-y,1/2+z
loop_
_atom_site_type_symbol
_atom_site_label
_atom_site_fract_x
_atom_site_fract_y
_atom_site_fract_z
Si Si1 0.009883 0.087897 0.926012
Si Si2 0.594553 0.611143 0.449108
Si Si3 0.607183 0.223739 0.706033
Si Si4 0.207365 0.896770 0.385476
Si Si5 0.533497 0.575139 0.682786
Si Si6 0.931303 0.285289 0.955085
Si Si7 0.833688 0.556676 0.972995
O O1 0.901665 0.084277 0.769366
O O2 0.969691 0.179676 0.978079
O O3 0.204433 0.099730 0.963456
O O4 0.000000 0.000000 0.000000
O O5 0.538852 0.703745 0.372222
O O6 0.529429 0.605581 0.552258
O O7 0.532785 0.526693 0.351966
O O8 0.641620 0.164782 0.608353
O O9 0.570037 0.149718 0.786680
O O10 0.771295 0.282146 0.808576
O O11 0.118896 0.833202 0.446707
O O12 0.246658 0.991571 0.461512
O O13 0.709870 0.568673 0.820043
O O14 0.088209 0.346094 0.966741
O O15 0.000000 0.500000 0.000000
#
# Coordination Sequence:
#
# PCOD9253549 Si02
#       7
#     4   4   4   4   4   4   4
#     4  11  24  40  61  92 122 154 205 255 299 362
#     4  11  22  39  63  87 123 164 196 253 317 360
#     4  11  23  40  62  93 126 160 206 256 306 365
#     4  10  22  40  63  90 121 160 203 251 304 356
#     4  11  24  40  60  90 123 160 207 250 307 373
#     4  10  21  40  63  87 120 162 206 249 302 369
#     4  10  20  39  63  87 117 158 206 246 295 365
#
# _framework density 19.957787
#
# number of rings (size 3 to 8) (size 9 to 14) (size 15 to 20)
#    0.000    1.429    0.000    6.857    0.000    5.143 
#    0.000    5.714    0.000    0.000    0.000    0.000 
#    0.000    0.000    0.000    0.000    0.000    0.000 
#
# Total GULP energy -156102.140410 kJ/mol
# GULP energy per Si atom -5575.076443 kJ/mol
# Density = 1.991236 g / cm^3
# Si number density = 19.957787 Si / 1000 Ang^3
#
#
#
# Elastic Constant Matrix: (Units=GPa)
#
#
# Indices 1 2 3 4 5 6 
#
# 1 28.7842 21.5496 -6.0180 0.0000 -10.0522 0.0000
# 2 21.5496 152.7953 32.7730 0.0000 -16.3151 0.0000
# 3 -6.0180 32.7730 78.3134 0.0000 -0.4620 0.0000
# 4 0.0000 0.0000 0.0000 28.9601 0.0000 -2.8177
# 5 -10.0522 -16.3151 -0.4620 0.0000 42.1479 0.0000
# 6 0.0000 0.0000 0.0000 -2.8177 0.0000 41.9430
#
#
#
# Elastic Compliance Matrix: (Units=1/GPa)
#
#
# Indices 1 2 3 4 5 6 
#
# 1 0.043793 -0.006659 0.006199 0.000000 0.007935 0.000000
# 2 -0.006659 0.008536 -0.004074 0.000000 0.001672 0.000000
# 3 0.006199 -0.004074 0.014951 0.000000 0.000065 0.000000
# 4 0.000000 0.000000 0.000000 0.034757 0.000000 0.002335
# 5 0.007935 0.001672 0.000065 0.000000 0.026266 0.000000
# 6 0.000000 0.000000 0.000000 0.002335 0.000000 0.023999
#
#
# Mechanical properties :
#
#
# Convention : Reuss Voigt Hill
#
# Bulk Modulus (GPa) = 17.17850 39.61134 28.39492
# Shear Modulus (GPa) = 27.65867 36.71609 32.18738
#
# Velocity S-wave (km/s) = 3.72675 4.29381 4.02029
# Velocity P-wave (km/s) = 5.21002 6.66881 5.98404
#
# Compressibility (1/GPa) = 0.05821231
#
# Stress axis : x y z
#
# Youngs Moduli (GPa) = 22.83447 117.14882 66.88568
#
# Poissons Ratio (x) = 0.78006 -0.41460
# Poissons Ratio (y) = 0.15205 0.27250
# Poissons Ratio (z) = -0.14154 0.47727
#
# Static dielectric constant tensor:
#      x y z
#    x 1.793630 0.000000 0.019610 
#    y 0.000000 1.706630 0.000000 
#    z 0.019610 0.000000 1.689210 
# 
# From -- ./inp_files/25355.got.cif
#   From: 2010.05.17/outbox.ucp.g08.bks.cvg/sg14_13_cif.got.tgz:25355.got - 2010.06.11 12:31:08.
