data_PCOD9253841
_publ_section_title
;
Structure prediction by ZEFSAII (Michael W. Deem and Ramdas Pophale) SiO2 
 PCOD9253841
Probable space group: C 2/C
;
_chemical_formula_sum "Si O2"
_cell_formula_units_Z 48
_cell_length_a 25.493578
_cell_length_b 8.933495
_cell_length_c 13.888276
_cell_angle_alpha 90.000000
_cell_angle_beta 33.761868
_cell_angle_gamma 90.000000
_cell_volume 1757.818779
_symmetry_space_group_name_H-M "C 2/C"
_symmetry_group_IT_number 15
_symmetry_cell_setting 'monoclinic'
loop_
_space_group_symop_operation_xyz
x,y,z
-x,y,1/2-z
-x,-y,-z
x,-y,1/2+z
1/2+x,1/2+y,z
1/2-x,1/2+y,1/2-z
1/2-x,1/2-y,-z
1/2+x,1/2-y,1/2+z
loop_
_atom_site_type_symbol
_atom_site_label
_atom_site_fract_x
_atom_site_fract_y
_atom_site_fract_z
Si Si1 0.594021 0.070775 0.652940
Si Si2 0.640182 0.924605 0.774142
Si Si3 0.353144 0.666646 0.312421
Si Si4 0.649622 0.289520 0.404592
Si Si5 0.366442 0.205259 0.592275
Si Si6 0.365903 0.562968 0.946908
O O1 0.500000 0.010687 0.750000
O O2 0.632451 0.954266 0.672416
O O3 0.575971 0.216287 0.746491
O O4 0.648797 0.146374 0.479759
O O5 0.595908 0.060307 0.906134
O O6 0.751954 0.925331 0.624692
O O7 0.608208 0.768199 0.867508
O O8 0.250000 0.750000 0.500000
O O9 0.360522 0.673401 0.187510
O O10 0.373884 0.506817 0.327945
O O11 0.759093 0.334605 0.226844
O O12 0.603066 0.426186 0.531376
O O13 0.404829 0.288909 0.439353
#
# Coordination Sequence:
#
# PCOD9253841 Si02
#       6
#     8   8   8   8   8   8
#     4  10  18  28  45  67  89 121 156 181 212 269
#     4   9  16  28  44  65  92 117 147 183 226 264
#     4  10  14  30  47  63  86 123 150 183 216 262
#     4   9  16  28  44  65  92 117 147 183 226 264
#     4   9  15  26  47  70  87 113 149 189 227 260
#     4   9  15  26  47  70  87 113 149 189 227 260
#
# _framework density 27.306567999999999
#
# number of rings (size 3 to 8) (size 9 to 14) (size 15 to 20)
#    0.000    2.667    6.667    0.000    0.000    0.667 
#    0.000    1.667    0.000   24.000    0.000    9.333 
#    0.000    0.000    0.000    0.000    0.000    0.000 
#
# Total GULP energy -133828.990847 kJ/mol
# GULP energy per Si atom -5576.207952 kJ/mol
# Density = 2.724442 g / cm^3
# Si number density = 27.306568 Si / 1000 Ang^3
#
#
#
# Elastic Constant Matrix: (Units=GPa)
#
#
# Indices 1 2 3 4 5 6 
#
# 1 114.7406 65.2988 24.5104 0.0000 11.2521 0.0000
# 2 65.2988 80.6473 29.5140 0.0001 16.1315 -0.0001
# 3 24.5104 29.5140 61.2376 0.0000 0.0833 0.0000
# 4 0.0000 0.0001 0.0000 26.4056 0.0000 24.8752
# 5 11.2521 16.1315 0.0833 0.0000 25.9640 0.0000
# 6 0.0000 -0.0001 0.0000 24.8752 0.0000 51.3302
#
#
#
# Elastic Compliance Matrix: (Units=1/GPa)
#
#
# Indices 1 2 3 4 5 6 
#
# 1 0.016201 -0.013355 -0.000050 0.000000 0.001276 0.000000
# 2 -0.013355 0.028723 -0.008482 0.000000 -0.012031 0.000000
# 3 -0.000050 -0.008482 0.020431 0.000000 0.005226 0.000000
# 4 0.000000 0.000000 0.000000 0.069683 0.000000 -0.033769
# 5 0.001276 -0.012031 0.005226 0.000000 0.045420 0.000000
# 6 0.000000 0.000000 0.000000 -0.033769 0.000000 0.035847
#
#
# Mechanical properties :
#
#
# Convention : Reuss Voigt Hill
#
# Bulk Modulus (GPa) = 46.33461 55.03023 50.68242
# Shear Modulus (GPa) = 18.70760 29.89343 24.30052
#
# Velocity S-wave (km/s) = 2.62027 3.31227 2.98638
# Velocity P-wave (km/s) = 5.11464 5.90124 5.52197
#
# Compressibility (1/GPa) = 0.02158214
#
# Stress axis : x y z
#
# Youngs Moduli (GPa) = 61.72473 34.81477 48.94628
#
# Poissons Ratio (x) = 0.46494 0.00243
# Poissons Ratio (y) = 0.82432 0.41516
# Poissons Ratio (z) = 0.00307 0.29530
#
# Static dielectric constant tensor:
#      x y z
#    x 2.111720 0.000000 -0.043310 
#    y 0.000000 2.179440 0.000000 
#    z -0.043310 0.000000 2.263800 
# 
# From -- ./inp_files/172679.got.cif
#   From: 2010.05.17/outbox.cif.g08.bks.cpg/sg15_87_cif.got.tgz:172679.got - 2010.06.03 18:47:42.
