data_PCOD9253712
_publ_section_title
;
Structure prediction by ZEFSAII (Michael W. Deem and Ramdas Pophale) SiO2 
 PCOD9253712
Probable space group: P 21/C
;
_chemical_formula_sum "Si O2"
_cell_formula_units_Z 32
_cell_length_a 15.000000
_cell_length_b 9.000000
_cell_length_c 24.000000
_cell_angle_alpha 90.000000
_cell_angle_beta 150.000000
_cell_angle_gamma 90.000000
_cell_volume 1620.000000
_symmetry_space_group_name_H-M "P 21/C"
_symmetry_group_IT_number 14
_symmetry_cell_setting 'monoclinic'
loop_
_space_group_symop_operation_xyz
x,y,z
-x,1/2+y,1/2-z
-x,-y,-z
x,1/2-y,1/2+z
loop_
_atom_site_type_symbol
_atom_site_label
_atom_site_fract_x
_atom_site_fract_y
_atom_site_fract_z
Si Si1 0.895491 0.957979 0.219147
Si Si2 0.720253 0.964164 0.005910
Si Si3 0.393043 0.439639 0.148769
Si Si4 0.364859 0.760353 0.803451
Si Si5 0.519575 0.218074 0.832511
Si Si6 0.967881 0.677303 0.105824
Si Si7 0.269818 0.608009 0.869554
Si Si8 0.627364 0.790580 0.625296
O O1 0.748036 0.847349 0.167649
O O2 0.076222 0.878042 0.293791
O O3 0.790496 0.011158 0.105771
O O4 0.972473 0.078659 0.306616
O O5 0.524382 0.881481 0.899862
O O6 0.675826 0.107553 0.942255
O O7 0.869663 0.838358 0.067322
O O8 0.539662 0.356316 0.187489
O O9 0.420557 0.618968 0.158805
O O10 0.427828 0.372083 0.230386
O O11 0.194565 0.401396 0.016635
O O12 0.318943 0.691552 0.838899
O O13 0.159454 0.808009 0.676437
O O14 0.397530 0.259719 0.821408
O O15 0.279126 0.435961 0.852665
O O16 0.424575 0.669443 0.994686
#
# Coordination Sequence:
#
# PCOD9253712 Si02
#       8
#     4   4   4   4   4   4   4   4
#     4  12  24  40  72 110 152 185 239 298 366 445
#     4  11  25  44  69 106 144 187 240 295 366 438
#     4  11  26  51  73 102 143 190 254 301 355 423
#     4  11  22  46  72 102 144 195 233 301 360 423
#     4  12  26  50  79 103 142 200 244 306 364 426
#     4  11  25  45  69 105 145 193 238 301 359 429
#     4  11  23  41  71 107 155 187 235 291 367 437
#     4  11  25  45  71 111 146 195 236 298 366 436
#
# _framework density 19.753086
#
# number of rings (size 3 to 8) (size 9 to 14) (size 15 to 20)
#    0.000    0.750    3.750    3.750    5.250    3.000 
#    0.000   10.625    0.000    0.000    0.000    0.000 
#    0.000    0.000    0.000    0.000    0.000    0.000 
#
# Total GULP energy -178384.143410 kJ/mol
# GULP energy per Si atom -5574.504482 kJ/mol
# Density = 1.970813 g / cm^3
# Si number density = 19.753086 Si / 1000 Ang^3
#
#
#
# Elastic Constant Matrix: (Units=GPa)
#
#
# Indices 1 2 3 4 5 6 
#
# 1 116.0502 41.2958 60.0797 0.0000 0.4411 0.0000
# 2 41.2958 135.4682 65.3912 0.0000 -8.5532 0.0000
# 3 60.0797 65.3912 171.1899 0.0000 -2.0169 0.0000
# 4 0.0000 0.0000 0.0000 47.4377 0.0000 -4.5923
# 5 0.4411 -8.5532 -2.0169 0.0000 57.2844 0.0000
# 6 0.0000 0.0000 0.0000 -4.5923 0.0000 42.8084
#
#
#
# Elastic Compliance Matrix: (Units=1/GPa)
#
#
# Indices 1 2 3 4 5 6 
#
# 1 0.010892 -0.001842 -0.003125 0.000000 -0.000469 0.000000
# 2 -0.001842 0.009449 -0.002948 0.000000 0.001321 0.000000
# 3 -0.003125 -0.002948 0.008062 0.000000 -0.000132 0.000000
# 4 0.000000 0.000000 0.000000 0.021302 0.000000 0.002285
# 5 -0.000469 0.001321 -0.000132 0.000000 0.017653 0.000000
# 6 0.000000 0.000000 0.000000 0.002285 0.000000 0.023605
#
#
# Mechanical properties :
#
#
# Convention : Reuss Voigt Hill
#
# Bulk Modulus (GPa) = 79.51631 84.02686 81.77158
# Shear Modulus (GPa) = 45.05214 46.56887 45.81051
#
# Velocity S-wave (km/s) = 4.78092 4.86073 4.82099
# Velocity P-wave (km/s) = 8.41539 8.61006 8.51328
#
# Compressibility (1/GPa) = 0.01257604
#
# Stress axis : x y z
#
# Youngs Moduli (GPa) = 91.81358 105.82635 124.03224
#
# Poissons Ratio (x) = 0.19488 0.38755
# Poissons Ratio (y) = 0.16908 0.36560
# Poissons Ratio (z) = 0.28688 0.31194
#
# Static dielectric constant tensor:
#      x y z
#    x 1.698830 0.000000 -0.006820 
#    y 0.000000 1.788010 0.000000 
#    z -0.006820 0.000000 1.729530 
# 
# From -- ./inp_files/73878.got.cif
#   From: 2010.05.17/outbox.ucp.g08.bks.cvg/sg14_37_cif.got.tgz:73878.got - 2010.06.11 12:31:08.
