data_PCOD9253778
_publ_section_title
;
Structure prediction by ZEFSAII (Michael W. Deem and Ramdas Pophale) SiO2 
 PCOD9253778
Probable space group: C 2/C
;
_chemical_formula_sum "Si O2"
_cell_formula_units_Z 56
_cell_length_a 19.252169
_cell_length_b 6.969888
_cell_length_c 22.178366
_cell_angle_alpha 90.000000
_cell_angle_beta 129.097830
_cell_angle_gamma 90.000000
_cell_volume 2309.596274
_symmetry_space_group_name_H-M "C 2/C"
_symmetry_group_IT_number 15
_symmetry_cell_setting 'monoclinic'
loop_
_space_group_symop_operation_xyz
x,y,z
-x,y,1/2-z
-x,-y,-z
x,-y,1/2+z
1/2+x,1/2+y,z
1/2-x,1/2+y,1/2-z
1/2-x,1/2-y,-z
1/2+x,1/2-y,1/2+z
loop_
_atom_site_type_symbol
_atom_site_label
_atom_site_fract_x
_atom_site_fract_y
_atom_site_fract_z
Si Si1 0.986664 0.149279 0.398612
Si Si2 0.500192 0.081232 0.351964
Si Si3 0.555024 0.179986 0.503180
Si Si4 0.592152 0.572361 0.268640
Si Si5 0.365045 0.021998 0.180596
Si Si6 0.258540 0.995097 0.434505
Si Si7 0.690525 0.555290 0.527623
O O1 0.004868 0.362890 0.380054
O O2 0.083661 0.058472 0.465827
O O3 0.941025 0.176074 0.438575
O O4 0.925494 0.062540 0.312204
O O5 0.503789 0.214507 0.412313
O O6 0.410891 0.111245 0.264355
O O7 0.582510 0.095270 0.350160
O O8 0.500000 0.000000 0.500000
O O9 0.653183 0.118080 0.535522
O O10 0.500000 0.509415 0.250000
O O11 0.608077 0.795540 0.297449
O O12 0.678560 0.468983 0.343144
O O13 0.259042 0.034338 0.113683
O O14 0.286448 0.219230 0.453204
O O15 0.221517 0.965220 0.481228
#
# Coordination Sequence:
#
# PCOD9253778 Si02
#       7
#     8   8   8   8   8   8   8
#     4  10  16  24  34  52  80 114 145 182 214 252
#     4   9  13  22  30  47  72 109 136 170 209 253
#     4  10  17  24  33  51  83 119 145 172 223 270
#     4  10  15  23  35  53  76 110 147 180 203 250
#     4   9  14  19  33  49  73 103 141 171 207 244
#     4  10  16  22  35  51  79 113 150 170 214 266
#     4  10  14  21  34  53  74 109 149 172 209 263
#
# _framework density 24.246662000000001
#
# number of rings (size 3 to 8) (size 9 to 14) (size 15 to 20)
#    0.000    2.286    8.571    0.857    0.000    0.000 
#    0.000    0.000    0.000    0.000    0.000    0.000 
#    0.000   20.571    0.000   38.571    1.143    2.429 
#
# Total GULP energy -156579.113382 kJ/mol
# GULP energy per Si atom -5592.111192 kJ/mol
# Density = 2.419148 g / cm^3
# Si number density = 24.246662 Si / 1000 Ang^3
#
#
#
# Elastic Constant Matrix: (Units=GPa)
#
#
# Indices 1 2 3 4 5 6 
#
# 1 128.0090 22.1139 93.3100 0.0000 -1.2787 0.0000
# 2 22.1139 65.0059 35.0973 0.0000 0.3590 0.0000
# 3 93.3100 35.0973 265.0612 0.0000 0.0419 0.0000
# 4 0.0000 0.0000 0.0000 33.9189 0.0000 11.3484
# 5 -1.2787 0.3590 0.0419 0.0000 47.7102 0.0000
# 6 0.0000 0.0000 0.0000 11.3484 0.0000 25.3122
#
#
#
# Elastic Compliance Matrix: (Units=1/GPa)
#
#
# Indices 1 2 3 4 5 6 
#
# 1 0.010690 -0.001730 -0.003534 0.000000 0.000303 0.000000
# 2 -0.001730 0.016848 -0.001622 0.000000 -0.000172 0.000000
# 3 -0.003534 -0.001622 0.005232 0.000000 -0.000087 0.000000
# 4 0.000000 0.000000 0.000000 0.034685 0.000000 -0.015550
# 5 0.000303 -0.000172 -0.000087 0.000000 0.020969 0.000000
# 6 0.000000 0.000000 0.000000 -0.015550 0.000000 0.046478
#
#
# Mechanical properties :
#
#
# Convention : Reuss Voigt Hill
#
# Bulk Modulus (GPa) = 52.63780 84.34649 68.49215
# Shear Modulus (GPa) = 32.25651 41.89194 37.07422
#
# Velocity S-wave (km/s) = 3.65135 4.16112 3.91454
# Velocity P-wave (km/s) = 6.28752 7.61242 6.98147
#
# Compressibility (1/GPa) = 0.01899776
#
# Stress axis : x y z
#
# Youngs Moduli (GPa) = 93.54491 59.35297 191.14496
#
# Poissons Ratio (x) = 0.10269 0.67555
# Poissons Ratio (y) = 0.16184 0.31001
# Poissons Ratio (z) = 0.33061 0.09626
#
# Static dielectric constant tensor:
#      x y z
#    x 1.848890 0.000000 0.000300 
#    y 0.000000 2.105930 0.000000 
#    z 0.000300 0.000000 1.915210 
# 
# From -- ./inp_files/247572.got.cif
#   From: 2010.05.17/outbox.cif.g08.bks.cpg/sg15_124_cif.got.tgz:247572.got - 2010.06.03 18:47:42.
