data_PCOD9253127
_publ_section_title
;
Structure prediction by ZEFSAII (Michael W. Deem and Ramdas Pophale) SiO2 
 PCOD9253127
Probable space group: P 21/C
;
_chemical_formula_sum "Si O2"
_cell_formula_units_Z 24
_cell_length_a 22.970890
_cell_length_b 5.364176
_cell_length_c 9.277219
_cell_angle_alpha 90.000000
_cell_angle_beta 69.549043
_cell_angle_gamma 90.000000
_cell_volume 1071.087823
_symmetry_space_group_name_H-M "P 21/C"
_symmetry_group_IT_number 14
_symmetry_cell_setting 'monoclinic'
loop_
_space_group_symop_operation_xyz
x,y,z
-x,1/2+y,1/2-z
-x,-y,-z
x,1/2-y,1/2+z
loop_
_atom_site_type_symbol
_atom_site_label
_atom_site_fract_x
_atom_site_fract_y
_atom_site_fract_z
Si Si1 0.671184 0.027170 0.521484
Si Si2 0.522609 0.022322 0.647104
Si Si3 0.715660 0.528210 0.316213
Si Si4 0.085048 0.703000 0.137218
Si Si5 0.043763 0.180878 0.871775
Si Si6 0.139884 0.505231 0.838993
O O1 0.688822 0.774783 0.418325
O O2 0.596840 0.051139 0.582878
O O3 0.699490 0.275348 0.420070
O O4 0.692301 0.001543 0.670765
O O5 0.495007 0.268988 0.750166
O O6 0.500000 0.000000 0.500000
O O7 0.789996 0.561588 0.245006
O O8 0.093121 0.466462 0.233190
O O9 0.103872 0.926844 0.224888
O O10 0.012101 0.683572 0.163225
O O11 0.132067 0.718897 0.964137
O O12 0.088219 0.318103 0.945728
O O13 0.000000 0.000000 0.000000
#
# Coordination Sequence:
#
# PCOD9253127 Si02
#       6
#     4   4   4   4   4   4
#     4  12  26  51  73 112 154 197 245 300 359 424
#     4  12  24  44  78 116 152 196 245 300 359 424
#     4  12  28  47  75 103 151 202 246 300 359 442
#     4  12  24  44  63  96 124 165 219 295 359 418
#     4  12  24  41  66  93 128 161 219 291 366 415
#     4  12  28  41  69  93 129 176 232 280 356 436
#
# _framework density 22.407125000000001
#
# number of rings (size 3 to 8) (size 9 to 14) (size 15 to 20)
#    0.000    0.000    3.333    7.000    4.667    0.000 
#    0.000    0.000    0.000    0.000    0.000    0.000 
#    0.000    0.000    0.000    0.000    0.000    0.000 
#
# Total GULP energy -133969.239361 kJ/mol
# GULP energy per Si atom -5582.051640 kJ/mol
# Density = 2.235613 g / cm^3
# Si number density = 22.407125 Si / 1000 Ang^3
#
#
#
# Elastic Constant Matrix: (Units=GPa)
#
#
# Indices 1 2 3 4 5 6 
#
# 1 150.3605 19.1675 44.8492 0.0000 -22.4149 0.0000
# 2 19.1675 129.2857 54.5111 0.0000 -1.3610 0.0000
# 3 44.8492 54.5111 136.9282 0.0000 13.4573 0.0000
# 4 0.0000 0.0000 0.0000 50.5371 0.0000 -8.5719
# 5 -22.4149 -1.3610 13.4573 0.0000 42.8940 0.0000
# 6 0.0000 0.0000 0.0000 -8.5719 0.0000 24.7259
#
#
#
# Elastic Compliance Matrix: (Units=1/GPa)
#
#
# Indices 1 2 3 4 5 6 
#
# 1 0.008455 0.000240 -0.003405 0.000000 0.005494 0.000000
# 2 0.000240 0.009397 -0.003984 0.000000 0.001673 0.000000
# 3 -0.003405 -0.003984 0.010516 0.000000 -0.005205 0.000000
# 4 0.000000 0.000000 0.000000 0.021024 0.000000 0.007288
# 5 0.005494 0.001673 -0.005205 0.000000 0.027870 0.000000
# 6 0.000000 0.000000 0.000000 0.007288 0.000000 0.042970
#
#
# Mechanical properties :
#
#
# Convention : Reuss Voigt Hill
#
# Bulk Modulus (GPa) = 71.07431 72.62557 71.84994
# Shear Modulus (GPa) = 35.91491 43.50118 39.70804
#
# Velocity S-wave (km/s) = 4.00788 4.41091 4.21422
# Velocity P-wave (km/s) = 7.29424 7.64354 7.47093
#
# Compressibility (1/GPa) = 0.01406978
#
# Stress axis : x y z
#
# Youngs Moduli (GPa) = 118.27834 106.42196 95.09575
#
# Poissons Ratio (x) = -0.02553 0.32377
# Poissons Ratio (y) = -0.02837 0.37884
# Poissons Ratio (z) = 0.40270 0.42396
#
# Static dielectric constant tensor:
#      x y z
#    x 2.397540 0.000000 0.700230 
#    y 0.000000 2.172960 0.000000 
#    z 0.700230 0.000000 2.735870 
# 
# From -- ./inp_files/19252.got.cif
#   From: 2010.05.17/outbox.cif.g08.bks.cpg/sg14_10_cif.got.tgz:19252.got - 2010.06.03 17:49:19.
