data_PCOD9253340
_publ_section_title
;
Structure prediction by ZEFSAII (Michael W. Deem and Ramdas Pophale) SiO2 
 PCOD9253340
Probable space group: P 21/C
;
_chemical_formula_sum "Si O2"
_cell_formula_units_Z 16
_cell_length_a 10.957441
_cell_length_b 8.294313
_cell_length_c 13.115759
_cell_angle_alpha 90.000000
_cell_angle_beta 143.462884
_cell_angle_gamma 90.000000
_cell_volume 709.660333
_symmetry_space_group_name_H-M "P 21/C"
_symmetry_group_IT_number 14
_symmetry_cell_setting 'monoclinic'
loop_
_space_group_symop_operation_xyz
x,y,z
-x,1/2+y,1/2-z
-x,-y,-z
x,1/2-y,1/2+z
loop_
_atom_site_type_symbol
_atom_site_label
_atom_site_fract_x
_atom_site_fract_y
_atom_site_fract_z
Si Si1 0.987364 0.272980 0.278251
Si Si2 0.413460 0.539496 0.052421
Si Si3 0.739945 0.541733 0.676780
Si Si4 0.292196 0.294277 0.141199
O O1 0.170524 0.299551 0.319644
O O2 0.100928 0.299848 0.462624
O O3 0.868970 0.104994 0.215687
O O4 0.810637 0.390254 0.120632
O O5 0.398354 0.391238 0.120401
O O6 0.552589 0.674079 0.199971
O O7 0.500000 0.500000 0.000000
O O8 0.500000 0.500000 0.500000
O O9 0.772790 0.574580 0.818071
#
# Coordination Sequence:
#
# PCOD9253340 Si02
#       4
#     4   4   4   4
#     4  12  27  47  77 110 154 201 260 318 398 455
#     4  12  29  49  79 117 156 202 270 322 387 479
#     4  12  26  51  76 114 158 203 264 326 386 480
#     4  12  27  48  80 110 159 210 254 325 400 453
#
# _framework density 22.545997
#
# number of rings (size 3 to 8) (size 9 to 14) (size 15 to 20)
#    0.000    0.000    5.000    3.750    3.500    1.000 
#    0.000    0.000    0.000    0.000    0.000    0.000 
#    0.000    0.000    0.000    0.000    0.000    0.000 
#
# Total GULP energy -89443.339858 kJ/mol
# GULP energy per Si atom -5590.208741 kJ/mol
# Density = 2.249468 g / cm^3
# Si number density = 22.545997 Si / 1000 Ang^3
#
#
#
# Elastic Constant Matrix: (Units=GPa)
#
#
# Indices 1 2 3 4 5 6 
#
# 1 139.4131 73.4136 57.3519 0.0000 -14.3754 0.0000
# 2 73.4136 91.1563 64.7075 0.0000 2.1995 0.0000
# 3 57.3519 64.7075 194.0542 0.0000 7.0883 0.0000
# 4 0.0000 0.0000 0.0000 46.4762 0.0000 -9.2237
# 5 -14.3754 2.1995 7.0883 0.0000 45.1083 0.0000
# 6 0.0000 0.0000 0.0000 -9.2237 0.0000 52.7993
#
#
#
# Elastic Compliance Matrix: (Units=1/GPa)
#
#
# Indices 1 2 3 4 5 6 
#
# 1 0.013486 -0.010511 -0.000660 0.000000 0.004914 0.000000
# 2 -0.010511 0.022565 -0.004280 0.000000 -0.003778 0.000000
# 3 -0.000660 -0.004280 0.006815 0.000000 -0.001073 0.000000
# 4 0.000000 0.000000 0.000000 0.022289 0.000000 0.003894
# 5 0.004914 -0.003778 -0.001073 0.000000 0.024088 0.000000
# 6 0.000000 0.000000 0.000000 0.003894 0.000000 0.019620
#
#
# Mechanical properties :
#
#
# Convention : Reuss Voigt Hill
#
# Bulk Modulus (GPa) = 83.59049 90.61884 87.10467
# Shear Modulus (GPa) = 34.78201 44.15348 39.46774
#
# Velocity S-wave (km/s) = 3.93200 4.43015 4.18849
# Velocity P-wave (km/s) = 7.60067 8.15159 7.88095
#
# Compressibility (1/GPa) = 0.01196308
#
# Stress axis : x y z
#
# Youngs Moduli (GPa) = 74.14855 44.31733 146.74373
#
# Poissons Ratio (x) = 0.46583 0.09691
# Poissons Ratio (y) = 0.77939 0.62801
# Poissons Ratio (z) = 0.04897 0.18966
#
# Static dielectric constant tensor:
#      x y z
#    x 1.986120 0.000000 0.134120 
#    y 0.000000 1.901370 0.000000 
#    z 0.134120 0.000000 1.891120 
# 
# From -- ./inp_files/22536.got.cif
#   From: 2010.05.17/outbox.cif.g08.bks.cpg/sg14_12_cif.got.tgz:22536.got - 2010.06.03 17:49:19.
