data_PCOD9253510
_publ_section_title
;
Structure prediction by ZEFSAII (Michael W. Deem and Ramdas Pophale) SiO2 
 PCOD9253510
Probable space group: P 21/C
;
_chemical_formula_sum "Si O2"
_cell_formula_units_Z 32
_cell_length_a 18.000000
_cell_length_b 15.000000
_cell_length_c 12.000000
_cell_angle_alpha 90.000000
_cell_angle_beta 150.000000
_cell_angle_gamma 90.000000
_cell_volume 1620.000000
_symmetry_space_group_name_H-M "P 21/C"
_symmetry_group_IT_number 14
_symmetry_cell_setting 'monoclinic'
loop_
_space_group_symop_operation_xyz
x,y,z
-x,1/2+y,1/2-z
-x,-y,-z
x,1/2-y,1/2+z
loop_
_atom_site_type_symbol
_atom_site_label
_atom_site_fract_x
_atom_site_fract_y
_atom_site_fract_z
Si Si1 0.670032 0.393332 0.446851
Si Si2 0.708712 0.369375 0.996549
Si Si3 0.496532 0.249534 0.591321
Si Si4 0.778809 0.682142 0.895585
Si Si5 0.432054 0.465742 0.293614
Si Si6 0.255482 0.746774 0.772357
Si Si7 0.983673 0.478221 0.847421
Si Si8 0.019259 0.819907 0.301837
O O1 0.554249 0.346353 0.211451
O O2 0.571964 0.459046 0.393822
O O3 0.727542 0.316636 0.605387
O O4 0.821578 0.439216 0.603117
O O5 0.557687 0.318783 0.762650
O O6 0.684637 0.465963 0.912681
O O7 0.730578 0.351072 0.155466
O O8 0.854083 0.325574 0.128936
O O9 0.327043 0.271652 0.337138
O O10 0.606453 0.265026 0.629538
O O11 0.653957 0.628248 0.804737
O O12 0.893490 0.600609 0.014370
O O13 0.877234 0.761160 0.079182
O O14 0.500000 0.500000 0.500000
O O15 0.103539 0.767700 0.511022
O O16 0.996664 0.576231 0.806855
O O17 0.000000 0.500000 0.000000
#
# Coordination Sequence:
#
# PCOD9253510 Si02
#       8
#     4   4   4   4   4   4   4   4
#     4  11  23  41  66 101 130 170 220 277 337 387
#     4  10  21  40  67  92 128 178 216 270 342 392
#     4  10  22  40  67  93 135 169 219 274 332 402
#     4  12  24  42  68  98 133 174 220 281 332 398
#     4  12  21  42  69  97 128 171 232 273 323 410
#     4  10  19  41  63  93 130 174 215 271 337 395
#     4  12  24  41  68 101 133 171 226 280 327 391
#     4  11  24  41  65 100 136 169 223 280 338 400
#
# _framework density 19.753086
#
# number of rings (size 3 to 8) (size 9 to 14) (size 15 to 20)
#    0.000    1.000    5.000    3.750    0.000    2.000 
#    0.000    4.375    0.000    0.000    0.000    0.000 
#    0.000    0.000    0.000    0.000    0.000    0.000 
#
# Total GULP energy -178399.566334 kJ/mol
# GULP energy per Si atom -5574.986448 kJ/mol
# Density = 1.970813 g / cm^3
# Si number density = 19.753086 Si / 1000 Ang^3
#
#
#
# Elastic Constant Matrix: (Units=GPa)
#
#
# Indices 1 2 3 4 5 6 
#
# 1 43.7501 24.9658 34.1645 0.0000 8.3923 0.0000
# 2 24.9658 97.1100 62.6675 0.0000 -3.1115 0.0000
# 3 34.1645 62.6675 163.1433 0.0000 10.4024 0.0000
# 4 0.0000 0.0000 0.0000 43.4018 0.0000 8.7974
# 5 8.3923 -3.1115 10.4024 0.0000 21.7904 0.0000
# 6 0.0000 0.0000 0.0000 8.7974 0.0000 35.5740
#
#
#
# Elastic Compliance Matrix: (Units=1/GPa)
#
#
# Indices 1 2 3 4 5 6 
#
# 1 0.031230 -0.006159 -0.003456 0.000000 -0.011257 0.000000
# 2 -0.006159 0.015370 -0.005059 0.000000 0.006982 0.000000
# 3 -0.003456 -0.005059 0.009033 0.000000 -0.003703 0.000000
# 4 0.000000 0.000000 0.000000 0.024256 0.000000 -0.005999
# 5 -0.011257 0.006982 -0.003703 0.000000 0.052992 0.000000
# 6 0.000000 0.000000 0.000000 -0.005999 0.000000 0.029594
#
#
# Mechanical properties :
#
#
# Convention : Reuss Voigt Hill
#
# Bulk Modulus (GPa) = 38.04696 60.84432 49.44564
# Shear Modulus (GPa) = 24.92698 32.30029 28.61364
#
# Velocity S-wave (km/s) = 3.55622 4.04815 3.81013
# Velocity P-wave (km/s) = 6.01376 7.26081 6.66651
#
# Compressibility (1/GPa) = 0.02628331
#
# Stress axis : x y z
#
# Youngs Moduli (GPa) = 32.02020 65.06352 110.70622
#
# Poissons Ratio (x) = 0.40073 0.38264
# Poissons Ratio (y) = 0.19722 0.56009
# Poissons Ratio (z) = 0.11067 0.32917
#
# Static dielectric constant tensor:
#      x y z
#    x 1.749420 0.000000 -0.012910 
#    y 0.000000 1.756430 0.000000 
#    z -0.012910 0.000000 1.689130 
# 
# From -- ./inp_files/34183.got.cif
#   From: 2010.05.17/outbox.ucp.g08.bks.cvg/sg14_18_cif.got.tgz:34183.got - 2010.06.11 12:31:08.
