data_PCOD9253769
_publ_section_title
;
Structure prediction by ZEFSAII (Michael W. Deem and Ramdas Pophale) SiO2 
 PCOD9253769
Probable space group: C 2/C
;
_chemical_formula_sum "Si O2"
_cell_formula_units_Z 56
_cell_length_a 19.425619
_cell_length_b 7.305934
_cell_length_c 20.141908
_cell_angle_alpha 90.000000
_cell_angle_beta 48.708218
_cell_angle_gamma 90.000000
_cell_volume 2147.823505
_symmetry_space_group_name_H-M "C 2/C"
_symmetry_group_IT_number 15
_symmetry_cell_setting 'monoclinic'
loop_
_space_group_symop_operation_xyz
x,y,z
-x,y,1/2-z
-x,-y,-z
x,-y,1/2+z
1/2+x,1/2+y,z
1/2-x,1/2+y,1/2-z
1/2-x,1/2-y,-z
1/2+x,1/2-y,1/2+z
loop_
_atom_site_type_symbol
_atom_site_label
_atom_site_fract_x
_atom_site_fract_y
_atom_site_fract_z
Si Si1 0.269279 0.601511 0.892090
Si Si2 0.957990 0.404468 0.612300
Si Si3 0.617089 0.563633 0.293160
Si Si4 0.895114 0.739581 0.567056
Si Si5 0.136581 0.611898 0.561216
Si Si6 0.561786 0.495236 0.145356
Si Si7 0.097885 0.550381 0.726014
O O1 0.305913 0.540225 0.796953
O O2 0.187183 0.742467 0.933478
O O3 0.358595 0.639399 0.880843
O O4 0.219507 0.431547 0.959925
O O5 0.900730 0.543969 0.602130
O O6 0.898866 0.397364 0.718659
O O7 0.005208 0.263150 0.530754
O O8 0.048945 0.507952 0.584343
O O9 0.628208 0.612213 0.362491
O O10 0.521840 0.450856 0.349008
O O11 0.607984 0.758573 0.259516
O O12 0.106531 0.821547 0.588476
O O13 0.160962 0.547181 0.620765
O O14 0.500000 0.531562 0.250000
O O15 0.000000 0.541879 0.750000
#
# Coordination Sequence:
#
# PCOD9253769 Si02
#       7
#     8   8   8   8   8   8   8
#     4  10  19  22  38  64  88 114 154 177 228 279
#     4   8  14  23  37  53  84 120 140 167 227 285
#     4  10  16  27  38  53  89 121 145 183 225 263
#     4   9  16  26  36  55  88 121 150 171 220 278
#     4  10  13  22  36  61  89 108 129 185 233 271
#     4  10  14  24  36  56  85 111 138 177 224 260
#     4   9  11  20  35  54  82 107 123 164 227 264
#
# _framework density 26.072907000000001
#
# number of rings (size 3 to 8) (size 9 to 14) (size 15 to 20)
#    0.000    2.571    7.143    0.429    0.000    0.000 
#    0.000    0.000    0.000    0.000    0.000    4.000 
#    0.000   93.714    0.000    0.000    0.000   16.286 
#
# Total GULP energy -156162.873336 kJ/mol
# GULP energy per Si atom -5577.245476 kJ/mol
# Density = 2.601356 g / cm^3
# Si number density = 26.072907 Si / 1000 Ang^3
#
#
#
# Elastic Constant Matrix: (Units=GPa)
#
#
# Indices 1 2 3 4 5 6 
#
# 1 89.0629 -0.2863 38.9353 0.0003 -2.7428 -0.0006
# 2 -0.2863 36.6540 25.5450 0.0006 8.3555 -0.0027
# 3 38.9353 25.5450 87.5210 -0.0011 22.7878 0.0013
# 4 0.0003 0.0006 -0.0011 14.9729 -0.0002 10.6690
# 5 -2.7428 8.3555 22.7878 -0.0002 49.4950 0.0004
# 6 -0.0006 -0.0027 0.0013 10.6690 0.0004 10.5675
#
#
#
# Elastic Compliance Matrix: (Units=1/GPa)
#
#
# Indices 1 2 3 4 5 6 
#
# 1 0.015706 0.006010 -0.009889 -0.000013 0.004409 0.000017
# 2 0.006010 0.036627 -0.013453 -0.000038 0.000344 0.000050
# 3 -0.009889 -0.013453 0.021932 0.000025 -0.008375 -0.000032
# 4 -0.000013 -0.000038 0.000025 0.238010 -0.000003 -0.240296
# 5 0.004409 0.000344 -0.008375 -0.000003 0.024246 0.000004
# 6 0.000017 0.000050 -0.000032 -0.240296 0.000004 0.337233
#
#
# Mechanical properties :
#
#
# Convention : Reuss Voigt Hill
#
# Bulk Modulus (GPa) = 25.25280 37.95845 31.60562
# Shear Modulus (GPa) = 6.92885 24.94334 15.93609
#
# Velocity S-wave (km/s) = 1.63195 3.09637 2.47495
# Velocity P-wave (km/s) = 3.64108 5.23198 4.50728
#
# Compressibility (1/GPa) = 0.03959957
#
# Stress axis : x y z
#
# Youngs Moduli (GPa) = 63.66833 27.30247 45.59446
#
# Poissons Ratio (x) = -0.16408 0.45090
# Poissons Ratio (y) = -0.38263 0.61340
# Poissons Ratio (z) = 0.62964 0.36731
#
# Static dielectric constant tensor:
#      x y z
#    x 2.099470 0.000000 0.005010 
#    y 0.000000 2.181200 0.000000 
#    z 0.005010 0.000000 2.157620 
# 
# From -- ./inp_files/248333.got.cif
#   From: 2010.05.17/outbox.cif.g08.bks.cpg/sg15_125_cif.got.tgz:248333.got - 2010.06.03 18:47:42.
