data_PCOD9253791
_publ_section_title
;
Structure prediction by ZEFSAII (Michael W. Deem and Ramdas Pophale) SiO2 
 PCOD9253791
Probable space group: C 2/C
;
_chemical_formula_sum "Si O2"
_cell_formula_units_Z 56
_cell_length_a 24.784800
_cell_length_b 7.358031
_cell_length_c 14.923298
_cell_angle_alpha 90.000000
_cell_angle_beta 47.187822
_cell_angle_gamma 90.000000
_cell_volume 1996.468873
_symmetry_space_group_name_H-M "C 2/C"
_symmetry_group_IT_number 15
_symmetry_cell_setting 'monoclinic'
loop_
_space_group_symop_operation_xyz
x,y,z
-x,y,1/2-z
-x,-y,-z
x,-y,1/2+z
1/2+x,1/2+y,z
1/2-x,1/2+y,1/2-z
1/2-x,1/2-y,-z
1/2+x,1/2-y,1/2+z
loop_
_atom_site_type_symbol
_atom_site_label
_atom_site_fract_x
_atom_site_fract_y
_atom_site_fract_z
Si Si1 0.991857 0.819895 0.853825
Si Si2 0.120302 0.657945 0.810937
Si Si3 0.077483 0.328317 0.538624
Si Si4 0.723128 0.955085 0.048410
Si Si5 0.160020 0.036800 0.937843
Si Si6 0.293590 0.540196 0.800481
Si Si7 0.072525 0.780104 0.251742
O O1 0.000000 0.719266 0.750000
O O2 0.039468 0.730297 0.876976
O O3 0.904313 0.822825 0.966890
O O4 0.032084 0.017382 0.793935
O O5 0.151761 0.543327 0.691121
O O6 0.173811 0.835846 0.741086
O O7 0.115679 0.561551 0.913531
O O8 0.084316 0.302295 0.638921
O O9 0.989444 0.336566 0.628367
O O10 0.109210 0.133418 0.470484
O O11 0.789571 0.022542 0.036583
O O12 0.750000 0.750000 0.000000
O O13 0.726086 0.041755 0.946141
O O14 0.211487 0.095136 0.797404
O O15 0.354353 0.667849 0.777718
#
# Coordination Sequence:
#
# PCOD9253791 Si02
#       7
#     8   8   8   8   8   8   8
#     4  10  14  24  36  60  88 115 141 170 205 253
#     4   9  18  24  37  58  91 118 139 174 220 259
#     4   9  14  23  37  60  84 118 144 166 205 259
#     4  10  18  29  39  60  94 120 142 179 218 255
#     4  10  16  25  42  60  86 120 148 172 205 262
#     4   9  16  25  39  59  80 119 151 173 202 254
#     4   9  13  22  37  59  86 108 143 171 197 249
#
# _framework density 28.049522
#
# number of rings (size 3 to 8) (size 9 to 14) (size 15 to 20)
#    0.000    2.571    4.286    2.571    0.000    3.429 
#    0.000    0.000    0.000    0.857    0.000    0.000 
#    0.000   28.571    3.429    0.571    0.000    0.000 
#
# Total GULP energy -156375.208088 kJ/mol
# GULP energy per Si atom -5584.828860 kJ/mol
# Density = 2.798568 g / cm^3
# Si number density = 28.049522 Si / 1000 Ang^3
#
#
#
# Elastic Constant Matrix: (Units=GPa)
#
#
# Indices 1 2 3 4 5 6 
#
# 1 76.2276 10.8545 49.9834 -0.0001 18.6270 0.0005
# 2 10.8545 83.7438 27.0736 -0.0045 8.6373 0.0034
# 3 49.9834 27.0736 286.5072 -0.0013 28.7065 0.0010
# 4 -0.0001 -0.0045 -0.0013 18.0175 0.0008 -0.1732
# 5 18.6270 8.6373 28.7065 0.0008 55.1641 -0.0004
# 6 0.0005 0.0034 0.0010 -0.1732 -0.0004 20.6278
#
#
#
# Elastic Compliance Matrix: (Units=1/GPa)
#
#
# Indices 1 2 3 4 5 6 
#
# 1 0.015699 -0.000895 -0.002255 0.000000 -0.003988 0.000000
# 2 -0.000895 0.012471 -0.000904 0.000003 -0.001180 -0.000002
# 3 -0.002255 -0.000904 0.004092 0.000000 -0.001227 0.000000
# 4 0.000000 0.000003 0.000000 0.055506 -0.000001 0.000466
# 5 -0.003988 -0.001180 -0.001227 -0.000001 0.020297 0.000001
# 6 0.000000 -0.000002 0.000000 0.000466 0.000001 0.048482
#
#
# Mechanical properties :
#
#
# Convention : Reuss Voigt Hill
#
# Bulk Modulus (GPa) = 41.39927 69.14463 55.27195
# Shear Modulus (GPa) = 28.95094 42.66636 35.80865
#
# Velocity S-wave (km/s) = 3.21617 3.90437 3.57686
# Velocity P-wave (km/s) = 5.34632 6.71043 6.06684
#
# Compressibility (1/GPa) = 0.02415501
#
# Stress axis : x y z
#
# Youngs Moduli (GPa) = 63.69900 80.18503 244.37964
#
# Poissons Ratio (x) = 0.07173 0.55101
# Poissons Ratio (y) = 0.05699 0.22096
# Poissons Ratio (z) = 0.14362 0.07250
#
# Static dielectric constant tensor:
#      x y z
#    x 0.902360 -0.000020 -0.352750 
#    y -0.000020 2.285270 0.000000 
#    z -0.352750 0.000000 2.126150 
# 
# From -- ./inp_files/181538.got.cif
#   From: 2010.05.17/outbox.cif.g08.bks.cpg/sg15_91_cif.got.tgz:181538.got - 2010.06.03 18:47:42.
