data_PCOD9253637
_publ_section_title
;
Structure prediction by ZEFSAII (Michael W. Deem and Ramdas Pophale) SiO2 
 PCOD9253637
Probable space group: P 21/C
;
_chemical_formula_sum "Si O2"
_cell_formula_units_Z 28
_cell_length_a 9.000000
_cell_length_b 9.000000
_cell_length_c 27.000000
_cell_angle_alpha 90.000000
_cell_angle_beta 140.000000
_cell_angle_gamma 90.000000
_cell_volume 1405.776502
_symmetry_space_group_name_H-M "P 21/C"
_symmetry_group_IT_number 14
_symmetry_cell_setting 'monoclinic'
loop_
_space_group_symop_operation_xyz
x,y,z
-x,1/2+y,1/2-z
-x,-y,-z
x,1/2-y,1/2+z
loop_
_atom_site_type_symbol
_atom_site_label
_atom_site_fract_x
_atom_site_fract_y
_atom_site_fract_z
Si Si1 0.731959 0.980600 0.217265
Si Si2 0.596684 0.160640 0.541178
Si Si3 0.506599 0.222475 0.633432
Si Si4 0.511670 0.283060 0.420794
Si Si5 0.796271 0.954214 0.714390
Si Si6 0.109772 0.248599 0.169694
Si Si7 0.966840 0.845764 0.959904
O O1 0.575384 0.923570 0.131769
O O2 0.717242 0.874593 0.262140
O O3 0.645052 0.148607 0.197983
O O4 0.993506 0.976606 0.263172
O O5 0.557703 0.205545 0.587878
O O6 0.494769 0.279164 0.475747
O O7 0.870698 0.163349 0.603303
O O8 0.500000 0.000000 0.500000
O O9 0.235282 0.251036 0.566973
O O10 0.607452 0.073273 0.682719
O O11 0.345488 0.156222 0.357046
O O12 0.782018 0.268806 0.476627
O O13 0.898721 0.868551 0.787516
O O14 0.123852 0.157988 0.121177
O O15 0.000000 0.000000 0.000000
#
# Coordination Sequence:
#
# PCOD9253637 Si02
#       7
#     4   4   4   4   4   4   4
#     4  11  20  40  68  96 126 166 221 277 328 380
#     4  11  20  39  65  99 129 168 221 270 331 384
#     4  12  23  38  69  95 131 172 223 266 323 406
#     4  10  22  40  67  86 138 167 206 284 323 381
#     4  11  21  41  66 100 125 170 227 271 332 384
#     4  10  23  41  68  90 135 173 214 281 332 375
#     4  11  25  45  62  95 135 175 219 264 333 403
#
# _framework density 19.917818
#
# number of rings (size 3 to 8) (size 9 to 14) (size 15 to 20)
#    0.000    1.143    5.714    0.857    0.000    3.429 
#    0.000    0.000    0.000    0.000    0.000    0.000 
#    0.000    0.000    0.000    0.000    0.000    0.000 
#
# Total GULP energy -155885.322101 kJ/mol
# GULP energy per Si atom -5567.332932 kJ/mol
# Density = 1.987248 g / cm^3
# Si number density = 19.917818 Si / 1000 Ang^3
#
#
#
# Elastic Constant Matrix: (Units=GPa)
#
#
# Indices 1 2 3 4 5 6 
#
# 1 65.8436 1.8830 25.2188 0.0000 1.7550 0.0000
# 2 1.8830 41.8240 13.5144 0.0000 -7.5139 0.0000
# 3 25.2188 13.5144 95.7074 0.0000 -12.5393 0.0000
# 4 0.0000 0.0000 0.0000 45.8672 0.0000 7.2837
# 5 1.7550 -7.5139 -12.5393 0.0000 47.2743 0.0000
# 6 0.0000 0.0000 0.0000 7.2837 0.0000 12.9192
#
#
#
# Elastic Compliance Matrix: (Units=1/GPa)
#
#
# Indices 1 2 3 4 5 6 
#
# 1 0.017062 0.000453 -0.004800 0.000000 -0.001835 0.000000
# 2 0.000453 0.025527 -0.003310 0.000000 0.003163 0.000000
# 3 -0.004800 -0.003310 0.012572 0.000000 0.002987 0.000000
# 4 0.000000 0.000000 0.000000 0.023946 0.000000 -0.013500
# 5 -0.001835 0.003163 0.002987 0.000000 0.022516 0.000000
# 6 0.000000 0.000000 0.000000 -0.013500 0.000000 0.085015
#
#
# Mechanical properties :
#
#
# Convention : Reuss Voigt Hill
#
# Bulk Modulus (GPa) = 25.09542 31.62304 28.35923
# Shear Modulus (GPa) = 23.23054 32.06275 27.64664
#
# Velocity S-wave (km/s) = 3.41885 4.01652 3.72968
# Velocity P-wave (km/s) = 5.31145 6.11729 5.72856
#
# Compressibility (1/GPa) = 0.03984791
#
# Stress axis : x y z
#
# Youngs Moduli (GPa) = 58.60992 39.17431 79.54170
#
# Poissons Ratio (x) = -0.01776 0.38182
# Poissons Ratio (y) = -0.02657 0.26325
# Poissons Ratio (z) = 0.28134 0.12965
#
# Static dielectric constant tensor:
#      x y z
#    x 1.729610 0.000000 -0.010020 
#    y 0.000000 1.779190 0.000000 
#    z -0.010020 0.000000 1.705710 
# 
# From -- ./inp_files/54866.got.cif
#   From: 2010.05.17/outbox.ucp.g08.bks.cvg/sg14_28_cif.got.tgz:54866.got - 2010.06.11 12:31:08.
