data_PCOD9253396
_publ_section_title
;
Structure prediction by ZEFSAII (Michael W. Deem and Ramdas Pophale) SiO2 
 PCOD9253396
Probable space group: P 21/C
;
_chemical_formula_sum "Si O2"
_cell_formula_units_Z 28
_cell_length_a 13.895258
_cell_length_b 5.227428
_cell_length_c 15.474596
_cell_angle_alpha 90.000000
_cell_angle_beta 75.527273
_cell_angle_gamma 90.000000
_cell_volume 1088.351039
_symmetry_space_group_name_H-M "P 21/C"
_symmetry_group_IT_number 14
_symmetry_cell_setting 'monoclinic'
loop_
_space_group_symop_operation_xyz
x,y,z
-x,1/2+y,1/2-z
-x,-y,-z
x,1/2-y,1/2+z
loop_
_atom_site_type_symbol
_atom_site_label
_atom_site_fract_x
_atom_site_fract_y
_atom_site_fract_z
Si Si1 0.237466 0.321744 0.136477
Si Si2 0.555540 0.164197 0.770721
Si Si3 0.588887 0.311944 0.956155
Si Si4 0.737930 0.638116 0.179019
Si Si5 0.274531 0.537329 0.470067
Si Si6 0.910864 0.155590 0.564826
Si Si7 0.017770 0.318378 0.698281
O O1 0.308347 0.542278 0.087509
O O2 0.266447 0.277738 0.228795
O O3 0.119274 0.339889 0.159712
O O4 0.257186 0.090690 0.067012
O O5 0.563051 0.165333 0.873422
O O6 0.512459 0.435033 0.750231
O O7 0.664063 0.101181 0.706770
O O8 0.380213 0.831795 0.963596
O O9 0.500000 0.500000 0.000000
O O10 0.712814 0.820826 0.105175
O O11 0.848533 0.544283 0.135820
O O12 0.176612 0.706419 0.470009
O O13 0.960394 0.350854 0.620969
O O14 0.000000 0.000000 0.500000
O O15 0.037591 0.602147 0.730889
#
# Coordination Sequence:
#
# PCOD9253396 Si02
#       7
#     4   4   4   4   4   4   4
#     4  12  28  53  84 122 175 231 292 358 440 525
#     4  12  31  56  90 127 173 233 300 363 452 533
#     4  12  31  55  86 128 175 227 293 377 444 528
#     4  12  28  53  85 122 174 231 288 364 433 535
#     4  12  29  52  87 122 175 226 298 359 447 517
#     4  12  29  49  82 125 173 225 290 366 435 518
#     4  12  28  50  85 122 166 223 286 351 428 517
#
# _framework density 25.726994999999999
#
# number of rings (size 3 to 8) (size 9 to 14) (size 15 to 20)
#    0.000    0.000    2.857    4.286   14.000    2.857 
#    0.000    0.714    0.000    0.000    0.000    0.000 
#    0.000    0.000    0.000    0.000    0.000    0.000 
#
# Total GULP energy -156992.284257 kJ/mol
# GULP energy per Si atom -5606.867295 kJ/mol
# Density = 2.566844 g / cm^3
# Si number density = 25.726995 Si / 1000 Ang^3
#
#
#
# Elastic Constant Matrix: (Units=GPa)
#
#
# Indices 1 2 3 4 5 6 
#
# 1 136.0315 32.2496 39.6069 0.0000 19.1444 0.0000
# 2 32.2496 84.9112 22.4764 0.0000 -0.3702 0.0000
# 3 39.6069 22.4764 105.8504 0.0000 -0.5447 0.0000
# 4 0.0000 0.0000 0.0000 39.4787 0.0000 9.5615
# 5 19.1444 -0.3702 -0.5447 0.0000 51.4196 0.0000
# 6 0.0000 0.0000 0.0000 9.5615 0.0000 51.0079
#
#
#
# Elastic Compliance Matrix: (Units=1/GPa)
#
#
# Indices 1 2 3 4 5 6 
#
# 1 0.009365 -0.002797 -0.002928 0.000000 -0.003538 0.000000
# 2 -0.002797 0.013314 -0.001775 0.000000 0.001118 0.000000
# 3 -0.002928 -0.001775 0.010926 0.000000 0.001193 0.000000
# 4 0.000000 0.000000 0.000000 0.026535 0.000000 -0.004974
# 5 -0.003538 0.001118 0.001193 0.000000 0.020786 0.000000
# 6 0.000000 0.000000 0.000000 -0.004974 0.000000 0.020537
#
#
# Mechanical properties :
#
#
# Convention : Reuss Voigt Hill
#
# Bulk Modulus (GPa) = 53.75054 57.27319 55.51187
# Shear Modulus (GPa) = 40.76156 43.87859 42.32008
#
# Velocity S-wave (km/s) = 3.98476 4.13431 4.06022
# Velocity P-wave (km/s) = 6.48915 6.71567 6.60338
#
# Compressibility (1/GPa) = 0.01860446
#
# Stress axis : x y z
#
# Youngs Moduli (GPa) = 106.78181 75.10884 91.52457
#
# Poissons Ratio (x) = 0.21009 0.26802
# Poissons Ratio (y) = 0.29868 0.16243
# Poissons Ratio (z) = 0.31270 0.13330
#
# Static dielectric constant tensor:
#      x y z
#    x 2.070800 0.000000 -0.082590 
#    y 0.000000 2.138460 0.000000 
#    z -0.082590 0.000000 2.077330 
# 
# From -- ./inp_files/58396.got.cif
#   From: 2010.05.17/outbox.cif.g08.bks.cpg/sg14_30_cif.got.tgz:58396.got - 2010.06.03 17:49:19.
