data_PCOD9253655
_publ_section_title
;
Structure prediction by ZEFSAII (Michael W. Deem and Ramdas Pophale) SiO2 
 PCOD9253655
Probable space group: P 21/C
;
_chemical_formula_sum "Si O2"
_cell_formula_units_Z 24
_cell_length_a 9.000000
_cell_length_b 9.000000
_cell_length_c 15.000000
_cell_angle_alpha 90.000000
_cell_angle_beta 90.000000
_cell_angle_gamma 90.000000
_cell_volume 1215.000000
_symmetry_space_group_name_H-M "P 21/C"
_symmetry_group_IT_number 14
_symmetry_cell_setting 'monoclinic'
loop_
_space_group_symop_operation_xyz
x,y,z
-x,1/2+y,1/2-z
-x,-y,-z
x,1/2-y,1/2+z
loop_
_atom_site_type_symbol
_atom_site_label
_atom_site_fract_x
_atom_site_fract_y
_atom_site_fract_z
Si Si1 0.140354 0.414118 0.537315
Si Si2 0.049671 0.832466 0.799121
Si Si3 0.640942 0.312050 0.157729
Si Si4 0.451724 0.336068 0.811809
Si Si5 0.851080 0.824909 0.161889
Si Si6 0.599469 0.357925 0.470515
O O1 0.178406 0.322660 0.446317
O O2 0.255527 0.547022 0.559719
O O3 0.000000 0.500000 0.500000
O O4 0.080773 0.327603 0.624607
O O5 0.184976 0.719356 0.820581
O O6 0.979996 0.779681 0.704627
O O7 0.112878 0.003566 0.807603
O O8 0.586844 0.486304 0.171373
O O9 0.549913 0.202251 0.224471
O O10 0.620807 0.246728 0.057570
O O11 0.299300 0.244668 0.799347
O O12 0.535332 0.250161 0.893655
O O13 0.500000 0.500000 0.500000
#
# Coordination Sequence:
#
# PCOD9253655 Si02
#       6
#     4   4   4   4   4   4
#     4  10  22  44  70  95 137 181 226 279 353 413
#     4  11  24  43  71  99 141 188 235 289 350 423
#     4  12  26  46  67 105 138 186 241 293 353 420
#     4  12  27  43  71 102 140 187 238 297 353 418
#     4  11  23  44  66 104 135 185 233 284 352 416
#     4  12  23  46  72  98 139 183 230 292 355 422
#
# _framework density 19.753086
#
# number of rings (size 3 to 8) (size 9 to 14) (size 15 to 20)
#    0.000    0.667    5.000    3.500    9.333    0.000 
#    0.000    3.333    0.000    0.000    0.000    0.000 
#    0.000    0.000    0.000    0.000    0.000    0.000 
#
# Total GULP energy -133830.029744 kJ/mol
# GULP energy per Si atom -5576.251239 kJ/mol
# Density = 1.970813 g / cm^3
# Si number density = 19.753086 Si / 1000 Ang^3
#
#
#
# Elastic Constant Matrix: (Units=GPa)
#
#
# Indices 1 2 3 4 5 6 
#
# 1 112.6230 44.1580 32.1803 0.0000 2.4247 0.0000
# 2 44.1580 141.2072 35.8990 0.0000 1.4871 0.0000
# 3 32.1803 35.8990 100.7780 0.0000 3.7150 0.0000
# 4 0.0000 0.0000 0.0000 39.8495 0.0000 3.9034
# 5 2.4247 1.4871 3.7150 0.0000 37.9261 0.0000
# 6 0.0000 0.0000 0.0000 3.9034 0.0000 49.0024
#
#
#
# Elastic Compliance Matrix: (Units=1/GPa)
#
#
# Indices 1 2 3 4 5 6 
#
# 1 0.010640 -0.002708 -0.002420 0.000000 -0.000337 0.000000
# 2 -0.002708 0.008476 -0.002157 0.000000 0.000052 0.000000
# 3 -0.002420 -0.002157 0.011497 0.000000 -0.000887 0.000000
# 4 0.000000 0.000000 0.000000 0.025292 0.000000 -0.002015
# 5 -0.000337 0.000052 -0.000887 0.000000 0.026473 0.000000
# 6 0.000000 0.000000 0.000000 -0.002015 0.000000 0.020568
#
#
# Mechanical properties :
#
#
# Convention : Reuss Voigt Hill
#
# Bulk Modulus (GPa) = 62.33491 64.34254 63.33873
# Shear Modulus (GPa) = 40.69544 41.51365 41.10454
#
# Velocity S-wave (km/s) = 4.54387 4.58933 4.56666
# Velocity P-wave (km/s) = 7.69120 7.79273 7.74213
#
# Compressibility (1/GPa) = 0.01604237
#
# Stress axis : x y z
#
# Youngs Moduli (GPa) = 93.98541 117.97356 86.98268
#
# Poissons Ratio (x) = 0.31952 0.21053
# Poissons Ratio (y) = 0.25455 0.18758
# Poissons Ratio (z) = 0.22747 0.25441
#
# Static dielectric constant tensor:
#      x y z
#    x 1.759090 0.000000 -0.051180 
#    y 0.000000 1.640970 0.000000 
#    z -0.051180 0.000000 1.786020 
# 
# From -- ./inp_files/38998.got.cif
#   From: 2010.05.17/outbox.ucp.g08.bks.cvg/sg14_20_cif.got.tgz:38998.got - 2010.06.11 12:31:08.
