data_PCOD9253609
_publ_section_title
;
Structure prediction by ZEFSAII (Michael W. Deem and Ramdas Pophale) SiO2 
 PCOD9253609
Probable space group: P 21/C
;
_chemical_formula_sum "Si O2"
_cell_formula_units_Z 20
_cell_length_a 12.000000
_cell_length_b 9.000000
_cell_length_c 12.000000
_cell_angle_alpha 90.000000
_cell_angle_beta 130.000000
_cell_angle_gamma 90.000000
_cell_volume 992.793598
_symmetry_space_group_name_H-M "P 21/C"
_symmetry_group_IT_number 14
_symmetry_cell_setting 'monoclinic'
loop_
_space_group_symop_operation_xyz
x,y,z
-x,1/2+y,1/2-z
-x,-y,-z
x,1/2-y,1/2+z
loop_
_atom_site_type_symbol
_atom_site_label
_atom_site_fract_x
_atom_site_fract_y
_atom_site_fract_z
Si Si1 0.938928 0.352830 0.517722
Si Si2 0.635484 0.295250 0.214333
Si Si3 0.453286 0.003872 0.736003
Si Si4 0.148299 0.084052 0.638761
Si Si5 0.288111 0.599073 0.431695
O O1 0.806660 0.305924 0.351742
O O2 0.848136 0.365727 0.574786
O O3 0.000000 0.500000 0.500000
O O4 0.077000 0.243946 0.615682
O O5 0.535710 0.437177 0.178545
O O6 0.639459 0.233206 0.092073
O O7 0.577142 0.170192 0.263982
O O8 0.291631 0.077521 0.649814
O O9 0.576961 0.036931 0.909641
O O10 0.218911 0.010968 0.794667
O O11 0.000000 0.000000 0.500000
#
# Coordination Sequence:
#
# PCOD9253609 Si02
#       5
#     4   4   4   4   4
#     4  11  25  41  64  96 133 169 218 272 318 389
#     4  10  21  43  63  94 127 169 213 260 319 388
#     4  10  22  41  67  88 132 169 209 263 324 387
#     4  11  21  41  66  92 128 171 211 272 324 375
#     4  10  23  43  66  92 134 167 218 264 329 388
#
# _framework density 20.145174000000001
#
# number of rings (size 3 to 8) (size 9 to 14) (size 15 to 20)
#    0.000    1.600    4.000    2.400    8.400    0.000 
#    3.600    4.000    0.000    0.000    0.000    0.000 
#    0.000    0.000    0.000    0.000    0.000    0.000 
#
# Total GULP energy -111395.158668 kJ/mol
# GULP energy per Si atom -5569.757933 kJ/mol
# Density = 2.009932 g / cm^3
# Si number density = 20.145174 Si / 1000 Ang^3
#
#
#
# Elastic Constant Matrix: (Units=GPa)
#
#
# Indices 1 2 3 4 5 6 
#
# 1 91.5355 22.4172 16.6893 0.0000 13.9157 0.0000
# 2 22.4172 65.9881 19.5541 0.0000 -2.5857 0.0000
# 3 16.6893 19.5541 83.9463 0.0000 25.5720 0.0000
# 4 0.0000 0.0000 0.0000 25.2236 0.0000 17.7574
# 5 13.9157 -2.5857 25.5720 0.0000 41.9994 0.0000
# 6 0.0000 0.0000 0.0000 17.7574 0.0000 52.8171
#
#
#
# Elastic Compliance Matrix: (Units=1/GPa)
#
#
# Indices 1 2 3 4 5 6 
#
# 1 0.012709 -0.004444 -0.000154 0.000000 -0.004391 0.000000
# 2 -0.004444 0.018417 -0.005157 0.000000 0.005746 0.000000
# 3 -0.000154 -0.005157 0.016237 0.000000 -0.010153 0.000000
# 4 0.000000 0.000000 0.000000 0.051939 0.000000 -0.017462
# 5 -0.004391 0.005746 -0.010153 0.000000 0.031800 0.000000
# 6 0.000000 0.000000 0.000000 -0.017462 0.000000 0.024804
#
#
# Mechanical properties :
#
#
# Convention : Reuss Voigt Hill
#
# Bulk Modulus (GPa) = 35.90238 39.86567 37.88402
# Shear Modulus (GPa) = 27.07103 36.19531 31.63317
#
# Velocity S-wave (km/s) = 3.66976 4.24338 3.96695
# Velocity P-wave (km/s) = 5.98471 6.62121 6.31099
#
# Compressibility (1/GPa) = 0.02785331
#
# Stress axis : x y z
#
# Youngs Moduli (GPa) = 78.68722 54.29725 61.58788
#
# Poissons Ratio (x) = 0.24128 0.00949
# Poissons Ratio (y) = 0.34966 0.31761
# Poissons Ratio (z) = 0.01212 0.28001
#
# Static dielectric constant tensor:
#      x y z
#    x 1.719210 0.000000 -0.055030 
#    y 0.000000 1.801600 0.000000 
#    z -0.055030 0.000000 1.728970 
# 
# From -- ./inp_files/27981.got.cif
#   From: 2010.05.17/outbox.ucp.g08.bks.cvg/sg14_14_cif.got.tgz:27981.got - 2010.06.11 12:31:08.
