data_PCOD9253326
_publ_section_title
;
Structure prediction by ZEFSAII (Michael W. Deem and Ramdas Pophale) SiO2 
 PCOD9253326
Probable space group: P 21/C
;
_chemical_formula_sum "Si O2"
_cell_formula_units_Z 20
_cell_length_a 8.750943
_cell_length_b 5.709853
_cell_length_c 16.911484
_cell_angle_alpha 90.000000
_cell_angle_beta 91.310520
_cell_angle_gamma 90.000000
_cell_volume 844.788293
_symmetry_space_group_name_H-M "P 21/C"
_symmetry_group_IT_number 14
_symmetry_cell_setting 'monoclinic'
loop_
_space_group_symop_operation_xyz
x,y,z
-x,1/2+y,1/2-z
-x,-y,-z
x,1/2-y,1/2+z
loop_
_atom_site_type_symbol
_atom_site_label
_atom_site_fract_x
_atom_site_fract_y
_atom_site_fract_z
Si Si1 0.135646 0.623633 0.551609
Si Si2 0.084658 0.457211 0.869421
Si Si3 0.863151 0.791774 0.806478
Si Si4 0.538183 0.653787 0.790727
Si Si5 0.372074 0.866464 0.449719
O O1 0.181885 0.495258 0.633301
O O2 0.283022 0.673221 0.499943
O O3 0.000000 0.500000 0.500000
O O4 0.052953 0.857059 0.580970
O O5 0.109257 0.336028 0.785471
O O6 0.237125 0.458683 0.921358
O O7 0.025943 0.711623 0.843054
O O8 0.718922 0.618478 0.807658
O O9 0.477339 0.398332 0.759865
O O10 0.448583 0.716557 0.869715
O O11 0.500000 0.000000 0.500000
#
# Coordination Sequence:
#
# PCOD9253326 Si02
#       5
#     4   4   4   4   4
#     4  12  28  47  77 116 151 202 267 335 403 476
#     4  12  26  50  76 113 152 210 264 323 402 483
#     4  12  27  47  83 107 156 208 268 326 394 491
#     4  12  31  53  80 116 163 213 269 326 408 490
#     4  12  29  50  78 116 165 208 263 342 408 478
#
# _framework density 23.674571
#
# number of rings (size 3 to 8) (size 9 to 14) (size 15 to 20)
#    0.000    0.000    6.000    1.800   14.000    0.800 
#    0.000    0.000    0.000    0.000    0.000    0.000 
#    0.000    0.000    0.000    0.000    0.000    0.000 
#
# Total GULP energy -111784.525052 kJ/mol
# GULP energy per Si atom -5589.226253 kJ/mol
# Density = 2.362069 g / cm^3
# Si number density = 23.674571 Si / 1000 Ang^3
#
#
#
# Elastic Constant Matrix: (Units=GPa)
#
#
# Indices 1 2 3 4 5 6 
#
# 1 128.3992 25.9031 51.2445 0.0000 2.7429 0.0000
# 2 25.9031 55.3403 33.8203 0.0000 9.0887 0.0000
# 3 51.2445 33.8203 114.3549 0.0000 -14.2731 0.0000
# 4 0.0000 0.0000 0.0000 27.9832 0.0000 2.0642
# 5 2.7429 9.0887 -14.2731 0.0000 65.8863 0.0000
# 6 0.0000 0.0000 0.0000 2.0642 0.0000 43.0211
#
#
#
# Elastic Compliance Matrix: (Units=1/GPa)
#
#
# Indices 1 2 3 4 5 6 
#
# 1 0.009776 -0.002032 -0.003901 0.000000 -0.000972 0.000000
# 2 -0.002032 0.023911 -0.006744 0.000000 -0.004675 0.000000
# 3 -0.003901 -0.006744 0.012975 0.000000 0.003904 0.000000
# 4 0.000000 0.000000 0.000000 0.035863 0.000000 -0.001721
# 5 -0.000972 -0.004675 0.003904 0.000000 0.016709 0.000000
# 6 0.000000 0.000000 0.000000 -0.001721 0.000000 0.023327
#
#
# Mechanical properties :
#
#
# Convention : Reuss Voigt Hill
#
# Bulk Modulus (GPa) = 46.93492 57.78114 52.35803
# Shear Modulus (GPa) = 32.25463 39.85323 36.05393
#
# Velocity S-wave (km/s) = 3.69510 4.10735 3.90666
# Velocity P-wave (km/s) = 6.17034 6.85224 6.52021
#
# Compressibility (1/GPa) = 0.02130610
#
# Stress axis : x y z
#
# Youngs Moduli (GPa) = 102.29306 41.82231 77.07323
#
# Poissons Ratio (x) = 0.08499 0.30066
# Poissons Ratio (y) = 0.20787 0.51981
# Poissons Ratio (z) = 0.39905 0.28207
#
# Static dielectric constant tensor:
#      x y z
#    x 1.922340 0.000000 0.008080 
#    y 0.000000 2.003830 0.000000 
#    z 0.008080 0.000000 1.929550 
# 
# From -- ./inp_files/53999.got.cif
#   From: 2010.05.17/outbox.cif.g08.bks.cpg/sg14_27_cif.got.tgz:53999.got - 2010.06.03 17:49:19.
