data_PCOD9253850
_publ_section_title
;
Structure prediction by ZEFSAII (Michael W. Deem and Ramdas Pophale) SiO2 
 PCOD9253850
Probable space group: C 2/C
;
_chemical_formula_sum "Si O2"
_cell_formula_units_Z 52
_cell_length_a 12.055797
_cell_length_b 8.501687
_cell_length_c 19.662907
_cell_angle_alpha 90.000000
_cell_angle_beta 72.816629
_cell_angle_gamma 90.000000
_cell_volume 1925.385522
_symmetry_space_group_name_H-M "C 2/C"
_symmetry_group_IT_number 15
_symmetry_cell_setting 'monoclinic'
loop_
_space_group_symop_operation_xyz
x,y,z
-x,y,1/2-z
-x,-y,-z
x,-y,1/2+z
1/2+x,1/2+y,z
1/2-x,1/2+y,1/2-z
1/2-x,1/2-y,-z
1/2+x,1/2-y,1/2+z
loop_
_atom_site_type_symbol
_atom_site_label
_atom_site_fract_x
_atom_site_fract_y
_atom_site_fract_z
Si Si1 0.941069 0.748246 0.461996
Si Si2 0.172387 0.765143 0.788810
Si Si3 0.500000 0.717394 0.750000
Si Si4 0.553570 0.476077 0.638271
Si Si5 0.454153 0.972593 0.646210
Si Si6 0.683127 0.810729 0.129909
Si Si7 0.226295 0.886214 0.912483
O O1 0.034201 0.612487 0.429108
O O2 0.890334 0.794426 0.544106
O O3 0.829607 0.681671 0.439799
O O4 0.973896 0.910282 0.419138
O O5 0.203105 0.735500 0.705023
O O6 0.251816 0.854827 0.828677
O O7 0.054898 0.871188 0.816379
O O8 0.149012 0.592294 0.823631
O O9 0.582133 0.595670 0.694458
O O10 0.451477 0.830177 0.700362
O O11 0.654343 0.354902 0.601064
O O12 0.567419 0.079320 0.643960
O O13 0.778022 0.925385 0.080643
#
# Coordination Sequence:
#
# PCOD9253850 Si02
#       7
#     8   8   4   8   8   8   8
#     4   9  21  40  57  83 107 169 190 231 291 358
#     4  11  20  36  56  91 111 148 192 256 281 334
#     4  10  14  30  56  88 106 142 186 244 268 348
#     4  10  19  34  63  82 111 146 206 231 284 341
#     4   9  17  33  62  81 113 147 197 237 290 331
#     4  10  19  37  54  84 118 156 177 241 296 352
#     4  10  23  39  56  79 128 149 194 230 296 353
#
# _framework density 27.007580000000001
#
# number of rings (size 3 to 8) (size 9 to 14) (size 15 to 20)
#    0.000    2.154    3.077    0.923    0.000    3.077 
#    2.769    3.077    0.000    0.000    0.000    0.000 
#    0.000    0.000    0.000    0.000    0.000    0.000 
#
# Total GULP energy -145431.834611 kJ/mol
# GULP energy per Si atom -5593.532100 kJ/mol
# Density = 2.694611 g / cm^3
# Si number density = 27.007580 Si / 1000 Ang^3
#
#
#
# Elastic Constant Matrix: (Units=GPa)
#
#
# Indices 1 2 3 4 5 6 
#
# 1 46.8803 19.9604 -1.4391 0.0000 3.8354 0.0000
# 2 19.9604 159.0188 26.6308 0.0000 3.8738 0.0000
# 3 -1.4391 26.6308 94.5273 0.0000 -3.0068 0.0000
# 4 0.0000 0.0000 0.0000 32.9720 0.0000 -1.0717
# 5 3.8354 3.8738 -3.0068 0.0000 20.4888 0.0000
# 6 0.0000 0.0000 0.0000 -1.0717 0.0000 25.8689
#
#
#
# Elastic Compliance Matrix: (Units=1/GPa)
#
#
# Indices 1 2 3 4 5 6 
#
# 1 0.022920 -0.002970 0.001072 0.000000 -0.003572 0.000000
# 2 -0.002970 0.007033 -0.002061 0.000000 -0.001076 0.000000
# 3 0.001072 -0.002061 0.011234 0.000000 0.001838 0.000000
# 4 0.000000 0.000000 0.000000 0.030370 0.000000 0.001258
# 5 -0.003572 -0.001076 0.001838 0.000000 0.049949 0.000000
# 6 0.000000 0.000000 0.000000 0.001258 0.000000 0.038709
#
#
# Mechanical properties :
#
#
# Convention : Reuss Voigt Hill
#
# Bulk Modulus (GPa) = 30.05648 43.41451 36.73549
# Shear Modulus (GPa) = 27.89845 32.88422 30.39134
#
# Velocity S-wave (km/s) = 3.21750 3.49319 3.35817
# Velocity P-wave (km/s) = 4.99561 5.69031 5.35424
#
# Compressibility (1/GPa) = 0.03327070
#
# Stress axis : x y z
#
# Youngs Moduli (GPa) = 43.62923 142.19429 89.01320
#
# Poissons Ratio (x) = 0.42225 -0.09542
# Poissons Ratio (y) = 0.12956 0.18343
# Poissons Ratio (z) = -0.04677 0.29302
#
# Static dielectric constant tensor:
#      x y z
#    x 2.250010 0.000000 -0.090310 
#    y 0.000000 2.073110 0.000000 
#    z -0.090310 0.000000 2.089150 
# 
# From -- ./inp_files/242430.got.cif
#   From: 2010.05.17/outbox.cif.g08.bks.cpg/sg15_122_cif.got.tgz:242430.got - 2010.06.03 18:47:42.
