data_PCOD9253521
_publ_section_title
;
Structure prediction by ZEFSAII (Michael W. Deem and Ramdas Pophale) SiO2 
 PCOD9253521
Probable space group: P 21/C
;
_chemical_formula_sum "Si O2"
_cell_formula_units_Z 32
_cell_length_a 9.000000
_cell_length_b 15.000000
_cell_length_c 24.000000
_cell_angle_alpha 90.000000
_cell_angle_beta 150.000000
_cell_angle_gamma 90.000000
_cell_volume 1620.000000
_symmetry_space_group_name_H-M "P 21/C"
_symmetry_group_IT_number 14
_symmetry_cell_setting 'monoclinic'
loop_
_space_group_symop_operation_xyz
x,y,z
-x,1/2+y,1/2-z
-x,-y,-z
x,1/2-y,1/2+z
loop_
_atom_site_type_symbol
_atom_site_label
_atom_site_fract_x
_atom_site_fract_y
_atom_site_fract_z
Si Si1 0.534600 0.405770 0.214860
Si Si2 0.806591 0.765028 0.910232
Si Si3 0.903761 0.766757 0.762330
Si Si4 0.242211 0.410007 0.703614
Si Si5 0.105038 0.160782 0.847708
Si Si6 0.597058 0.148699 0.857591
Si Si7 0.591459 0.025743 0.956133
Si Si8 0.532867 0.817563 0.936586
O O1 0.255347 0.339728 0.118505
O O2 0.514165 0.512292 0.213578
O O3 0.661892 0.376026 0.315996
O O4 0.779308 0.382098 0.247097
O O5 0.724148 0.832714 0.832639
O O6 0.600071 0.789741 0.895767
O O7 0.148465 0.786415 0.035799
O O8 0.781809 0.859068 0.745803
O O9 0.854947 0.739482 0.683126
O O10 0.726710 0.692168 0.739483
O O11 0.258813 0.772277 0.879554
O O12 0.921753 0.456984 0.587659
O O13 0.348586 0.086855 0.908505
O O14 0.184520 0.199678 0.933320
O O15 0.608962 0.060725 0.898866
O O16 0.494364 0.924096 0.924484
#
# Coordination Sequence:
#
# PCOD9253521 Si02
#       8
#     4   4   4   4   4   4   4   4
#     4  12  21  37  62  91 116 161 206 242 303 362
#     4  11  23  38  62  90 121 159 201 254 297 351
#     4  11  23  36  57  87 125 161 190 243 306 360
#     4  11  21  38  62  90 121 158 201 253 304 351
#     4  11  21  34  57  90 123 155 190 244 308 361
#     4  10  22  39  58  88 124 155 199 251 300 357
#     4  10  20  35  61  92 120 147 194 260 311 345
#     4  12  20  36  60  93 120 148 197 256 304 352
#
# _framework density 19.753086
#
# number of rings (size 3 to 8) (size 9 to 14) (size 15 to 20)
#    0.000    1.000    6.250    1.875    0.000    2.000 
#    0.000    0.625    0.000    0.750    0.000    0.000 
#    0.000    0.000    0.000    0.000    0.000    0.000 
#
# Total GULP energy -178347.368359 kJ/mol
# GULP energy per Si atom -5573.355261 kJ/mol
# Density = 1.970813 g / cm^3
# Si number density = 19.753086 Si / 1000 Ang^3
#
#
#
# Elastic Constant Matrix: (Units=GPa)
#
#
# Indices 1 2 3 4 5 6 
#
# 1 88.9032 8.5548 5.7558 0.0000 -4.3482 0.0000
# 2 8.5548 27.2736 2.1058 0.0000 -4.9259 0.0000
# 3 5.7558 2.1058 -1.8649 0.0000 -1.3965 0.0000
# 4 0.0000 0.0000 0.0000 19.2379 0.0000 1.7817
# 5 -4.3482 -4.9259 -1.3965 0.0000 24.0035 0.0000
# 6 0.0000 0.0000 0.0000 1.7817 0.0000 25.9502
#
#
#
# Elastic Compliance Matrix: (Units=1/GPa)
#
#
# Indices 1 2 3 4 5 6 
#
# 1 0.010224 -0.004682 0.024532 0.000000 0.002318 0.000000
# 2 -0.004682 0.037905 0.022195 0.000000 0.008222 0.000000
# 3 0.024532 0.022195 -0.423729 0.000000 -0.015653 0.000000
# 4 0.000000 0.000000 0.000000 0.052313 0.000000 -0.003592
# 5 0.002318 0.008222 -0.015653 0.000000 0.042857 0.000000
# 6 0.000000 0.000000 0.000000 -0.003592 0.000000 0.038782
#
#
# Mechanical properties :
#
#
# Convention : Reuss Voigt Hill
#
# Bulk Modulus (GPa) = -3.43041 16.34944 6.45951
# Shear Modulus (GPa) = -11.82296 20.36466 4.27085
#
# Velocity S-wave (km/s) = -2.44916 3.21434 1.47201
# Velocity P-wave (km/s) = 3.12061 4.69796 2.48321
#
# Compressibility (1/GPa) = -0.29151072
#
# Stress axis : x y z
#
# Youngs Moduli (GPa) = 97.81025 26.38147 -2.36000
#
# Poissons Ratio (x) = 0.12353 0.05790
# Poissons Ratio (y) = 0.45798 0.05238
# Poissons Ratio (z) = -2.39948 -0.58553
#
# Static dielectric constant tensor:
#      x y z
#    x 1.699820 0.000000 -0.021860 
#    y 0.000000 1.708380 0.000000 
#    z -0.021860 0.000000 1.743940 
# 
# From -- ./inp_files/72492.got.cif
#   From: 2010.05.17/outbox.ucp.g08.bks.cvg/sg14_37_cif.got.tgz:72492.got - 2010.06.11 12:31:08.
