data_PCOD9253278
_publ_section_title
;
Structure prediction by ZEFSAII (Michael W. Deem and Ramdas Pophale) SiO2 
 PCOD9253278
Probable space group: P 21/C
;
_chemical_formula_sum "Si O2"
_cell_formula_units_Z 16
_cell_length_a 7.158722
_cell_length_b 11.890731
_cell_length_c 8.435515
_cell_angle_alpha 90.000000
_cell_angle_beta 62.056266
_cell_angle_gamma 90.000000
_cell_volume 634.332671
_symmetry_space_group_name_H-M "P 21/C"
_symmetry_group_IT_number 14
_symmetry_cell_setting 'monoclinic'
loop_
_space_group_symop_operation_xyz
x,y,z
-x,1/2+y,1/2-z
-x,-y,-z
x,1/2-y,1/2+z
loop_
_atom_site_type_symbol
_atom_site_label
_atom_site_fract_x
_atom_site_fract_y
_atom_site_fract_z
Si Si1 0.628672 0.160433 0.347414
Si Si2 0.704627 0.990911 0.031914
Si Si3 0.043781 0.079375 0.333545
Si Si4 0.639726 0.788197 0.254030
O O1 0.652276 0.066804 0.203137
O O2 0.576095 0.267886 0.260943
O O3 0.433824 0.158639 0.550038
O O4 0.840479 0.151283 0.363447
O O5 0.759291 0.871915 0.090929
O O6 0.500000 0.000000 0.000000
O O7 0.894372 0.005932 0.833567
O O8 0.231387 0.171845 0.280058
O O9 0.000000 0.000000 0.500000
#
# Coordination Sequence:
#
# PCOD9253278 Si02
#       4
#     4   4   4   4
#     4  12  27  50  81 111 163 208 267 334 402 476
#     4  12  25  53  77 118 162 209 264 340 399 481
#     4  12  29  49  82 118 159 213 273 327 410 482
#     4  12  27  50  80 116 161 211 269 331 406 479
#
# _framework density 25.223358999999999
#
# number of rings (size 3 to 8) (size 9 to 14) (size 15 to 20)
#    0.000    0.000    5.000    3.000    7.000    0.000 
#    4.500    0.000    0.000    0.000    0.000    0.000 
#    0.000    0.000    0.000    0.000    0.000    0.000 
#
# Total GULP energy -89424.399459 kJ/mol
# GULP energy per Si atom -5589.024966 kJ/mol
# Density = 2.516595 g / cm^3
# Si number density = 25.223359 Si / 1000 Ang^3
#
#
#
# Elastic Constant Matrix: (Units=GPa)
#
#
# Indices 1 2 3 4 5 6 
#
# 1 135.1182 21.1276 50.2083 0.0000 7.8526 0.0000
# 2 21.1276 69.0294 72.9846 0.0000 8.2634 0.0000
# 3 50.2083 72.9846 247.7654 0.0000 16.8964 0.0000
# 4 0.0000 0.0000 0.0000 52.0096 0.0000 4.8551
# 5 7.8526 8.2634 16.8964 0.0000 31.7183 0.0000
# 6 0.0000 0.0000 0.0000 4.8551 0.0000 41.4184
#
#
#
# Elastic Compliance Matrix: (Units=1/GPa)
#
#
# Indices 1 2 3 4 5 6 
#
# 1 0.008092 -0.001005 -0.001271 0.000000 -0.001064 0.000000
# 2 -0.001005 0.021322 -0.005931 0.000000 -0.002147 0.000000
# 3 -0.001271 -0.005931 0.006137 0.000000 -0.001409 0.000000
# 4 0.000000 0.000000 0.000000 0.019440 0.000000 -0.002279
# 5 -0.001064 -0.002147 -0.001409 0.000000 0.033101 0.000000
# 6 0.000000 0.000000 0.000000 -0.002279 0.000000 0.024411
#
#
# Mechanical properties :
#
#
# Convention : Reuss Voigt Hill
#
# Bulk Modulus (GPa) = 52.25630 82.28380 67.27005
# Shear Modulus (GPa) = 36.95603 45.53543 41.24573
#
# Velocity S-wave (km/s) = 3.83188 4.25348 4.04817
# Velocity P-wave (km/s) = 6.35139 7.53762 6.96978
#
# Compressibility (1/GPa) = 0.01913645
#
# Stress axis : x y z
#
# Youngs Moduli (GPa) = 123.57386 46.90052 162.95242
#
# Poissons Ratio (x) = 0.04716 0.20713
# Poissons Ratio (y) = 0.12425 0.96641
# Poissons Ratio (z) = 0.15708 0.27815
#
# Static dielectric constant tensor:
#      x y z
#    x 2.062660 0.000000 -0.017800 
#    y 0.000000 2.104490 0.000000 
#    z -0.017800 0.000000 1.990380 
# 
# From -- ./inp_files/7816.got.cif
#   From: 2010.05.17/outbox.cif.g08.bks.cpg/sg14_4_cif.got.tgz:7816.got - 2010.06.03 17:49:19.
