data_PCOD9253376
_publ_section_title
;
Structure prediction by ZEFSAII (Michael W. Deem and Ramdas Pophale) SiO2 
 PCOD9253376
Probable space group: P 21/C
;
_chemical_formula_sum "Si O2"
_cell_formula_units_Z 18
_cell_length_a 7.933538
_cell_length_b 9.474195
_cell_length_c 10.545941
_cell_angle_alpha 90.000000
_cell_angle_beta 118.969964
_cell_angle_gamma 90.000000
_cell_volume 693.489584
_symmetry_space_group_name_H-M "P 21/C"
_symmetry_group_IT_number 14
_symmetry_cell_setting 'monoclinic'
loop_
_space_group_symop_operation_xyz
x,y,z
-x,1/2+y,1/2-z
-x,-y,-z
x,1/2-y,1/2+z
loop_
_atom_site_type_symbol
_atom_site_label
_atom_site_fract_x
_atom_site_fract_y
_atom_site_fract_z
Si Si1 0.000000 0.500000 0.000000
Si Si2 0.827776 0.229563 0.014504
Si Si3 0.473892 0.186867 0.073961
Si Si4 0.395523 0.546040 0.743432
Si Si5 0.168145 0.167355 0.323432
O O1 0.175770 0.608615 0.027079
O O2 0.046167 0.403596 0.889837
O O3 0.659806 0.199664 0.053823
O O4 0.032602 0.209270 0.156901
O O5 0.790047 0.126200 0.883528
O O6 0.470102 0.327058 0.160821
O O7 0.478644 0.049924 0.162032
O O8 0.282007 0.198120 0.919766
O O9 0.325635 0.442232 0.827650
#
# Coordination Sequence:
#
# PCOD9253376 Si02
#       5
#     2   4   4   4   4
#     4  12  28  46  80 114 168 206 278 322 414 472
#     4  12  28  51  82 118 163 216 269 341 405 489
#     4  12  28  52  81 123 164 214 271 337 415 485
#     4  12  27  51  81 118 166 212 273 334 411 482
#     4  12  28  49  80 118 164 213 274 335 410 486
#
# _framework density 25.955691000000002
#
# number of rings (size 3 to 8) (size 9 to 14) (size 15 to 20)
#    0.000    0.000    2.222    6.000    9.333    0.000 
#    0.000    0.000    0.000    0.000    0.000    0.000 
#    0.000    0.000    0.000    0.000    0.000    0.000 
#
# Total GULP energy -100609.324485 kJ/mol
# GULP energy per Si atom -5589.406916 kJ/mol
# Density = 2.589661 g / cm^3
# Si number density = 25.955691 Si / 1000 Ang^3
#
#
#
# Elastic Constant Matrix: (Units=GPa)
#
#
# Indices 1 2 3 4 5 6 
#
# 1 88.4521 14.3301 3.1525 0.0000 -21.7384 0.0000
# 2 14.3301 92.5002 13.0894 0.0000 -8.4890 0.0000
# 3 3.1525 13.0894 104.8934 0.0000 25.2290 0.0000
# 4 0.0000 0.0000 0.0000 29.7502 0.0000 0.7701
# 5 -21.7384 -8.4890 25.2290 0.0000 43.6241 0.0000
# 6 0.0000 0.0000 0.0000 0.7701 0.0000 53.5130
#
#
#
# Elastic Compliance Matrix: (Units=1/GPa)
#
#
# Indices 1 2 3 4 5 6 
#
# 1 0.013454 -0.001074 -0.002129 0.000000 0.007727 0.000000
# 2 -0.001074 0.011546 -0.002114 0.000000 0.002934 0.000000
# 3 -0.002129 -0.002114 0.011866 0.000000 -0.008335 0.000000
# 4 0.000000 0.000000 0.000000 0.033626 0.000000 -0.000484
# 5 0.007727 0.002934 -0.008335 0.000000 0.032164 0.000000
# 6 0.000000 0.000000 0.000000 -0.000484 0.000000 0.018694
#
#
# Mechanical properties :
#
#
# Convention : Reuss Voigt Hill
#
# Bulk Modulus (GPa) = 38.12145 38.55443 38.33794
# Shear Modulus (GPa) = 35.52950 42.39570 38.96260
#
# Velocity S-wave (km/s) = 3.70381 4.04590 3.87863
# Velocity P-wave (km/s) = 5.74543 6.05904 5.90432
#
# Compressibility (1/GPa) = 0.02623195
#
# Stress axis : x y z
#
# Youngs Moduli (GPa) = 74.32538 86.61285 84.27486
#
# Poissons Ratio (x) = 0.09302 0.17940
# Poissons Ratio (y) = 0.07983 0.17817
# Poissons Ratio (z) = 0.15822 0.18312
#
# Static dielectric constant tensor:
#      x y z
#    x 1.967370 0.000000 -0.004620 
#    y 0.000000 2.027630 0.000000 
#    z -0.004620 0.000000 2.063390 
# 
# From -- ./inp_files/23175.got.cif
#   From: 2010.05.17/outbox.cif.g08.bks.cpg/sg14_12_cif.got.tgz:23175.got - 2010.06.03 17:49:19.
