data_PCOD9253650
_publ_section_title
;
Structure prediction by ZEFSAII (Michael W. Deem and Ramdas Pophale) SiO2 
 PCOD9253650
Probable space group: P 21/C
;
_chemical_formula_sum "Si O2"
_cell_formula_units_Z 24
_cell_length_a 15.000000
_cell_length_b 9.000000
_cell_length_c 18.000000
_cell_angle_alpha 90.000000
_cell_angle_beta 30.000000
_cell_angle_gamma 90.000000
_cell_volume 1215.000000
_symmetry_space_group_name_H-M "P 21/C"
_symmetry_group_IT_number 14
_symmetry_cell_setting 'monoclinic'
loop_
_space_group_symop_operation_xyz
x,y,z
-x,1/2+y,1/2-z
-x,-y,-z
x,1/2-y,1/2+z
loop_
_atom_site_type_symbol
_atom_site_label
_atom_site_fract_x
_atom_site_fract_y
_atom_site_fract_z
Si Si1 0.044054 0.449298 0.383919
Si Si2 0.320077 0.472027 0.429089
Si Si3 0.873897 0.615286 0.137917
Si Si4 0.792492 0.380736 0.865519
Si Si5 0.873594 0.471766 0.293138
Si Si6 0.529675 0.764125 0.305743
O O1 0.045148 0.270102 0.387897
O O2 0.198402 0.529384 0.221005
O O3 0.000000 0.500000 0.500000
O O4 0.875130 0.506098 0.461671
O O5 0.276582 0.447419 0.547145
O O6 0.415453 0.628843 0.357784
O O7 0.415949 0.359691 0.305102
O O8 0.829376 0.518029 0.241782
O O9 0.703520 0.684521 0.217050
O O10 0.000000 0.500000 0.000000
O O11 0.931617 0.468159 0.819978
O O12 0.861065 0.208447 0.808503
O O13 0.596766 0.357838 0.045549
#
# Coordination Sequence:
#
# PCOD9253650 Si02
#       6
#     4   4   4   4   4   4
#     4  11  22  45  65  96 129 179 224 276 340 410
#     4  10  24  42  66  94 137 171 227 274 343 407
#     4  12  26  41  69  98 136 176 229 280 345 405
#     4  10  23  42  71  96 137 174 234 273 341 413
#     4  10  22  43  66  95 127 184 216 277 334 410
#     4  11  25  43  64 104 132 178 226 286 339 400
#
# _framework density 19.753086
#
# number of rings (size 3 to 8) (size 9 to 14) (size 15 to 20)
#    0.000    1.333    1.667    4.000    7.000    4.667 
#    3.000    0.000    0.000    0.000    0.000    0.000 
#    0.000    0.000    0.000    0.000    0.000    0.000 
#
# Total GULP energy -133629.520623 kJ/mol
# GULP energy per Si atom -5567.896693 kJ/mol
# Density = 1.970813 g / cm^3
# Si number density = 19.753086 Si / 1000 Ang^3
#
#
#
# Elastic Constant Matrix: (Units=GPa)
#
#
# Indices 1 2 3 4 5 6 
#
# 1 41.8613 18.8894 51.3636 0.0000 49.6694 0.0000
# 2 18.8894 73.0293 60.0656 0.0000 31.3874 0.0000
# 3 51.3636 60.0656 159.3062 0.0000 35.1039 0.0000
# 4 0.0000 0.0000 0.0000 53.4867 0.0000 3.9974
# 5 49.6694 31.3874 35.1039 0.0000 28.4218 0.0000
# 6 0.0000 0.0000 0.0000 3.9974 0.0000 40.1608
#
#
#
# Elastic Compliance Matrix: (Units=1/GPa)
#
#
# Indices 1 2 3 4 5 6 
#
# 1 -0.012562 -0.012443 0.001204 0.000000 0.034207 0.000000
# 2 -0.012443 0.016698 -0.004139 0.000000 0.008417 0.000000
# 3 0.001204 -0.004139 0.009488 0.000000 -0.009253 0.000000
# 4 0.000000 0.000000 0.000000 0.018836 0.000000 -0.001875
# 5 0.034207 0.008417 -0.009253 0.000000 -0.022462 0.000000
# 6 0.000000 0.000000 0.000000 -0.001875 0.000000 0.025087
#
#
# Mechanical properties :
#
#
# Convention : Reuss Voigt Hill
#
# Bulk Modulus (GPa) = -58.37471 59.42599 0.52564
# Shear Modulus (GPa) = 83.15203 34.00574 58.57888
#
# Velocity S-wave (km/s) = 6.49516 4.15365 5.45160
# Velocity P-wave (km/s) = 5.16073 7.29064 6.31611
#
# Compressibility (1/GPa) = -0.01713071
#
# Stress axis : x y z
#
# Youngs Moduli (GPa) = -79.60590 59.88636 105.39203
#
# Poissons Ratio (x) = 0.74518 -0.12690
# Poissons Ratio (y) = -0.99055 0.43619
# Poissons Ratio (z) = 0.09585 0.24785
#
# Static dielectric constant tensor:
#      x y z
#    x 1.926140 0.000000 0.115120 
#    y 0.000000 1.686270 0.000000 
#    z 0.115120 0.000000 1.847860 
# 
# From -- ./inp_files/58992.got.cif
#   From: 2010.05.17/outbox.ucp.g08.bks.cvg/sg14_30_cif.got.tgz:58992.got - 2010.06.11 12:31:08.
