data_PCOD9253835
_publ_section_title
;
Structure prediction by ZEFSAII (Michael W. Deem and Ramdas Pophale) SiO2 
 PCOD9253835
Probable space group: C 2/C
;
_chemical_formula_sum "Si O2"
_cell_formula_units_Z 52
_cell_length_a 20.425841
_cell_length_b 12.220818
_cell_length_c 15.975401
_cell_angle_alpha 90.000000
_cell_angle_beta 35.012237
_cell_angle_gamma 90.000000
_cell_volume 2287.998474
_symmetry_space_group_name_H-M "C 2/C"
_symmetry_group_IT_number 15
_symmetry_cell_setting 'monoclinic'
loop_
_space_group_symop_operation_xyz
x,y,z
-x,y,1/2-z
-x,-y,-z
x,-y,1/2+z
1/2+x,1/2+y,z
1/2-x,1/2+y,1/2-z
1/2-x,1/2-y,-z
1/2+x,1/2-y,1/2+z
loop_
_atom_site_type_symbol
_atom_site_label
_atom_site_fract_x
_atom_site_fract_y
_atom_site_fract_z
Si Si1 0.365012 0.577110 0.391076
Si Si2 0.877585 0.582542 0.174278
Si Si3 0.376175 0.183306 0.561377
Si Si4 0.300908 0.668817 0.014899
Si Si5 0.827542 0.662773 0.793741
Si Si6 0.196855 0.466686 0.930047
Si Si7 0.500000 0.122977 0.750000
O O1 0.500000 0.591769 0.250000
O O2 0.337027 0.450365 0.445215
O O3 0.293477 0.653692 0.531013
O O4 0.305265 0.585631 0.362613
O O5 0.799229 0.657726 0.312511
O O6 0.855942 0.462100 0.234735
O O7 0.839526 0.588171 0.118308
O O8 0.007355 0.617227 0.046566
O O9 0.398599 0.275133 0.468551
O O10 0.334944 0.221568 0.696225
O O11 0.291249 0.093841 0.608421
O O12 0.250000 0.750000 0.000000
O O13 0.926121 0.688636 0.758404
O O14 0.093582 0.450511 0.104092
#
# Coordination Sequence:
#
# PCOD9253835 Si02
#       7
#     8   8   8   8   8   8   4
#     4  10  22  38  55  85 123 160 196 231 303 365
#     4  10  20  35  53  87 117 151 196 249 303 339
#     4  11  19  34  57  84 121 152 195 249 301 343
#     4  11  24  35  53  86 128 161 191 233 302 375
#     4   9  18  33  57  86 109 146 207 247 285 341
#     4  10  18  33  59  83 115 145 203 250 285 341
#     4  10  14  28  56  90  98 132 184 256 290 310
#
# _framework density 22.727288999999999
#
# number of rings (size 3 to 8) (size 9 to 14) (size 15 to 20)
#    0.000    1.846    4.615    0.923    2.154    0.000 
#    0.000    8.462    0.000    3.692    4.000    0.000 
#    0.000    0.000    0.000    0.000    0.000    0.000 
#
# Total GULP energy -145332.557335 kJ/mol
# GULP energy per Si atom -5589.713744 kJ/mol
# Density = 2.267556 g / cm^3
# Si number density = 22.727289 Si / 1000 Ang^3
#
#
#
# Elastic Constant Matrix: (Units=GPa)
#
#
# Indices 1 2 3 4 5 6 
#
# 1 169.6654 27.9233 64.5028 0.0000 12.3423 0.0000
# 2 27.9233 49.8065 9.3063 0.0000 10.6411 0.0000
# 3 64.5028 9.3063 113.6019 0.0000 -4.1432 0.0000
# 4 0.0000 0.0000 0.0000 18.3735 0.0000 9.7887
# 5 12.3423 10.6411 -4.1432 0.0000 45.2535 0.0000
# 6 0.0000 0.0000 0.0000 9.7887 0.0000 35.1696
#
#
#
# Elastic Compliance Matrix: (Units=1/GPa)
#
#
# Indices 1 2 3 4 5 6 
#
# 1 0.008304 -0.003414 -0.004504 0.000000 -0.001875 0.000000
# 2 -0.003414 0.022969 -0.000107 0.000000 -0.004480 0.000000
# 3 -0.004504 -0.000107 0.011453 0.000000 0.002302 0.000000
# 4 0.000000 0.000000 0.000000 0.063902 0.000000 -0.017786
# 5 -0.001875 -0.004480 0.002302 0.000000 0.023873 0.000000
# 6 0.000000 0.000000 0.000000 -0.017786 0.000000 0.033384
#
#
# Mechanical properties :
#
#
# Convention : Reuss Voigt Hill
#
# Bulk Modulus (GPa) = 37.48549 59.61541 48.55045
# Shear Modulus (GPa) = 26.47948 35.18206 30.83077
#
# Velocity S-wave (km/s) = 3.41705 3.93874 3.68714
# Velocity P-wave (km/s) = 5.66549 6.85366 6.28770
#
# Compressibility (1/GPa) = 0.02667699
#
# Stress axis : x y z
#
# Youngs Moduli (GPa) = 120.41750 43.53785 87.31563
#
# Poissons Ratio (x) = 0.14863 0.39327
# Poissons Ratio (y) = 0.41107 0.00931
# Poissons Ratio (z) = 0.54235 0.00464
#
# Static dielectric constant tensor:
#      x y z
#    x 1.875410 0.000000 -0.007150 
#    y 0.000000 2.000760 0.000000 
#    z -0.007150 0.000000 1.825260 
# 
# From -- ./inp_files/162485.got.cif
#   From: 2010.05.17/outbox.cif.g08.bks.cpg/sg15_82_cif.got.tgz:162485.got - 2010.06.03 18:47:42.
