data_PCOD9253404
_publ_section_title
;
Structure prediction by ZEFSAII (Michael W. Deem and Ramdas Pophale) SiO2 
 PCOD9253404
Probable space group: P 21/C
;
_chemical_formula_sum "Si O2"
_cell_formula_units_Z 24
_cell_length_a 15.051662
_cell_length_b 4.653247
_cell_length_c 12.579547
_cell_angle_alpha 90.000000
_cell_angle_beta 104.755934
_cell_angle_gamma 90.000000
_cell_volume 852.002416
_symmetry_space_group_name_H-M "P 21/C"
_symmetry_group_IT_number 14
_symmetry_cell_setting 'monoclinic'
loop_
_space_group_symop_operation_xyz
x,y,z
-x,1/2+y,1/2-z
-x,-y,-z
x,1/2-y,1/2+z
loop_
_atom_site_type_symbol
_atom_site_label
_atom_site_fract_x
_atom_site_fract_y
_atom_site_fract_z
Si Si1 0.407376 0.182213 0.470571
Si Si2 0.138550 0.280231 0.319274
Si Si3 0.958390 0.401540 0.373968
Si Si4 0.175320 0.946929 0.548823
Si Si5 0.697453 0.553280 0.374670
Si Si6 0.317304 0.675513 0.336941
O O1 0.383520 0.360618 0.569550
O O2 0.394236 0.427581 0.376927
O O3 0.500000 0.000000 0.500000
O O4 0.332587 0.930956 0.427838
O O5 0.042805 0.432048 0.318516
O O6 0.222903 0.499472 0.327740
O O7 0.330132 0.865971 0.234924
O O8 0.121859 0.067831 0.214683
O O9 0.000000 0.500000 0.500000
O O10 0.910161 0.105103 0.397519
O O11 0.148574 0.086794 0.429356
O O12 0.253220 0.142803 0.626314
O O13 0.779171 0.364196 0.450717
#
# Coordination Sequence:
#
# PCOD9253404 Si02
#       6
#     4   4   4   4   4   4
#     4  12  29  60  99 139 186 236 301 386 476 572
#     4  12  30  55  90 129 187 247 319 376 475 533
#     4  12  30  51  87 131 186 249 321 392 447 547
#     4  12  28  52  86 130 181 244 314 381 459 545
#     4  12  29  52  96 135 181 233 315 379 463 560
#     4  12  30  56  98 136 183 249 303 382 472 566
#
# _framework density 28.168935000000001
#
# number of rings (size 3 to 8) (size 9 to 14) (size 15 to 20)
#    0.000    0.000    1.667    5.000   11.667    1.333 
#    0.000    5.000    3.667    0.000    0.000    0.000 
#    0.000    0.000    0.000    0.000    0.000    0.000 
#
# Total GULP energy -134552.856064 kJ/mol
# GULP energy per Si atom -5606.369003 kJ/mol
# Density = 2.810482 g / cm^3
# Si number density = 28.168935 Si / 1000 Ang^3
#
#
#
# Elastic Constant Matrix: (Units=GPa)
#
#
# Indices 1 2 3 4 5 6 
#
# 1 147.3491 69.8415 72.0465 0.0000 -7.6883 0.0000
# 2 69.8415 203.7195 89.5363 0.0000 0.9075 0.0000
# 3 72.0465 89.5363 215.8404 0.0000 -9.9884 0.0000
# 4 0.0000 0.0000 0.0000 76.0786 0.0000 7.8043
# 5 -7.6883 0.9075 -9.9884 0.0000 21.9363 0.0000
# 6 0.0000 0.0000 0.0000 7.8043 0.0000 81.7816
#
#
#
# Elastic Compliance Matrix: (Units=1/GPa)
#
#
# Indices 1 2 3 4 5 6 
#
# 1 0.008908 -0.002207 -0.001950 0.000000 0.002325 0.000000
# 2 -0.002207 0.006593 -0.002091 0.000000 -0.001998 0.000000
# 3 -0.001950 -0.002091 0.006256 0.000000 0.002251 0.000000
# 4 0.000000 0.000000 0.000000 0.013274 0.000000 -0.001267
# 5 0.002325 -0.001998 0.002251 0.000000 0.047509 0.000000
# 6 0.000000 0.000000 0.000000 -0.001267 0.000000 0.012349
#
#
# Mechanical properties :
#
#
# Convention : Reuss Voigt Hill
#
# Bulk Modulus (GPa) = 107.98835 114.41751 111.20293
# Shear Modulus (GPa) = 45.26065 58.32496 51.79280
#
# Velocity S-wave (km/s) = 4.01279 4.55526 4.29260
# Velocity P-wave (km/s) = 7.73881 8.26884 8.00821
#
# Compressibility (1/GPa) = 0.00926026
#
# Stress axis : x y z
#
# Youngs Moduli (GPa) = 112.26397 151.67186 159.85911
#
# Poissons Ratio (x) = 0.33475 0.31175
# Poissons Ratio (y) = 0.24777 0.33423
# Poissons Ratio (z) = 0.21893 0.31712
#
# Static dielectric constant tensor:
#      x y z
#    x 2.227300 0.000000 0.050730 
#    y 0.000000 2.208830 0.000000 
#    z 0.050730 0.000000 2.363830 
# 
# From -- ./inp_files/45687.got.cif
#   From: 2010.05.17/outbox.cif.g08.bks.cpg/sg14_23_cif.got.tgz:45687.got - 2010.06.03 17:49:19.
