data_PCOD9253552
_publ_section_title
;
Structure prediction by ZEFSAII (Michael W. Deem and Ramdas Pophale) SiO2 
 PCOD9253552
Probable space group: P 21/C
;
_chemical_formula_sum "Si O2"
_cell_formula_units_Z 28
_cell_length_a 6.000000
_cell_length_b 18.000000
_cell_length_c 15.000000
_cell_angle_alpha 90.000000
_cell_angle_beta 120.000000
_cell_angle_gamma 90.000000
_cell_volume 1402.961154
_symmetry_space_group_name_H-M "P 21/C"
_symmetry_group_IT_number 14
_symmetry_cell_setting 'monoclinic'
loop_
_space_group_symop_operation_xyz
x,y,z
-x,1/2+y,1/2-z
-x,-y,-z
x,1/2-y,1/2+z
loop_
_atom_site_type_symbol
_atom_site_label
_atom_site_fract_x
_atom_site_fract_y
_atom_site_fract_z
Si Si1 0.973713 0.734408 0.939042
Si Si2 0.623306 0.667236 0.732403
Si Si3 0.073094 0.904648 0.191358
Si Si4 0.360224 0.683994 0.161449
Si Si5 0.786501 0.327185 0.662482
Si Si6 0.261355 0.108058 0.042688
Si Si7 0.254316 0.060757 0.238391
O O1 0.149684 0.759073 0.889900
O O2 0.758174 0.682058 0.854199
O O3 0.858788 0.812164 0.952235
O O4 0.126268 0.695836 0.048456
O O5 0.336015 0.634029 0.700792
O O6 0.559154 0.749112 0.680297
O O7 0.849757 0.631521 0.713109
O O8 0.184773 0.979405 0.257917
O O9 0.903048 0.923578 0.070260
O O10 0.286485 0.693816 0.251001
O O11 0.491254 0.603572 0.178598
O O12 0.550750 0.372634 0.572731
O O13 0.025826 0.382460 0.714456
O O14 0.273720 0.059154 0.134258
#
# Coordination Sequence:
#
# PCOD9253552 Si02
#       7
#     4   4   4   4   4   4   4
#     4  11  22  39  64 103 127 174 229 286 321 399
#     4  12  25  44  66 101 133 173 231 275 328 402
#     4  12  27  43  67 100 141 178 215 286 342 394
#     4  11  22  42  70  94 134 182 222 279 336 395
#     4  10  20  39  66  97 133 171 226 274 340 399
#     4  10  21  37  68  95 135 171 221 279 347 394
#     4  10  24  42  63  98 136 178 222 272 342 412
#
# _framework density 19.957787
#
# number of rings (size 3 to 8) (size 9 to 14) (size 15 to 20)
#    0.000    1.143    5.714    2.143    6.000    1.714 
#    0.000    1.429    0.000    0.000    0.000    0.000 
#    0.000    0.000    0.000    0.000    0.000    0.000 
#
# Total GULP energy -156066.057133 kJ/mol
# GULP energy per Si atom -5573.787755 kJ/mol
# Density = 1.991236 g / cm^3
# Si number density = 19.957787 Si / 1000 Ang^3
#
#
#
# Elastic Constant Matrix: (Units=GPa)
#
#
# Indices 1 2 3 4 5 6 
#
# 1 73.6551 -7.6307 -16.4678 0.0000 4.5943 0.0000
# 2 -7.6307 18.0682 -21.3602 0.0000 -3.3153 0.0000
# 3 -16.4678 -21.3602 53.6862 0.0000 21.7080 0.0000
# 4 0.0000 0.0000 0.0000 19.0380 0.0000 -3.8908
# 5 4.5943 -3.3153 21.7080 0.0000 25.4903 0.0000
# 6 0.0000 0.0000 0.0000 -3.8908 0.0000 10.4646
#
#
#
# Elastic Compliance Matrix: (Units=1/GPa)
#
#
# Indices 1 2 3 4 5 6 
#
# 1 0.047739 0.107699 0.084358 0.000000 -0.066438 0.000000
# 2 0.107699 0.369949 0.257182 0.000000 -0.190316 0.000000
# 3 0.084358 0.257182 0.212691 0.000000 -0.162887 0.000000
# 4 0.000000 0.000000 0.000000 0.056846 0.000000 0.021135
# 5 -0.066438 -0.190316 -0.162887 0.000000 0.165170 0.000000
# 6 0.000000 0.000000 0.000000 0.021135 0.000000 0.103419
#
#
# Mechanical properties :
#
#
# Convention : Reuss Voigt Hill
#
# Bulk Modulus (GPa) = 0.65408 6.05468 3.35438
# Shear Modulus (GPa) = 8.81904 23.72314 16.27109
#
# Velocity S-wave (km/s) = 2.10439 3.45144 2.85840
# Velocity P-wave (km/s) = 2.49660 4.35013 3.54659
#
# Compressibility (1/GPa) = 1.52885542
#
# Stress axis : x y z
#
# Youngs Moduli (GPa) = 20.94713 2.70308 4.70165
#
# Poissons Ratio (x) = -0.29112 -0.39662
# Poissons Ratio (y) = -2.25598 -1.20918
# Poissons Ratio (z) = -1.76705 -0.69518
#
# Static dielectric constant tensor:
#      x y z
#    x 1.767420 0.000000 0.017040 
#    y 0.000000 1.738190 0.000000 
#    z 0.017040 0.000000 1.701310 
# 
# From -- ./inp_files/37570.got.cif
#   From: 2010.05.17/outbox.ucp.g08.bks.cvg/sg14_19_cif.got.tgz:37570.got - 2010.06.11 12:31:08.
