data_PCOD9253920
_publ_section_title
;
Structure prediction by ZEFSAII (Michael W. Deem and Ramdas Pophale) SiO2 
 PCOD9253920
Probable space group: C 2/C
;
_chemical_formula_sum "Si O2"
_cell_formula_units_Z 56
_cell_length_a 20.808384
_cell_length_b 7.011755
_cell_length_c 17.897117
_cell_angle_alpha 90.000000
_cell_angle_beta 55.050328
_cell_angle_gamma 90.000000
_cell_volume 2140.324134
_symmetry_space_group_name_H-M "C 2/C"
_symmetry_group_IT_number 15
_symmetry_cell_setting 'monoclinic'
loop_
_space_group_symop_operation_xyz
x,y,z
-x,y,1/2-z
-x,-y,-z
x,-y,1/2+z
1/2+x,1/2+y,z
1/2-x,1/2+y,1/2-z
1/2-x,1/2-y,-z
1/2+x,1/2-y,1/2+z
loop_
_atom_site_type_symbol
_atom_site_label
_atom_site_fract_x
_atom_site_fract_y
_atom_site_fract_z
Si Si1 0.658556 0.288169 0.054417
Si Si2 0.852105 0.782364 0.881463
Si Si3 0.435875 0.128730 0.245542
Si Si4 0.366219 0.374134 0.587932
Si Si5 0.082368 0.987299 0.800608
Si Si6 0.823978 0.273980 0.554606
Si Si7 0.690998 0.164712 0.269732
O O1 0.652287 0.511311 0.077032
O O2 0.621136 0.187910 0.149934
O O3 0.750000 0.250000 0.000000
O O4 0.627028 0.250196 0.991771
O O5 0.766726 0.728303 0.906106
O O6 0.905924 0.840496 0.774848
O O7 0.862861 0.657640 0.950594
O O8 0.500000 0.015834 0.250000
O O9 0.471100 0.329555 0.187865
O O10 0.377407 0.040974 0.224226
O O11 0.427569 0.373330 0.615535
O O12 0.369271 0.589561 0.554744
O O13 0.277702 0.347614 0.679023
O O14 0.158962 0.122639 0.768173
O O15 0.814518 0.384634 0.639285
#
# Coordination Sequence:
#
# PCOD9253920 Si02
#       7
#     8   8   8   8   8   8   8
#     4  10  17  28  46  69  93 117 154 194 233 267
#     4   9  15  26  40  64  99 118 143 189 237 278
#     4   9  18  31  44  65  94 124 152 185 232 280
#     4  10  15  26  43  66  96 110 153 199 233 273
#     4   8  16  26  43  61  91 121 150 192 230 271
#     4   9  17  23  40  67  95 117 147 188 242 273
#     4   9  16  27  43  65  92 118 149 194 229 269
#
# _framework density 26.164261
#
# number of rings (size 3 to 8) (size 9 to 14) (size 15 to 20)
#    0.857    2.000    2.857    0.000    0.000    0.000 
#    0.000    0.714    0.000    0.000    0.000    5.000 
#    0.000    0.000    0.000    0.000    0.000    0.000 
#
# Total GULP energy -155875.302828 kJ/mol
# GULP energy per Si atom -5566.975101 kJ/mol
# Density = 2.610471 g / cm^3
# Si number density = 26.164261 Si / 1000 Ang^3
#
#
#
# Elastic Constant Matrix: (Units=GPa)
#
#
# Indices 1 2 3 4 5 6 
#
# 1 93.4477 12.3132 62.2756 -0.0003 44.7711 -0.0002
# 2 12.3132 61.8697 24.8019 0.0008 11.9854 0.0028
# 3 62.2756 24.8019 143.2342 -0.0008 66.6511 0.0011
# 4 -0.0003 0.0008 -0.0008 18.6046 0.0007 6.2866
# 5 44.7711 11.9854 66.6511 0.0007 56.4289 -0.0015
# 6 -0.0002 0.0028 0.0011 6.2866 -0.0015 24.1344
#
#
#
# Elastic Compliance Matrix: (Units=1/GPa)
#
#
# Indices 1 2 3 4 5 6 
#
# 1 0.017689 -0.000385 -0.002512 0.000001 -0.010986 -0.000001
# 2 -0.000385 0.017379 -0.002812 0.000000 -0.000064 -0.000002
# 3 -0.002512 -0.002812 0.016332 0.000002 -0.016699 -0.000002
# 4 0.000001 0.000000 0.000002 0.058938 -0.000004 -0.015352
# 5 -0.010986 -0.000064 -0.016699 -0.000004 0.046176 0.000005
# 6 -0.000001 -0.000002 -0.000002 -0.015352 0.000005 0.045434
#
#
# Mechanical properties :
#
#
# Convention : Reuss Voigt Hill
#
# Bulk Modulus (GPa) = 25.01171 55.25922 40.13547
# Shear Modulus (GPa) = 22.05621 33.11098 27.58359
#
# Velocity S-wave (km/s) = 2.90658 3.56125 3.25044
# Velocity P-wave (km/s) = 4.56558 6.17057 5.42773
#
# Compressibility (1/GPa) = 0.03998128
#
# Stress axis : x y z
#
# Youngs Moduli (GPa) = 56.53075 57.53953 61.23117
#
# Poissons Ratio (x) = 0.02217 0.15384
# Poissons Ratio (y) = 0.02178 0.17217
# Poissons Ratio (z) = 0.14203 0.16179
#
# Static dielectric constant tensor:
#      x y z
#    x 2.186160 0.000000 0.025870 
#    y 0.000000 2.018210 0.000000 
#    z 0.025870 0.000000 2.151670 
# 
# From -- ./inp_files/218867.got.cif
#   From: 2010.05.17/outbox.cif.g08.bks.cpg/sg15_110_cif.got.tgz:218867.got - 2010.06.03 18:47:42.
