data_PCOD9253422
_publ_section_title
;
Structure prediction by ZEFSAII (Michael W. Deem and Ramdas Pophale) SiO2 
 PCOD9253422
Probable space group: P 21/C
;
_chemical_formula_sum "Si O2"
_cell_formula_units_Z 16
_cell_length_a 9.591468
_cell_length_b 4.979137
_cell_length_c 12.652409
_cell_angle_alpha 90.000000
_cell_angle_beta 69.306217
_cell_angle_gamma 90.000000
_cell_volume 565.259659
_symmetry_space_group_name_H-M "P 21/C"
_symmetry_group_IT_number 14
_symmetry_cell_setting 'monoclinic'
loop_
_space_group_symop_operation_xyz
x,y,z
-x,1/2+y,1/2-z
-x,-y,-z
x,1/2-y,1/2+z
loop_
_atom_site_type_symbol
_atom_site_label
_atom_site_fract_x
_atom_site_fract_y
_atom_site_fract_z
Si Si1 0.155752 0.397185 0.225722
Si Si2 0.432112 0.765605 0.442950
Si Si3 0.347091 0.583165 0.735375
Si Si4 0.115546 0.484780 0.565204
O O1 0.159520 0.306566 0.101556
O O2 0.255907 0.651700 0.229228
O O3 0.012642 0.910835 0.188553
O O4 0.265026 0.850596 0.003683
O O5 0.541810 0.512720 0.387460
O O6 0.500000 0.000000 0.500000
O O7 0.425733 0.894682 0.326397
O O8 0.230463 0.341681 0.772270
O O9 0.000000 0.500000 0.500000
#
# Coordination Sequence:
#
# PCOD9253422 Si02
#       4
#     4   4   4   4
#     4  12  30  59  94 140 194 246 327 400 477 605
#     4  12  32  61 101 141 192 259 323 407 496 579
#     4  12  30  62  91 143 190 246 329 402 480 595
#     4  12  30  61  96 142 192 259 321 400 505 574
#
# _framework density 28.305575000000001
#
# number of rings (size 3 to 8) (size 9 to 14) (size 15 to 20)
#    0.000    0.000    2.500    3.000   10.500    5.000 
#    0.000    0.000    0.000    0.000    0.000    0.000 
#    0.000    0.000    0.000    0.000    0.000    0.000 
#
# Total GULP energy -89863.190189 kJ/mol
# GULP energy per Si atom -5616.449387 kJ/mol
# Density = 2.824115 g / cm^3
# Si number density = 28.305575 Si / 1000 Ang^3
#
#
#
# Elastic Constant Matrix: (Units=GPa)
#
#
# Indices 1 2 3 4 5 6 
#
# 1 264.2273 113.6945 96.1803 0.0000 -4.0932 0.0000
# 2 113.6945 225.3024 65.4211 0.0000 -0.3032 0.0000
# 3 96.1803 65.4211 166.9428 0.0000 6.3498 0.0000
# 4 0.0000 0.0000 0.0000 48.2757 0.0000 -3.2151
# 5 -4.0932 -0.3032 6.3498 0.0000 86.7086 0.0000
# 6 0.0000 0.0000 0.0000 -3.2151 0.0000 60.9449
#
#
#
# Elastic Compliance Matrix: (Units=1/GPa)
#
#
# Indices 1 2 3 4 5 6 
#
# 1 0.005575 -0.002116 -0.002399 0.000000 0.000431 0.000000
# 2 -0.002116 0.005814 -0.001059 0.000000 -0.000002 0.000000
# 3 -0.002399 -0.001059 0.007814 0.000000 -0.000689 0.000000
# 4 0.000000 0.000000 0.000000 0.020787 0.000000 0.001097
# 5 0.000431 -0.000002 -0.000689 0.000000 0.011604 0.000000
# 6 0.000000 0.000000 0.000000 0.001097 0.000000 0.016466
#
#
# Mechanical properties :
#
#
# Convention : Reuss Voigt Hill
#
# Bulk Modulus (GPa) = 124.16479 134.11826 129.14152
# Shear Modulus (GPa) = 61.05514 64.59762 62.82638
#
# Velocity S-wave (km/s) = 4.64939 4.78237 4.71635
# Velocity P-wave (km/s) = 8.53133 8.83062 8.68226
#
# Compressibility (1/GPa) = 0.00805381
#
# Stress axis : x y z
#
# Youngs Moduli (GPa) = 179.36643 172.00192 127.98327
#
# Poissons Ratio (x) = 0.36399 0.30705
# Poissons Ratio (y) = 0.37957 0.13554
# Poissons Ratio (z) = 0.43032 0.18216
#
# Static dielectric constant tensor:
#      x y z
#    x 2.110230 0.000000 0.009020 
#    y 0.000000 2.401040 0.000000 
#    z 0.009020 0.000000 2.334120 
# 
# From -- ./inp_files/27307.got.cif
#   From: 2010.05.17/outbox.cif.g08.bks.cpg/sg14_14_cif.got.tgz:27307.got - 2010.06.03 17:49:19.
