data_PCOD9253172
_publ_section_title
;
Structure prediction by ZEFSAII (Michael W. Deem and Ramdas Pophale) SiO2 
 PCOD9253172
Probable space group: P 21/C
;
_chemical_formula_sum "Si O2"
_cell_formula_units_Z 24
_cell_length_a 9.580310
_cell_length_b 17.217775
_cell_length_c 14.396436
_cell_angle_alpha 90.000000
_cell_angle_beta 26.244850
_cell_angle_gamma 90.000000
_cell_volume 1050.118353
_symmetry_space_group_name_H-M "P 21/C"
_symmetry_group_IT_number 14
_symmetry_cell_setting 'monoclinic'
loop_
_space_group_symop_operation_xyz
x,y,z
-x,1/2+y,1/2-z
-x,-y,-z
x,1/2-y,1/2+z
loop_
_atom_site_type_symbol
_atom_site_label
_atom_site_fract_x
_atom_site_fract_y
_atom_site_fract_z
Si Si1 0.652531 0.536373 0.201846
Si Si2 0.287152 0.482276 0.037956
Si Si3 0.734975 0.924989 0.940564
Si Si4 0.146499 0.667989 0.707611
Si Si5 0.068540 0.304257 0.526565
Si Si6 0.591417 0.297711 0.644325
O O1 0.431457 0.498143 0.410909
O O2 0.645386 0.628765 0.219735
O O3 0.540913 0.515708 0.163813
O O4 0.000000 0.500000 0.000000
O O5 0.000634 0.544124 0.212665
O O6 0.122099 0.397668 0.142505
O O7 0.500000 0.500000 0.000000
O O8 0.893769 0.876363 0.928117
O O9 0.463431 0.873170 0.056343
O O10 0.040611 0.732684 0.843731
O O11 0.222400 0.705853 0.563111
O O12 0.824329 0.315862 0.589769
O O13 0.399616 0.279323 0.283168
#
# Coordination Sequence:
#
# PCOD9253172 Si02
#       6
#     4   4   4   4   4   4
#     4  12  24  47  77 105 147 189 247 300 369 439
#     4  12  26  43  74 109 143 187 245 306 366 435
#     4  12  26  47  75 108 144 192 244 304 366 436
#     4  12  26  50  72 104 150 193 242 300 371 441
#     4  12  28  48  70 108 149 192 245 305 363 442
#     4  12  27  47  74 103 146 196 241 299 371 435
#
# _framework density 22.854568
#
# number of rings (size 3 to 8) (size 9 to 14) (size 15 to 20)
#    0.000    0.000    6.667    2.500    4.667    2.667 
#    0.000    0.000    0.000    0.000    0.000    0.000 
#    0.000    0.000    0.000    0.000    0.000    0.000 
#
# Total GULP energy -134572.461157 kJ/mol
# GULP energy per Si atom -5607.185882 kJ/mol
# Density = 2.280255 g / cm^3
# Si number density = 22.854568 Si / 1000 Ang^3
#
#
#
# Elastic Constant Matrix: (Units=GPa)
#
#
# Indices 1 2 3 4 5 6 
#
# 1 112.7856 -1.8997 22.6562 0.0000 6.0999 0.0000
# 2 -1.8997 31.2299 3.7634 0.0000 15.2875 0.0000
# 3 22.6562 3.7634 50.0779 0.0000 8.2374 0.0000
# 4 0.0000 0.0000 0.0000 24.1111 0.0000 3.3756
# 5 6.0999 15.2875 8.2374 0.0000 35.5687 0.0000
# 6 0.0000 0.0000 0.0000 3.3756 0.0000 40.9019
#
#
#
# Elastic Compliance Matrix: (Units=1/GPa)
#
#
# Indices 1 2 3 4 5 6 
#
# 1 0.009852 0.001846 -0.004353 0.000000 -0.001475 0.000000
# 2 0.001846 0.040900 -0.001003 0.000000 -0.017663 0.000000
# 3 -0.004353 -0.001003 0.022684 0.000000 -0.004076 0.000000
# 4 0.000000 0.000000 0.000000 0.041959 0.000000 -0.003463
# 5 -0.001475 -0.017663 -0.004076 0.000000 0.036903 0.000000
# 6 0.000000 0.000000 0.000000 -0.003463 0.000000 0.024735
#
#
# Mechanical properties :
#
#
# Convention : Reuss Voigt Hill
#
# Bulk Modulus (GPa) = 15.05699 27.01480 21.03589
# Shear Modulus (GPa) = 24.24917 31.42125 27.83521
#
# Velocity S-wave (km/s) = 3.26086 3.71190 3.49367
# Velocity P-wave (km/s) = 4.55852 5.49699 5.04960
#
# Compressibility (1/GPa) = 0.06641435
#
# Stress axis : x y z
#
# Youngs Moduli (GPa) = 101.50535 24.44982 44.08363
#
# Poissons Ratio (x) = -0.04513 0.19191
# Poissons Ratio (y) = -0.18735 0.04423
# Poissons Ratio (z) = 0.44188 0.02453
#
# Static dielectric constant tensor:
#      x y z
#    x 1.853740 0.000000 -0.011110 
#    y 0.000000 1.822470 0.000000 
#    z -0.011110 0.000000 1.828580 
# 
# From -- ./inp_files/58133.got.cif
#   From: 2010.05.17/outbox.cif.g08.bks.cpg/sg14_30_cif.got.tgz:58133.got - 2010.06.03 17:49:19.
