data_PCOD9253316
_publ_section_title
;
Structure prediction by ZEFSAII (Michael W. Deem and Ramdas Pophale) SiO2 
 PCOD9253316
Probable space group: P 21/C
;
_chemical_formula_sum "Si O2"
_cell_formula_units_Z 16
_cell_length_a 13.058117
_cell_length_b 8.410081
_cell_length_c 16.143963
_cell_angle_alpha 90.000000
_cell_angle_beta 22.422342
_cell_angle_gamma 90.000000
_cell_volume 676.249134
_symmetry_space_group_name_H-M "P 21/C"
_symmetry_group_IT_number 14
_symmetry_cell_setting 'monoclinic'
loop_
_space_group_symop_operation_xyz
x,y,z
-x,1/2+y,1/2-z
-x,-y,-z
x,1/2-y,1/2+z
loop_
_atom_site_type_symbol
_atom_site_label
_atom_site_fract_x
_atom_site_fract_y
_atom_site_fract_z
Si Si1 0.790602 0.971339 0.482936
Si Si2 0.814300 0.967860 0.280937
Si Si3 0.265258 0.115113 0.213722
Si Si4 0.268437 0.316589 0.378730
O O1 0.900806 0.007099 0.309613
O O2 0.727048 0.787348 0.542002
O O3 0.516810 0.065981 0.694885
O O4 0.001618 0.010391 0.396922
O O5 0.823580 0.777882 0.266276
O O6 0.003314 0.922289 0.914973
O O7 0.500000 0.000000 0.500000
O O8 0.315768 0.194139 0.266323
O O9 0.500000 0.000000 0.000000
#
# Coordination Sequence:
#
# PCOD9253316 Si02
#       4
#     4   4   4   4
#     4  12  28  46  79 108 159 201 262 320 397 465
#     4  12  26  49  77 109 155 204 261 323 391 468
#     4  12  28  49  78 114 158 202 267 321 396 474
#     4  12  28  49  78 117 153 211 258 327 394 471
#
# _framework density 23.659918999999999
#
# number of rings (size 3 to 8) (size 9 to 14) (size 15 to 20)
#    0.000    0.000    2.500    6.000   14.000    0.000 
#    0.000    0.000    0.000    0.000    0.000    0.000 
#    0.000    0.000    0.000    0.000    0.000    0.000 
#
# Total GULP energy -89326.741738 kJ/mol
# GULP energy per Si atom -5582.921359 kJ/mol
# Density = 2.360607 g / cm^3
# Si number density = 23.659919 Si / 1000 Ang^3
#
#
#
# Elastic Constant Matrix: (Units=GPa)
#
#
# Indices 1 2 3 4 5 6 
#
# 1 93.9836 22.0629 30.6287 0.0000 10.9504 0.0000
# 2 22.0629 136.0992 66.1159 0.0000 23.5780 0.0000
# 3 30.6287 66.1159 140.1737 0.0000 1.1802 0.0000
# 4 0.0000 0.0000 0.0000 60.0047 0.0000 -0.9973
# 5 10.9504 23.5780 1.1802 0.0000 25.7503 0.0000
# 6 0.0000 0.0000 0.0000 -0.9973 0.0000 50.8504
#
#
#
# Elastic Compliance Matrix: (Units=1/GPa)
#
#
# Indices 1 2 3 4 5 6 
#
# 1 0.012077 0.000279 -0.002726 0.000000 -0.005266 0.000000
# 2 0.000279 0.011865 -0.005567 0.000000 -0.010728 0.000000
# 3 -0.002726 -0.005567 0.010307 0.000000 0.005784 0.000000
# 4 0.000000 0.000000 0.000000 0.016671 0.000000 0.000327
# 5 -0.005266 -0.010728 0.005784 0.000000 0.050632 0.000000
# 6 0.000000 0.000000 0.000000 0.000327 0.000000 0.019672
#
#
# Mechanical properties :
#
#
# Convention : Reuss Voigt Hill
#
# Bulk Modulus (GPa) = 54.88420 67.54127 61.21273
# Shear Modulus (GPa) = 34.88572 44.08434 39.48503
#
# Velocity S-wave (km/s) = 3.84404 4.32122 4.08960
# Velocity P-wave (km/s) = 6.55360 7.31478 6.94463
#
# Compressibility (1/GPa) = 0.01822018
#
# Stress axis : x y z
#
# Youngs Moduli (GPa) = 82.80445 84.27905 97.02327
#
# Poissons Ratio (x) = -0.02350 0.26448
# Poissons Ratio (y) = -0.02309 0.54014
# Poissons Ratio (z) = 0.22572 0.46919
#
# Static dielectric constant tensor:
#      x y z
#    x 1.775160 0.000000 0.521920 
#    y 0.000000 2.796570 0.000000 
#    z 0.521920 0.000000 0.605630 
# 
# From -- ./inp_files/22630.got.cif
#   From: 2010.05.17/outbox.cif.g08.bks.cpg/sg14_12_cif.got.tgz:22630.got - 2010.06.03 17:49:19.
