data_PCOD9253379
_publ_section_title
;
Structure prediction by ZEFSAII (Michael W. Deem and Ramdas Pophale) SiO2 
 PCOD9253379
Probable space group: P 21/C
;
_chemical_formula_sum "Si O2"
_cell_formula_units_Z 16
_cell_length_a 10.142375
_cell_length_b 4.966899
_cell_length_c 29.989818
_cell_angle_alpha 90.000000
_cell_angle_beta 156.329527
_cell_angle_gamma 90.000000
_cell_volume 606.538316
_symmetry_space_group_name_H-M "P 21/C"
_symmetry_group_IT_number 14
_symmetry_cell_setting 'monoclinic'
loop_
_space_group_symop_operation_xyz
x,y,z
-x,1/2+y,1/2-z
-x,-y,-z
x,1/2-y,1/2+z
loop_
_atom_site_type_symbol
_atom_site_label
_atom_site_fract_x
_atom_site_fract_y
_atom_site_fract_z
Si Si1 0.398952 0.201216 0.243912
Si Si2 0.299569 0.530199 0.984455
Si Si3 0.225319 0.796523 0.814726
Si Si4 0.674365 0.347223 0.413609
O O1 0.630912 0.421073 0.291288
O O2 0.582219 0.135819 0.346866
O O3 0.055656 0.360087 0.140197
O O4 0.500000 0.500000 0.000000
O O5 0.458286 0.264638 0.056696
O O6 0.335283 0.717858 0.040434
O O7 0.019462 0.526193 0.742324
O O8 0.379676 0.937104 0.819922
O O9 0.000000 0.500000 0.500000
#
# Coordination Sequence:
#
# PCOD9253379 Si02
#       4
#     4   4   4   4
#     4  12  29  51  82 124 166 220 288 352 434 522
#     4  12  29  52  83 122 168 225 291 356 438 523
#     4  12  27  52  82 119 168 222 281 356 437 509
#     4  12  27  54  84 120 173 225 286 365 439 521
#
# _framework density 26.379206
#
# number of rings (size 3 to 8) (size 9 to 14) (size 15 to 20)
#    0.000    0.000    5.000    3.000    3.500    3.000 
#    0.000    0.000    0.000    0.000    0.000    0.000 
#    0.000    0.000    0.000    0.000    0.000    0.000 
#
# Total GULP energy -89226.057992 kJ/mol
# GULP energy per Si atom -5576.628625 kJ/mol
# Density = 2.631917 g / cm^3
# Si number density = 26.379206 Si / 1000 Ang^3
#
#
#
# Elastic Constant Matrix: (Units=GPa)
#
#
# Indices 1 2 3 4 5 6 
#
# 1 142.4163 69.1947 56.9147 -0.0431 -15.2595 -0.1522
# 2 69.1947 122.6937 12.7180 -0.1542 -12.2477 0.0489
# 3 56.9147 12.7180 100.2460 2.7241 -24.0103 0.5015
# 4 -0.0431 -0.1542 2.7241 19.0282 -0.9743 -9.4009
# 5 -15.2595 -12.2477 -24.0103 -0.9743 62.8816 -0.3118
# 6 -0.1522 0.0489 0.5015 -9.4009 -0.3118 40.9155
#
#
#
# Elastic Compliance Matrix: (Units=1/GPa)
#
#
# Indices 1 2 3 4 5 6 
#
# 1 0.012806 -0.006602 -0.006629 0.001076 -0.000691 0.000379
# 2 -0.006602 0.011767 0.002672 -0.000275 0.001705 -0.000122
# 3 -0.006629 0.002672 0.014521 -0.002178 0.004419 -0.000673
# 4 0.001076 -0.000275 -0.002178 0.059675 0.000369 0.013745
# 5 -0.000691 0.001705 0.004419 0.000369 0.017761 0.000161
# 6 0.000379 -0.000122 -0.000673 0.013745 0.000161 0.027610
#
#
# Mechanical properties :
#
#
# Convention : Reuss Voigt Hill
#
# Bulk Modulus (GPa) = 55.63475 71.44564 63.54019
# Shear Modulus (GPa) = 29.19689 39.66697 34.43193
#
# Velocity S-wave (km/s) = 3.33049 3.88199 3.61677
# Velocity P-wave (km/s) = 5.99381 6.87285 6.44832
#
# Compressibility (1/GPa) = 0.01797438
#
# Stress axis : x y z
#
# Youngs Moduli (GPa) = 78.09081 84.98444 68.86397
#
# Poissons Ratio (x) = 0.56111 0.45653
# Poissons Ratio (y) = 0.51559 -0.18402
# Poissons Ratio (z) = 0.51770 -0.22710
#
# Static dielectric constant tensor:
#      x y z
#    x 2.230640 -0.001660 -0.057940 
#    y -0.001660 2.099640 0.001300 
#    z -0.057940 0.001300 2.155900 
# 
# From -- ./inp_files/67608.got.cif
#   From: 2010.05.17/outbox.cif.g08.bks.cpg/sg14_34_cif.got.tgz:67608.got - 2010.06.03 17:49:19.
