data_PCOD9253391
_publ_section_title
;
Structure prediction by ZEFSAII (Michael W. Deem and Ramdas Pophale) SiO2 
 PCOD9253391
Probable space group: P 21/C
;
_chemical_formula_sum "Si O2"
_cell_formula_units_Z 12
_cell_length_a 7.764749
_cell_length_b 13.238378
_cell_length_c 6.952451
_cell_angle_alpha 90.000000
_cell_angle_beta 141.461307
_cell_angle_gamma 90.000000
_cell_volume 445.264592
_symmetry_space_group_name_H-M "P 21/C"
_symmetry_group_IT_number 14
_symmetry_cell_setting 'monoclinic'
loop_
_space_group_symop_operation_xyz
x,y,z
-x,1/2+y,1/2-z
-x,-y,-z
x,1/2-y,1/2+z
loop_
_atom_site_type_symbol
_atom_site_label
_atom_site_fract_x
_atom_site_fract_y
_atom_site_fract_z
Si Si1 0.184646 0.400844 0.688369
Si Si2 0.406275 0.906375 0.786415
Si Si3 0.154646 0.319638 0.088977
O O1 0.464702 0.416012 0.811268
O O2 0.209945 0.373985 0.935075
O O3 0.058783 0.296300 0.491579
O O4 0.000000 0.500000 0.500000
O O5 0.084973 0.884244 0.518890
O O6 0.569515 0.817574 0.041578
O O7 0.500000 0.000000 0.000000
#
# Coordination Sequence:
#
# PCOD9253391 Si02
#       3
#     4   4   4
#     4  12  28  50  82 114 154 207 254 317 385 453
#     4  12  28  50  79 114 155 200 261 314 383 457
#     4  12  29  50  75 116 156 200 255 318 380 457
#
# _framework density 26.950268000000001
#
# number of rings (size 3 to 8) (size 9 to 14) (size 15 to 20)
#    0.000    0.000    6.667    1.000    4.667    4.000 
#    0.000    0.000    0.000    0.000    0.000    0.000 
#    0.000    0.000    0.000    0.000    0.000    0.000 
#
# Total GULP energy -67372.293180 kJ/mol
# GULP energy per Si atom -5614.357765 kJ/mol
# Density = 2.688893 g / cm^3
# Si number density = 26.950268 Si / 1000 Ang^3
#
#
#
# Elastic Constant Matrix: (Units=GPa)
#
#
# Indices 1 2 3 4 5 6 
#
# 1 260.8951 37.6761 49.6800 0.0000 -17.6952 0.0000
# 2 37.6761 160.2687 11.6546 0.0000 3.4302 0.0000
# 3 49.6800 11.6546 95.2566 0.0000 -10.9108 0.0000
# 4 0.0000 0.0000 0.0000 47.5771 0.0000 -3.3949
# 5 -17.6952 3.4302 -10.9108 0.0000 51.8696 0.0000
# 6 0.0000 0.0000 0.0000 -3.3949 0.0000 54.6535
#
#
#
# Elastic Compliance Matrix: (Units=1/GPa)
#
#
# Indices 1 2 3 4 5 6 
#
# 1 0.004437 -0.000917 -0.002072 0.000000 0.001139 0.000000
# 2 -0.000917 0.006503 -0.000412 0.000000 -0.000830 0.000000
# 3 -0.002072 -0.000412 0.011836 0.000000 0.001810 0.000000
# 4 0.000000 0.000000 0.000000 0.021112 0.000000 0.001311
# 5 0.001139 -0.000830 0.001810 0.000000 0.020103 0.000000
# 6 0.000000 0.000000 0.000000 0.001311 0.000000 0.018379
#
#
# Mechanical properties :
#
#
# Convention : Reuss Voigt Hill
#
# Bulk Modulus (GPa) = 62.60010 79.38241 70.99125
# Shear Modulus (GPa) = 52.91219 58.64736 55.77977
#
# Velocity S-wave (km/s) = 4.43575 4.66996 4.55436
# Velocity P-wave (km/s) = 7.03654 7.65488 7.35222
#
# Compressibility (1/GPa) = 0.01597442
#
# Stress axis : x y z
#
# Youngs Moduli (GPa) = 225.37571 153.78002 84.48686
#
# Poissons Ratio (x) = 0.14098 0.17501
# Poissons Ratio (y) = 0.20662 0.03485
# Poissons Ratio (z) = 0.46687 0.06343
#
# Static dielectric constant tensor:
#      x y z
#    x 2.039700 0.000000 -0.034780 
#    y 0.000000 2.250560 0.000000 
#    z -0.034780 0.000000 2.085840 
# 
# From -- ./inp_files/4747.got.cif
#   From: 2010.05.17/outbox.cif.g08.bks.cpg/sg14_3_cif.got.tgz:4747.got - 2010.06.03 17:49:19.
