data_PCOD9253416
_publ_section_title
;
Structure prediction by ZEFSAII (Michael W. Deem and Ramdas Pophale) SiO2 
 PCOD9253416
Probable space group: P 21/C
;
_chemical_formula_sum "Si O2"
_cell_formula_units_Z 16
_cell_length_a 4.854065
_cell_length_b 19.450137
_cell_length_c 6.691951
_cell_angle_alpha 90.000000
_cell_angle_beta 114.408846
_cell_angle_gamma 90.000000
_cell_volume 575.331466
_symmetry_space_group_name_H-M "P 21/C"
_symmetry_group_IT_number 14
_symmetry_cell_setting 'monoclinic'
loop_
_space_group_symop_operation_xyz
x,y,z
-x,1/2+y,1/2-z
-x,-y,-z
x,1/2-y,1/2+z
loop_
_atom_site_type_symbol
_atom_site_label
_atom_site_fract_x
_atom_site_fract_y
_atom_site_fract_z
Si Si1 0.675454 0.011578 0.777308
Si Si2 0.540131 0.131212 0.231833
Si Si3 0.102832 0.300472 0.914820
Si Si4 0.324748 0.826231 0.167469
O O1 0.676370 0.093631 0.780477
O O2 0.500000 0.000000 0.500000
O O3 0.493165 0.948868 0.826190
O O4 0.000000 0.000000 0.000000
O O5 0.255643 0.157897 0.274236
O O6 0.379823 0.294738 0.146201
O O7 0.851581 0.149066 0.436753
O O8 0.612829 0.328857 0.550104
O O9 0.942854 0.226086 0.856252
#
# Coordination Sequence:
#
# PCOD9253416 Si02
#       4
#     4   4   4   4
#     4  12  29  59  99 140 193 253 327 401 482 579
#     4  12  31  58  93 133 187 250 317 391 487 567
#     4  12  33  55  91 137 184 248 321 396 478 586
#     4  12  32  57  96 136 195 248 325 395 493 570
#
# _framework density 27.810054999999998
#
# number of rings (size 3 to 8) (size 9 to 14) (size 15 to 20)
#    0.000    0.000    2.500    2.250   14.000    5.000 
#    0.000    0.000    0.000    0.000    0.000    0.000 
#    0.000    0.000    0.000    0.000    0.000    0.000 
#
# Total GULP energy -89208.951511 kJ/mol
# GULP energy per Si atom -5575.559469 kJ/mol
# Density = 2.774676 g / cm^3
# Si number density = 27.810055 Si / 1000 Ang^3
#
#
#
# Elastic Constant Matrix: (Units=GPa)
#
#
# Indices 1 2 3 4 5 6 
#
# 1 191.7027 107.0893 53.8251 0.0000 19.9624 0.0000
# 2 107.0893 275.4333 63.2708 0.0000 9.3706 0.0000
# 3 53.8251 63.2708 168.4728 0.0000 28.5596 0.0000
# 4 0.0000 0.0000 0.0000 50.9856 0.0000 -9.9935
# 5 19.9624 9.3706 28.5596 0.0000 63.2418 0.0000
# 6 0.0000 0.0000 0.0000 -9.9935 0.0000 43.0983
#
#
#
# Elastic Compliance Matrix: (Units=1/GPa)
#
#
# Indices 1 2 3 4 5 6 
#
# 1 0.007026 -0.002433 -0.001101 0.000000 -0.001360 0.000000
# 2 -0.002433 0.004816 -0.001127 0.000000 0.000563 0.000000
# 3 -0.001101 -0.001127 0.007172 0.000000 -0.002725 0.000000
# 4 0.000000 0.000000 0.000000 0.020547 0.000000 0.004764
# 5 -0.001360 0.000563 -0.002725 0.000000 0.017389 0.000000
# 6 0.000000 0.000000 0.000000 0.004764 0.000000 0.024308
#
#
# Mechanical properties :
#
#
# Convention : Reuss Voigt Hill
#
# Bulk Modulus (GPa) = 103.15417 120.44214 111.79815
# Shear Modulus (GPa) = 53.29930 58.89338 56.09634
#
# Velocity S-wave (km/s) = 4.38259 4.60684 4.49611
# Velocity P-wave (km/s) = 7.92353 8.46760 8.20008
#
# Compressibility (1/GPa) = 0.00969423
#
# Stress axis : x y z
#
# Youngs Moduli (GPa) = 142.32865 207.63290 139.42291
#
# Poissons Ratio (x) = 0.50510 0.15344
# Poissons Ratio (y) = 0.34623 0.15713
# Poissons Ratio (z) = 0.15664 0.23401
#
# Static dielectric constant tensor:
#      x y z
#    x 2.254240 0.000000 -0.132790 
#    y 0.000000 2.459300 0.000000 
#    z -0.132790 0.000000 2.515520 
# 
# From -- ./inp_files/5168.got.cif
#   From: 2010.05.17/outbox.cif.g08.bks.cpg/sg14_3_cif.got.tgz:5168.got - 2010.06.03 17:49:19.
