data_PCOD9253330
_publ_section_title
;
Structure prediction by ZEFSAII (Michael W. Deem and Ramdas Pophale) SiO2 
 PCOD9253330
Probable space group: P 21/C
;
_chemical_formula_sum "Si O2"
_cell_formula_units_Z 16
_cell_length_a 8.593883
_cell_length_b 15.281896
_cell_length_c 10.063773
_cell_angle_alpha 90.000000
_cell_angle_beta 150.586398
_cell_angle_gamma 90.000000
_cell_volume 649.092792
_symmetry_space_group_name_H-M "P 21/C"
_symmetry_group_IT_number 14
_symmetry_cell_setting 'monoclinic'
loop_
_space_group_symop_operation_xyz
x,y,z
-x,1/2+y,1/2-z
-x,-y,-z
x,1/2-y,1/2+z
loop_
_atom_site_type_symbol
_atom_site_label
_atom_site_fract_x
_atom_site_fract_y
_atom_site_fract_z
Si Si1 0.367557 0.990210 0.752456
Si Si2 0.681650 0.057998 0.741222
Si Si3 0.120391 0.814843 0.494304
Si Si4 0.400063 0.747745 0.448217
O O1 0.349836 0.900420 0.653712
O O2 0.524115 0.058391 0.769351
O O3 0.000000 0.000000 0.500000
O O4 0.500000 0.000000 0.000000
O O5 0.660488 0.155067 0.660877
O O6 0.500000 0.000000 0.500000
O O7 0.000000 0.000000 0.000000
O O8 0.299583 0.751070 0.526023
O O9 0.747525 0.796543 0.185964
O O10 0.149352 0.804391 0.673588
#
# Coordination Sequence:
#
# PCOD9253330 Si02
#       4
#     4   4   4   4
#     4  12  28  48  77 110 151 195 258 314 372 449
#     4  12  26  50  77 106 147 203 253 310 373 449
#     4  12  28  49  73 111 151 200 248 313 379 455
#     4  12  28  48  77 107 155 199 252 311 385 451
#
# _framework density 24.649788999999998
#
# number of rings (size 3 to 8) (size 9 to 14) (size 15 to 20)
#    0.000    0.000    2.500    6.000   14.000    0.000 
#    0.000    0.000    0.000    0.000    0.000    0.000 
#    0.000    0.000    0.000    0.000    0.000    0.000 
#
# Total GULP energy -89098.385881 kJ/mol
# GULP energy per Si atom -5568.649118 kJ/mol
# Density = 2.459369 g / cm^3
# Si number density = 24.649789 Si / 1000 Ang^3
#
#
#
# Elastic Constant Matrix: (Units=GPa)
#
#
# Indices 1 2 3 4 5 6 
#
# 1 127.6440 2.8793 46.8290 0.0000 -14.1818 0.0000
# 2 2.8793 91.9380 44.6297 0.0000 -0.9439 0.0000
# 3 46.8290 44.6297 215.8530 0.0000 6.5057 0.0000
# 4 0.0000 0.0000 0.0000 48.7402 0.0000 -5.6114
# 5 -14.1818 -0.9439 6.5057 0.0000 47.6298 0.0000
# 6 0.0000 0.0000 0.0000 -5.6114 0.0000 28.7634
#
#
#
# Elastic Compliance Matrix: (Units=1/GPa)
#
#
# Indices 1 2 3 4 5 6 
#
# 1 0.008955 0.000819 -0.002202 0.000000 0.002983 0.000000
# 2 0.000819 0.012181 -0.002722 0.000000 0.000857 0.000000
# 3 -0.002202 -0.002722 0.005718 0.000000 -0.001491 0.000000
# 4 0.000000 0.000000 0.000000 0.020988 0.000000 0.004095
# 5 0.002983 0.000857 -0.001491 0.000000 0.022104 0.000000
# 6 0.000000 0.000000 0.000000 0.004095 0.000000 0.035565
#
#
# Mechanical properties :
#
#
# Convention : Reuss Voigt Hill
#
# Bulk Modulus (GPa) = 53.63468 69.34569 61.49018
# Shear Modulus (GPa) = 41.68828 47.76649 44.72739
#
# Velocity S-wave (km/s) = 4.11691 4.40683 4.26433
# Velocity P-wave (km/s) = 6.66367 7.35438 7.01753
#
# Compressibility (1/GPa) = 0.01864465
#
# Stress axis : x y z
#
# Youngs Moduli (GPa) = 111.66737 82.09188 174.87746
#
# Poissons Ratio (x) = -0.06724 0.38510
# Poissons Ratio (y) = -0.09147 0.47605
# Poissons Ratio (z) = 0.24590 0.22347
#
# Static dielectric constant tensor:
#      x y z
#    x 1.932850 0.000000 0.033440 
#    y 0.000000 2.141460 0.000000 
#    z 0.033440 0.000000 1.880760 
# 
# From -- ./inp_files/9297.got.cif
#   From: 2010.05.17/outbox.cif.g08.bks.cpg/sg14_5_cif.got.tgz:9297.got - 2010.06.03 17:49:19.
