data_PCOD9253477
_publ_section_title
;
Structure prediction by ZEFSAII (Michael W. Deem and Ramdas Pophale) SiO2 
 PCOD9253477
Probable space group: P 21/C
;
_chemical_formula_sum "Si O2"
_cell_formula_units_Z 30
_cell_length_a 30.000000
_cell_length_b 12.000000
_cell_length_c 24.000000
_cell_angle_alpha 90.000000
_cell_angle_beta 10.000000
_cell_angle_gamma 90.000000
_cell_volume 1500.320255
_symmetry_space_group_name_H-M "P 21/C"
_symmetry_group_IT_number 14
_symmetry_cell_setting 'monoclinic'
loop_
_space_group_symop_operation_xyz
x,y,z
-x,1/2+y,1/2-z
-x,-y,-z
x,1/2-y,1/2+z
loop_
_atom_site_type_symbol
_atom_site_label
_atom_site_fract_x
_atom_site_fract_y
_atom_site_fract_z
Si Si1 0.564196 0.745075 0.384157
Si Si2 0.500000 0.000000 0.500000
Si Si3 0.623614 0.597110 0.653470
Si Si4 0.432902 0.611565 0.200964
Si Si5 0.735962 0.816823 0.790392
Si Si6 0.505625 0.953252 0.175031
Si Si7 0.333602 0.810884 0.053595
Si Si8 0.038762 0.698220 0.223297
O O1 0.480056 0.870118 0.502735
O O2 0.589375 0.679757 0.411482
O O3 0.384956 0.694966 0.556761
O O4 0.840346 0.757364 0.013679
O O5 0.398980 0.959468 0.686728
O O6 0.541294 0.478736 0.781603
O O7 0.641712 0.582780 0.564942
O O8 0.880493 0.639438 0.368351
O O9 0.421843 0.694193 0.918001
O O10 0.205459 0.698269 0.495142
O O11 0.674510 0.693980 0.892019
O O12 0.035152 0.830119 0.410638
O O13 0.643051 0.904783 0.950648
O O14 0.228848 0.893751 0.515183
O O15 0.505407 0.086457 0.169824
#
# Coordination Sequence:
#
# PCOD9253477 Si02
#       8
#     4   2   4   4   4   4   4   4
#     4  10  22  40  67  92 132 169 220 271 321 397
#     4  10  18  42  62  94 128 158 222 270 312 386
#     4  11  25  43  66  98 129 173 219 273 326 396
#     4  10  22  42  66  95 131 167 219 274 328 389
#     4  10  24  42  63  95 131 172 213 272 325 389
#     4  11  26  41  65  98 132 172 220 268 333 398
#     4  11  24  43  65  97 127 174 220 261 337 390
#     4  10  23  43  66  95 130 180 217 272 340 382
#
# _framework density 19.995730999999999
#
# number of rings (size 3 to 8) (size 9 to 14) (size 15 to 20)
#    0.000    1.600    2.667    1.200    9.333    4.267 
#    2.400    0.000    0.000    0.000    0.000    0.000 
#    0.000    0.000    0.000    0.000    0.000    0.000 
#
# Total GULP energy -167060.786245 kJ/mol
# GULP energy per Si atom -5568.692875 kJ/mol
# Density = 1.995022 g / cm^3
# Si number density = 19.995731 Si / 1000 Ang^3
#
#
#
# Elastic Constant Matrix: (Units=GPa)
#
#
# Indices 1 2 3 4 5 6 
#
# 1 136.4015 24.8296 -6.4237 0.0000 10.6738 0.0000
# 2 24.8296 42.5295 -17.3634 0.0000 0.5019 0.0000
# 3 -6.4237 -17.3634 3.1090 0.0000 -4.7431 0.0000
# 4 0.0000 0.0000 0.0000 18.6593 0.0000 7.3884
# 5 10.6738 0.5019 -4.7431 0.0000 17.4768 0.0000
# 6 0.0000 0.0000 0.0000 7.3884 0.0000 30.2775
#
#
#
# Elastic Compliance Matrix: (Units=1/GPa)
#
#
# Indices 1 2 3 4 5 6 
#
# 1 0.008084 -0.000593 0.010045 0.000000 -0.002194 0.000000
# 2 -0.000593 -0.008263 -0.079284 0.000000 -0.020918 0.000000
# 3 0.010045 -0.079284 -0.181367 0.000000 -0.053079 0.000000
# 4 0.000000 0.000000 0.000000 0.059325 0.000000 -0.014476
# 5 -0.002194 -0.020918 -0.053079 0.000000 0.044754 0.000000
# 6 0.000000 0.000000 0.000000 -0.014476 0.000000 0.036560
#
#
# Mechanical properties :
#
#
# Convention : Reuss Voigt Hill
#
# Bulk Modulus (GPa) = -3.11323 20.45834 8.67256
# Shear Modulus (GPa) = -601.50181 25.34925 -288.07628
#
# Velocity S-wave (km/s) = -17.36284 3.56439 -12.01589
# Velocity P-wave (km/s) = 20.08775 5.21473 13.71722
#
# Compressibility (1/GPa) = -0.32121015
#
# Stress axis : x y z
#
# Youngs Moduli (GPa) = 123.70209 -121.01935 -5.51369
#
# Poissons Ratio (x) = -0.07173 0.05538
# Poissons Ratio (y) = 0.07332 -0.43715
# Poissons Ratio (z) = -1.24255 -9.59490
#
# Static dielectric constant tensor:
#      x y z
#    x 1.706210 0.000000 -0.002410 
#    y 0.000000 1.693670 0.000000 
#    z -0.002410 0.000000 1.713360 
# 
# From -- ./inp_files/75324.got.cif
#   From: 2010.05.17/outbox.ucp.g08.bks.cvg/sg14_38_cif.got.tgz:75324.got - 2010.06.11 12:31:08.
