data_PCOD9253887
_publ_section_title
;
Structure prediction by ZEFSAII (Michael W. Deem and Ramdas Pophale) SiO2 
 PCOD9253887
Probable space group: C 2/C
;
_chemical_formula_sum "Si O2"
_cell_formula_units_Z 64
_cell_length_a 6.995248
_cell_length_b 28.565569
_cell_length_c 21.477074
_cell_angle_alpha 90.000000
_cell_angle_beta 141.692620
_cell_angle_gamma 90.000000
_cell_volume 2660.288948
_symmetry_space_group_name_H-M "C 2/C"
_symmetry_group_IT_number 15
_symmetry_cell_setting 'monoclinic'
loop_
_space_group_symop_operation_xyz
x,y,z
-x,y,1/2-z
-x,-y,-z
x,-y,1/2+z
1/2+x,1/2+y,z
1/2-x,1/2+y,1/2-z
1/2-x,1/2-y,-z
1/2+x,1/2-y,1/2+z
loop_
_atom_site_type_symbol
_atom_site_label
_atom_site_fract_x
_atom_site_fract_y
_atom_site_fract_z
Si Si1 0.647562 0.703856 0.940291
Si Si2 0.493666 0.959579 0.378565
Si Si3 0.727940 0.685053 0.757241
Si Si4 0.809163 0.559649 0.286944
Si Si5 0.814279 0.607828 0.025580
Si Si6 0.685989 0.194289 0.978717
Si Si7 0.890048 0.097397 0.074689
Si Si8 0.940016 0.920724 0.323621
O O1 0.330198 0.710927 0.822169
O O2 0.902215 0.690860 0.953861
O O3 0.750000 0.750000 0.000000
O O4 0.672177 0.659280 0.990157
O O5 0.771293 0.934747 0.486544
O O6 0.205958 0.947827 0.352389
O O7 0.383256 0.938417 0.284722
O O8 0.492194 0.013641 0.358559
O O9 0.500000 0.707496 0.750000
O O10 0.592556 0.633524 0.705794
O O11 0.048863 0.683000 0.875135
O O12 0.500000 0.558843 0.250000
O O13 0.668461 0.571425 0.182875
O O14 0.043108 0.598716 0.370895
O O15 0.105200 0.600464 0.052247
O O16 0.551760 0.577314 0.923269
O O17 0.750000 0.250000 0.000000
O O18 0.911897 0.152041 0.058299
#
# Coordination Sequence:
#
# PCOD9253887 Si02
#       8
#     8   8   8   8   8   8   8   8
#     4   9  18  32  50  68  91 125 166 202 237 283
#     4  10  15  22  38  57  82 119 159 181 217 276
#     4   9  14  28  46  63  85 124 168 191 229 279
#     4  10  18  23  34  59  92 126 145 178 243 295
#     4   8  17  26  38  56  86 117 150 187 235 271
#     4  10  19  32  49  70  94 130 162 199 245 287
#     4   9  18  28  37  58  91 122 152 190 234 285
#     4   9  13  23  38  55  76 114 161 190 200 263
#
# _framework density 24.057537
#
# number of rings (size 3 to 8) (size 9 to 14) (size 15 to 20)
#    0.000    2.750    3.750    1.500    1.750    2.500 
#    0.000    1.875    0.000    0.000    0.000    0.000 
#    0.000    1.000    8.500    0.500    0.000    0.000 
#
# Total GULP energy -178227.906126 kJ/mol
# GULP energy per Si atom -5569.622066 kJ/mol
# Density = 2.400278 g / cm^3
# Si number density = 24.057537 Si / 1000 Ang^3
#
#
#
# Elastic Constant Matrix: (Units=GPa)
#
#
# Indices 1 2 3 4 5 6 
#
# 1 71.8303 6.4188 24.3567 0.0000 -2.4341 0.0000
# 2 6.4188 120.4322 79.6197 0.0000 1.7158 0.0000
# 3 24.3567 79.6197 206.6329 -0.0001 -21.8983 -0.0001
# 4 0.0000 0.0000 -0.0001 34.4596 0.0000 -7.9995
# 5 -2.4341 1.7158 -21.8983 0.0000 38.2795 0.0000
# 6 0.0000 0.0000 -0.0001 -7.9995 0.0000 2.9679
#
#
#
# Elastic Compliance Matrix: (Units=1/GPa)
#
#
# Indices 1 2 3 4 5 6 
#
# 1 0.014523 0.000503 -0.001927 0.000000 -0.000201 0.000000
# 2 0.000503 0.011527 -0.004846 0.000000 -0.003257 0.000000
# 3 -0.001927 -0.004846 0.007392 0.000000 0.004323 0.000001
# 4 0.000000 0.000000 0.000000 0.077528 0.000000 0.208961
# 5 -0.000201 -0.003257 0.004323 0.000000 0.028730 0.000001
# 6 0.000000 0.000000 0.000001 0.208961 0.000001 0.900145
#
#
# Mechanical properties :
#
#
# Convention : Reuss Voigt Hill
#
# Bulk Modulus (GPa) = 47.84253 68.85398 58.34826
# Shear Modulus (GPa) = 4.71987 34.37475 19.54731
#
# Velocity S-wave (km/s) = 1.40220 3.78412 2.85357
# Velocity P-wave (km/s) = 4.74884 6.91198 5.92988
#
# Compressibility (1/GPa) = 0.02090190
#
# Stress axis : x y z
#
# Youngs Moduli (GPa) = 68.85456 86.75489 135.28070
#
# Poissons Ratio (x) = -0.04362 0.26069
# Poissons Ratio (y) = -0.03462 0.65556
# Poissons Ratio (z) = 0.13268 0.42040
#
# Static dielectric constant tensor:
#      x y z
#    x 1.973250 0.000000 -0.026570 
#    y 0.000000 2.203740 0.000000 
#    z -0.026570 0.000000 1.986510 
# 
# From -- ./inp_files/293929.got.cif
#   From: 2010.05.17/outbox.cif.g08.bks.cpg/sg15_147_cif.got.tgz:293929.got - 2010.06.03 18:47:42.
