data_PCOD9253556
_publ_section_title
;
Structure prediction by ZEFSAII (Michael W. Deem and Ramdas Pophale) SiO2 
 PCOD9253556
Probable space group: P 21/C
;
_chemical_formula_sum "Si O2"
_cell_formula_units_Z 32
_cell_length_a 12.000000
_cell_length_b 9.000000
_cell_length_c 24.000000
_cell_angle_alpha 90.000000
_cell_angle_beta 40.000000
_cell_angle_gamma 90.000000
_cell_volume 1666.105484
_symmetry_space_group_name_H-M "P 21/C"
_symmetry_group_IT_number 14
_symmetry_cell_setting 'monoclinic'
loop_
_space_group_symop_operation_xyz
x,y,z
-x,1/2+y,1/2-z
-x,-y,-z
x,1/2-y,1/2+z
loop_
_atom_site_type_symbol
_atom_site_label
_atom_site_fract_x
_atom_site_fract_y
_atom_site_fract_z
Si Si1 0.939216 0.287680 0.238717
Si Si2 0.097380 0.169199 0.556184
Si Si3 0.448819 0.053537 0.380038
Si Si4 0.773895 0.509511 0.143323
Si Si5 0.778553 0.519776 0.542201
Si Si6 0.819963 0.949617 0.265309
Si Si7 0.105458 0.351259 0.389758
Si Si8 0.595478 0.387599 0.323005
O O1 0.752668 0.374353 0.307545
O O2 0.028895 0.322739 0.145140
O O3 0.072868 0.336849 0.235846
O O4 0.890657 0.112886 0.255974
O O5 0.280469 0.083056 0.482970
O O6 0.132206 0.334381 0.519551
O O7 0.949274 0.089585 0.575774
O O8 0.358462 0.994039 0.357906
O O9 0.531315 0.217615 0.336808
O O10 0.607998 0.960104 0.345621
O O11 0.833319 0.681554 0.126179
O O12 0.675178 0.457341 0.236735
O O13 0.790004 0.551829 0.604153
O O14 0.580522 0.520892 0.597034
O O15 0.902179 0.381335 0.480953
O O16 0.862289 0.908902 0.184988
#
# Coordination Sequence:
#
# PCOD9253556 Si02
#       8
#     4   4   4   4   4   4   4   4
#     4  10  23  41  64  81 123 168 213 254 301 361
#     4  10  20  40  64  89 129 163 198 258 316 360
#     4  10  21  38  62  91 121 161 206 253 316 369
#     4  11  21  36  61  98 127 154 202 258 315 378
#     4  10  20  41  64  91 125 165 201 253 326 373
#     4  11  24  42  62  88 120 172 212 253 307 364
#     4  11  22  37  63  92 126 158 203 252 317 381
#     4   9  20  39  59  86 124 162 200 255 306 365
#
# _framework density 19.206467
#
# number of rings (size 3 to 8) (size 9 to 14) (size 15 to 20)
#    0.000    1.750    3.750    1.125    3.500    0.500 
#    2.250    0.625    0.000    0.000    0.000    0.000 
#    0.000    0.000    0.000    0.000    0.000    0.000 
#
# Total GULP energy -178624.706602 kJ/mol
# GULP energy per Si atom -5582.022081 kJ/mol
# Density = 1.916275 g / cm^3
# Si number density = 19.206467 Si / 1000 Ang^3
#
#
#
# Elastic Constant Matrix: (Units=GPa)
#
#
# Indices 1 2 3 4 5 6 
#
# 1 145.6883 26.6128 40.5529 0.0000 -22.3760 0.0000
# 2 26.6128 37.1960 20.3524 0.0000 -14.2509 0.0000
# 3 40.5529 20.3524 77.0956 0.0000 -24.0963 0.0000
# 4 0.0000 0.0000 0.0000 29.4841 0.0000 -6.8032
# 5 -22.3760 -14.2509 -24.0963 0.0000 40.3127 0.0000
# 6 0.0000 0.0000 0.0000 -6.8032 0.0000 35.7881
#
#
#
# Elastic Compliance Matrix: (Units=1/GPa)
#
#
# Indices 1 2 3 4 5 6 
#
# 1 0.008671 -0.003933 -0.003017 0.000000 0.001619 0.000000
# 2 -0.003933 0.035201 -0.004940 0.000000 0.007308 0.000000
# 3 -0.003017 -0.004940 0.018191 0.000000 0.007453 0.000000
# 4 0.000000 0.000000 0.000000 0.035472 0.000000 0.006743
# 5 0.001619 0.007308 0.007453 0.000000 0.032743 0.000000
# 6 0.000000 0.000000 0.000000 0.006743 0.000000 0.029224
#
#
# Mechanical properties :
#
#
# Convention : Reuss Voigt Hill
#
# Bulk Modulus (GPa) = 26.11991 48.33512 37.22752
# Shear Modulus (GPa) = 25.50461 32.61445 29.05953
#
# Velocity S-wave (km/s) = 3.64801 4.12527 3.89396
# Velocity P-wave (km/s) = 5.60117 6.92179 6.29620
#
# Compressibility (1/GPa) = 0.03828497
#
# Stress axis : x y z
#
# Youngs Moduli (GPa) = 115.33039 28.40796 54.97206
#
# Poissons Ratio (x) = 0.11172 0.16582
# Poissons Ratio (y) = 0.45356 0.27156
# Poissons Ratio (z) = 0.34790 0.14033
#
# Static dielectric constant tensor:
#      x y z
#    x 1.657950 0.000000 -0.017380 
#    y 0.000000 1.684320 0.000000 
#    z -0.017380 0.000000 1.699480 
# 
# From -- ./inp_files/73109.got.cif
#   From: 2010.05.17/outbox.ucp.g08.bks.cvg/sg14_37_cif.got.tgz:73109.got - 2010.06.11 12:31:08.
