data_PCOD9253225
_publ_section_title
;
Structure prediction by ZEFSAII (Michael W. Deem and Ramdas Pophale) SiO2 
 PCOD9253225
Probable space group: P 21/C
;
_chemical_formula_sum "Si O2"
_cell_formula_units_Z 32
_cell_length_a 14.293871
_cell_length_b 9.452873
_cell_length_c 10.350417
_cell_angle_alpha 90.000000
_cell_angle_beta 106.559441
_cell_angle_gamma 90.000000
_cell_volume 1340.524569
_symmetry_space_group_name_H-M "P 21/C"
_symmetry_group_IT_number 14
_symmetry_cell_setting 'monoclinic'
loop_
_space_group_symop_operation_xyz
x,y,z
-x,1/2+y,1/2-z
-x,-y,-z
x,1/2-y,1/2+z
loop_
_atom_site_type_symbol
_atom_site_label
_atom_site_fract_x
_atom_site_fract_y
_atom_site_fract_z
Si Si1 0.030386 0.124279 0.109932
Si Si2 0.317972 0.530904 0.531393
Si Si3 0.154797 0.647985 0.297910
Si Si4 0.554974 0.229878 0.306441
Si Si5 0.430482 0.242195 0.006245
Si Si6 0.197194 0.942769 0.227580
Si Si7 0.899560 0.927117 0.419185
Si Si8 0.300417 0.505356 0.022650
O O1 0.083593 0.260096 0.071904
O O2 0.934023 0.182581 0.141441
O O3 0.107378 0.043289 0.231917
O O4 0.000000 0.000000 0.000000
O O5 0.257019 0.628255 0.410094
O O6 0.400389 0.617971 0.639887
O O7 0.366777 0.400155 0.478277
O O8 0.239681 0.494804 0.611934
O O9 0.163249 0.779358 0.202495
O O10 0.125820 0.495813 0.229379
O O11 0.515626 0.219369 0.145946
O O12 0.471175 0.211785 0.382761
O O13 0.639679 0.117533 0.369815
O O14 0.363942 0.364896 0.038207
O O15 0.279533 0.943985 0.369042
O O16 0.805217 0.973588 0.461606
O O17 0.000000 0.000000 0.500000
#
# Coordination Sequence:
#
# PCOD9253225 Si02
#       8
#     4   4   4   4   4   4   4   4
#     4  12  25  46  73 107 152 195 250 314 373 459
#     4  12  26  46  75 106 143 194 250 314 381 453
#     4  12  26  45  74 103 151 197 253 307 383 454
#     4  12  26  49  74 109 148 202 252 317 384 459
#     4  12  28  47  76 110 153 195 261 316 389 458
#     4  12  25  48  72 106 149 198 249 310 386 454
#     4  12  28  46  75 114 150 197 252 309 382 462
#     4  12  26  46  77 108 152 197 249 311 384 459
#
# _framework density 23.871252999999999
#
# number of rings (size 3 to 8) (size 9 to 14) (size 15 to 20)
#    0.000    0.000    2.500    7.500    5.250    0.000 
#    0.000    0.000    0.000    0.000    0.000    0.000 
#    0.000    0.000    0.000    0.000    0.000    0.000 
#
# Total GULP energy -179306.324945 kJ/mol
# GULP energy per Si atom -5603.322655 kJ/mol
# Density = 2.381692 g / cm^3
# Si number density = 23.871253 Si / 1000 Ang^3
#
#
#
# Elastic Constant Matrix: (Units=GPa)
#
#
# Indices 1 2 3 4 5 6 
#
# 1 111.0890 31.7584 11.1121 0.0000 -3.9306 0.0000
# 2 31.7584 121.6504 0.8475 0.0000 10.4204 0.0000
# 3 11.1121 0.8475 56.5904 0.0000 11.8805 0.0000
# 4 0.0000 0.0000 0.0000 30.4192 0.0000 12.0432
# 5 -3.9306 10.4204 11.8805 0.0000 37.7121 0.0000
# 6 0.0000 0.0000 0.0000 12.0432 0.0000 34.5516
#
#
#
# Elastic Compliance Matrix: (Units=1/GPa)
#
#
# Indices 1 2 3 4 5 6 
#
# 1 0.010164 -0.002862 -0.002507 0.000000 0.002640 0.000000
# 2 -0.002862 0.009233 0.001094 0.000000 -0.003194 0.000000
# 3 -0.002507 0.001094 0.019559 0.000000 -0.006725 0.000000
# 4 0.000000 0.000000 0.000000 0.038137 0.000000 -0.013293
# 5 0.002640 -0.003194 -0.006725 0.000000 0.029793 0.000000
# 6 0.000000 0.000000 0.000000 -0.013293 0.000000 0.033575
#
#
# Mechanical properties :
#
#
# Convention : Reuss Voigt Hill
#
# Bulk Modulus (GPa) = 32.88792 41.86288 37.37540
# Shear Modulus (GPa) = 31.41742 36.91071 34.16406
#
# Velocity S-wave (km/s) = 3.63177 3.93649 3.78720
# Velocity P-wave (km/s) = 5.60299 6.18355 5.90041
#
# Compressibility (1/GPa) = 0.03040630
#
# Stress axis : x y z
#
# Youngs Moduli (GPa) = 98.38399 108.30138 51.12812
#
# Poissons Ratio (x) = 0.30998 0.12819
# Poissons Ratio (y) = 0.28159 -0.05595
# Poissons Ratio (z) = 0.24667 -0.11852
#
# Static dielectric constant tensor:
#      x y z
#    x 1.929640 0.000000 -0.016750 
#    y 0.000000 1.895990 0.000000 
#    z -0.016750 0.000000 1.944770 
# 
# From -- ./inp_files/31849.got.cif
#   From: 2010.05.17/outbox.cif.g08.bks.cpg/sg14_16_cif.got.tgz:31849.got - 2010.06.03 17:49:19.
