data_PCOD9253656
_publ_section_title
;
Structure prediction by ZEFSAII (Michael W. Deem and Ramdas Pophale) SiO2 
 PCOD9253656
Probable space group: P 21/C
;
_chemical_formula_sum "Si O2"
_cell_formula_units_Z 28
_cell_length_a 12.000000
_cell_length_b 9.000000
_cell_length_c 15.000000
_cell_angle_alpha 90.000000
_cell_angle_beta 120.000000
_cell_angle_gamma 90.000000
_cell_volume 1402.961154
_symmetry_space_group_name_H-M "P 21/C"
_symmetry_group_IT_number 14
_symmetry_cell_setting 'monoclinic'
loop_
_space_group_symop_operation_xyz
x,y,z
-x,1/2+y,1/2-z
-x,-y,-z
x,1/2-y,1/2+z
loop_
_atom_site_type_symbol
_atom_site_label
_atom_site_fract_x
_atom_site_fract_y
_atom_site_fract_z
Si Si1 0.703475 0.045031 0.530380
Si Si2 0.223591 0.972393 0.092245
Si Si3 0.987731 0.537482 0.359928
Si Si4 0.261423 0.869168 0.655816
Si Si5 0.544908 0.736691 0.036377
Si Si6 0.508056 0.466473 0.637761
Si Si7 0.112247 0.752084 0.765935
O O1 0.764586 0.053529 0.453116
O O2 0.567080 0.131454 0.469559
O O3 0.789515 0.147674 0.633882
O O4 0.661220 0.878983 0.552337
O O5 0.260904 0.806405 0.136601
O O6 0.147928 0.060673 0.141025
O O7 0.358300 0.030539 0.107785
O O8 0.110780 0.957051 0.974175
O O9 0.973067 0.370250 0.318492
O O10 0.023497 0.650546 0.295869
O O11 0.397193 0.933410 0.742859
O O12 0.174927 0.861276 0.714279
O O13 0.556722 0.878929 0.109612
O O14 0.488599 0.826235 0.928450
#
# Coordination Sequence:
#
# PCOD9253656 Si02
#       7
#     4   4   4   4   4   4   4
#     4  11  22  43  65 100 144 180 228 285 356 419
#     4  10  22  44  70  98 136 185 236 285 346 429
#     4  10  23  44  71  92 135 193 238 285 351 401
#     4  11  23  40  72 100 141 181 221 294 355 417
#     4  10  23  38  66  98 144 180 217 283 358 425
#     4  11  22  41  65 107 139 176 231 283 356 425
#     4  11  23  46  68  99 135 188 238 299 345 416
#
# _framework density 19.957787
#
# number of rings (size 3 to 8) (size 9 to 14) (size 15 to 20)
#    0.000    1.429    4.286    0.000    4.000    2.286 
#    2.571    0.714    0.000    0.000    0.000    0.000 
#    0.000    0.000    0.000    0.000    0.000    0.000 
#
# Total GULP energy -155945.778267 kJ/mol
# GULP energy per Si atom -5569.492081 kJ/mol
# Density = 1.991236 g / cm^3
# Si number density = 19.957787 Si / 1000 Ang^3
#
#
#
# Elastic Constant Matrix: (Units=GPa)
#
#
# Indices 1 2 3 4 5 6 
#
# 1 86.7589 37.8707 26.8143 0.0000 -27.1049 0.0000
# 2 37.8707 84.9787 11.1333 0.0000 -6.0067 0.0000
# 3 26.8143 11.1333 65.4944 0.0000 -17.2901 0.0000
# 4 0.0000 0.0000 0.0000 35.2600 0.0000 -8.6175
# 5 -27.1049 -6.0067 -17.2901 0.0000 33.1836 0.0000
# 6 0.0000 0.0000 0.0000 -8.6175 0.0000 45.4928
#
#
#
# Elastic Compliance Matrix: (Units=1/GPa)
#
#
# Indices 1 2 3 4 5 6 
#
# 1 0.019988 -0.007527 -0.003424 0.000000 0.013180 0.000000
# 2 -0.007527 0.014918 -0.000423 0.000000 -0.003668 0.000000
# 3 -0.003424 -0.000423 0.018533 0.000000 0.006783 0.000000
# 4 0.000000 0.000000 0.000000 0.029737 0.000000 0.005633
# 5 0.013180 -0.003668 0.006783 0.000000 0.043771 0.000000
# 6 0.000000 0.000000 0.000000 0.005633 0.000000 0.023049
#
#
# Mechanical properties :
#
#
# Convention : Reuss Voigt Hill
#
# Bulk Modulus (GPa) = 32.58334 43.20763 37.89549
# Shear Modulus (GPa) = 27.32619 33.54817 30.43718
#
# Velocity S-wave (km/s) = 3.70428 4.10439 3.90946
# Velocity P-wave (km/s) = 5.88704 6.64514 6.27754
#
# Compressibility (1/GPa) = 0.03069053
#
# Stress axis : x y z
#
# Youngs Moduli (GPa) = 50.03051 67.03192 53.95797
#
# Poissons Ratio (x) = 0.50457 0.18477
# Poissons Ratio (y) = 0.37660 0.02280
# Poissons Ratio (z) = 0.17132 0.02832
#
# Static dielectric constant tensor:
#      x y z
#    x 1.760210 0.000000 -0.055770 
#    y 0.000000 1.685360 0.000000 
#    z -0.055770 0.000000 1.749840 
# 
# From -- ./inp_files/43826.got.cif
#   From: 2010.05.17/outbox.ucp.g08.bks.cvg/sg14_22_cif.got.tgz:43826.got - 2010.06.11 12:31:08.
