data_PCOD9253192
_publ_section_title
;
Structure prediction by ZEFSAII (Michael W. Deem and Ramdas Pophale) SiO2 
 PCOD9253192
Probable space group: P 21/C
;
_chemical_formula_sum "Si O2"
_cell_formula_units_Z 16
_cell_length_a 27.405628
_cell_length_b 5.934866
_cell_length_c 21.498457
_cell_angle_alpha 90.000000
_cell_angle_beta 10.572740
_cell_angle_gamma 90.000000
_cell_volume 641.586755
_symmetry_space_group_name_H-M "P 21/C"
_symmetry_group_IT_number 14
_symmetry_cell_setting 'monoclinic'
loop_
_space_group_symop_operation_xyz
x,y,z
-x,1/2+y,1/2-z
-x,-y,-z
x,1/2-y,1/2+z
loop_
_atom_site_type_symbol
_atom_site_label
_atom_site_fract_x
_atom_site_fract_y
_atom_site_fract_z
Si Si1 0.925574 0.376958 0.159932
Si Si2 0.391376 0.358404 0.777489
Si Si3 0.095739 0.621146 0.051973
Si Si4 0.710726 0.054327 0.290085
O O1 0.607032 0.421325 0.558220
O O2 0.980316 0.395495 0.166740
O O3 0.000000 0.500000 0.000000
O O4 0.081510 0.139259 0.954914
O O5 0.533712 0.142437 0.568198
O O6 0.339612 0.549667 0.789986
O O7 0.106925 0.281444 0.158916
O O8 0.148308 0.732237 0.918782
O O9 0.500000 0.000000 0.500000
#
# Coordination Sequence:
#
# PCOD9253192 Si02
#       4
#     4   4   4   4
#     4  12  27  47  77 109 148 202 251 312 384 460
#     4  12  27  47  76 106 153 194 255 318 380 451
#     4  12  28  48  72 112 146 199 252 316 382 453
#     4  12  24  49  74 104 151 195 247 311 380 454
#
# _framework density 24.938168999999998
#
# number of rings (size 3 to 8) (size 9 to 14) (size 15 to 20)
#    0.000    0.000    5.000    4.500    3.500    0.000 
#    0.000    0.000    0.000    0.000    0.000    0.000 
#    0.000    0.000    0.000    0.000    0.000    0.000 
#
# Total GULP energy -89157.873297 kJ/mol
# GULP energy per Si atom -5572.367081 kJ/mol
# Density = 2.488141 g / cm^3
# Si number density = 24.938169 Si / 1000 Ang^3
#
#
#
# Elastic Constant Matrix: (Units=GPa)
#
#
# Indices 1 2 3 4 5 6 
#
# 1 76.2910 -12.7596 4.4377 0.0000 -8.9760 0.0000
# 2 -12.7596 -43.3871 -26.1174 0.0000 3.8041 0.0000
# 3 4.4377 -26.1174 60.0005 0.0000 -20.5960 0.0000
# 4 0.0000 0.0000 0.0000 30.6453 0.0000 -1.1669
# 5 -8.9760 3.8041 -20.5960 0.0000 39.3545 0.0000
# 6 0.0000 0.0000 0.0000 -1.1669 0.0000 52.3284
#
#
#
# Elastic Compliance Matrix: (Units=1/GPa)
#
#
# Indices 1 2 3 4 5 6 
#
# 1 0.013014 -0.002814 -0.001311 0.000000 0.002554 0.000000
# 2 -0.002814 -0.017383 -0.008535 0.000000 -0.003429 0.000000
# 3 -0.001311 -0.008535 0.016126 0.000000 0.008965 0.000000
# 4 0.000000 0.000000 0.000000 0.032659 0.000000 0.000728
# 5 0.002554 -0.003429 0.008965 0.000000 0.031016 0.000000
# 6 0.000000 0.000000 0.000000 0.000728 0.000000 0.019126
#
#
# Mechanical properties :
#
#
# Convention : Reuss Voigt Hill
#
# Bulk Modulus (GPa) = -73.72086 2.66953 -35.52566
# Shear Modulus (GPa) = 43.34378 32.95522 38.14950
#
# Velocity S-wave (km/s) = 4.17352 3.63916 3.91546
# Velocity P-wave (km/s) = 2.53008 4.32790 2.48288
#
# Compressibility (1/GPa) = -0.01356468
#
# Stress axis : x y z
#
# Youngs Moduli (GPa) = 76.84153 -57.52654 62.01321
#
# Poissons Ratio (x) = -0.16189 0.08128
# Poissons Ratio (y) = 0.21625 0.52931
# Poissons Ratio (z) = 0.10072 -0.49101
#
# Static dielectric constant tensor:
#      x y z
#    x 2.051620 0.000000 -0.009080 
#    y 0.000000 2.130470 0.000000 
#    z -0.009080 0.000000 2.006330 
# 
# From -- ./inp_files/59790.got.cif
#   From: 2010.05.17/outbox.cif.g08.bks.cpg/sg14_30_cif.got.tgz:59790.got - 2010.06.03 17:49:19.
