data_PCOD9253409
_publ_section_title
;
Structure prediction by ZEFSAII (Michael W. Deem and Ramdas Pophale) SiO2 
 PCOD9253409
Probable space group: P 21/C
;
_chemical_formula_sum "Si O2"
_cell_formula_units_Z 14
_cell_length_a 10.354149
_cell_length_b 7.667251
_cell_length_c 16.525350
_cell_angle_alpha 90.000000
_cell_angle_beta 154.530802
_cell_angle_gamma 90.000000
_cell_volume 564.156087
_symmetry_space_group_name_H-M "P 21/C"
_symmetry_group_IT_number 14
_symmetry_cell_setting 'monoclinic'
loop_
_space_group_symop_operation_xyz
x,y,z
-x,1/2+y,1/2-z
-x,-y,-z
x,1/2-y,1/2+z
loop_
_atom_site_type_symbol
_atom_site_label
_atom_site_fract_x
_atom_site_fract_y
_atom_site_fract_z
Si Si1 0.739269 0.931940 0.909399
Si Si2 0.809995 0.959633 0.507640
Si Si3 0.549960 0.615858 0.607098
Si Si4 0.500000 0.500000 0.000000
O O1 0.684983 0.051648 0.957587
O O2 0.438285 0.941519 0.686211
O O3 0.826400 0.737300 0.983669
O O4 0.000000 0.000000 0.000000
O O5 0.711543 0.930855 0.544780
O O6 0.119977 0.062581 0.675729
O O7 0.500000 0.500000 0.500000
O O8 0.527542 0.813119 0.565235
#
# Coordination Sequence:
#
# PCOD9253409 Si02
#       4
#     4   4   4   2
#     4  12  28  55  87 125 171 225 290 354 424 508
#     4  12  29  53  85 123 173 225 287 355 425 510
#     4  12  29  54  86 124 172 223 284 351 426 509
#     4  12  30  50  86 126 170 216 286 352 426 506
#
# _framework density 24.815825
#
# number of rings (size 3 to 8) (size 9 to 14) (size 15 to 20)
#    0.000    0.000    2.857    4.286    8.000    4.571 
#    0.000    0.000    0.000    0.000    0.000    0.000 
#    0.000    0.000    0.000    0.000    0.000    0.000 
#
# Total GULP energy -78132.630693 kJ/mol
# GULP energy per Si atom -5580.902192 kJ/mol
# Density = 2.475934 g / cm^3
# Si number density = 24.815825 Si / 1000 Ang^3
#
#
#
# Elastic Constant Matrix: (Units=GPa)
#
#
# Indices 1 2 3 4 5 6 
#
# 1 232.7761 87.8564 36.4847 0.0000 10.4894 0.0000
# 2 87.8564 257.6746 82.6940 0.0000 10.4385 0.0000
# 3 36.4847 82.6940 120.9477 0.0000 4.4245 0.0000
# 4 0.0000 0.0000 0.0000 26.7189 0.0000 -19.6058
# 5 10.4894 10.4385 4.4245 0.0000 17.6184 0.0000
# 6 0.0000 0.0000 0.0000 -19.6058 0.0000 61.4448
#
#
#
# Elastic Compliance Matrix: (Units=1/GPa)
#
#
# Indices 1 2 3 4 5 6 
#
# 1 0.005016 -0.001495 -0.000418 0.000000 -0.001995 0.000000
# 2 -0.001495 0.005497 -0.003250 0.000000 -0.001550 0.000000
# 3 -0.000418 -0.003250 0.010635 0.000000 -0.000496 0.000000
# 4 0.000000 0.000000 0.000000 0.048869 0.000000 0.015593
# 5 -0.001995 -0.001550 -0.000496 0.000000 0.058990 0.000000
# 6 0.000000 0.000000 0.000000 0.015593 0.000000 0.021250
#
#
# Mechanical properties :
#
#
# Convention : Reuss Voigt Hill
#
# Bulk Modulus (GPa) = 92.41978 113.94096 103.18037
# Shear Modulus (GPa) = 30.45276 48.11397 39.28337
#
# Velocity S-wave (km/s) = 3.50687 4.40801 3.98301
# Velocity P-wave (km/s) = 7.32944 8.48066 7.92598
#
# Compressibility (1/GPa) = 0.01082020
#
# Stress axis : x y z
#
# Youngs Moduli (GPa) = 199.37333 181.93055 94.03351
#
# Poissons Ratio (x) = 0.27204 0.03928
# Poissons Ratio (y) = 0.29812 0.30564
# Poissons Ratio (z) = 0.08328 0.59134
#
# Static dielectric constant tensor:
#      x y z
#    x 1.927860 0.000000 -0.053630 
#    y 0.000000 2.231690 0.000000 
#    z -0.053630 0.000000 2.127790 
# 
# From -- ./inp_files/7262.got.cif
#   From: 2010.05.17/outbox.cif.g08.bks.cpg/sg14_4_cif.got.tgz:7262.got - 2010.06.03 17:49:19.
