data_PCOD9253727
_publ_section_title
;
Structure prediction by ZEFSAII (Michael W. Deem and Ramdas Pophale) SiO2 
 PCOD9253727
Probable space group: P 21/C
;
_chemical_formula_sum "Si O2"
_cell_formula_units_Z 24
_cell_length_a 9.000000
_cell_length_b 15.000000
_cell_length_c 18.000000
_cell_angle_alpha 90.000000
_cell_angle_beta 30.000000
_cell_angle_gamma 90.000000
_cell_volume 1215.000000
_symmetry_space_group_name_H-M "P 21/C"
_symmetry_group_IT_number 14
_symmetry_cell_setting 'monoclinic'
loop_
_space_group_symop_operation_xyz
x,y,z
-x,1/2+y,1/2-z
-x,-y,-z
x,1/2-y,1/2+z
loop_
_atom_site_type_symbol
_atom_site_label
_atom_site_fract_x
_atom_site_fract_y
_atom_site_fract_z
Si Si1 0.558964 0.151362 0.618889
Si Si2 0.987957 0.967385 0.179169
Si Si3 0.999562 0.980252 0.657150
Si Si4 0.253413 0.833799 0.292349
Si Si5 0.456890 0.344113 0.589119
Si Si6 0.846720 0.837195 0.935032
O O1 0.672498 0.161870 0.653035
O O2 0.548449 0.250010 0.586129
O O3 0.757497 0.080011 0.488401
O O4 0.243191 0.101581 0.755621
O O5 0.911790 0.996341 0.296380
O O6 0.029147 0.060838 0.117289
O O7 0.284655 0.907791 0.054196
O O8 0.719658 0.912303 0.781199
O O9 0.922059 0.075231 0.653537
O O10 0.070879 0.742655 0.357395
O O11 0.555557 0.832146 0.113006
O O12 0.250901 0.321786 0.607971
#
# Coordination Sequence:
#
# PCOD9253727 Si02
#       6
#     4   4   4   4   4   4
#     4  12  28  39  72 103 140 173 224 283 339 403
#     4  11  23  47  72  99 129 185 228 277 332 399
#     4  11  23  47  67  99 135 177 233 275 331 400
#     4  12  27  45  66 102 140 181 221 282 342 397
#     4  11  23  46  71  98 134 182 229 279 326 404
#     4  11  26  45  71  96 137 180 230 274 336 403
#
# _framework density 19.753086
#
# number of rings (size 3 to 8) (size 9 to 14) (size 15 to 20)
#    0.000    0.667    3.333    4.000   11.667    2.000 
#    0.000    0.000    0.000    0.000    0.000    0.000 
#    0.000    0.000    0.000    0.000    0.000    0.000 
#
# Total GULP energy -134104.392601 kJ/mol
# GULP energy per Si atom -5587.683025 kJ/mol
# Density = 1.970813 g / cm^3
# Si number density = 19.753086 Si / 1000 Ang^3
#
#
#
# Elastic Constant Matrix: (Units=GPa)
#
#
# Indices 1 2 3 4 5 6 
#
# 1 102.4012 64.9252 16.5690 0.0000 13.6315 0.0000
# 2 64.9252 193.2221 27.3514 0.0000 -4.4317 0.0000
# 3 16.5690 27.3514 31.6397 0.0000 -3.7384 0.0000
# 4 0.0000 0.0000 0.0000 60.6394 0.0000 -11.6111
# 5 13.6315 -4.4317 -3.7384 0.0000 36.3278 0.0000
# 6 0.0000 0.0000 0.0000 -11.6111 0.0000 20.0830
#
#
#
# Elastic Compliance Matrix: (Units=1/GPa)
#
#
# Indices 1 2 3 4 5 6 
#
# 1 0.013979 -0.004215 -0.004411 0.000000 -0.006213 0.000000
# 2 -0.004215 0.007169 -0.003746 0.000000 0.002071 0.000000
# 3 -0.004411 -0.003746 0.037754 0.000000 0.005083 0.000000
# 4 0.000000 0.000000 0.000000 0.018544 0.000000 0.010721
# 5 -0.006213 0.002071 0.005083 0.000000 0.030634 0.000000
# 6 0.000000 0.000000 0.000000 0.010721 0.000000 0.055992
#
#
# Mechanical properties :
#
#
# Convention : Reuss Voigt Hill
#
# Bulk Modulus (GPa) = 29.27443 60.55046 44.91244
# Shear Modulus (GPa) = 24.97474 37.97120 31.47297
#
# Velocity S-wave (km/s) = 3.55962 4.38915 3.99597
# Velocity P-wave (km/s) = 5.63444 7.51042 6.63903
#
# Compressibility (1/GPa) = 0.03415951
#
# Stress axis : x y z
#
# Youngs Moduli (GPa) = 71.53647 139.48012 26.48709
#
# Poissons Ratio (x) = 0.58794 0.11683
# Poissons Ratio (y) = 0.30154 0.09921
# Poissons Ratio (z) = 0.31552 0.52244
#
# Static dielectric constant tensor:
#      x y z
#    x 1.691660 0.000000 -0.053310 
#    y 0.000000 1.648670 0.000000 
#    z -0.053310 0.000000 1.837940 
# 
# From -- ./inp_files/8457.got.cif
#   From: 2010.05.17/outbox.ucp.g08.bks.cvg/sg14_5_cif.got.tgz:8457.got - 2010.06.11 12:31:08.
