data_PCOD9253029
_publ_section_title
;
Structure prediction by ZEFSAII (Michael W. Deem and Ramdas Pophale) SiO2 
 PCOD9253029
Probable space group: P 21/C
;
_chemical_formula_sum "Si O2"
_cell_formula_units_Z 24
_cell_length_a 24.515279
_cell_length_b 7.178535
_cell_length_c 13.903295
_cell_angle_alpha 90.000000
_cell_angle_beta 20.117594
_cell_angle_gamma 90.000000
_cell_volume 841.556445
_symmetry_space_group_name_H-M "P 21/C"
_symmetry_group_IT_number 14
_symmetry_cell_setting 'monoclinic'
loop_
_space_group_symop_operation_xyz
x,y,z
-x,1/2+y,1/2-z
-x,-y,-z
x,1/2-y,1/2+z
loop_
_atom_site_type_symbol
_atom_site_label
_atom_site_fract_x
_atom_site_fract_y
_atom_site_fract_z
Si Si1 0.484219 0.948632 0.654206
Si Si2 0.251809 0.974615 0.296579
Si Si3 0.412083 0.128831 0.300544
Si Si4 0.170380 0.394616 0.458927
Si Si5 0.196134 0.672262 0.089193
Si Si6 0.943455 0.265446 0.489897
O O1 0.559430 0.903189 0.634408
O O2 0.646517 0.948677 0.323437
O O3 0.347744 0.804085 0.853564
O O4 0.417809 0.155191 0.771140
O O5 0.175289 0.853513 0.510091
O O6 0.216109 0.855457 0.262092
O O7 0.185126 0.181050 0.398066
O O8 0.439601 0.970664 0.997574
O O9 0.253180 0.033713 0.526814
O O10 0.096474 0.544019 0.504767
O O11 0.072266 0.362433 0.720722
O O12 0.055940 0.718867 0.395735
#
# Coordination Sequence:
#
# PCOD9253029 Si02
#       6
#     4   4   4   4   4   4
#     4  12  22  40  74 101 137 182 231 282 353 413
#     4  12  25  44  71 105 139 178 232 290 352 410
#     4  12  21  40  70 105 136 177 228 287 347 408
#     4  12  24  44  71  96 137 185 234 277 347 416
#     4  12  27  43  70 108 140 177 232 295 348 412
#     4  12  26  47  71  98 141 190 229 284 349 417
#
# _framework density 28.518584000000001
#
# number of rings (size 3 to 8) (size 9 to 14) (size 15 to 20)
#    0.000    0.000   10.000    0.500    0.000    2.667 
#    0.000    0.833    0.000    0.000    0.000    0.000 
#    0.000    0.000    0.000    0.000    0.000    0.000 
#
# Total GULP energy -134656.424268 kJ/mol
# GULP energy per Si atom -5610.684345 kJ/mol
# Density = 2.845367 g / cm^3
# Si number density = 28.518584 Si / 1000 Ang^3
#
#
#
# Elastic Constant Matrix: (Units=GPa)
#
#
# Indices 1 2 3 4 5 6 
#
# 1 104.0890 28.7178 18.3857 0.0000 34.9277 0.0000
# 2 28.7178 138.1249 16.6499 0.0000 21.3857 0.0000
# 3 18.3857 16.6499 165.7642 0.0000 25.6441 0.0000
# 4 0.0000 0.0000 0.0000 40.5648 0.0000 -8.3741
# 5 34.9277 21.3857 25.6441 0.0000 38.9499 0.0000
# 6 0.0000 0.0000 0.0000 -8.3741 0.0000 44.9772
#
#
#
# Elastic Compliance Matrix: (Units=1/GPa)
#
#
# Indices 1 2 3 4 5 6 
#
# 1 0.013910 -0.001059 0.000449 0.000000 -0.012187 0.000000
# 2 -0.001059 0.007996 -0.000171 0.000000 -0.003328 0.000000
# 3 0.000449 -0.000171 0.006734 0.000000 -0.004742 0.000000
# 4 0.000000 0.000000 0.000000 0.025637 0.000000 0.004773
# 5 -0.012187 -0.003328 -0.004742 0.000000 0.041552 0.000000
# 6 0.000000 0.000000 0.000000 0.004773 0.000000 0.023122
#
#
# Mechanical properties :
#
#
# Convention : Reuss Voigt Hill
#
# Bulk Modulus (GPa) = 36.93141 59.49831 48.21486
# Shear Modulus (GPa) = 38.59854 47.84668 43.22261
#
# Velocity S-wave (km/s) = 3.68292 4.10046 3.89729
# Velocity P-wave (km/s) = 5.57344 6.58230 6.09877
#
# Compressibility (1/GPa) = 0.02707722
#
# Stress axis : x y z
#
# Youngs Moduli (GPa) = 71.89285 125.06428 148.50778
#
# Poissons Ratio (x) = 0.13246 -0.06668
# Poissons Ratio (y) = 0.07615 0.02537
# Poissons Ratio (z) = -0.03228 0.02136
#
# Static dielectric constant tensor:
#      x y z
#    x 2.185820 0.000000 -0.021640 
#    y 0.000000 2.150220 0.000000 
#    z -0.021640 0.000000 2.295700 
# 
# From -- ./inp_files/52230.got.cif
#   From: 2010.05.17/outbox.cif.g08.bks.cpg/sg14_27_cif.got.tgz:52230.got - 2010.06.03 17:49:19.
