data_PCOD9253587
_publ_section_title
;
Structure prediction by ZEFSAII (Michael W. Deem and Ramdas Pophale) SiO2 
 PCOD9253587
Probable space group: P 21/C
;
_chemical_formula_sum "Si O2"
_cell_formula_units_Z 28
_cell_length_a 30.000000
_cell_length_b 9.000000
_cell_length_c 30.000000
_cell_angle_alpha 90.000000
_cell_angle_beta 10.000000
_cell_angle_gamma 90.000000
_cell_volume 1406.550239
_symmetry_space_group_name_H-M "P 21/C"
_symmetry_group_IT_number 14
_symmetry_cell_setting 'monoclinic'
loop_
_space_group_symop_operation_xyz
x,y,z
-x,1/2+y,1/2-z
-x,-y,-z
x,1/2-y,1/2+z
loop_
_atom_site_type_symbol
_atom_site_label
_atom_site_fract_x
_atom_site_fract_y
_atom_site_fract_z
Si Si1 0.360243 0.581267 0.680014
Si Si2 0.501034 0.575915 0.835897
Si Si3 0.974929 0.317907 0.836244
Si Si4 0.032210 0.020808 0.187661
Si Si5 0.599566 0.751123 0.826522
Si Si6 0.494009 0.763370 0.137402
Si Si7 0.891911 0.160476 0.127309
O O1 0.500000 0.500000 0.500000
O O2 0.344033 0.428354 0.724850
O O3 0.486324 0.690740 0.592841
O O4 0.143154 0.695454 0.872452
O O5 0.525059 0.699925 0.850390
O O6 0.531910 0.414951 0.830004
O O7 0.719584 0.587025 0.582468
O O8 0.223901 0.574534 0.085574
O O9 0.003644 0.434276 0.767505
O O10 0.235815 0.312843 0.607843
O O11 0.736827 0.332721 0.105179
O O12 0.948315 0.156678 0.838594
O O13 0.877149 0.688502 0.566218
O O14 0.380446 0.680059 0.076572
O O15 0.000000 0.000000 0.000000
#
# Coordination Sequence:
#
# PCOD9253587 Si02
#       7
#     4   4   4   4   4   4   4
#     4  10  24  42  62  91 125 159 206 264 311 362
#     4  10  21  38  60  87 120 160 200 244 295 371
#     4  10  22  38  60  87 116 155 196 245 299 363
#     4  10  21  38  60  88 121 153 198 244 299 362
#     4  11  23  39  60  90 120 155 204 252 302 352
#     4  10  22  39  59  85 119 158 199 242 304 368
#     4  11  23  40  62  86 119 162 204 249 305 366
#
# _framework density 19.906860999999999
#
# number of rings (size 3 to 8) (size 9 to 14) (size 15 to 20)
#    0.000    1.714    0.000    3.429    0.000   10.286 
#    0.000    0.000    0.000    0.000    0.000    0.000 
#    0.000    0.000    0.000    0.000    0.000    0.000 
#
# Total GULP energy -155965.199345 kJ/mol
# GULP energy per Si atom -5570.185691 kJ/mol
# Density = 1.986155 g / cm^3
# Si number density = 19.906861 Si / 1000 Ang^3
#
#
#
# Elastic Constant Matrix: (Units=GPa)
#
#
# Indices 1 2 3 4 5 6 
#
# 1 82.4391 10.0334 7.1005 0.0000 1.0910 0.0000
# 2 10.0334 56.3767 5.1490 0.0000 1.4912 0.0000
# 3 7.1005 5.1490 110.0744 0.0000 5.2699 0.0000
# 4 0.0000 0.0000 0.0000 25.1648 0.0000 5.1438
# 5 1.0910 1.4912 5.2699 0.0000 27.0374 0.0000
# 6 0.0000 0.0000 0.0000 5.1438 0.0000 51.9982
#
#
#
# Elastic Compliance Matrix: (Units=1/GPa)
#
#
# Indices 1 2 3 4 5 6 
#
# 1 0.012454 -0.002147 -0.000691 0.000000 -0.000249 0.000000
# 2 -0.002147 0.018202 -0.000675 0.000000 -0.000786 0.000000
# 3 -0.000691 -0.000675 0.009244 0.000000 -0.001737 0.000000
# 4 0.000000 0.000000 0.000000 0.040558 0.000000 -0.004012
# 5 -0.000249 -0.000786 -0.001737 0.000000 0.037378 0.000000
# 6 0.000000 0.000000 0.000000 -0.004012 0.000000 0.019628
#
#
# Mechanical properties :
#
#
# Convention : Reuss Voigt Hill
#
# Bulk Modulus (GPa) = 30.41883 32.60622 31.51252
# Shear Modulus (GPa) = 32.16481 35.94722 34.05602
#
# Velocity S-wave (km/s) = 4.02402 4.25405 4.14063
# Velocity P-wave (km/s) = 6.07487 6.36743 6.22287
#
# Compressibility (1/GPa) = 0.03287437
#
# Stress axis : x y z
#
# Youngs Moduli (GPa) = 80.29375 54.93793 108.17739
#
# Poissons Ratio (x) = 0.11794 0.07475
# Poissons Ratio (y) = 0.17237 0.07306
# Poissons Ratio (z) = 0.05548 0.03710
#
# Static dielectric constant tensor:
#      x y z
#    x 1.698090 0.000000 0.018280 
#    y 0.000000 1.776490 0.000000 
#    z 0.018280 0.000000 1.709710 
# 
# From -- ./inp_files/80970.got.cif
#   From: 2010.05.17/outbox.ucp.g08.bks.cvg/sg14_41_cif.got.tgz:80970.got - 2010.06.11 12:31:08.
