data_PCOD9253697
_publ_section_title
;
Structure prediction by ZEFSAII (Michael W. Deem and Ramdas Pophale) SiO2 
 PCOD9253697
Probable space group: P 21/C
;
_chemical_formula_sum "Si O2"
_cell_formula_units_Z 32
_cell_length_a 15.000000
_cell_length_b 21.000000
_cell_length_c 15.000000
_cell_angle_alpha 90.000000
_cell_angle_beta 160.000000
_cell_angle_gamma 90.000000
_cell_volume 1616.045177
_symmetry_space_group_name_H-M "P 21/C"
_symmetry_group_IT_number 14
_symmetry_cell_setting 'monoclinic'
loop_
_space_group_symop_operation_xyz
x,y,z
-x,1/2+y,1/2-z
-x,-y,-z
x,1/2-y,1/2+z
loop_
_atom_site_type_symbol
_atom_site_label
_atom_site_fract_x
_atom_site_fract_y
_atom_site_fract_z
Si Si1 0.704903 0.322932 0.791992
Si Si2 0.363439 0.778867 0.971230
Si Si3 0.069659 0.528754 0.742391
Si Si4 0.267198 0.815153 0.084666
Si Si5 0.860010 0.704557 0.496694
Si Si6 0.838592 0.865080 0.155909
Si Si7 0.749490 0.604458 0.113333
Si Si8 0.360376 0.427360 0.787595
O O1 0.670079 0.317951 0.652146
O O2 0.692036 0.252280 0.825598
O O3 0.463211 0.365238 0.600342
O O4 0.974426 0.350602 0.084733
O O5 0.161101 0.720659 0.761977
O O6 0.273102 0.807026 0.982204
O O7 0.660372 0.757115 0.270539
O O8 0.143712 0.457094 0.839424
O O9 0.946945 0.573377 0.704368
O O10 0.847070 0.525648 0.455734
O O11 0.342670 0.560168 0.964853
O O12 0.505287 0.860545 0.338704
O O13 0.989841 0.846434 0.850271
O O14 0.849973 0.692348 0.593573
O O15 0.749456 0.640296 0.349945
O O16 0.661559 0.575790 0.126553
#
# Coordination Sequence:
#
# PCOD9253697 Si02
#       8
#     4   4   4   4   4   4   4   4
#     4  12  23  40  63  92 120 162 208 254 309 371
#     4  12  23  38  61  87 128 162 202 251 319 367
#     4  11  23  39  63  90 124 171 205 259 305 365
#     4  12  24  40  61  91 129 165 201 256 314 381
#     4  11  19  37  58  89 123 158 197 251 304 372
#     4  11  21  39  62  87 121 156 208 254 297 364
#     4  12  24  40  60  90 132 164 208 248 317 381
#     4  11  21  37  62  94 123 164 207 251 308 375
#
# _framework density 19.801427
#
# number of rings (size 3 to 8) (size 9 to 14) (size 15 to 20)
#    0.000    0.500    2.500    9.000    0.000    0.000 
#    0.000    0.000    0.000    4.500    0.000    0.000 
#    0.000    0.000    0.000    0.000    0.000    0.000 
#
# Total GULP energy -178882.151478 kJ/mol
# GULP energy per Si atom -5590.067234 kJ/mol
# Density = 1.975636 g / cm^3
# Si number density = 19.801427 Si / 1000 Ang^3
#
#
#
# Elastic Constant Matrix: (Units=GPa)
#
#
# Indices 1 2 3 4 5 6 
#
# 1 66.4810 -0.8615 11.6049 0.0000 -14.0393 0.0000
# 2 -0.8615 50.5066 11.6037 0.0000 4.3684 0.0000
# 3 11.6049 11.6037 130.7591 0.0000 -1.9450 0.0000
# 4 0.0000 0.0000 0.0000 29.8718 0.0000 -0.6170
# 5 -14.0393 4.3684 -1.9450 0.0000 44.0636 0.0000
# 6 0.0000 0.0000 0.0000 -0.6170 0.0000 20.2698
#
#
#
# Elastic Compliance Matrix: (Units=1/GPa)
#
#
# Indices 1 2 3 4 5 6 
#
# 1 0.016372 0.000154 -0.001390 0.000000 0.005140 0.000000
# 2 0.000154 0.020406 -0.001855 0.000000 -0.002056 0.000000
# 3 -0.001390 -0.001855 0.007937 0.000000 0.000091 0.000000
# 4 0.000000 0.000000 0.000000 0.033497 0.000000 0.001020
# 5 0.005140 -0.002056 0.000091 0.000000 0.024540 0.000000
# 6 0.000000 0.000000 0.000000 0.001020 0.000000 0.049366
#
#
# Mechanical properties :
#
#
# Convention : Reuss Voigt Hill
#
# Bulk Modulus (GPa) = 25.95208 32.49344 29.22276
# Shear Modulus (GPa) = 29.21506 33.86767 31.54136
#
# Velocity S-wave (km/s) = 3.84526 4.14014 3.99542
# Velocity P-wave (km/s) = 5.73144 6.26894 6.00620
#
# Compressibility (1/GPa) = 0.03853255
#
# Stress axis : x y z
#
# Youngs Moduli (GPa) = 61.08002 49.00508 125.99184
#
# Poissons Ratio (x) = -0.00755 0.17516
# Poissons Ratio (y) = -0.00941 0.23373
# Poissons Ratio (z) = 0.08492 0.09091
#
# Static dielectric constant tensor:
#      x y z
#    x 1.718970 0.000000 0.008280 
#    y 0.000000 1.732630 0.000000 
#    z 0.008280 0.000000 1.684510 
# 
# From -- ./inp_files/47630.got.cif
#   From: 2010.05.17/outbox.ucp.g08.bks.cvg/sg14_24_cif.got.tgz:47630.got - 2010.06.11 12:31:08.
