data_PCOD9253882
_publ_section_title
;
Structure prediction by ZEFSAII (Michael W. Deem and Ramdas Pophale) SiO2 
 PCOD9253882
Probable space group: C 2/C
;
_chemical_formula_sum "Si O2"
_cell_formula_units_Z 56
_cell_length_a 27.815357
_cell_length_b 7.316659
_cell_length_c 20.526446
_cell_angle_alpha 90.000000
_cell_angle_beta 32.591193
_cell_angle_gamma 90.000000
_cell_volume 2250.146793
_symmetry_space_group_name_H-M "C 2/C"
_symmetry_group_IT_number 15
_symmetry_cell_setting 'monoclinic'
loop_
_space_group_symop_operation_xyz
x,y,z
-x,y,1/2-z
-x,-y,-z
x,-y,1/2+z
1/2+x,1/2+y,z
1/2-x,1/2+y,1/2-z
1/2-x,1/2-y,-z
1/2+x,1/2-y,1/2+z
loop_
_atom_site_type_symbol
_atom_site_label
_atom_site_fract_x
_atom_site_fract_y
_atom_site_fract_z
Si Si1 0.143255 0.838758 0.802911
Si Si2 0.394963 0.484800 0.878361
Si Si3 0.596711 0.608758 0.493733
Si Si4 0.413568 0.740825 0.658432
Si Si5 0.588104 0.056507 0.612214
Si Si6 0.226116 0.071866 0.606802
Si Si7 0.535896 0.808255 0.035264
O O1 0.221122 0.899349 0.664874
O O2 0.071698 0.702344 0.852080
O O3 0.091142 0.031634 0.861916
O O4 0.157571 0.814786 0.864165
O O5 0.500000 0.527858 0.750000
O O6 0.364801 0.589498 0.978110
O O7 0.391341 0.264616 0.889235
O O8 0.338469 0.531394 0.879491
O O9 0.505696 0.727847 0.592737
O O10 0.568808 0.396001 0.515569
O O11 0.322258 0.744234 0.802969
O O12 0.422425 0.855728 0.582547
O O13 0.500000 0.994116 0.750000
O O14 0.672892 0.933085 0.530542
O O15 0.566483 0.071640 0.560412
#
# Coordination Sequence:
#
# PCOD9253882 Si02
#       7
#     8   8   8   8   8   8   8
#     4   7  12  21  36  49  66  96 130 159 188 220
#     4  10  15  22  33  54  84 104 116 139 195 248
#     4   8  11  20  35  52  70  98 118 151 201 233
#     4   7  12  21  37  50  66  97 133 162 183 214
#     4  10  19  24  31  50  86 117 129 140 180 232
#     4  10  16  23  34  53  77 106 132 153 178 234
#     4   8  12  23  35  48  70 103 131 153 189 219
#
# _framework density 24.887263999999998
#
# number of rings (size 3 to 8) (size 9 to 14) (size 15 to 20)
#    0.857    2.571    1.429    3.857    0.000    0.000 
#    0.000    0.000    0.000    0.000    0.000    1.000 
#    0.000    1.143    0.000    1.286    0.000    0.000 
#
# Total GULP energy -156079.757901 kJ/mol
# GULP energy per Si atom -5574.277068 kJ/mol
# Density = 2.483062 g / cm^3
# Si number density = 24.887264 Si / 1000 Ang^3
#
#
#
# Elastic Constant Matrix: (Units=GPa)
#
#
# Indices 1 2 3 4 5 6 
#
# 1 36.6760 105.0545 73.1689 -0.0124 31.5791 0.0036
# 2 105.0545 4.0909 16.6734 -0.0060 -20.4506 -0.0044
# 3 73.1689 16.6734 144.3408 -0.0196 -2.2065 0.0047
# 4 -0.0124 -0.0060 -0.0196 6.4693 0.0102 -1.3909
# 5 31.5791 -20.4506 -2.2065 0.0102 19.4336 -0.0001
# 6 0.0036 -0.0044 0.0047 -1.3909 -0.0001 -2.6348
#
#
#
# Elastic Compliance Matrix: (Units=1/GPa)
#
#
# Indices 1 2 3 4 5 6 
#
# 1 0.001177 0.008155 -0.001439 -0.000007 0.006505 -0.000011
# 2 0.008155 0.003466 -0.004689 0.000018 -0.010137 -0.000012
# 3 -0.001439 -0.004689 0.008174 0.000022 -0.001668 0.000009
# 4 -0.000007 0.000018 0.000022 0.138821 -0.000040 -0.073283
# 5 0.006505 -0.010137 -0.001668 -0.000040 0.030030 0.000043
# 6 -0.000011 -0.000012 0.000009 -0.073283 0.000043 -0.340853
#
#
# Mechanical properties :
#
#
# Convention : Reuss Voigt Hill
#
# Bulk Modulus (GPa) = 59.27748 63.87793 61.57770
# Shear Modulus (GPa) = -31.72295 4.00102 -13.86096
#
# Velocity S-wave (km/s) = -3.57412 1.26931 -2.36254
# Velocity P-wave (km/s) = 2.61489 5.27928 4.16584
#
# Compressibility (1/GPa) = 0.01686981
#
# Stress axis : x y z
#
# Youngs Moduli (GPa) = 849.44717 288.52012 122.34153
#
# Poissons Ratio (x) = -2.35285 0.17609
# Poissons Ratio (y) = -6.92714 0.57368
# Poissons Ratio (z) = 1.22263 1.35292
#
# Static dielectric constant tensor:
#      x y z
#    x 1.981130 -0.000010 0.080070 
#    y -0.000010 1.989630 0.000000 
#    z 0.080070 0.000000 2.044790 
# 
# From -- ./inp_files/257380.got.cif
#   From: 2010.05.17/outbox.cif.g08.bks.cpg/sg15_129_cif.got.tgz:257380.got - 2010.06.03 18:47:42.
