data_PCOD9253914
_publ_section_title
;
Structure prediction by ZEFSAII (Michael W. Deem and Ramdas Pophale) SiO2 
 PCOD9253914
Probable space group: C 2/C
;
_chemical_formula_sum "Si O2"
_cell_formula_units_Z 64
_cell_length_a 15.728019
_cell_length_b 23.666831
_cell_length_c 16.051796
_cell_angle_alpha 90.000000
_cell_angle_beta 155.442912
_cell_angle_gamma 90.000000
_cell_volume 2483.207377
_symmetry_space_group_name_H-M "C 2/C"
_symmetry_group_IT_number 15
_symmetry_cell_setting 'monoclinic'
loop_
_space_group_symop_operation_xyz
x,y,z
-x,y,1/2-z
-x,-y,-z
x,-y,1/2+z
1/2+x,1/2+y,z
1/2-x,1/2+y,1/2-z
1/2-x,1/2-y,-z
1/2+x,1/2-y,1/2+z
loop_
_atom_site_type_symbol
_atom_site_label
_atom_site_fract_x
_atom_site_fract_y
_atom_site_fract_z
Si Si1 0.791067 0.549147 0.270395
Si Si2 0.701722 0.798122 0.581847
Si Si3 0.766306 0.108554 0.010404
Si Si4 0.341251 0.999309 0.988336
Si Si5 0.000914 0.334569 0.555285
Si Si6 0.137774 0.825133 0.049391
Si Si7 0.279347 0.879198 0.504472
Si Si8 0.916649 0.854850 0.003653
O O1 0.735265 0.520850 0.307526
O O2 0.953331 0.600537 0.432646
O O3 0.383791 0.417516 0.934547
O O4 0.923078 0.509424 0.328507
O O5 0.671968 0.838313 0.476950
O O6 0.517933 0.800511 0.485263
O O7 0.733832 0.732003 0.597828
O O8 0.903176 0.822583 0.806535
O O9 0.000000 0.106971 0.250000
O O10 0.677821 0.050122 0.962686
O O11 0.764971 0.122089 0.911504
O O12 0.252583 0.057833 0.944336
O O13 0.826628 0.337286 0.469518
O O14 0.211515 0.320297 0.793746
O O15 0.106004 0.830569 0.120214
O O16 0.500000 0.882498 0.750000
O O17 0.112389 0.861628 0.424044
#
# Coordination Sequence:
#
# PCOD9253914 Si02
#       8
#     8   8   8   8   8   8   8   8
#     4   8  14  25  48  73  97 122 167 211 243 299
#     4  10  18  34  52  75  96 138 171 218 256 304
#     4  10  19  32  49  71 102 135 168 207 255 314
#     4  10  15  25  48  75  97 121 167 208 240 298
#     4   7  13  26  47  69  96 119 167 205 246 295
#     4  10  20  33  55  70 103 137 177 209 258 302
#     4   9  15  27  47  74  99 128 166 206 254 306
#     4   8  15  31  47  71  98 135 165 204 252 314
#
# _framework density 25.773119000000001
#
# number of rings (size 3 to 8) (size 9 to 14) (size 15 to 20)
#    0.750    2.250    2.500    1.125    0.000    0.000 
#    0.000    2.500    0.000    3.000    0.000    0.000 
#    0.000    0.000    0.000    0.000    0.000    0.000 
#
# Total GULP energy -178773.995397 kJ/mol
# GULP energy per Si atom -5586.687356 kJ/mol
# Density = 2.571446 g / cm^3
# Si number density = 25.773119 Si / 1000 Ang^3
#
#
#
# Elastic Constant Matrix: (Units=GPa)
#
#
# Indices 1 2 3 4 5 6 
#
# 1 150.5072 26.2710 19.7466 0.0000 1.7751 0.0000
# 2 26.2710 53.8508 -0.9286 0.0000 16.7083 0.0000
# 3 19.7466 -0.9286 73.1830 0.0000 9.3553 0.0001
# 4 0.0000 0.0000 0.0000 21.2624 0.0000 13.2902
# 5 1.7751 16.7083 9.3553 0.0000 19.4629 0.0000
# 6 0.0000 0.0000 0.0001 13.2902 0.0000 42.4748
#
#
#
# Elastic Compliance Matrix: (Units=1/GPa)
#
#
# Indices 1 2 3 4 5 6 
#
# 1 0.007947 -0.005641 -0.002922 0.000000 0.005522 0.000000
# 2 -0.005641 0.030087 0.005476 0.000000 -0.027947 0.000000
# 3 -0.002922 0.005476 0.016077 0.000000 -0.012163 0.000000
# 4 0.000000 0.000000 0.000000 0.058466 0.000000 -0.018294
# 5 0.005522 -0.027947 -0.012163 0.000000 0.080713 0.000000
# 6 0.000000 0.000000 0.000000 -0.018294 0.000000 0.029267
#
#
# Mechanical properties :
#
#
# Convention : Reuss Voigt Hill
#
# Bulk Modulus (GPa) = 20.85990 40.85766 30.85878
# Shear Modulus (GPa) = 20.43239 32.13682 26.28460
#
# Velocity S-wave (km/s) = 2.81869 3.53500 3.19697
# Velocity P-wave (km/s) = 4.32488 5.70516 5.06228
#
# Compressibility (1/GPa) = 0.04793886
#
# Stress axis : x y z
#
# Youngs Moduli (GPa) = 125.83414 33.23702 62.20059
#
# Poissons Ratio (x) = 0.18748 0.18173
# Poissons Ratio (y) = 0.70977 -0.34063
# Poissons Ratio (z) = 0.36766 -0.18201
#
# Static dielectric constant tensor:
#      x y z
#    x 2.013410 0.000000 -0.010500 
#    y 0.000000 1.980750 0.000000 
#    z -0.010500 0.000000 2.158200 
# 
# From -- ./inp_files/207378.got.cif
#   From: 2010.05.17/outbox.cif.g08.bks.cpg/sg15_104_cif.got.tgz:207378.got - 2010.06.03 18:47:42.
