data_PCOD9253610
_publ_section_title
;
Structure prediction by ZEFSAII (Michael W. Deem and Ramdas Pophale) SiO2 
 PCOD9253610
Probable space group: P 21/C
;
_chemical_formula_sum "Si O2"
_cell_formula_units_Z 32
_cell_length_a 12.000000
_cell_length_b 15.000000
_cell_length_c 18.000000
_cell_angle_alpha 90.000000
_cell_angle_beta 30.000000
_cell_angle_gamma 90.000000
_cell_volume 1620.000000
_symmetry_space_group_name_H-M "P 21/C"
_symmetry_group_IT_number 14
_symmetry_cell_setting 'monoclinic'
loop_
_space_group_symop_operation_xyz
x,y,z
-x,1/2+y,1/2-z
-x,-y,-z
x,1/2-y,1/2+z
loop_
_atom_site_type_symbol
_atom_site_label
_atom_site_fract_x
_atom_site_fract_y
_atom_site_fract_z
Si Si1 0.893262 0.589011 0.814786
Si Si2 0.059590 0.901058 0.062532
Si Si3 0.344159 0.977496 0.769593
Si Si4 0.471066 0.211566 0.555284
Si Si5 0.855297 0.710575 0.984119
Si Si6 0.230918 0.582355 0.023127
Si Si7 0.886076 0.701126 0.136143
Si Si8 0.629003 0.280686 0.806798
O O1 0.689765 0.634193 0.886125
O O2 0.908939 0.646638 0.882165
O O3 0.853069 0.489140 0.867283
O O4 0.076743 0.591437 0.642387
O O5 0.016554 0.797349 0.065712
O O6 0.260399 0.942667 0.898203
O O7 0.845610 0.958816 0.156874
O O8 0.373766 0.887895 0.703675
O O9 0.574582 0.031826 0.635068
O O10 0.654059 0.164045 0.500093
O O11 0.325057 0.278346 0.689011
O O12 0.575508 0.251641 0.420858
O O13 0.102604 0.757895 0.855060
O O14 0.818079 0.678494 0.090688
O O15 0.601283 0.748521 0.107312
O O16 0.039642 0.623997 0.082190
#
# Coordination Sequence:
#
# PCOD9253610 Si02
#       8
#     4   4   4   4   4   4   4   4
#     4  10  21  43  64 102 134 178 228 289 346 420
#     4  10  22  41  65 101 135 173 238 292 331 414
#     4  11  20  42  69 100 130 179 238 288 335 416
#     4  10  22  40  66  99 132 176 236 283 337 420
#     4  11  25  44  67 101 146 180 234 286 353 416
#     4  12  22  40  72  96 135 182 229 285 351 419
#     4  11  25  40  65 103 136 178 229 289 355 406
#     4  11  24  43  71 102 137 185 232 290 344 415
#
# _framework density 19.753086
#
# number of rings (size 3 to 8) (size 9 to 14) (size 15 to 20)
#    0.000    1.250    6.250    1.125    7.000    0.500 
#    0.000    0.000    0.000    1.500    0.000    0.000 
#    0.000    0.000    0.000    0.000    0.000    0.000 
#
# Total GULP energy -178200.729032 kJ/mol
# GULP energy per Si atom -5568.772782 kJ/mol
# Density = 1.970813 g / cm^3
# Si number density = 19.753086 Si / 1000 Ang^3
#
#
#
# Elastic Constant Matrix: (Units=GPa)
#
#
# Indices 1 2 3 4 5 6 
#
# 1 107.6430 13.9158 36.2693 0.0000 11.9917 0.0000
# 2 13.9158 43.4009 15.5438 0.0000 2.1815 0.0000
# 3 36.2693 15.5438 90.7787 0.0000 20.5005 0.0000
# 4 0.0000 0.0000 0.0000 29.1265 0.0000 -3.0719
# 5 11.9917 2.1815 20.5005 0.0000 48.7948 0.0000
# 6 0.0000 0.0000 0.0000 -3.0719 0.0000 25.4261
#
#
#
# Elastic Compliance Matrix: (Units=1/GPa)
#
#
# Indices 1 2 3 4 5 6 
#
# 1 0.010950 -0.002104 -0.003788 0.000000 -0.001006 0.000000
# 2 -0.002104 0.024975 -0.003646 0.000000 0.000932 0.000000
# 3 -0.003788 -0.003646 0.014259 0.000000 -0.004897 0.000000
# 4 0.000000 0.000000 0.000000 0.034776 0.000000 0.004202
# 5 -0.001006 0.000932 -0.004897 0.000000 0.022757 0.000000
# 6 0.000000 0.000000 0.000000 0.004202 0.000000 0.039837
#
#
# Mechanical properties :
#
#
# Convention : Reuss Voigt Hill
#
# Bulk Modulus (GPa) = 32.14564 41.47559 36.81061
# Shear Modulus (GPa) = 28.24862 32.40904 30.32883
#
# Velocity S-wave (km/s) = 3.78575 4.05496 3.92267
# Velocity P-wave (km/s) = 5.95132 6.55486 6.26037
#
# Compressibility (1/GPa) = 0.03110842
#
# Stress axis : x y z
#
# Youngs Moduli (GPa) = 91.32252 40.04058 70.12950
#
# Poissons Ratio (x) = 0.08424 0.26562
# Poissons Ratio (y) = 0.19214 0.25572
# Poissons Ratio (z) = 0.34590 0.14600
#
# Static dielectric constant tensor:
#      x y z
#    x 1.683900 0.000000 0.003060 
#    y 0.000000 1.695710 0.000000 
#    z 0.003060 0.000000 1.801410 
# 
# From -- ./inp_files/57971.got.cif
#   From: 2010.05.17/outbox.ucp.g08.bks.cvg/sg14_29_cif.got.tgz:57971.got - 2010.06.11 12:31:08.
