data_PCOD9253572
_publ_section_title
;
Structure prediction by ZEFSAII (Michael W. Deem and Ramdas Pophale) SiO2 
 PCOD9253572
Probable space group: P 21/C
;
_chemical_formula_sum "Si O2"
_cell_formula_units_Z 28
_cell_length_a 15.000000
_cell_length_b 9.000000
_cell_length_c 12.000000
_cell_angle_alpha 90.000000
_cell_angle_beta 120.000000
_cell_angle_gamma 90.000000
_cell_volume 1402.961154
_symmetry_space_group_name_H-M "P 21/C"
_symmetry_group_IT_number 14
_symmetry_cell_setting 'monoclinic'
loop_
_space_group_symop_operation_xyz
x,y,z
-x,1/2+y,1/2-z
-x,-y,-z
x,1/2-y,1/2+z
loop_
_atom_site_type_symbol
_atom_site_label
_atom_site_fract_x
_atom_site_fract_y
_atom_site_fract_z
Si Si1 0.636891 0.303278 0.237943
Si Si2 0.795496 0.159223 0.639259
Si Si3 0.567102 0.622712 0.977277
Si Si4 0.892667 0.526425 0.371921
Si Si5 0.281830 0.001882 0.613388
Si Si6 0.755656 0.789095 0.199131
Si Si7 0.747519 0.030848 0.991731
O O1 0.698266 0.356889 0.164608
O O2 0.521029 0.270862 0.127380
O O3 0.648007 0.410336 0.355234
O O4 0.689387 0.150518 0.307461
O O5 0.789113 0.323233 0.583197
O O6 0.884248 0.108957 0.778261
O O7 0.795847 0.047635 0.533950
O O8 0.624880 0.560917 0.904367
O O9 0.500000 0.500000 0.000000
O O10 0.651498 0.694361 0.111738
O O11 0.851507 0.673602 0.278515
O O12 0.816240 0.514753 0.429434
O O13 0.000000 0.500000 0.500000
O O14 0.250603 0.116619 0.690114
O O15 0.751633 0.900014 0.087818
#
# Coordination Sequence:
#
# PCOD9253572 Si02
#       7
#     4   4   4   4   4   4   4
#     4  10  22  39  66  92 133 180 218 264 319 379
#     4  10  20  47  65  92 132 171 216 271 330 385
#     4  12  24  38  58  95 139 173 222 265 316 378
#     4  11  25  45  69  97 129 164 215 277 340 397
#     4  11  23  39  64  93 133 176 219 269 325 382
#     4  12  25  43  69  98 132 176 222 275 328 391
#     4  10  23  44  69  95 131 172 217 267 330 395
#
# _framework density 19.957787
#
# number of rings (size 3 to 8) (size 9 to 14) (size 15 to 20)
#    0.000    1.143    4.286    1.714    4.000    1.714 
#    0.000    0.714    0.000    0.000    0.000    0.000 
#    0.000    0.000    0.000    0.000    0.000    0.000 
#
# Total GULP energy -155872.230355 kJ/mol
# GULP energy per Si atom -5566.865370 kJ/mol
# Density = 1.991236 g / cm^3
# Si number density = 19.957787 Si / 1000 Ang^3
#
#
#
# Elastic Constant Matrix: (Units=GPa)
#
#
# Indices 1 2 3 4 5 6 
#
# 1 14.7830 17.0675 20.7297 0.0000 -6.4896 0.0000
# 2 17.0675 93.4632 55.7051 0.0000 -2.4001 0.0000
# 3 20.7297 55.7051 146.2187 0.0000 4.1402 0.0000
# 4 0.0000 0.0000 0.0000 47.6856 0.0000 -19.6442
# 5 -6.4896 -2.4001 4.1402 0.0000 52.2680 0.0000
# 6 0.0000 0.0000 0.0000 -19.6442 0.0000 19.4064
#
#
#
# Elastic Compliance Matrix: (Units=1/GPa)
#
#
# Indices 1 2 3 4 5 6 
#
# 1 0.101538 -0.012181 -0.010118 0.000000 0.012849 0.000000
# 2 -0.012181 0.015362 -0.004112 0.000000 -0.000481 0.000000
# 3 -0.010118 -0.004112 0.009903 0.000000 -0.002230 0.000000
# 4 0.000000 0.000000 0.000000 0.035970 0.000000 0.036411
# 5 0.012849 -0.000481 -0.002230 0.000000 0.020882 0.000000
# 6 0.000000 0.000000 0.000000 0.036411 0.000000 0.088387
#
#
# Mechanical properties :
#
#
# Convention : Reuss Voigt Hill
#
# Bulk Modulus (GPa) = 13.51713 49.05217 31.28465
# Shear Modulus (GPa) = 14.30506 34.60283 24.45395
#
# Velocity S-wave (km/s) = 2.68015 4.16841 3.50420
# Velocity P-wave (km/s) = 4.04539 6.91367 5.66410
#
# Compressibility (1/GPa) = 0.07398021
#
# Stress axis : x y z
#
# Youngs Moduli (GPa) = 9.84851 65.09442 100.97711
#
# Poissons Ratio (x) = 0.79295 1.02172
# Poissons Ratio (y) = 0.11997 0.41521
# Poissons Ratio (z) = 0.09965 0.26767
#
# Static dielectric constant tensor:
#      x y z
#    x 1.741230 0.000000 0.049990 
#    y 0.000000 1.786090 0.000000 
#    z 0.049990 0.000000 1.728130 
# 
# From -- ./inp_files/31681.got.cif
#   From: 2010.05.17/outbox.ucp.g08.bks.cvg/sg14_16_cif.got.tgz:31681.got - 2010.06.11 12:31:08.
