data_PCOD9253476
_publ_section_title
;
Structure prediction by ZEFSAII (Michael W. Deem and Ramdas Pophale) SiO2 
 PCOD9253476
Probable space group: P 21/C
;
_chemical_formula_sum "Si O2"
_cell_formula_units_Z 32
_cell_length_a 12.000000
_cell_length_b 18.000000
_cell_length_c 15.000000
_cell_angle_alpha 90.000000
_cell_angle_beta 30.000000
_cell_angle_gamma 90.000000
_cell_volume 1620.000000
_symmetry_space_group_name_H-M "P 21/C"
_symmetry_group_IT_number 14
_symmetry_cell_setting 'monoclinic'
loop_
_space_group_symop_operation_xyz
x,y,z
-x,1/2+y,1/2-z
-x,-y,-z
x,1/2-y,1/2+z
loop_
_atom_site_type_symbol
_atom_site_label
_atom_site_fract_x
_atom_site_fract_y
_atom_site_fract_z
Si Si1 0.364403 0.092513 0.282597
Si Si2 0.782423 0.920878 0.279568
Si Si3 0.636156 0.073207 0.793744
Si Si4 0.710303 0.098277 0.332262
Si Si5 0.118405 0.391394 0.673204
Si Si6 0.025523 0.824678 0.547411
Si Si7 0.206203 0.656443 0.414916
Si Si8 0.993148 0.557966 0.820060
O O1 0.604548 0.126685 0.145533
O O2 0.199022 0.153855 0.353019
O O3 0.217220 0.064040 0.468178
O O4 0.383130 0.016318 0.210669
O O5 0.527493 0.890809 0.452275
O O6 0.901394 0.905496 0.292955
O O7 0.748151 0.009586 0.293077
O O8 0.971928 0.888905 0.083503
O O9 0.787935 0.114900 0.614008
O O10 0.785406 0.085706 0.780334
O O11 0.383778 0.105093 0.969814
O O12 0.687152 0.137631 0.253975
O O13 0.938985 0.125294 0.220098
O O14 0.051469 0.473591 0.754118
O O15 0.056803 0.336482 0.795282
O O16 0.134866 0.743037 0.465909
#
# Coordination Sequence:
#
# PCOD9253476 Si02
#       8
#     4   4   4   4   4   4   4   4
#     4  11  21  43  71  92 133 171 221 278 321 388
#     4  10  22  40  67  94 127 179 222 277 311 389
#     4  11  22  40  73  98 128 168 223 278 330 377
#     4  10  23  42  63  94 132 174 224 268 315 391
#     4  11  22  39  68  97 129 165 217 274 328 382
#     4  11  26  43  61 100 137 169 213 280 334 388
#     4  12  26  43  64  97 136 180 217 260 347 399
#     4  10  18  39  68 100 125 157 227 281 317 371
#
# _framework density 19.753086
#
# number of rings (size 3 to 8) (size 9 to 14) (size 15 to 20)
#    0.000    1.250    3.750    3.000    1.750    4.000 
#    4.500    0.000    0.000    0.000    0.000    0.000 
#    0.000    0.000    0.000    0.000    0.000    0.000 
#
# Total GULP energy -178499.395236 kJ/mol
# GULP energy per Si atom -5578.106101 kJ/mol
# Density = 1.970813 g / cm^3
# Si number density = 19.753086 Si / 1000 Ang^3
#
#
#
# Elastic Constant Matrix: (Units=GPa)
#
#
# Indices 1 2 3 4 5 6 
#
# 1 84.7942 18.2768 23.5159 0.0000 -30.0009 0.0000
# 2 18.2768 55.1444 28.8136 0.0000 -21.5273 0.0000
# 3 23.5159 28.8136 119.2798 0.0000 -36.1134 0.0000
# 4 0.0000 0.0000 0.0000 24.2410 0.0000 -4.5348
# 5 -30.0009 -21.5273 -36.1134 0.0000 43.7227 0.0000
# 6 0.0000 0.0000 0.0000 -4.5348 0.0000 17.4532
#
#
#
# Elastic Compliance Matrix: (Units=1/GPa)
#
#
# Indices 1 2 3 4 5 6 
#
# 1 0.015654 -0.001327 0.000385 0.000000 0.010406 0.000000
# 2 -0.001327 0.023269 -0.002889 0.000000 0.008160 0.000000
# 3 0.000385 -0.002889 0.011541 0.000000 0.008374 0.000000
# 4 0.000000 0.000000 0.000000 0.043360 0.000000 0.011266
# 5 0.010406 0.008160 0.008374 0.000000 0.040946 0.000000
# 6 0.000000 0.000000 0.000000 0.011266 0.000000 0.060223
#
#
# Mechanical properties :
#
#
# Convention : Reuss Voigt Hill
#
# Bulk Modulus (GPa) = 23.36339 44.49235 33.92787
# Shear Modulus (GPa) = 23.04966 29.65752 26.35359
#
# Velocity S-wave (km/s) = 3.41968 3.87901 3.65657
# Velocity P-wave (km/s) = 5.23886 6.52958 5.91951
#
# Compressibility (1/GPa) = 0.04280201
#
# Stress axis : x y z
#
# Youngs Moduli (GPa) = 63.88033 42.97560 86.64775
#
# Poissons Ratio (x) = 0.05704 -0.03335
# Poissons Ratio (y) = 0.08479 0.25030
# Poissons Ratio (z) = -0.02459 0.12414
#
# Static dielectric constant tensor:
#      x y z
#    x 1.759620 0.000000 0.031770 
#    y 0.000000 1.681300 0.000000 
#    z 0.031770 0.000000 1.692050 
# 
# From -- ./inp_files/45418.got.cif
#   From: 2010.05.17/outbox.ucp.g08.bks.cvg/sg14_23_cif.got.tgz:45418.got - 2010.06.11 12:31:08.
