data_PCOD9253611
_publ_section_title
;
Structure prediction by ZEFSAII (Michael W. Deem and Ramdas Pophale) SiO2 
 PCOD9253611
Probable space group: P 21/C
;
_chemical_formula_sum "Si O2"
_cell_formula_units_Z 32
_cell_length_a 9.000000
_cell_length_b 12.000000
_cell_length_c 30.000000
_cell_angle_alpha 90.000000
_cell_angle_beta 30.000000
_cell_angle_gamma 90.000000
_cell_volume 1620.000000
_symmetry_space_group_name_H-M "P 21/C"
_symmetry_group_IT_number 14
_symmetry_cell_setting 'monoclinic'
loop_
_space_group_symop_operation_xyz
x,y,z
-x,1/2+y,1/2-z
-x,-y,-z
x,1/2-y,1/2+z
loop_
_atom_site_type_symbol
_atom_site_label
_atom_site_fract_x
_atom_site_fract_y
_atom_site_fract_z
Si Si1 0.126505 0.930918 0.529009
Si Si2 0.182895 0.252266 0.947162
Si Si3 0.228790 0.081516 0.852037
Si Si4 0.814345 0.931226 0.324716
Si Si5 0.137978 0.695490 0.204762
Si Si6 0.083002 0.610029 0.850885
Si Si7 0.200081 0.823573 0.868130
Si Si8 0.089333 0.279658 0.832713
O O1 0.456750 0.929332 0.422841
O O2 0.921925 0.870537 0.545784
O O3 0.058082 0.853440 0.590167
O O4 0.034629 0.049641 0.573794
O O5 0.185854 0.155119 0.908179
O O6 0.525544 0.271894 0.870963
O O7 0.954361 0.216074 0.045595
O O8 0.574227 0.081127 0.747903
O O9 0.074013 0.152956 0.853678
O O10 0.131939 0.954163 0.881128
O O11 0.940046 0.807078 0.274184
O O12 0.921037 0.930676 0.348517
O O13 0.901645 0.054723 0.278568
O O14 0.090148 0.702945 0.164968
O O15 0.069403 0.742443 0.863755
O O16 0.561091 0.808144 0.769164
#
# Coordination Sequence:
#
# PCOD9253611 Si02
#       8
#     4   4   4   4   4   4   4   4
#     4  11  23  44  71  97 133 176 234 273 331 409
#     4  11  25  42  68 103 134 176 228 281 340 405
#     4  10  21  43  65  94 138 178 222 281 338 407
#     4  12  26  44  72 100 141 177 226 284 347 396
#     4  12  26  46  68 102 140 178 224 290 340 407
#     4  11  22  40  69  97 129 178 229 284 330 402
#     4  11  22  40  70  94 134 179 226 277 344 396
#     4  10  23  41  67  97 130 177 224 273 335 402
#
# _framework density 19.753086
#
# number of rings (size 3 to 8) (size 9 to 14) (size 15 to 20)
#    0.000    1.000    3.750    2.250    1.750    5.000 
#    4.500    0.625    0.000    0.000    0.000    0.000 
#    0.000    0.000    0.000    0.000    0.000    0.000 
#
# Total GULP energy -178262.134199 kJ/mol
# GULP energy per Si atom -5570.691694 kJ/mol
# Density = 1.970813 g / cm^3
# Si number density = 19.753086 Si / 1000 Ang^3
#
#
#
# Elastic Constant Matrix: (Units=GPa)
#
#
# Indices 1 2 3 4 5 6 
#
# 1 57.7768 38.3062 9.5815 0.0000 -0.2894 0.0000
# 2 38.3062 165.4191 31.4285 0.0000 -2.4227 0.0000
# 3 9.5815 31.4285 97.6306 0.0000 7.7344 0.0000
# 4 0.0000 0.0000 0.0000 29.0251 0.0000 7.6164
# 5 -0.2894 -2.4227 7.7344 0.0000 23.6730 0.0000
# 6 0.0000 0.0000 0.0000 7.6164 0.0000 23.5685
#
#
#
# Elastic Compliance Matrix: (Units=1/GPa)
#
#
# Indices 1 2 3 4 5 6 
#
# 1 0.020472 -0.004645 -0.000509 0.000000 -0.000059 0.000000
# 2 -0.004645 0.007537 -0.002081 0.000000 0.001394 0.000000
# 3 -0.000509 -0.002081 0.011272 0.000000 -0.003902 0.000000
# 4 0.000000 0.000000 0.000000 0.037645 0.000000 -0.012165
# 5 -0.000059 0.001394 -0.003902 0.000000 0.043659 0.000000
# 6 0.000000 0.000000 0.000000 -0.012165 0.000000 0.046361
#
#
# Mechanical properties :
#
#
# Convention : Reuss Voigt Hill
#
# Bulk Modulus (GPa) = 40.30575 53.27320 46.78947
# Shear Modulus (GPa) = 26.35955 31.35401 28.85678
#
# Velocity S-wave (km/s) = 3.65698 3.98841 3.82629
# Velocity P-wave (km/s) = 6.18712 6.94536 6.57717
#
# Compressibility (1/GPa) = 0.02481036
#
# Stress axis : x y z
#
# Youngs Moduli (GPa) = 48.84812 132.68606 88.71863
#
# Poissons Ratio (x) = 0.61629 0.04518
# Poissons Ratio (y) = 0.22689 0.18460
# Poissons Ratio (z) = 0.02488 0.27609
#
# Static dielectric constant tensor:
#      x y z
#    x 1.718020 0.000000 -0.013770 
#    y 0.000000 1.782750 0.000000 
#    z -0.013770 0.000000 1.708470 
# 
# From -- ./inp_files/79629.got.cif
#   From: 2010.05.17/outbox.ucp.g08.bks.cvg/sg14_40_cif.got.tgz:79629.got - 2010.06.11 12:31:08.
