data_PCOD9253037
_publ_section_title
;
Structure prediction by ZEFSAII (Michael W. Deem and Ramdas Pophale) SiO2 
 PCOD9253037
Probable space group: P 21/C
;
_chemical_formula_sum "Si O2"
_cell_formula_units_Z 24
_cell_length_a 12.025866
_cell_length_b 15.845159
_cell_length_c 17.912642
_cell_angle_alpha 90.000000
_cell_angle_beta 19.189043
_cell_angle_gamma 90.000000
_cell_volume 1121.899282
_symmetry_space_group_name_H-M "P 21/C"
_symmetry_group_IT_number 14
_symmetry_cell_setting 'monoclinic'
loop_
_space_group_symop_operation_xyz
x,y,z
-x,1/2+y,1/2-z
-x,-y,-z
x,1/2-y,1/2+z
loop_
_atom_site_type_symbol
_atom_site_label
_atom_site_fract_x
_atom_site_fract_y
_atom_site_fract_z
Si Si1 0.581284 0.854137 0.089389
Si Si2 0.200812 0.919352 0.903295
Si Si3 0.929903 0.757460 0.987137
Si Si4 0.722752 0.188860 0.008708
Si Si5 0.211499 0.152273 0.203939
Si Si6 0.756728 0.027296 0.588106
O O1 0.210628 0.814205 0.314068
O O2 0.540328 0.923868 0.179360
O O3 0.827523 0.784232 0.968918
O O4 0.703946 0.882891 0.931230
O O5 0.094937 0.837937 0.923494
O O6 0.152229 0.889775 0.020225
O O7 0.591400 0.948305 0.651243
O O8 0.000000 0.000000 0.000000
O O9 0.589061 0.730296 0.246396
O O10 0.544475 0.163537 0.044210
O O11 0.019440 0.257966 0.815999
O O12 0.954008 0.090557 0.409637
O O13 0.000000 0.000000 0.500000
#
# Coordination Sequence:
#
# PCOD9253037 Si02
#       6
#     4   4   4   4   4   4
#     4  12  25  43  69  98 129 174 227 276 324 394
#     4  12  22  39  70  96 132 174 212 271 337 392
#     4  12  21  44  71  95 130 177 225 270 327 395
#     4  12  21  44  70  95 130 177 220 275 325 391
#     4  12  25  43  69  98 130 173 230 274 327 392
#     4  12  24  43  66  93 135 175 214 270 341 395
#
# _framework density 21.392295000000001
#
# number of rings (size 3 to 8) (size 9 to 14) (size 15 to 20)
#    0.000    0.000   10.000    1.000    0.000    0.667 
#    0.000    0.833    0.000    0.000    0.000    0.000 
#    0.000    0.000    0.000    0.000    0.000    0.000 
#
# Total GULP energy -134202.578635 kJ/mol
# GULP energy per Si atom -5591.774110 kJ/mol
# Density = 2.134361 g / cm^3
# Si number density = 21.392295 Si / 1000 Ang^3
#
#
#
# Elastic Constant Matrix: (Units=GPa)
#
#
# Indices 1 2 3 4 5 6 
#
# 1 136.8634 13.7710 40.4788 0.0000 -0.4685 0.0000
# 2 13.7710 66.4364 22.7114 0.0000 -0.0347 0.0000
# 3 40.4788 22.7114 48.5173 0.0000 -0.7079 0.0000
# 4 0.0000 0.0000 0.0000 8.2429 0.0000 -24.2531
# 5 -0.4685 -0.0347 -0.7079 0.0000 45.1781 0.0000
# 6 0.0000 0.0000 0.0000 -24.2531 0.0000 43.9217
#
#
#
# Elastic Compliance Matrix: (Units=1/GPa)
#
#
# Indices 1 2 3 4 5 6 
#
# 1 0.009746 0.000904 -0.008555 0.000000 -0.000032 0.000000
# 2 0.000904 0.018004 -0.009184 0.000000 -0.000121 0.000000
# 3 -0.008555 -0.009184 0.032054 0.000000 0.000406 0.000000
# 4 0.000000 0.000000 0.000000 -0.194195 0.000000 -0.107233
# 5 -0.000032 -0.000121 0.000406 0.000000 0.022141 0.000000
# 6 0.000000 0.000000 0.000000 -0.107233 0.000000 -0.036445
#
#
# Mechanical properties :
#
#
# Convention : Reuss Voigt Hill
#
# Bulk Modulus (GPa) = 38.26389 45.08218 41.67304
# Shear Modulus (GPa) = -47.02967 31.12561 -7.95203
#
# Velocity S-wave (km/s) = -4.69384 3.81857 -1.93011
# Velocity P-wave (km/s) = 3.38387 6.36881 3.81518
#
# Compressibility (1/GPa) = 0.02613430
#
# Stress axis : x y z
#
# Youngs Moduli (GPa) = 102.61041 55.54299 31.19772
#
# Poissons Ratio (x) = -0.05023 0.26689
# Poissons Ratio (y) = -0.09280 0.28652
# Poissons Ratio (z) = 0.87780 0.51011
#
# Static dielectric constant tensor:
#      x y z
#    x 1.793940 0.000000 -0.033520 
#    y 0.000000 1.857670 0.000000 
#    z -0.033520 0.000000 1.793550 
# 
# From -- ./inp_files/58090.got.cif
#   From: 2010.05.17/outbox.cif.g08.bks.cpg/sg14_30_cif.got.tgz:58090.got - 2010.06.03 17:49:19.
