data_PCOD9253757
_publ_section_title
;
Structure prediction by ZEFSAII (Michael W. Deem and Ramdas Pophale) SiO2 
 PCOD9253757
Probable space group: P 21/C
;
_chemical_formula_sum "Si O2"
_cell_formula_units_Z 16
_cell_length_a 15.000000
_cell_length_b 9.000000
_cell_length_c 15.000000
_cell_angle_alpha 90.000000
_cell_angle_beta 160.000000
_cell_angle_gamma 90.000000
_cell_volume 692.590790
_symmetry_space_group_name_H-M "P 21/C"
_symmetry_group_IT_number 14
_symmetry_cell_setting 'monoclinic'
loop_
_space_group_symop_operation_xyz
x,y,z
-x,1/2+y,1/2-z
-x,-y,-z
x,1/2-y,1/2+z
loop_
_atom_site_type_symbol
_atom_site_label
_atom_site_fract_x
_atom_site_fract_y
_atom_site_fract_z
Si Si1 0.168039 0.969107 0.415391
Si Si2 0.497783 0.681108 0.503148
Si Si3 0.328495 0.198756 0.027102
Si Si4 0.977176 0.855557 0.042651
O O1 0.438413 0.884743 0.698214
O O2 0.042837 0.926209 0.201318
O O3 0.225200 0.146015 0.472999
O O4 0.917521 0.905977 0.233611
O O5 0.500000 0.500000 0.500000
O O6 0.548875 0.742649 0.451966
O O7 0.208976 0.736851 0.252602
O O8 0.710784 0.764554 0.767376
O O9 0.000000 0.000000 0.000000
#
# Coordination Sequence:
#
# PCOD9253757 Si02
#       4
#     4   4   4   4
#     4  12  28  47  75 105 147 191 240 296 368 429
#     4  12  28  48  75 108 148 187 246 300 356 426
#     4  12  28  48  73 109 147 190 240 298 363 432
#     4  12  26  50  75 103 143 197 241 293 359 431
#
# _framework density 23.101664
#
# number of rings (size 3 to 8) (size 9 to 14) (size 15 to 20)
#    0.000    0.000    2.500    6.000   14.000    0.000 
#    0.000    0.000    0.000    0.000    0.000    0.000 
#    0.000    0.000    0.000    0.000    0.000    0.000 
#
# Total GULP energy -89458.885850 kJ/mol
# GULP energy per Si atom -5591.180366 kJ/mol
# Density = 2.304908 g / cm^3
# Si number density = 23.101664 Si / 1000 Ang^3
#
#
#
# Elastic Constant Matrix: (Units=GPa)
#
#
# Indices 1 2 3 4 5 6 
#
# 1 51.2592 -11.8988 -1.2147 0.0000 -15.1569 0.0000
# 2 -11.8988 152.4373 60.9353 0.0000 -5.8013 0.0000
# 3 -1.2147 60.9353 212.6083 0.0000 -5.3221 0.0000
# 4 0.0000 0.0000 0.0000 57.2252 0.0000 -0.0331
# 5 -15.1569 -5.8013 -5.3221 0.0000 40.7861 0.0000
# 6 0.0000 0.0000 0.0000 -0.0331 0.0000 32.8162
#
#
#
# Elastic Compliance Matrix: (Units=1/GPa)
#
#
# Indices 1 2 3 4 5 6 
#
# 1 0.022577 0.002207 -0.000287 0.000000 0.008666 0.000000
# 2 0.002207 0.007649 -0.002139 0.000000 0.001629 0.000000
# 3 -0.000287 -0.002139 0.005322 0.000000 0.000284 0.000000
# 4 0.000000 0.000000 0.000000 0.017475 0.000000 0.000018
# 5 0.008666 0.001629 0.000284 0.000000 0.028007 0.000000
# 6 0.000000 0.000000 0.000000 0.000018 0.000000 0.030473
#
#
# Mechanical properties :
#
#
# Convention : Reuss Voigt Hill
#
# Bulk Modulus (GPa) = 28.48163 56.88313 42.68238
# Shear Modulus (GPa) = 40.43855 50.73102 45.58479
#
# Velocity S-wave (km/s) = 4.18839 4.69122 4.44692
# Velocity P-wave (km/s) = 5.97877 7.34982 6.69946
#
# Compressibility (1/GPa) = 0.03511035
#
# Stress axis : x y z
#
# Youngs Moduli (GPa) = 44.29338 130.73015 187.89927
#
# Poissons Ratio (x) = -0.28847 0.05383
# Poissons Ratio (y) = -0.09774 0.40191
# Poissons Ratio (z) = 0.01269 0.27963
#
# Static dielectric constant tensor:
#      x y z
#    x 2.346340 0.000000 0.191800 
#    y 0.000000 1.858350 0.000000 
#    z 0.191800 0.000000 1.870850 
# 
# From -- ./inp_files/36648.got.cif
#   From: 2010.05.17/outbox.ucp.g08.bks.cvg/sg14_19_cif.got.tgz:36648.got - 2010.06.11 12:31:08.
