data_PCOD9253025
_publ_section_title
;
Structure prediction by ZEFSAII (Michael W. Deem and Ramdas Pophale) SiO2 
 PCOD9253025
Probable space group: P 21/C
;
_chemical_formula_sum "Si O2"
_cell_formula_units_Z 32
_cell_length_a 15.469892
_cell_length_b 19.318967
_cell_length_c 15.532189
_cell_angle_alpha 90.000000
_cell_angle_beta 18.236542
_cell_angle_gamma 90.000000
_cell_volume 1452.666547
_symmetry_space_group_name_H-M "P 21/C"
_symmetry_group_IT_number 14
_symmetry_cell_setting 'monoclinic'
loop_
_space_group_symop_operation_xyz
x,y,z
-x,1/2+y,1/2-z
-x,-y,-z
x,1/2-y,1/2+z
loop_
_atom_site_type_symbol
_atom_site_label
_atom_site_fract_x
_atom_site_fract_y
_atom_site_fract_z
Si Si1 0.045835 0.185397 0.954371
Si Si2 0.560173 0.961922 0.118018
Si Si3 0.492167 0.126531 0.195835
Si Si4 0.464033 0.159168 0.414479
Si Si5 0.000392 0.437384 0.932384
Si Si6 0.906649 0.571270 0.445684
Si Si7 0.933805 0.331306 0.141799
Si Si8 0.554347 0.506245 0.048183
O O1 0.256566 0.198933 0.675506
O O2 0.134061 0.125879 0.938845
O O3 0.756852 0.162796 0.185265
O O4 0.002642 0.252818 0.053600
O O5 0.236636 0.947418 0.414652
O O6 0.580982 0.045160 0.115290
O O7 0.730206 0.916638 0.026526
O O8 0.703562 0.941737 0.892637
O O9 0.517016 0.168821 0.262282
O O10 0.174304 0.131803 0.468993
O O11 0.663759 0.160536 0.955612
O O12 0.337683 0.081800 0.533338
O O13 0.928257 0.370274 0.055840
O O14 0.000000 0.500000 0.000000
O O15 0.749315 0.502582 0.626229
O O16 0.226266 0.551760 0.130740
O O17 0.500000 0.500000 0.000000
#
# Coordination Sequence:
#
# PCOD9253025 Si02
#       8
#     4   4   4   4   4   4   4   4
#     4  12  26  48  65  97 143 196 222 264 343 436
#     4  12  24  40  70 108 133 164 230 297 347 392
#     4  12  24  44  72 103 129 170 226 301 341 397
#     4  12  25  42  73 100 136 174 235 276 338 415
#     4  12  23  44  71  98 132 175 228 294 345 395
#     4  12  24  40  66 100 144 174 219 280 344 399
#     4  12  27  47  71  93 141 187 231 275 349 408
#     4  12  21  37  67 100 131 180 216 275 334 398
#
# _framework density 22.028455999999998
#
# number of rings (size 3 to 8) (size 9 to 14) (size 15 to 20)
#    0.000    0.000    6.250    4.500    1.750    0.000 
#    6.750    0.000    0.000    0.000    0.000    0.000 
#    0.000    0.000    0.000    0.000    0.000    0.000 
#
# Total GULP energy -178716.191604 kJ/mol
# GULP energy per Si atom -5584.880988 kJ/mol
# Density = 2.197832 g / cm^3
# Si number density = 22.028456 Si / 1000 Ang^3
#
#
#
# Elastic Constant Matrix: (Units=GPa)
#
#
# Indices 1 2 3 4 5 6 
#
# 1 101.8832 11.4881 -2.0185 0.0000 -7.6577 0.0000
# 2 11.4881 48.4784 -7.6077 0.0000 -5.7433 0.0000
# 3 -2.0185 -7.6077 62.9706 0.0000 -11.1686 0.0000
# 4 0.0000 0.0000 0.0000 11.3204 0.0000 -0.5717
# 5 -7.6577 -5.7433 -11.1686 0.0000 32.3551 0.0000
# 6 0.0000 0.0000 0.0000 -0.5717 0.0000 11.8976
#
#
#
# Elastic Compliance Matrix: (Units=1/GPa)
#
#
# Indices 1 2 3 4 5 6 
#
# 1 0.010226 -0.002088 0.000468 0.000000 0.002211 0.000000
# 2 -0.002088 0.022211 0.003439 0.000000 0.004636 0.000000
# 3 0.000468 0.003439 0.017511 0.000000 0.006766 0.000000
# 4 0.000000 0.000000 0.000000 0.088551 0.000000 0.004255
# 5 0.002211 0.004636 0.006766 0.000000 0.034589 0.000000
# 6 0.000000 0.000000 0.000000 0.004255 0.000000 0.084255
#
#
# Mechanical properties :
#
#
# Convention : Reuss Voigt Hill
#
# Bulk Modulus (GPa) = 18.66192 24.11734 21.38963
# Shear Modulus (GPa) = 18.41161 25.21263 21.81212
#
# Velocity S-wave (km/s) = 2.89417 3.38679 3.15013
# Velocity P-wave (km/s) = 4.43379 5.12502 4.79188
#
# Compressibility (1/GPa) = 0.05358506
#
# Stress axis : x y z
#
# Youngs Moduli (GPa) = 97.78945 45.02204 57.10751
#
# Poissons Ratio (x) = 0.09400 -0.02671
# Poissons Ratio (y) = 0.20418 -0.19637
# Poissons Ratio (z) = -0.04574 -0.15482
#
# Static dielectric constant tensor:
#      x y z
#    x 1.890340 0.000000 0.050710 
#    y 0.000000 1.838260 0.000000 
#    z 0.050710 0.000000 1.792330 
# 
# From -- ./inp_files/47657.got.cif
#   From: 2010.05.17/outbox.cif.g08.bks.cpg/sg14_24_cif.got.tgz:47657.got - 2010.06.03 17:49:19.
