data_PCOD9253497
_publ_section_title
;
Structure prediction by ZEFSAII (Michael W. Deem and Ramdas Pophale) SiO2 
 PCOD9253497
Probable space group: P 21/C
;
_chemical_formula_sum "Si O2"
_cell_formula_units_Z 32
_cell_length_a 15.000000
_cell_length_b 15.000000
_cell_length_c 21.000000
_cell_angle_alpha 90.000000
_cell_angle_beta 20.000000
_cell_angle_gamma 90.000000
_cell_volume 1616.045177
_symmetry_space_group_name_H-M "P 21/C"
_symmetry_group_IT_number 14
_symmetry_cell_setting 'monoclinic'
loop_
_space_group_symop_operation_xyz
x,y,z
-x,1/2+y,1/2-z
-x,-y,-z
x,1/2-y,1/2+z
loop_
_atom_site_type_symbol
_atom_site_label
_atom_site_fract_x
_atom_site_fract_y
_atom_site_fract_z
Si Si1 0.984730 0.360488 0.049519
Si Si2 0.888096 0.903557 0.964644
Si Si3 0.708132 0.264688 0.836573
Si Si4 0.728240 0.897094 0.402827
Si Si5 0.590034 0.989695 0.767705
Si Si6 0.676130 0.339659 0.484295
Si Si7 0.338074 0.210997 0.778579
Si Si8 0.678470 0.531686 0.791751
O O1 0.852916 0.308383 0.196148
O O2 0.771798 0.426779 0.162951
O O3 0.235508 0.424609 0.894277
O O4 0.101607 0.281493 0.926669
O O5 0.086728 0.845739 0.787738
O O6 0.715569 0.829150 0.115993
O O7 0.085547 0.961124 0.876296
O O8 0.682768 0.972887 0.074526
O O9 0.615941 0.215544 0.961479
O O10 0.464236 0.311879 0.965876
O O11 0.714734 0.935873 0.340210
O O12 0.023292 0.869771 0.219146
O O13 0.588202 0.975191 0.537277
O O14 0.505764 0.925884 0.882842
O O15 0.596863 0.269373 0.593217
O O16 0.326116 0.122309 0.744515
#
# Coordination Sequence:
#
# PCOD9253497 Si02
#       8
#     4   4   4   4   4   4   4   4
#     4   9  22  41  56  81 118 152 187 234 285 338
#     4  10  21  38  60  85 113 148 191 238 287 340
#     4  10  22  40  58  87 117 147 194 238 281 341
#     4  10  21  36  59  87 118 147 184 241 288 331
#     4  10  21  40  58  80 117 154 189 232 287 339
#     4  11  22  37  60  87 115 152 194 231 283 347
#     4  10  21  38  59  87 112 146 193 236 282 344
#     4  10  19  38  60  83 118 145 185 242 290 332
#
# _framework density 19.801427
#
# number of rings (size 3 to 8) (size 9 to 14) (size 15 to 20)
#    0.000    2.000    2.500    0.375    1.750    2.500 
#    4.500    0.000    0.000    0.000    0.000    0.000 
#    0.000    0.000    0.000    0.000    0.000    0.000 
#
# Total GULP energy -178241.222647 kJ/mol
# GULP energy per Si atom -5570.038208 kJ/mol
# Density = 1.975636 g / cm^3
# Si number density = 19.801427 Si / 1000 Ang^3
#
#
#
# Elastic Constant Matrix: (Units=GPa)
#
#
# Indices 1 2 3 4 5 6 
#
# 1 2.8401 15.3237 10.7650 0.0000 2.8943 0.0000
# 2 15.3237 132.8294 53.7464 0.0000 1.4074 0.0000
# 3 10.7650 53.7464 100.0832 0.0000 -5.0279 0.0000
# 4 0.0000 0.0000 0.0000 43.5936 0.0000 7.8821
# 5 2.8943 1.4074 -5.0279 0.0000 20.7346 0.0000
# 6 0.0000 0.0000 0.0000 7.8821 0.0000 24.2102
#
#
#
# Elastic Compliance Matrix: (Units=1/GPa)
#
#
# Indices 1 2 3 4 5 6 
#
# 1 2.889202 -0.248010 -0.199422 0.000000 -0.434820 0.000000
# 2 -0.248010 0.030985 0.011814 0.000000 0.035381 0.000000
# 3 -0.199422 0.011814 0.026782 0.000000 0.033529 0.000000
# 4 0.000000 0.000000 0.000000 0.024374 0.000000 -0.007935
# 5 -0.434820 0.035381 0.033529 0.000000 0.114653 0.000000
# 6 0.000000 0.000000 0.000000 -0.007935 0.000000 0.043889
#
#
# Mechanical properties :
#
#
# Convention : Reuss Voigt Hill
#
# Bulk Modulus (GPa) = 0.48176 43.93587 22.20881
# Shear Modulus (GPa) = 1.06541 28.10217 14.58379
#
# Velocity S-wave (km/s) = 0.73431 3.77131 2.71680
# Velocity P-wave (km/s) = 0.98121 6.41873 4.59145
#
# Compressibility (1/GPa) = 2.07573224
#
# Stress axis : x y z
#
# Youngs Moduli (GPa) = 0.34612 32.27415 37.33914
#
# Poissons Ratio (x) = 8.00431 7.44625
# Poissons Ratio (y) = 0.08584 -0.44113
# Poissons Ratio (z) = 0.06902 -0.38129
#
# Static dielectric constant tensor:
#      x y z
#    x 1.698640 0.000000 0.042020 
#    y 0.000000 1.707560 0.000000 
#    z 0.042020 0.000000 1.744140 
# 
# From -- ./inp_files/68625.got.cif
#   From: 2010.05.17/outbox.ucp.g08.bks.cvg/sg14_35_cif.got.tgz:68625.got - 2010.06.11 12:31:08.
