data_PCOD9253531
_publ_section_title
;
Structure prediction by ZEFSAII (Michael W. Deem and Ramdas Pophale) SiO2 
 PCOD9253531
Probable space group: P 21/C
;
_chemical_formula_sum "Si O2"
_cell_formula_units_Z 32
_cell_length_a 12.000000
_cell_length_b 15.000000
_cell_length_c 9.000000
_cell_angle_alpha 90.000000
_cell_angle_beta 90.000000
_cell_angle_gamma 90.000000
_cell_volume 1620.000000
_symmetry_space_group_name_H-M "P 21/C"
_symmetry_group_IT_number 14
_symmetry_cell_setting 'monoclinic'
loop_
_space_group_symop_operation_xyz
x,y,z
-x,1/2+y,1/2-z
-x,-y,-z
x,1/2-y,1/2+z
loop_
_atom_site_type_symbol
_atom_site_label
_atom_site_fract_x
_atom_site_fract_y
_atom_site_fract_z
Si Si1 0.599055 0.054479 0.182813
Si Si2 0.344346 0.313439 0.983223
Si Si3 0.232507 0.017704 0.364326
Si Si4 0.599651 0.079630 0.835014
Si Si5 0.963392 0.642124 0.203697
Si Si6 0.490072 0.252405 0.739507
Si Si7 0.160223 0.513142 0.182097
Si Si8 0.893693 0.685363 0.879520
O O1 0.545529 0.150621 0.222857
O O2 0.716504 0.033922 0.258900
O O3 0.508108 0.977975 0.215800
O O4 0.617996 0.055160 0.005941
O O5 0.323233 0.415790 0.939110
O O6 0.376715 0.262236 0.834156
O O7 0.448717 0.292163 0.087396
O O8 0.228228 0.285573 0.058126
O O9 0.295596 0.948631 0.262637
O O10 0.166226 0.977079 0.502858
O O11 0.146967 0.080916 0.275918
O O12 0.571677 0.182995 0.817331
O O13 0.947836 0.734953 0.288294
O O14 0.069944 0.582453 0.243486
O O15 0.963211 0.663669 0.027827
O O16 0.125960 0.409081 0.205039
#
# Coordination Sequence:
#
# PCOD9253531 Si02
#       8
#     4   4   4   4   4   4   4   4
#     4  11  25  41  60  97 131 168 205 261 318 370
#     4  10  20  36  63  91 127 158 216 252 301 375
#     4  10  21  39  68  91 118 172 212 259 314 368
#     4  11  24  40  63  91 133 165 211 259 311 378
#     4  10  22  44  67  94 124 158 218 264 310 379
#     4  12  22  39  58  94 131 168 202 255 317 377
#     4  10  23  45  64  91 131 164 214 258 316 385
#     4  10  21  40  70  97 116 172 210 264 315 358
#
# _framework density 19.753086
#
# number of rings (size 3 to 8) (size 9 to 14) (size 15 to 20)
#    0.000    1.750    2.500    4.500    1.750    2.000 
#    6.750    1.250    0.000    0.000    0.000    0.000 
#    0.000    0.000    0.000    0.000    0.000    0.000 
#
# Total GULP energy -178609.196538 kJ/mol
# GULP energy per Si atom -5581.537392 kJ/mol
# Density = 1.970813 g / cm^3
# Si number density = 19.753086 Si / 1000 Ang^3
#
#
#
# Elastic Constant Matrix: (Units=GPa)
#
#
# Indices 1 2 3 4 5 6 
#
# 1 75.7934 49.2431 23.7349 0.0000 -1.7277 0.0000
# 2 49.2431 98.5812 20.8599 0.0000 -18.7616 0.0000
# 3 23.7349 20.8599 34.4123 0.0000 -7.9851 0.0000
# 4 0.0000 0.0000 0.0000 23.9291 0.0000 -7.0044
# 5 -1.7277 -18.7616 -7.9851 0.0000 23.6666 0.0000
# 6 0.0000 0.0000 0.0000 -7.0044 0.0000 35.8647
#
#
#
# Elastic Compliance Matrix: (Units=1/GPa)
#
#
# Indices 1 2 3 4 5 6 
#
# 1 0.024544 -0.011871 -0.012477 0.000000 -0.011829 0.000000
# 2 -0.011871 0.018720 0.000090 0.000000 0.014004 0.000000
# 3 -0.012477 0.000090 0.040594 0.000000 0.012857 0.000000
# 4 0.000000 0.000000 0.000000 0.044324 0.000000 0.008657
# 5 -0.011829 0.014004 0.012857 0.000000 0.056829 0.000000
# 6 0.000000 0.000000 0.000000 0.008657 0.000000 0.029573
#
#
# Mechanical properties :
#
#
# Convention : Reuss Voigt Hill
#
# Bulk Modulus (GPa) = 28.29608 44.05141 36.17374
# Shear Modulus (GPa) = 18.18952 24.35535 21.27243
#
# Velocity S-wave (km/s) = 3.03783 3.51520 3.28520
# Velocity P-wave (km/s) = 5.16339 6.23097 5.72213
#
# Compressibility (1/GPa) = 0.03534059
#
# Stress axis : x y z
#
# Youngs Moduli (GPa) = 40.74268 53.41863 24.63401
#
# Poissons Ratio (x) = 0.63415 0.30737
# Poissons Ratio (y) = 0.48367 -0.00221
# Poissons Ratio (z) = 0.50836 -0.00479
#
# Static dielectric constant tensor:
#      x y z
#    x 1.694650 0.000000 0.008850 
#    y 0.000000 1.678270 0.000000 
#    z 0.008850 0.000000 1.737300 
# 
# From -- ./inp_files/13316.got.cif
#   From: 2010.05.17/outbox.ucp.g08.bks.cvg/sg14_7_cif.got.tgz:13316.got - 2010.06.11 12:31:08.
