data_PCOD9253233
_publ_section_title
;
Structure prediction by ZEFSAII (Michael W. Deem and Ramdas Pophale) SiO2 
 PCOD9253233
Probable space group: P 21/C
;
_chemical_formula_sum "Si O2"
_cell_formula_units_Z 16
_cell_length_a 8.145230
_cell_length_b 16.003127
_cell_length_c 9.417579
_cell_angle_alpha 90.000000
_cell_angle_beta 30.129095
_cell_angle_gamma 90.000000
_cell_volume 616.180477
_symmetry_space_group_name_H-M "P 21/C"
_symmetry_group_IT_number 14
_symmetry_cell_setting 'monoclinic'
loop_
_space_group_symop_operation_xyz
x,y,z
-x,1/2+y,1/2-z
-x,-y,-z
x,1/2-y,1/2+z
loop_
_atom_site_type_symbol
_atom_site_label
_atom_site_fract_x
_atom_site_fract_y
_atom_site_fract_z
Si Si1 0.500215 0.659958 0.139675
Si Si2 0.148039 0.092802 0.894605
Si Si3 0.279565 0.840042 0.360325
Si Si4 0.562750 0.907198 0.894605
O O1 0.761090 0.634738 0.825282
O O2 0.450711 0.750000 0.250000
O O3 0.533395 0.598339 0.248307
O O4 0.151922 0.646875 0.322390
O O5 0.469990 0.098339 0.748307
O O6 0.000000 0.000000 0.000000
O O7 0.911653 0.865262 0.674718
O O8 0.296702 0.853125 0.177610
O O9 0.500000 0.000000 0.000000
#
# Coordination Sequence:
#
# PCOD9253233 Si02
#       4
#     4   4   4   4
#     4  12  25  47  74 106 145 194 246 304 367 438
#     4  12  27  47  73 108 147 192 246 306 368 438
#     4  12  25  47  74 106 145 194 246 304 367 438
#     4  12  27  47  73 108 147 192 246 306 368 438
#
# _framework density 25.966418999999998
#
# number of rings (size 3 to 8) (size 9 to 14) (size 15 to 20)
#    0.000    0.000    0.000   10.500    0.000    4.000 
#    0.000    0.000    0.000    0.000    0.000    0.000 
#    0.000    0.000    0.000    0.000    0.000    0.000 
#
# Total GULP energy -89522.601549 kJ/mol
# GULP energy per Si atom -5595.162597 kJ/mol
# Density = 2.590732 g / cm^3
# Si number density = 25.966419 Si / 1000 Ang^3
#
#
#
# Elastic Constant Matrix: (Units=GPa)
#
#
# Indices 1 2 3 4 5 6 
#
# 1 110.7642 14.1519 21.4752 0.0000 1.0433 0.0000
# 2 14.1519 179.9469 45.1224 0.0000 -3.9006 0.0000
# 3 21.4752 45.1224 159.6395 0.0000 -7.1990 0.0000
# 4 0.0000 0.0000 0.0000 45.8850 0.0000 -0.3706
# 5 1.0433 -3.9006 -7.1990 0.0000 41.5409 0.0000
# 6 0.0000 0.0000 0.0000 -0.3706 0.0000 42.9426
#
#
#
# Elastic Compliance Matrix: (Units=1/GPa)
#
#
# Indices 1 2 3 4 5 6 
#
# 1 0.009313 -0.000455 -0.001145 0.000000 -0.000475 0.000000
# 2 -0.000455 0.006006 -0.001623 0.000000 0.000294 0.000000
# 3 -0.001145 -0.001623 0.006926 0.000000 0.001077 0.000000
# 4 0.000000 0.000000 0.000000 0.021795 0.000000 0.000188
# 5 -0.000475 0.000294 0.001077 0.000000 0.024299 0.000000
# 6 0.000000 0.000000 0.000000 0.000188 0.000000 0.023289
#
#
# Mechanical properties :
#
#
# Convention : Reuss Voigt Hill
#
# Bulk Modulus (GPa) = 63.30478 67.98329 65.64404
# Shear Modulus (GPa) = 48.38342 50.71377 49.54860
#
# Velocity S-wave (km/s) = 4.32129 4.42413 4.37301
# Velocity P-wave (km/s) = 7.02356 7.23431 7.12972
#
# Compressibility (1/GPa) = 0.01579659
#
# Stress axis : x y z
#
# Youngs Moduli (GPa) = 107.37738 166.48874 144.39278
#
# Poissons Ratio (x) = 0.07583 0.16540
# Poissons Ratio (y) = 0.04891 0.23438
# Poissons Ratio (z) = 0.12300 0.27024
#
# Static dielectric constant tensor:
#      x y z
#    x 2.090710 0.000000 0.010930 
#    y 0.000000 2.240180 0.000000 
#    z 0.010930 0.000000 2.003950 
# 
# From -- ./inp_files/9302.got.cif
#   From: 2010.05.17/outbox.cif.g08.bks.cpg/sg14_5_cif.got.tgz:9302.got - 2010.06.03 17:49:19.
