data_PCOD9253420
_publ_section_title
;
Structure prediction by ZEFSAII (Michael W. Deem and Ramdas Pophale) SiO2 
 PCOD9253420
Probable space group: P 21/C
;
_chemical_formula_sum "Si O2"
_cell_formula_units_Z 16
_cell_length_a 11.575774
_cell_length_b 8.012112
_cell_length_c 8.432436
_cell_angle_alpha 90.000000
_cell_angle_beta 51.899188
_cell_angle_gamma 90.000000
_cell_volume 615.437779
_symmetry_space_group_name_H-M "P 21/C"
_symmetry_group_IT_number 14
_symmetry_cell_setting 'monoclinic'
loop_
_space_group_symop_operation_xyz
x,y,z
-x,1/2+y,1/2-z
-x,-y,-z
x,1/2-y,1/2+z
loop_
_atom_site_type_symbol
_atom_site_label
_atom_site_fract_x
_atom_site_fract_y
_atom_site_fract_z
Si Si1 0.227051 0.140959 0.468440
Si Si2 0.538894 0.360016 0.839663
Si Si3 0.715125 0.425515 0.377300
Si Si4 0.019835 0.461471 0.667188
O O1 0.378720 0.194714 0.418219
O O2 0.115945 0.293767 0.582230
O O3 0.141122 0.983534 0.619765
O O4 0.266916 0.079452 0.259081
O O5 0.613687 0.432720 0.618437
O O6 0.644361 0.222346 0.830464
O O7 0.500000 0.500000 0.000000
O O8 0.876350 0.413215 0.318852
O O9 0.000000 0.500000 0.500000
#
# Coordination Sequence:
#
# PCOD9253420 Si02
#       4
#     4   4   4   4
#     4  12  30  55  85 128 173 235 288 361 442 522
#     4  12  30  54  91 126 176 228 288 368 440 528
#     4  12  30  55  87 129 175 228 297 360 441 524
#     4  12  30  53  87 125 180 229 291 362 439 524
#
# _framework density 25.997757
#
# number of rings (size 3 to 8) (size 9 to 14) (size 15 to 20)
#    0.000    0.000    0.000    6.000   24.500    0.000 
#    0.000    0.000    0.000    0.000    0.000    0.000 
#    0.000    0.000    0.000    0.000    0.000    0.000 
#
# Total GULP energy -89637.173764 kJ/mol
# GULP energy per Si atom -5602.323360 kJ/mol
# Density = 2.593859 g / cm^3
# Si number density = 25.997757 Si / 1000 Ang^3
#
#
#
# Elastic Constant Matrix: (Units=GPa)
#
#
# Indices 1 2 3 4 5 6 
#
# 1 224.0208 76.1629 66.3529 0.0000 2.0865 0.0000
# 2 76.1629 131.0528 62.9423 0.0000 1.7824 0.0000
# 3 66.3529 62.9423 218.2857 0.0000 20.7959 0.0000
# 4 0.0000 0.0000 0.0000 41.3657 0.0000 -17.3960
# 5 2.0865 1.7824 20.7959 0.0000 57.3206 0.0000
# 6 0.0000 0.0000 0.0000 -17.3960 0.0000 21.7590
#
#
#
# Elastic Compliance Matrix: (Units=1/GPa)
#
#
# Indices 1 2 3 4 5 6 
#
# 1 0.005715 -0.002879 -0.000928 0.000000 0.000218 0.000000
# 2 -0.002879 0.010332 -0.002158 0.000000 0.000566 0.000000
# 3 -0.000928 -0.002158 0.005672 0.000000 -0.001957 0.000000
# 4 0.000000 0.000000 0.000000 0.036419 0.000000 0.029117
# 5 0.000218 0.000566 -0.001957 0.000000 0.018130 0.000000
# 6 0.000000 0.000000 0.000000 0.029117 0.000000 0.069237
#
#
# Mechanical properties :
#
#
# Convention : Reuss Voigt Hill
#
# Bulk Modulus (GPa) = 102.14804 109.36394 105.75599
# Shear Modulus (GPa) = 31.11396 48.61581 39.86489
#
# Velocity S-wave (km/s) = 3.46322 4.32904 3.92011
# Velocity P-wave (km/s) = 7.44099 8.19423 7.82668
#
# Compressibility (1/GPa) = 0.00978971
#
# Stress axis : x y z
#
# Youngs Moduli (GPa) = 174.96369 96.78249 176.30494
#
# Poissons Ratio (x) = 0.27862 0.16361
# Poissons Ratio (y) = 0.50370 0.38050
# Poissons Ratio (z) = 0.16237 0.20888
#
# Static dielectric constant tensor:
#      x y z
#    x 2.079370 0.000000 -0.017240 
#    y 0.000000 1.795530 0.000000 
#    z -0.017240 0.000000 2.013210 
# 
# From -- ./inp_files/11698.got.cif
#   From: 2010.05.17/outbox.cif.g08.bks.cpg/sg14_6_cif.got.tgz:11698.got - 2010.06.03 17:49:19.
