data_PCOD9253210
_publ_section_title
;
Structure prediction by ZEFSAII (Michael W. Deem and Ramdas Pophale) SiO2 
 PCOD9253210
Probable space group: P 21/C
;
_chemical_formula_sum "Si O2"
_cell_formula_units_Z 16
_cell_length_a 18.266841
_cell_length_b 4.753702
_cell_length_c 8.358635
_cell_angle_alpha 90.000000
_cell_angle_beta 117.050469
_cell_angle_gamma 90.000000
_cell_volume 646.422577
_symmetry_space_group_name_H-M "P 21/C"
_symmetry_group_IT_number 14
_symmetry_cell_setting 'monoclinic'
loop_
_space_group_symop_operation_xyz
x,y,z
-x,1/2+y,1/2-z
-x,-y,-z
x,1/2-y,1/2+z
loop_
_atom_site_type_symbol
_atom_site_label
_atom_site_fract_x
_atom_site_fract_y
_atom_site_fract_z
Si Si1 0.715891 0.646934 0.536041
Si Si2 0.031306 0.836510 0.375253
Si Si3 0.469203 0.342148 0.126338
Si Si4 0.220704 0.661201 0.087434
O O1 0.622508 0.726781 0.478799
O O2 0.763509 0.926546 0.532393
O O3 0.756473 0.487997 0.724762
O O4 0.722761 0.428073 0.395762
O O5 0.978770 0.563973 0.277270
O O6 0.125858 0.751440 0.489161
O O7 0.000000 0.000000 0.500000
O O8 0.474247 0.578334 0.269843
O O9 0.500000 0.500000 0.000000
#
# Coordination Sequence:
#
# PCOD9253210 Si02
#       4
#     4   4   4   4
#     4  12  27  47  73 104 143 190 238 295 361 430
#     4  12  25  44  71 105 142 189 242 298 357 426
#     4  12  27  50  77 109 145 189 240 296 357 429
#     4  12  25  47  71 104 145 190 239 297 361 427
#
# _framework density 24.751608999999998
#
# number of rings (size 3 to 8) (size 9 to 14) (size 15 to 20)
#    0.000    0.000    0.000   10.500    0.000    4.000 
#    0.000    2.500    0.000    0.000    0.000    0.000 
#    0.000    0.000    0.000    0.000    0.000    0.000 
#
# Total GULP energy -89904.047473 kJ/mol
# GULP energy per Si atom -5619.002967 kJ/mol
# Density = 2.469527 g / cm^3
# Si number density = 24.751609 Si / 1000 Ang^3
#
#
#
# Elastic Constant Matrix: (Units=GPa)
#
#
# Indices 1 2 3 4 5 6 
#
# 1 80.0383 1.0015 2.1918 0.0000 1.4677 0.0000
# 2 1.0015 118.8387 4.5421 0.0000 -3.1899 0.0000
# 3 2.1918 4.5421 73.7700 0.0000 4.1117 0.0000
# 4 0.0000 0.0000 0.0000 11.2422 0.0000 -14.9573
# 5 1.4677 -3.1899 4.1117 0.0000 36.6563 0.0000
# 6 0.0000 0.0000 0.0000 -14.9573 0.0000 52.0292
#
#
#
# Elastic Compliance Matrix: (Units=1/GPa)
#
#
# Indices 1 2 3 4 5 6 
#
# 1 0.012513 -0.000105 -0.000339 0.000000 -0.000472 0.000000
# 2 -0.000105 0.008459 -0.000562 0.000000 0.000803 0.000000
# 3 -0.000339 -0.000562 0.013688 0.000000 -0.001571 0.000000
# 4 0.000000 0.000000 0.000000 0.144046 0.000000 0.041410
# 5 -0.000472 0.000803 -0.001571 0.000000 0.027545 0.000000
# 6 0.000000 0.000000 0.000000 0.041410 0.000000 0.031125
#
#
# Mechanical properties :
#
#
# Convention : Reuss Voigt Hill
#
# Bulk Modulus (GPa) = 30.63104 32.01309 31.32206
# Shear Modulus (GPa) = 19.97834 37.64630 28.81232
#
# Velocity S-wave (km/s) = 2.84413 3.90418 3.41553
# Velocity P-wave (km/s) = 4.81536 5.76935 5.31380
#
# Compressibility (1/GPa) = 0.03264663
#
# Stress axis : x y z
#
# Youngs Moduli (GPa) = 79.91512 118.22125 73.05723
#
# Poissons Ratio (x) = 0.01243 0.02477
# Poissons Ratio (y) = 0.00840 0.04109
# Poissons Ratio (z) = 0.02709 0.06650
#
# Static dielectric constant tensor:
#      x y z
#    x 1.867790 0.000000 -0.066450 
#    y 0.000000 1.920220 0.000000 
#    z -0.066450 0.000000 2.004000 
# 
# From -- ./inp_files/17178.got.cif
#   From: 2010.05.17/outbox.cif.g08.bks.cpg/sg14_9_cif.got.tgz:17178.got - 2010.06.03 17:49:19.
