data_PCOD9253174
_publ_section_title
;
Structure prediction by ZEFSAII (Michael W. Deem and Ramdas Pophale) SiO2 
 PCOD9253174
Probable space group: P 21/C
;
_chemical_formula_sum "Si O2"
_cell_formula_units_Z 24
_cell_length_a 13.083830
_cell_length_b 6.913765
_cell_length_c 13.361224
_cell_angle_alpha 90.000000
_cell_angle_beta 121.834580
_cell_angle_gamma 90.000000
_cell_volume 1026.826861
_symmetry_space_group_name_H-M "P 21/C"
_symmetry_group_IT_number 14
_symmetry_cell_setting 'monoclinic'
loop_
_space_group_symop_operation_xyz
x,y,z
-x,1/2+y,1/2-z
-x,-y,-z
x,1/2-y,1/2+z
loop_
_atom_site_type_symbol
_atom_site_label
_atom_site_fract_x
_atom_site_fract_y
_atom_site_fract_z
Si Si1 0.877792 0.004813 0.252902
Si Si2 0.905973 0.178600 0.934990
Si Si3 0.298739 0.177890 0.370162
Si Si4 0.529156 0.902772 0.908359
Si Si5 0.368055 0.577628 0.738560
Si Si6 0.127721 0.649731 0.869149
O O1 0.924911 0.158069 0.359457
O O2 0.820528 0.147951 0.142791
O O3 0.780547 0.841947 0.226700
O O4 0.992489 0.899496 0.263816
O O5 0.775665 0.086864 0.846823
O O6 0.891876 0.311569 0.025076
O O7 0.000000 0.000000 0.000000
O O8 0.365082 0.260079 0.501729
O O9 0.387995 0.085134 0.334374
O O10 0.211131 0.015996 0.369921
O O11 0.418789 0.776594 0.809361
O O12 0.572927 0.032193 0.837992
O O13 0.500000 0.000000 0.000000
#
# Coordination Sequence:
#
# PCOD9253174 Si02
#       6
#     4   4   4   4   4   4
#     4  12  24  48  70 114 156 200 251 313 376 467
#     4  12  27  45  77 116 157 201 254 319 395 462
#     4  12  27  47  79 109 151 209 255 317 391 457
#     4  12  29  51  80 111 151 205 263 323 395 455
#     4  12  28  50  78 113 157 199 269 321 387 469
#     4  12  25  43  74 106 157 198 251 306 385 460
#
# _framework density 23.372975
#
# number of rings (size 3 to 8) (size 9 to 14) (size 15 to 20)
#    0.000    0.000    3.333    6.000    9.333    0.000 
#    0.000    0.000    0.000    0.000    0.000    0.000 
#    0.000    0.000    0.000    0.000    0.000    0.000 
#
# Total GULP energy -134184.584824 kJ/mol
# GULP energy per Si atom -5591.024368 kJ/mol
# Density = 2.331978 g / cm^3
# Si number density = 23.372975 Si / 1000 Ang^3
#
#
#
# Elastic Constant Matrix: (Units=GPa)
#
#
# Indices 1 2 3 4 5 6 
#
# 1 99.8233 52.8684 50.4194 0.0000 -24.2744 0.0000
# 2 52.8684 65.6948 37.3865 0.0000 -17.2954 0.0000
# 3 50.4194 37.3865 102.4797 0.0000 -17.4313 0.0000
# 4 0.0000 0.0000 0.0000 45.3953 0.0000 -0.3687
# 5 -24.2744 -17.2954 -17.4313 0.0000 50.7761 0.0000
# 6 0.0000 0.0000 0.0000 -0.3687 0.0000 50.4779
#
#
#
# Elastic Compliance Matrix: (Units=1/GPa)
#
#
# Indices 1 2 3 4 5 6 
#
# 1 0.019757 -0.012313 -0.004604 0.000000 0.003671 0.000000
# 2 -0.012313 0.027854 -0.003708 0.000000 0.002328 0.000000
# 3 -0.004604 -0.003708 0.013579 0.000000 0.001198 0.000000
# 4 0.000000 0.000000 0.000000 0.022030 0.000000 0.000161
# 5 0.003671 0.002328 0.001198 0.000000 0.022653 0.000000
# 6 0.000000 0.000000 0.000000 0.000161 0.000000 0.019812
#
#
# Mechanical properties :
#
#
# Convention : Reuss Voigt Hill
#
# Bulk Modulus (GPa) = 50.14776 61.03847 55.59311
# Shear Modulus (GPa) = 28.80485 37.81811 33.31148
#
# Velocity S-wave (km/s) = 3.51436 4.02683 3.77930
# Velocity P-wave (km/s) = 6.16196 6.91319 6.54835
#
# Compressibility (1/GPa) = 0.01994107
#
# Stress axis : x y z
#
# Youngs Moduli (GPa) = 50.61517 35.90156 73.64055
#
# Poissons Ratio (x) = 0.44206 0.33903
# Poissons Ratio (y) = 0.62323 0.27303
# Poissons Ratio (z) = 0.23303 0.13311
#
# Static dielectric constant tensor:
#      x y z
#    x 1.890930 0.000000 0.033310 
#    y 0.000000 1.905600 0.000000 
#    z 0.033310 0.000000 1.986230 
# 
# From -- ./inp_files/45988.got.cif
#   From: 2010.05.17/outbox.cif.g08.bks.cpg/sg14_23_cif.got.tgz:45988.got - 2010.06.03 17:49:19.
