data_PCOD9253489
_publ_section_title
;
Structure prediction by ZEFSAII (Michael W. Deem and Ramdas Pophale) SiO2 
 PCOD9253489
Probable space group: P 21/C
;
_chemical_formula_sum "Si O2"
_cell_formula_units_Z 28
_cell_length_a 9.000000
_cell_length_b 18.000000
_cell_length_c 9.000000
_cell_angle_alpha 90.000000
_cell_angle_beta 80.000000
_cell_angle_gamma 90.000000
_cell_volume 1435.849704
_symmetry_space_group_name_H-M "P 21/C"
_symmetry_group_IT_number 14
_symmetry_cell_setting 'monoclinic'
loop_
_space_group_symop_operation_xyz
x,y,z
-x,1/2+y,1/2-z
-x,-y,-z
x,1/2-y,1/2+z
loop_
_atom_site_type_symbol
_atom_site_label
_atom_site_fract_x
_atom_site_fract_y
_atom_site_fract_z
Si Si1 0.417121 0.579063 0.010057
Si Si2 0.094729 0.566040 0.165700
Si Si3 0.131632 0.045457 0.064010
Si Si4 0.393235 0.154003 0.924447
Si Si5 0.974445 0.891166 0.365094
Si Si6 0.662300 0.804113 0.400530
Si Si7 0.287472 0.590743 0.698024
O O1 0.542541 0.642781 0.007810
O O2 0.346708 0.583295 0.856489
O O3 0.500000 0.500000 0.000000
O O4 0.272961 0.583098 0.145151
O O5 0.078439 0.475607 0.166798
O O6 0.976098 0.593491 0.309240
O O7 0.034629 0.598791 0.021739
O O8 0.234655 0.987711 0.139204
O O9 0.256937 0.093679 0.956504
O O10 0.000000 0.000000 0.000000
O O11 0.384662 0.188272 0.762143
O O12 0.565261 0.122860 0.912905
O O13 0.355727 0.220088 0.043564
O O14 0.831440 0.837025 0.385022
O O15 0.122442 0.868850 0.241175
#
# Coordination Sequence:
#
# PCOD9253489 Si02
#       7
#     4   4   4   4   4   4   4
#     4  10  19  35  65  92 122 158 202 259 307 369
#     4   9  18  34  60  96 114 153 205 251 311 358
#     4  11  23  40  64  92 124 162 215 267 316 367
#     4  11  25  43  59  92 127 171 206 256 321 379
#     4   9  17  36  64  88 120 152 201 259 303 362
#     4  11  24  41  62  87 129 166 209 255 315 378
#     4   9  21  40  62  89 123 158 206 261 311 369
#
# _framework density 19.500648000000002
#
# number of rings (size 3 to 8) (size 9 to 14) (size 15 to 20)
#    0.000    2.000    1.429    3.000    4.000    0.000 
#    5.143    4.286    0.000    0.000    0.000    0.000 
#    0.000    0.000    0.000    0.000    0.000    0.000 
#
# Total GULP energy -156045.469388 kJ/mol
# GULP energy per Si atom -5573.052478 kJ/mol
# Density = 1.945626 g / cm^3
# Si number density = 19.500648 Si / 1000 Ang^3
#
#
#
# Elastic Constant Matrix: (Units=GPa)
#
#
# Indices 1 2 3 4 5 6 
#
# 1 161.3215 41.8088 30.4372 0.0000 -33.8590 0.0000
# 2 41.8088 51.1463 15.5575 0.0000 -8.6199 0.0000
# 3 30.4372 15.5575 54.4149 0.0000 -26.3830 0.0000
# 4 0.0000 0.0000 0.0000 29.3808 0.0000 -5.8742
# 5 -33.8590 -8.6199 -26.3830 0.0000 31.2977 0.0000
# 6 0.0000 0.0000 0.0000 -5.8742 0.0000 25.3874
#
#
#
# Elastic Compliance Matrix: (Units=1/GPa)
#
#
# Indices 1 2 3 4 5 6 
#
# 1 0.009744 -0.006685 0.001149 0.000000 0.009668 0.000000
# 2 -0.006685 0.026029 -0.006314 0.000000 -0.005385 0.000000
# 3 0.001149 -0.006314 0.032640 0.000000 0.027018 0.000000
# 4 0.000000 0.000000 0.000000 0.035687 0.000000 0.008257
# 5 0.009668 -0.005385 0.027018 0.000000 0.063703 0.000000
# 6 0.000000 0.000000 0.000000 0.008257 0.000000 0.041300
#
#
# Mechanical properties :
#
#
# Convention : Reuss Voigt Hill
#
# Bulk Modulus (GPa) = 22.36504 49.16550 35.76527
# Shear Modulus (GPa) = 20.18520 29.15180 24.66850
#
# Velocity S-wave (km/s) = 3.22079 3.87061 3.56056
# Velocity P-wave (km/s) = 5.03241 6.72625 5.94001
#
# Compressibility (1/GPa) = 0.04471264
#
# Stress axis : x y z
#
# Youngs Moduli (GPa) = 102.62938 38.41859 30.63768
#
# Poissons Ratio (x) = 0.25682 -0.03519
# Poissons Ratio (y) = 0.68606 0.19344
# Poissons Ratio (z) = -0.11789 0.24256
#
# Static dielectric constant tensor:
#      x y z
#    x 1.687700 0.000000 -0.023480 
#    y 0.000000 1.663070 0.000000 
#    z -0.023480 0.000000 1.769220 
# 
# From -- ./inp_files/9361.got.cif
#   From: 2010.05.17/outbox.ucp.g08.bks.cvg/sg14_5_cif.got.tgz:9361.got - 2010.06.11 12:31:08.
