data_PCOD9253720
_publ_section_title
;
Structure prediction by ZEFSAII (Michael W. Deem and Ramdas Pophale) SiO2 
 PCOD9253720
Probable space group: P 21/C
;
_chemical_formula_sum "Si O2"
_cell_formula_units_Z 32
_cell_length_a 12.000000
_cell_length_b 21.000000
_cell_length_c 12.000000
_cell_angle_alpha 90.000000
_cell_angle_beta 150.000000
_cell_angle_gamma 90.000000
_cell_volume 1512.000000
_symmetry_space_group_name_H-M "P 21/C"
_symmetry_group_IT_number 14
_symmetry_cell_setting 'monoclinic'
loop_
_space_group_symop_operation_xyz
x,y,z
-x,1/2+y,1/2-z
-x,-y,-z
x,1/2-y,1/2+z
loop_
_atom_site_type_symbol
_atom_site_label
_atom_site_fract_x
_atom_site_fract_y
_atom_site_fract_z
Si Si1 0.745526 0.638830 0.509708
Si Si2 0.224790 0.540839 0.682696
Si Si3 0.600917 0.443789 0.924572
Si Si4 0.484333 0.243975 0.573260
Si Si5 0.204449 0.662893 0.516481
Si Si6 0.031801 0.942936 0.436799
Si Si7 0.110195 0.825805 0.672582
Si Si8 0.850672 0.789881 0.886372
O O1 0.530288 0.609804 0.259874
O O2 0.682078 0.702720 0.521950
O O3 0.884396 0.662966 0.520745
O O4 0.850331 0.588807 0.690799
O O5 0.418875 0.495250 0.804869
O O6 0.201112 0.593536 0.567642
O O7 0.000000 0.500000 0.500000
O O8 0.286022 0.570254 0.857240
O O9 0.782824 0.466137 0.991705
O O10 0.687791 0.283169 0.697554
O O11 0.382886 0.205571 0.380725
O O12 0.571380 0.199140 0.748832
O O13 0.155407 0.661055 0.342512
O O14 0.015759 0.697950 0.425995
O O15 0.094540 0.885149 0.574914
O O16 0.000000 0.000000 0.500000
O O17 0.893839 0.780991 0.469872
#
# Coordination Sequence:
#
# PCOD9253720 Si02
#       8
#     4   4   4   4   4   4   4   4
#     4  12  24  45  73  99 141 187 236 298 366 429
#     4  11  25  47  72 104 137 186 238 298 352 420
#     4  11  25  46  73 100 138 185 243 291 353 426
#     4  11  23  44  68 103 136 176 230 290 366 425
#     4  11  25  41  67 101 138 172 228 291 346 421
#     4  12  28  47  70 102 145 196 239 291 359 434
#     4  11  25  43  66 101 139 178 230 288 348 434
#     4  11  23  43  70 101 133 179 226 289 365 419
#
# _framework density 21.164021000000002
#
# number of rings (size 3 to 8) (size 9 to 14) (size 15 to 20)
#    0.000    0.750    2.500    4.500    5.250    4.500 
#    2.250    0.000    0.000    0.000    0.000    0.000 
#    0.000    0.000    0.000    0.000    0.000    0.000 
#
# Total GULP energy -178536.178419 kJ/mol
# GULP energy per Si atom -5579.255576 kJ/mol
# Density = 2.111585 g / cm^3
# Si number density = 21.164021 Si / 1000 Ang^3
#
#
#
# Elastic Constant Matrix: (Units=GPa)
#
#
# Indices 1 2 3 4 5 6 
#
# 1 127.8585 13.4097 38.6285 0.0000 -25.9750 0.0000
# 2 13.4097 61.4613 35.5910 0.0000 -4.6611 0.0000
# 3 38.6285 35.5910 112.7465 0.0000 -31.8654 0.0000
# 4 0.0000 0.0000 0.0000 34.8218 0.0000 -5.0959
# 5 -25.9750 -4.6611 -31.8654 0.0000 50.0197 0.0000
# 6 0.0000 0.0000 0.0000 -5.0959 0.0000 39.6213
#
#
#
# Elastic Compliance Matrix: (Units=1/GPa)
#
#
# Indices 1 2 3 4 5 6 
#
# 1 0.009184 -0.000593 -0.001984 0.000000 0.003450 0.000000
# 2 -0.000593 0.020234 -0.006998 0.000000 -0.002881 0.000000
# 3 -0.001984 -0.006998 0.013760 0.000000 0.007084 0.000000
# 4 0.000000 0.000000 0.000000 0.029269 0.000000 0.003764
# 5 0.003450 -0.002881 0.007084 0.000000 0.026028 0.000000
# 6 0.000000 0.000000 0.000000 0.003764 0.000000 0.025723
#
#
# Mechanical properties :
#
#
# Convention : Reuss Voigt Hill
#
# Bulk Modulus (GPa) = 41.62011 53.03607 47.32809
# Shear Modulus (GPa) = 33.03437 39.18837 36.11137
#
# Velocity S-wave (km/s) = 3.95508 4.30775 4.13517
# Velocity P-wave (km/s) = 6.36907 7.06089 6.72388
#
# Compressibility (1/GPa) = 0.02402685
#
# Stress axis : x y z
#
# Youngs Moduli (GPa) = 108.88930 49.42209 72.67178
#
# Poissons Ratio (x) = 0.02931 0.14420
# Poissons Ratio (y) = 0.06458 0.50858
# Poissons Ratio (z) = 0.21606 0.34587
#
# Static dielectric constant tensor:
#      x y z
#    x 2.376950 0.000000 0.625590 
#    y 0.000000 1.783690 0.000000 
#    z 0.625590 0.000000 2.338440 
# 
# From -- ./inp_files/30755.got.cif
#   From: 2010.05.17/outbox.ucp.g08.bks.cvg/sg14_16_cif.got.tgz:30755.got - 2010.06.11 12:31:08.
