data_PCOD9253114
_publ_section_title
;
Structure prediction by ZEFSAII (Michael W. Deem and Ramdas Pophale) SiO2 
 PCOD9253114
Probable space group: P 21/C
;
_chemical_formula_sum "Si O2"
_cell_formula_units_Z 22
_cell_length_a 5.190239
_cell_length_b 12.094647
_cell_length_c 13.099244
_cell_angle_alpha 90.000000
_cell_angle_beta 95.212727
_cell_angle_gamma 90.000000
_cell_volume 818.892558
_symmetry_space_group_name_H-M "P 21/C"
_symmetry_group_IT_number 14
_symmetry_cell_setting 'monoclinic'
loop_
_space_group_symop_operation_xyz
x,y,z
-x,1/2+y,1/2-z
-x,-y,-z
x,1/2-y,1/2+z
loop_
_atom_site_type_symbol
_atom_site_label
_atom_site_fract_x
_atom_site_fract_y
_atom_site_fract_z
Si Si1 0.830144 0.167300 0.703197
Si Si2 0.741095 0.563062 0.462072
Si Si3 0.278584 0.820350 0.644038
Si Si4 0.193423 0.083025 0.272724
Si Si5 0.300827 0.299799 0.081045
Si Si6 0.000000 0.500000 0.000000
O O1 0.776558 0.194502 0.820863
O O2 0.825847 0.037046 0.674244
O O3 0.588268 0.215870 0.633991
O O4 0.104364 0.207213 0.670581
O O5 0.500000 0.500000 0.500000
O O6 0.723660 0.564271 0.339236
O O7 0.748961 0.693321 0.491464
O O8 0.000000 0.500000 0.500000
O O9 0.579066 0.848389 0.665497
O O10 0.150416 0.881029 0.543368
O O11 0.101049 0.876676 0.726559
O O12 0.249674 0.422795 0.039520
#
# Coordination Sequence:
#
# PCOD9253114 Si02
#       6
#     4   4   4   4   4   2
#     4  12  23  48  72 103 140 199 242 310 382 464
#     4  12  26  47  71 107 144 196 260 315 374 458
#     4  12  25  46  73 103 150 193 254 305 385 453
#     4  12  24  47  72 103 140 200 251 304 381 456
#     4  12  26  47  74 102 152 190 248 313 386 448
#     4  12  28  48  72 120 150 200 260 330 378 460
#
# _framework density 26.865552000000001
#
# number of rings (size 3 to 8) (size 9 to 14) (size 15 to 20)
#    0.000    0.000    7.273    2.182    2.545    2.909 
#    3.273    0.000    0.000    0.000    0.000    0.000 
#    0.000    0.000    0.000    0.000    0.000    0.000 
#
# Total GULP energy -122790.508863 kJ/mol
# GULP energy per Si atom -5581.386767 kJ/mol
# Density = 2.680441 g / cm^3
# Si number density = 26.865552 Si / 1000 Ang^3
#
#
#
# Elastic Constant Matrix: (Units=GPa)
#
#
# Indices 1 2 3 4 5 6 
#
# 1 183.6501 37.4100 37.5276 0.0000 -2.5107 0.0000
# 2 37.4100 145.6985 -10.8833 0.0000 -1.6347 0.0000
# 3 37.5276 -10.8833 71.4165 0.0000 -7.4636 0.0000
# 4 0.0000 0.0000 0.0000 50.3453 0.0000 0.9760
# 5 -2.5107 -1.6347 -7.4636 0.0000 56.2123 0.0000
# 6 0.0000 0.0000 0.0000 0.9760 0.0000 38.8735
#
#
#
# Elastic Compliance Matrix: (Units=1/GPa)
#
#
# Indices 1 2 3 4 5 6 
#
# 1 0.006626 -0.001989 -0.003813 0.000000 -0.000268 0.000000
# 2 -0.001989 0.007546 0.002240 0.000000 0.000428 0.000000
# 3 -0.003813 0.002240 0.016566 0.000000 0.002094 0.000000
# 4 0.000000 0.000000 0.000000 0.019873 0.000000 -0.000499
# 5 -0.000268 0.000428 0.002094 0.000000 0.018068 0.000000
# 6 0.000000 0.000000 0.000000 -0.000499 0.000000 0.025737
#
#
# Mechanical properties :
#
#
# Convention : Reuss Voigt Hill
#
# Bulk Modulus (GPa) = 42.34713 58.76374 50.55544
# Shear Modulus (GPa) = 45.69910 51.53361 48.61635
#
# Velocity S-wave (km/s) = 4.12883 4.38448 4.25857
# Velocity P-wave (km/s) = 6.20697 6.89582 6.56044
#
# Compressibility (1/GPa) = 0.02361435
#
# Stress axis : x y z
#
# Youngs Moduli (GPa) = 150.92574 132.51476 60.36406
#
# Poissons Ratio (x) = 0.26358 0.23016
# Poissons Ratio (y) = 0.30020 -0.13521
# Poissons Ratio (z) = 0.57545 -0.29683
#
# Static dielectric constant tensor:
#      x y z
#    x 1.882480 0.000000 0.192100 
#    y 0.000000 2.208670 0.000000 
#    z 0.192100 0.000000 1.819870 
# 
# From -- ./inp_files/36993.got.cif
#   From: 2010.05.17/outbox.cif.g08.bks.cpg/sg14_19_cif.got.tgz:36993.got - 2010.06.03 17:49:19.
